data_PCOD9428747
_publ_section_title
;
Structure prediction by ZEFSAII (Michael W. Deem and Ramdas Pophale) SiO2 
 PCOD9428747
Probable space group: P B A M
;
_chemical_formula_sum "Si O2"
_cell_formula_units_Z 56
_cell_length_a 21.193364
_cell_length_b 14.689715
_cell_length_c 8.721289
_cell_angle_alpha 90.000000
_cell_angle_beta 90.000000
_cell_angle_gamma 90.000000
_cell_volume 2715.150737
_symmetry_space_group_name_H-M "P B A M"
_symmetry_group_IT_number 55
_symmetry_cell_setting 'orthorhombic'
loop_
_space_group_symop_operation_xyz
x,y,z
-x,-y,z
1/2+x,1/2-y,-z
1/2-x,1/2+y,-z
-x,-y,-z
x,y,-z
1/2-x,1/2+y,z
1/2+x,1/2-y,z
loop_
_atom_site_type_symbol
_atom_site_label
_atom_site_fract_x
_atom_site_fract_y
_atom_site_fract_z
Si Si1 0.096381 0.907053 0.181939
Si Si2 0.467286 0.904702 0.817427
Si Si3 0.671719 0.080046 0.316828
Si Si4 0.010695 0.216652 0.320301
Si Si5 0.230646 0.602559 0.817910
Si Si6 0.620029 0.385989 0.818157
Si Si7 0.288973 0.295151 0.682748
O O1 0.155554 0.863065 0.268437
O O2 0.034842 0.851779 0.230380
O O3 0.092249 0.014057 0.216821
O O4 0.106943 0.899130 0.000000
O O5 0.394565 0.907691 0.766880
O O6 0.499522 0.819386 0.734877
O O7 0.500000 0.000000 0.776542
O O8 0.471819 0.892227 0.000000
O O9 0.662547 0.083814 0.500000
O O10 0.722734 0.157352 0.273275
O O11 0.701027 0.982842 0.269458
O O12 0.999423 0.208219 0.500000
O O13 0.081985 0.187779 0.278128
O O14 0.305602 0.609123 0.786412
O O15 0.202380 0.698599 0.764828
O O16 0.222035 0.589397 0.000000
O O17 0.611649 0.367449 0.000000
O O18 0.289462 0.282247 0.500000
#
# Coordination Sequence:
#
# PCOD9428747 Si02
#       7
#     8   8   8   8   8   8   8
#     4  11  23  42  67  95 129 170 219 269 320 385
#     4  11  26  47  70  94 126 172 224 273 320 385
#     4  11  24  43  68  98 133 169 210 270 329 385
#     4  12  26  42  65  96 132 173 214 268 331 388
#     4  11  23  40  66  96 129 172 217 264 318 384
#     4  10  22  42  67  97 130 172 220 267 318 383
#     4  11  24  41  63  96 133 171 214 268 330 385
#
# _framework density 20.625007
#
# number of rings (size 3 to 8) (size 9 to 14) (size 15 to 20)
#    0.000    1.000    1.429    4.714    2.000    9.143 
#    0.000    0.000    0.000    0.000    0.000    0.000 
#    0.000    0.000    0.000    0.000    0.000    0.000 
#
# Total GULP energy -313536.973884 kJ/mol
# GULP energy per Si atom -5598.874534 kJ/mol
# Density = 2.057806 g / cm^3
# Si number density = 20.625007 Si / 1000 Ang^3
#
#
#
# Elastic Constant Matrix: (Units=GPa)
#
#
# Indices 1 2 3 4 5 6 
#
# 1 40.1047 -12.7238 -6.7749 0.0000 0.0000 0.0000
# 2 -12.7238 72.4592 0.6324 0.0000 0.0000 0.0000
# 3 -6.7749 0.6324 13.2740 0.0000 0.0000 0.0000
# 4 0.0000 0.0000 0.0000 10.7216 0.0000 0.0000
# 5 0.0000 0.0000 0.0000 0.0000 19.8338 0.0000
# 6 0.0000 0.0000 0.0000 0.0000 0.0000 19.7516
#
#
#
# Elastic Compliance Matrix: (Units=1/GPa)
#
#
# Indices 1 2 3 4 5 6 
#
# 1 0.028966 0.004959 0.014547 0.000000 0.000000 0.000000
# 2 0.004959 0.014656 0.001833 0.000000 0.000000 0.000000
# 3 0.014547 0.001833 0.082673 0.000000 0.000000 0.000000
# 4 0.000000 0.000000 0.000000 0.093270 0.000000 0.000000
# 5 0.000000 0.000000 0.000000 0.000000 0.050419 0.000000
# 6 0.000000 0.000000 0.000000 0.000000 0.000000 0.050629
#
#
# Mechanical properties :
#
#
# Convention : Reuss Voigt Hill
#
# Bulk Modulus (GPa) = 5.91808 9.78948 7.85378
# Shear Modulus (GPa) = 14.95857 19.70835 17.33346
#
# Velocity S-wave (km/s) = 2.69599 3.09456 2.90213
# Velocity P-wave (km/s) = 3.54496 4.18630 3.87891
#
# Compressibility (1/GPa) = 0.16897383
#
# Stress axis : x y z
#
# Youngs Moduli (GPa) = 34.52364 68.23263 12.09590
#
# Poissons Ratio (x) = -0.33839 -0.17597
# Poissons Ratio (y) = -0.17122 -0.02217
# Poissons Ratio (z) = -0.50223 -0.12507
#
# Static dielectric constant tensor:
#      x y z
#    x 1.730320 0.000000 0.000000 
#    y 0.000000 1.717280 0.000000 
#    z 0.000000 0.000000 1.683320 
# 
# From -- ./inp_files/8805.got.cif
#   From: 2010.05.17/outbox.cif.g08.bks.cpg/sg55_5_cif.got.tgz:8805.got - 2010.06.03 13:27:54.
