data_PCOD9428400
_publ_section_title
;
Structure prediction by ZEFSAII (Michael W. Deem and Ramdas Pophale) SiO2 
 PCOD9428400
Probable space group: P B A M
;
_chemical_formula_sum "Si O2"
_cell_formula_units_Z 40
_cell_length_a 27.378492
_cell_length_b 9.490056
_cell_length_c 7.246561
_cell_angle_alpha 90.000000
_cell_angle_beta 90.000000
_cell_angle_gamma 90.000000
_cell_volume 1882.826279
_symmetry_space_group_name_H-M "P B A M"
_symmetry_group_IT_number 55
_symmetry_cell_setting 'orthorhombic'
loop_
_space_group_symop_operation_xyz
x,y,z
-x,-y,z
1/2+x,1/2-y,-z
1/2-x,1/2+y,-z
-x,-y,-z
x,y,-z
1/2-x,1/2+y,z
1/2+x,1/2-y,z
loop_
_atom_site_type_symbol
_atom_site_label
_atom_site_fract_x
_atom_site_fract_y
_atom_site_fract_z
Si Si1 0.685458 0.498182 0.500000
Si Si2 0.214696 0.333598 0.500000
Si Si3 0.872486 0.173984 0.221370
Si Si4 0.954069 0.592299 0.223684
Si Si5 0.014935 0.846697 0.775864
Si Si6 0.152204 0.511065 0.221513
O O1 0.730188 0.609293 0.500000
O O2 0.704215 0.335467 0.500000
O O3 0.652375 0.543312 0.675389
O O4 0.189775 0.410406 0.324465
O O5 0.929589 0.190473 0.276853
O O6 0.845535 0.322093 0.264948
O O7 0.871032 0.155051 0.000000
O O8 0.901663 0.539452 0.282090
O O9 0.000000 0.500000 0.282814
O O10 0.971151 0.745502 0.281786
O O11 0.952602 0.584804 0.000000
O O12 0.015629 0.841350 0.000000
O O13 0.000000 0.000000 0.715866
O O14 0.156561 0.497740 0.000000
#
# Coordination Sequence:
#
# PCOD9428400 Si02
#       6
#     4   4   8   8   8   8
#     4  12  28  48  68  90 124 161 206 271 325 378
#     4  12  28  48  68  92 122 160 208 269 329 375
#     4  10  21  41  68  97 129 169 211 256 312 372
#     4   9  15  29  55  90 128 168 208 244 293 361
#     4   9  17  29  53  90 132 171 205 247 300 360
#     4  10  21  40  69  98 128 167 212 257 309 375
#
# _framework density 21.24466
#
# number of rings (size 3 to 8) (size 9 to 14) (size 15 to 20)
#    0.000    2.000    2.000    1.800    2.800    1.600 
#    0.000    2.000    0.000    0.000    0.000    0.000 
#    0.000    0.000    0.000    0.000    0.000    0.000 
#
# Total GULP energy -223333.844625 kJ/mol
# GULP energy per Si atom -5583.346116 kJ/mol
# Density = 2.119631 g / cm^3
# Si number density = 21.244660 Si / 1000 Ang^3
#
#
#
# Elastic Constant Matrix: (Units=GPa)
#
#
# Indices 1 2 3 4 5 6 
#
# 1 67.3236 4.1122 18.0514 0.0000 0.0000 0.0000
# 2 4.1122 118.4057 24.3368 0.0000 0.0000 0.0000
# 3 18.0514 24.3368 107.7322 0.0000 0.0000 0.0000
# 4 0.0000 0.0000 0.0000 40.3858 0.0000 0.0000
# 5 0.0000 0.0000 0.0000 0.0000 24.3288 0.0000
# 6 0.0000 0.0000 0.0000 0.0000 0.0000 37.5231
#
#
#
# Elastic Compliance Matrix: (Units=1/GPa)
#
#
# Indices 1 2 3 4 5 6 
#
# 1 0.015552 -0.000005 -0.002605 0.000000 0.000000 0.000000
# 2 -0.000005 0.008857 -0.002000 0.000000 0.000000 0.000000
# 3 -0.002605 -0.002000 0.010171 0.000000 0.000000 0.000000
# 4 0.000000 0.000000 0.000000 0.024761 0.000000 0.000000
# 5 0.000000 0.000000 0.000000 0.000000 0.041104 0.000000
# 6 0.000000 0.000000 0.000000 0.000000 0.000000 0.026650
#
#
# Mechanical properties :
#
#
# Convention : Reuss Voigt Hill
#
# Bulk Modulus (GPa) = 39.43129 42.94024 41.18576
# Shear Modulus (GPa) = 34.53821 36.91162 35.72491
#
# Velocity S-wave (km/s) = 4.03642 4.17280 4.10517
# Velocity P-wave (km/s) = 6.35015 6.59337 6.47290
#
# Compressibility (1/GPa) = 0.02536057
#
# Stress axis : x y z
#
# Youngs Moduli (GPa) = 64.29896 112.90798 98.32325
#
# Poissons Ratio (x) = 0.00053 0.25612
# Poissons Ratio (y) = 0.00030 0.19664
# Poissons Ratio (z) = 0.16749 0.22581
#
# Static dielectric constant tensor:
#      x y z
#    x 1.786530 0.000000 0.000000 
#    y 0.000000 2.159000 0.000000 
#    z 0.000000 0.000000 1.822580 
# 
# From -- ./inp_files/9316.got.cif
#   From: 2010.05.17/outbox.cif.g08.bks.cpg/sg55_5_cif.got.tgz:9316.got - 2010.06.03 13:27:54.
