data_PCOD9428422
_publ_section_title
;
Structure prediction by ZEFSAII (Michael W. Deem and Ramdas Pophale) SiO2 
 PCOD9428422
Probable space group: P B A M
;
_chemical_formula_sum "Si O2"
_cell_formula_units_Z 64
_cell_length_a 14.136220
_cell_length_b 24.678265
_cell_length_c 9.072873
_cell_angle_alpha 90.000000
_cell_angle_beta 90.000000
_cell_angle_gamma 90.000000
_cell_volume 3165.138733
_symmetry_space_group_name_H-M "P B A M"
_symmetry_group_IT_number 55
_symmetry_cell_setting 'orthorhombic'
loop_
_space_group_symop_operation_xyz
x,y,z
-x,-y,z
1/2+x,1/2-y,-z
1/2-x,1/2+y,-z
-x,-y,-z
x,y,-z
1/2-x,1/2+y,z
1/2+x,1/2-y,z
loop_
_atom_site_type_symbol
_atom_site_label
_atom_site_fract_x
_atom_site_fract_y
_atom_site_fract_z
Si Si1 0.043694 0.241481 0.673412
Si Si2 0.898151 0.474824 0.324601
Si Si3 0.817795 0.377047 0.172650
Si Si4 0.850250 0.248995 0.171607
Si Si5 0.605069 0.365288 0.823843
Si Si6 0.834749 0.675380 0.826849
Si Si7 0.451032 0.441234 0.326992
Si Si8 0.246141 0.443293 0.176126
O O1 0.055829 0.236052 0.500000
O O2 0.100963 0.194970 0.758776
O O3 0.082265 0.299057 0.730342
O O4 0.935641 0.233973 0.722079
O O5 0.885537 0.478001 0.500000
O O6 0.886508 0.413366 0.269759
O O7 0.817190 0.509282 0.243770
O O8 0.000000 0.500000 0.286912
O O9 0.829577 0.312665 0.190767
O O10 0.708246 0.389934 0.209279
O O11 0.833584 0.389366 0.000000
O O12 0.758552 0.212203 0.197478
O O13 0.878858 0.240478 0.000000
O O14 0.521110 0.399140 0.751370
O O15 0.594769 0.363231 0.000000
O O16 0.806847 0.613740 0.795032
O O17 0.860335 0.679807 0.000000
O O18 0.500000 0.500000 0.314978
O O19 0.440998 0.427906 0.500000
O O20 0.349312 0.441799 0.249419
O O21 0.255743 0.449638 0.000000
#
# Coordination Sequence:
#
# PCOD9428422 Si02
#       8
#     8   8   8   8   8   8   8   8
#     4  12  25  38  60  94 129 167 207 255 319 384
#     4  11  26  45  64  90 130 173 212 267 328 379
#     4  10  22  41  68  95 122 163 216 269 314 374
#     4  10  21  41  66  93 127 167 212 262 319 378
#     4  11  22  41  66  94 128 167 214 262 310 375
#     4  10  22  43  66  92 125 165 210 260 314 371
#     4  11  24  41  64  97 133 167 204 256 324 386
#     4  11  24  42  68  96 124 168 220 267 314 377
#
# _framework density 20.220282999999998
#
# number of rings (size 3 to 8) (size 9 to 14) (size 15 to 20)
#    0.000    1.250    1.250    4.125    1.750    8.000 
#    0.000    0.000    0.000    0.000    0.000    0.000 
#    0.000    0.000    0.000    0.000    0.000    0.000 
#
# Total GULP energy -358095.216282 kJ/mol
# GULP energy per Si atom -5595.237754 kJ/mol
# Density = 2.017426 g / cm^3
# Si number density = 20.220283 Si / 1000 Ang^3
#
#
#
# Elastic Constant Matrix: (Units=GPa)
#
#
# Indices 1 2 3 4 5 6 
#
# 1 32.3274 -7.8097 20.0853 0.0000 0.0000 0.0000
# 2 -7.8097 52.2481 16.7200 0.0000 0.0000 0.0000
# 3 20.0853 16.7200 53.7986 0.0000 0.0000 0.0000
# 4 0.0000 0.0000 0.0000 17.7441 0.0000 0.0000
# 5 0.0000 0.0000 0.0000 0.0000 14.6458 0.0000
# 6 0.0000 0.0000 0.0000 0.0000 0.0000 30.9690
#
#
#
# Elastic Compliance Matrix: (Units=1/GPa)
#
#
# Indices 1 2 3 4 5 6 
#
# 1 0.048468 0.014475 -0.022594 0.000000 0.000000 0.000000
# 2 0.014475 0.025576 -0.013353 0.000000 0.000000 0.000000
# 3 -0.022594 -0.013353 0.031173 0.000000 0.000000 0.000000
# 4 0.000000 0.000000 0.000000 0.056357 0.000000 0.000000
# 5 0.000000 0.000000 0.000000 0.000000 0.068279 0.000000
# 6 0.000000 0.000000 0.000000 0.000000 0.000000 0.032290
#
#
# Mechanical properties :
#
#
# Convention : Reuss Voigt Hill
#
# Bulk Modulus (GPa) = 16.05811 21.81836 18.93824
# Shear Modulus (GPa) = 15.34474 19.96370 17.65422
#
# Velocity S-wave (km/s) = 2.75776 3.14556 2.95802
# Velocity P-wave (km/s) = 4.25431 4.89964 4.58834
#
# Compressibility (1/GPa) = 0.06227382
#
# Stress axis : x y z
#
# Youngs Moduli (GPa) = 20.63212 39.09891 32.07908
#
# Poissons Ratio (x) = -0.56596 0.72479
# Poissons Ratio (y) = -0.29865 0.42835
# Poissons Ratio (z) = 0.46616 0.52208
#
# Static dielectric constant tensor:
#      x y z
#    x 1.751340 0.000000 0.000000 
#    y 0.000000 1.727270 0.000000 
#    z 0.000000 0.000000 1.670920 
# 
# From -- ./inp_files/6593.got.cif
#   From: 2010.05.17/outbox.cif.g08.bks.cpg/sg55_4_cif.got.tgz:6593.got - 2010.06.03 13:27:54.
