data_PCOD9428617
_publ_section_title
;
Structure prediction by ZEFSAII (Michael W. Deem and Ramdas Pophale) SiO2 
 PCOD9428617
Probable space group: P B A M
;
_chemical_formula_sum "Si O2"
_cell_formula_units_Z 48
_cell_length_a 19.141171
_cell_length_b 15.293460
_cell_length_c 8.664098
_cell_angle_alpha 90.000000
_cell_angle_beta 90.000000
_cell_angle_gamma 90.000000
_cell_volume 2536.282415
_symmetry_space_group_name_H-M "P B A M"
_symmetry_group_IT_number 55
_symmetry_cell_setting 'orthorhombic'
loop_
_space_group_symop_operation_xyz
x,y,z
-x,-y,z
1/2+x,1/2-y,-z
1/2-x,1/2+y,-z
-x,-y,-z
x,y,-z
1/2-x,1/2+y,z
1/2+x,1/2-y,z
loop_
_atom_site_type_symbol
_atom_site_label
_atom_site_fract_x
_atom_site_fract_y
_atom_site_fract_z
Si Si1 0.241815 0.304242 0.815032
Si Si2 0.414734 0.751922 0.813685
Si Si3 0.935322 0.939624 0.686508
Si Si4 0.523140 0.902780 0.186634
Si Si5 0.674449 0.855467 0.684893
Si Si6 0.282702 0.492272 0.313729
O O1 0.164416 0.273711 0.763501
O O2 0.297703 0.235647 0.750977
O O3 0.258701 0.400835 0.756129
O O4 0.243060 0.303353 0.000000
O O5 0.438603 0.658714 0.749159
O O6 0.466298 0.830204 0.766346
O O7 0.415087 0.747857 0.000000
O O8 0.936213 0.935835 0.500000
O O9 0.861136 0.981445 0.733996
O O10 0.000000 0.000000 0.736859
O O11 0.598282 0.878969 0.253542
O O12 0.500000 0.000000 0.234845
O O13 0.527194 0.902200 0.000000
O O14 0.673571 0.851086 0.500000
O O15 0.729374 0.930903 0.732002
O O16 0.281773 0.485646 0.500000
#
# Coordination Sequence:
#
# PCOD9428617 Si02
#       6
#     8   8   8   8   8   8
#     4  11  23  39  63  91 120 158 201 248 304 361
#     4  10  22  40  62  90 121 159 201 245 302 358
#     4  10  22  40  61  86 119 161 202 247 302 355
#     4  10  22  41  63  89 125 161 200 252 305 361
#     4  11  23  40  62  90 124 160 202 249 301 363
#     4  10  22  40  61  88 122 158 200 250 301 357
#
# _framework density 18.925336999999999
#
# number of rings (size 3 to 8) (size 9 to 14) (size 15 to 20)
#    0.000    1.667    1.667    2.000    2.333    5.333 
#    0.000    0.000    0.000    0.000    0.000    0.000 
#    0.000    0.000    0.000    0.000    0.000    0.000 
#
# Total GULP energy -268310.904507 kJ/mol
# GULP energy per Si atom -5589.810511 kJ/mol
# Density = 1.888226 g / cm^3
# Si number density = 18.925337 Si / 1000 Ang^3
#
#
#
# Elastic Constant Matrix: (Units=GPa)
#
#
# Indices 1 2 3 4 5 6 
#
# 1 104.0823 32.7246 15.1560 0.0000 0.0000 0.0000
# 2 32.7246 130.8167 19.3152 0.0000 0.0000 0.0000
# 3 15.1560 19.3152 9.2545 0.0000 0.0000 0.0000
# 4 0.0000 0.0000 0.0000 37.9224 0.0000 0.0000
# 5 0.0000 0.0000 0.0000 0.0000 27.5866 0.0000
# 6 0.0000 0.0000 0.0000 0.0000 0.0000 42.0466
#
#
#
# Elastic Compliance Matrix: (Units=1/GPa)
#
#
# Indices 1 2 3 4 5 6 
#
# 1 0.012619 -0.000152 -0.020348 0.000000 0.000000 0.000000
# 2 -0.000152 0.011051 -0.022816 0.000000 0.000000 0.000000
# 3 -0.020348 -0.022816 0.188997 0.000000 0.000000 0.000000
# 4 0.000000 0.000000 0.000000 0.026370 0.000000 0.000000
# 5 0.000000 0.000000 0.000000 0.000000 0.036249 0.000000
# 6 0.000000 0.000000 0.000000 0.000000 0.000000 0.023783
#
#
# Mechanical properties :
#
#
# Convention : Reuss Voigt Hill
#
# Bulk Modulus (GPa) = 7.93424 42.06057 24.99741
# Shear Modulus (GPa) = 11.69012 33.30831 22.49921
#
# Velocity S-wave (km/s) = 2.48805 4.19977 3.45170
# Velocity P-wave (km/s) = 3.52921 6.76684 5.39655
#
# Compressibility (1/GPa) = 0.12603595
#
# Stress axis : x y z
#
# Youngs Moduli (GPa) = 79.24820 90.48856 5.29109
#
# Poissons Ratio (x) = 0.01378 0.10766
# Poissons Ratio (y) = 0.01207 0.12072
# Poissons Ratio (z) = 1.61250 2.06455
#
# Static dielectric constant tensor:
#      x y z
#    x 1.636970 0.000000 0.000000 
#    y 0.000000 1.603740 0.000000 
#    z 0.000000 0.000000 1.644310 
# 
# From -- ./inp_files/5570.got.cif
#   From: 2010.05.17/outbox.cif.g08.bks.cpg/sg55_3_cif.got.tgz:5570.got - 2010.06.03 13:27:54.
