data_PCOD9428093
_publ_section_title
;
Structure prediction by ZEFSAII (Michael W. Deem and Ramdas Pophale) SiO2 
 PCOD9428093
Probable space group: P B A M
;
_chemical_formula_sum "Si O2"
_cell_formula_units_Z 56
_cell_length_a 21.635844
_cell_length_b 14.516971
_cell_length_c 9.832336
_cell_angle_alpha 90.000000
_cell_angle_beta 90.000000
_cell_angle_gamma 90.000000
_cell_volume 3088.208130
_symmetry_space_group_name_H-M "P B A M"
_symmetry_group_IT_number 55
_symmetry_cell_setting 'orthorhombic'
loop_
_space_group_symop_operation_xyz
x,y,z
-x,-y,z
1/2+x,1/2-y,-z
1/2-x,1/2+y,-z
-x,-y,-z
x,y,-z
1/2-x,1/2+y,z
1/2+x,1/2-y,z
loop_
_atom_site_type_symbol
_atom_site_label
_atom_site_fract_x
_atom_site_fract_y
_atom_site_fract_z
Si Si1 0.928044 0.481301 0.837418
Si Si2 0.116712 0.689176 0.659358
Si Si3 0.729761 0.678099 0.338306
Si Si4 0.527573 0.636084 0.347158
Si Si5 0.355005 0.497546 0.344886
Si Si6 0.850264 0.664728 0.157566
Si Si7 0.411391 0.639153 0.157812
O O1 0.900833 0.396055 0.753433
O O2 0.888279 0.572799 0.808199
O O3 0.000000 0.500000 0.803530
O O4 0.924984 0.463145 0.000000
O O5 0.120954 0.662154 0.500000
O O6 0.180492 0.741558 0.696773
O O7 0.063641 0.767428 0.668769
O O8 0.741285 0.685129 0.500000
O O9 0.696178 0.579744 0.314919
O O10 0.791850 0.680459 0.253214
O O11 0.500142 0.632847 0.500000
O O12 0.580174 0.558243 0.340300
O O13 0.475925 0.624740 0.234431
O O14 0.345975 0.530705 0.500000
O O15 0.360603 0.579023 0.237704
O O16 0.894058 0.753656 0.167199
O O17 0.830006 0.657183 0.000000
O O18 0.414547 0.612531 0.000000
#
# Coordination Sequence:
#
# PCOD9428093 Si02
#       7
#     8   8   8   8   8   8   8
#     4  10  21  38  58  80 110 148 185 224 275 328
#     4   9  19  36  58  83 108 137 178 225 270 319
#     4   9  20  39  59  79 105 139 179 221 268 322
#     4   9  18  34  55  79 109 140 169 209 262 316
#     4   9  19  36  56  78 106 139 173 212 261 315
#     4  10  23  39  53  75 109 144 179 222 268 317
#     4  11  22  34  51  78 109 140 175 214 258 310
#
# _framework density 18.133493000000001
#
# number of rings (size 3 to 8) (size 9 to 14) (size 15 to 20)
#    0.000    2.429    0.000    3.429    0.000    8.286 
#    0.000    8.571    0.000    0.000    0.000    0.000 
#    0.000    0.000    0.000    0.000    0.000    0.000 
#
# Total GULP energy -312600.435593 kJ/mol
# GULP energy per Si atom -5582.150636 kJ/mol
# Density = 1.809222 g / cm^3
# Si number density = 18.133493 Si / 1000 Ang^3
#
#
#
# Elastic Constant Matrix: (Units=GPa)
#
#
# Indices 1 2 3 4 5 6 
#
# 1 53.8262 -1.0486 20.7770 0.0000 0.0000 0.0000
# 2 -1.0486 87.3162 38.3346 0.0000 0.0000 0.0000
# 3 20.7770 38.3346 58.4766 0.0000 0.0000 0.0000
# 4 0.0000 0.0000 0.0000 31.5034 0.0000 0.0000
# 5 0.0000 0.0000 0.0000 0.0000 23.7920 0.0000
# 6 0.0000 0.0000 0.0000 0.0000 0.0000 6.4655
#
#
#
# Elastic Compliance Matrix: (Units=1/GPa)
#
#
# Indices 1 2 3 4 5 6 
#
# 1 0.023265 0.005488 -0.011864 0.000000 0.000000 0.000000
# 2 0.005488 0.017375 -0.013340 0.000000 0.000000 0.000000
# 3 -0.011864 -0.013340 0.030061 0.000000 0.000000 0.000000
# 4 0.000000 0.000000 0.000000 0.031743 0.000000 0.000000
# 5 0.000000 0.000000 0.000000 0.000000 0.042031 0.000000
# 6 0.000000 0.000000 0.000000 0.000000 0.000000 0.154667
#
#
# Mechanical properties :
#
#
# Convention : Reuss Voigt Hill
#
# Bulk Modulus (GPa) = 31.98040 35.08279 33.53159
# Shear Modulus (GPa) = 14.32676 21.78926 18.05801
#
# Velocity S-wave (km/s) = 2.81387 3.47018 3.15911
# Velocity P-wave (km/s) = 5.31334 5.95358 5.64255
#
# Compressibility (1/GPa) = 0.03126915
#
# Stress axis : x y z
#
# Youngs Moduli (GPa) = 42.98373 57.55269 33.26524
#
# Poissons Ratio (x) = -0.31584 0.39465
# Poissons Ratio (y) = -0.23589 0.44377
# Poissons Ratio (z) = 0.50994 0.76778
#
# Static dielectric constant tensor:
#      x y z
#    x 1.608450 0.000000 0.000000 
#    y 0.000000 1.621930 0.000000 
#    z 0.000000 0.000000 1.605400 
# 
# From -- ./inp_files/8674.got.cif
#   From: 2010.05.17/outbox.cif.g08.bks.cpg/sg55_5_cif.got.tgz:8674.got - 2010.06.03 13:27:54.
