data_PCOD9428786
_publ_section_title
;
Structure prediction by ZEFSAII (Michael W. Deem and Ramdas Pophale) SiO2 
 PCOD9428786
Probable space group: P B A M
;
_chemical_formula_sum "Si O2"
_cell_formula_units_Z 52
_cell_length_a 14.459189
_cell_length_b 8.639631
_cell_length_c 19.685321
_cell_angle_alpha 90.000000
_cell_angle_beta 90.000000
_cell_angle_gamma 90.000000
_cell_volume 2459.130802
_symmetry_space_group_name_H-M "P B A M"
_symmetry_group_IT_number 55
_symmetry_cell_setting 'orthorhombic'
loop_
_space_group_symop_operation_xyz
x,y,z
-x,-y,z
1/2+x,1/2-y,-z
1/2-x,1/2+y,-z
-x,-y,-z
x,y,-z
1/2-x,1/2+y,z
1/2+x,1/2-y,z
loop_
_atom_site_type_symbol
_atom_site_label
_atom_site_fract_x
_atom_site_fract_y
_atom_site_fract_z
Si Si1 0.526155 0.676866 0.179696
Si Si2 0.388819 0.689470 0.500000
Si Si3 0.794089 0.450920 0.298142
Si Si4 0.725558 0.571694 0.846098
Si Si5 0.000000 0.500000 0.260462
Si Si6 0.100625 0.815141 0.500000
Si Si7 0.365861 0.710104 0.920138
Si Si8 0.253765 0.296380 0.388751
O O1 0.500000 0.500000 0.207016
O O2 0.635839 0.678187 0.167946
O O3 0.499251 0.832642 0.221154
O O4 0.468194 0.690568 0.110340
O O5 0.495555 0.737540 0.500000
O O6 0.391254 0.502491 0.500000
O O7 0.333883 0.751806 0.565613
O O8 0.754113 0.496087 0.225333
O O9 0.902608 0.489386 0.299126
O O10 0.751946 0.526085 0.366587
O O11 0.766120 0.276201 0.314214
O O12 0.688881 0.444317 0.898878
O O13 0.811985 0.657432 0.879043
O O14 0.156788 0.761968 0.565987
O O15 0.365546 0.736540 0.000000
#
# Coordination Sequence:
#
# PCOD9428786 Si02
#       8
#     8   4   8   8   4   4   8   8
#     4  10  24  43  67  95 133 181 221 282 344 405
#     4  10  22  45  66  93 134 175 219 272 322 393
#     4  12  25  42  68 100 135 172 225 279 338 406
#     4  11  23  44  66  96 137 175 220 286 343 403
#     4  12  24  44  67  99 140 174 226 284 346 404
#     4  10  22  45  68  93 134 175 221 266 326 397
#     4  11  23  42  67  97 131 178 231 280 343 410
#     4  11  24  43  66 102 130 174 218 277 328 400
#
# _framework density 21.145682000000001
#
# number of rings (size 3 to 8) (size 9 to 14) (size 15 to 20)
#    0.000    1.077    3.077    3.231    4.308    3.385 
#    0.000    1.154    0.000    0.000    0.000    0.000 
#    0.000    0.000    0.000    0.000    0.000    0.000 
#
# Total GULP energy -290190.572043 kJ/mol
# GULP energy per Si atom -5580.587924 kJ/mol
# Density = 2.109755 g / cm^3
# Si number density = 21.145682 Si / 1000 Ang^3
#
#
#
# Elastic Constant Matrix: (Units=GPa)
#
#
# Indices 1 2 3 4 5 6 
#
# 1 129.3374 -1.9226 48.4833 0.0000 0.0000 0.0000
# 2 -1.9226 57.1223 37.4383 0.0000 0.0000 0.0000
# 3 48.4833 37.4383 91.3019 0.0000 0.0000 0.0000
# 4 0.0000 0.0000 0.0000 25.0562 0.0000 0.0000
# 5 0.0000 0.0000 0.0000 0.0000 12.9641 0.0000
# 6 0.0000 0.0000 0.0000 0.0000 0.0000 30.1204
#
#
#
# Elastic Compliance Matrix: (Units=1/GPa)
#
#
# Indices 1 2 3 4 5 6 
#
# 1 0.010845 0.005661 -0.008080 0.000000 0.000000 0.000000
# 2 0.005661 0.026895 -0.014034 0.000000 0.000000 0.000000
# 3 -0.008080 -0.014034 0.020998 0.000000 0.000000 0.000000
# 4 0.000000 0.000000 0.000000 0.039910 0.000000 0.000000
# 5 0.000000 0.000000 0.000000 0.000000 0.077136 0.000000
# 6 0.000000 0.000000 0.000000 0.000000 0.000000 0.033200
#
#
# Mechanical properties :
#
#
# Convention : Reuss Voigt Hill
#
# Bulk Modulus (GPa) = 38.71364 49.52882 44.12123
# Shear Modulus (GPa) = 19.96002 26.54565 23.25284
#
# Velocity S-wave (km/s) = 3.07568 3.54696 3.31969
# Velocity P-wave (km/s) = 5.56425 6.34414 5.96695
#
# Compressibility (1/GPa) = 0.02583069
#
# Stress axis : x y z
#
# Youngs Moduli (GPa) = 92.21114 37.18185 47.62370
#
# Poissons Ratio (x) = -0.21047 0.38479
# Poissons Ratio (y) = -0.52197 0.66836
# Poissons Ratio (z) = 0.74506 0.52181
#
# Static dielectric constant tensor:
#      x y z
#    x 1.736640 0.000000 0.000000 
#    y 0.000000 1.826360 0.000000 
#    z 0.000000 0.000000 1.703840 
# 
# From -- ./inp_files/22947.got.cif
#   From: 2010.05.17/outbox.cif.g08.bks.cpg/sg55_12_cif.got.tgz:22947.got - 2010.06.03 13:27:54.
