data_PCOD9428925
_publ_section_title
;
Structure prediction by ZEFSAII (Michael W. Deem and Ramdas Pophale) SiO2 
 PCOD9428925
Probable space group: P B A M
;
_chemical_formula_sum "Si O2"
_cell_formula_units_Z 58
_cell_length_a 16.929067
_cell_length_b 16.629129
_cell_length_c 9.803283
_cell_angle_alpha 90.000000
_cell_angle_beta 90.000000
_cell_angle_gamma 90.000000
_cell_volume 2759.777478
_symmetry_space_group_name_H-M "P B A M"
_symmetry_group_IT_number 55
_symmetry_cell_setting 'orthorhombic'
loop_
_space_group_symop_operation_xyz
x,y,z
-x,-y,z
1/2+x,1/2-y,-z
1/2-x,1/2+y,-z
-x,-y,-z
x,y,-z
1/2-x,1/2+y,z
1/2+x,1/2-y,z
loop_
_atom_site_type_symbol
_atom_site_label
_atom_site_fract_x
_atom_site_fract_y
_atom_site_fract_z
Si Si1 0.480832 0.905229 0.841099
Si Si2 0.000000 0.000000 0.500000
Si Si3 0.107567 0.144462 0.149230
Si Si4 0.602567 0.805112 0.659646
Si Si5 0.221238 0.229488 0.345052
Si Si6 0.799350 0.023189 0.153530
Si Si7 0.325405 0.910301 0.342351
Si Si8 0.561406 0.623941 0.732126
O O1 0.549351 0.857055 0.761535
O O2 0.402304 0.896628 0.749808
O O3 0.500000 0.000000 0.842528
O O4 0.472305 0.879134 0.000000
O O5 0.039629 0.941681 0.381800
O O6 0.146971 0.200965 0.259767
O O7 0.015630 0.131532 0.173761
O O8 0.152577 0.059648 0.159808
O O9 0.121873 0.178911 0.000000
O O10 0.594914 0.830250 0.500000
O O11 0.694972 0.805991 0.700892
O O12 0.577075 0.711778 0.670014
O O13 0.209078 0.202450 0.500000
O O14 0.221929 0.325947 0.344349
O O15 0.730992 0.026751 0.266116
O O16 0.862998 0.092313 0.185801
O O17 0.766891 0.032924 0.000000
O O18 0.343701 0.931354 0.500000
#
# Coordination Sequence:
#
# PCOD9428925 Si02
#       8
#     8   2   8   8   8   8   8   8
#     4  11  27  49  71  99 136 180 233 287 348 408
#     4  12  24  36  70 104 134 176 220 276 326 410
#     4  11  25  41  61  94 134 172 218 267 327 401
#     4  11  24  44  69  99 135 174 228 284 336 402
#     4  10  24  43  65  97 133 172 220 279 336 396
#     4  11  24  41  64  95 137 176 214 267 333 405
#     4  11  24  44  70  98 130 171 222 279 336 401
#     4  12  23  41  69 100 137 179 221 273 338 405
#
# _framework density 21.016188
#
# number of rings (size 3 to 8) (size 9 to 14) (size 15 to 20)
#    0.000    0.966    3.448    2.069    3.862    7.724 
#    0.000    0.000    0.000    0.000    0.000    0.000 
#    0.000    0.000    0.000    0.000    0.000    0.000 
#
# Total GULP energy -323779.662170 kJ/mol
# GULP energy per Si atom -5582.407968 kJ/mol
# Density = 2.096835 g / cm^3
# Si number density = 21.016188 Si / 1000 Ang^3
#
#
#
# Elastic Constant Matrix: (Units=GPa)
#
#
# Indices 1 2 3 4 5 6 
#
# 1 75.9757 -5.9971 37.3846 0.0000 0.0000 0.0000
# 2 -5.9971 43.9836 15.7361 0.0000 0.0000 0.0000
# 3 37.3846 15.7361 109.5663 0.0000 0.0000 0.0000
# 4 0.0000 0.0000 0.0000 7.3243 0.0000 0.0000
# 5 0.0000 0.0000 0.0000 0.0000 11.9770 0.0000
# 6 0.0000 0.0000 0.0000 0.0000 0.0000 9.7347
#
#
#
# Elastic Compliance Matrix: (Units=1/GPa)
#
#
# Indices 1 2 3 4 5 6 
#
# 1 0.016632 0.004531 -0.006326 0.000000 0.000000 0.000000
# 2 0.004531 0.025202 -0.005165 0.000000 0.000000 0.000000
# 3 -0.006326 -0.005165 0.012027 0.000000 0.000000 0.000000
# 4 0.000000 0.000000 0.000000 0.136531 0.000000 0.000000
# 5 0.000000 0.000000 0.000000 0.000000 0.083493 0.000000
# 6 0.000000 0.000000 0.000000 0.000000 0.000000 0.102725
#
#
# Mechanical properties :
#
#
# Convention : Reuss Voigt Hill
#
# Bulk Modulus (GPa) = 25.03718 35.97475 30.50597
# Shear Modulus (GPa) = 12.38098 17.96734 15.17416
#
# Velocity S-wave (km/s) = 2.42980 2.92709 2.68996
# Velocity P-wave (km/s) = 4.45096 5.34589 4.91882
#
# Compressibility (1/GPa) = 0.03994059
#
# Stress axis : x y z
#
# Youngs Moduli (GPa) = 60.12346 39.68000 83.14507
#
# Poissons Ratio (x) = -0.17979 0.52596
# Poissons Ratio (y) = -0.27242 0.42949
# Poissons Ratio (z) = 0.38033 0.20497
#
# Static dielectric constant tensor:
#      x y z
#    x 1.731600 0.000000 0.000000 
#    y 0.000000 1.756150 0.000000 
#    z 0.000000 0.000000 1.739960 
# 
# From -- ./inp_files/7709.got.cif
#   From: 2010.05.17/outbox.cif.g08.bks.cpg/sg55_4_cif.got.tgz:7709.got - 2010.06.03 13:27:54.
