data_PCOD9428476
_publ_section_title
;
Structure prediction by ZEFSAII (Michael W. Deem and Ramdas Pophale) SiO2 
 PCOD9428476
Probable space group: P B A M
;
_chemical_formula_sum "Si O2"
_cell_formula_units_Z 52
_cell_length_a 8.193144
_cell_length_b 13.489517
_cell_length_c 21.836889
_cell_angle_alpha 90.000000
_cell_angle_beta 90.000000
_cell_angle_gamma 90.000000
_cell_volume 2413.446935
_symmetry_space_group_name_H-M "P B A M"
_symmetry_group_IT_number 55
_symmetry_cell_setting 'orthorhombic'
loop_
_space_group_symop_operation_xyz
x,y,z
-x,-y,z
1/2+x,1/2-y,-z
1/2-x,1/2+y,-z
-x,-y,-z
x,y,-z
1/2-x,1/2+y,z
1/2+x,1/2-y,z
loop_
_atom_site_type_symbol
_atom_site_label
_atom_site_fract_x
_atom_site_fract_y
_atom_site_fract_z
Si Si1 0.918524 0.311061 0.000000
Si Si2 0.196679 0.099799 0.768429
Si Si3 0.826245 0.553908 0.674177
Si Si4 0.784175 0.104514 0.000000
Si Si5 0.488079 0.233431 0.723834
Si Si6 0.617387 0.681575 0.407024
Si Si7 0.665746 0.313486 0.500000
Si Si8 0.314145 0.040850 0.898438
O O1 0.909070 0.193632 0.000000
O O2 0.836478 0.360472 0.939874
O O3 0.104599 0.346222 0.000000
O O4 0.346797 0.174735 0.757406
O O5 0.040959 0.168696 0.759472
O O6 0.223509 0.055409 0.834865
O O7 0.216399 0.018975 0.714770
O O8 0.870269 0.651511 0.713757
O O9 0.735583 0.592064 0.613595
O O10 0.000000 0.500000 0.661203
O O11 0.784067 0.035754 0.940617
O O12 0.439929 0.266156 0.655430
O O13 0.462207 0.649414 0.446345
O O14 0.716542 0.761185 0.447191
O O15 0.500000 0.000000 0.888121
#
# Coordination Sequence:
#
# PCOD9428476 Si02
#       8
#     4   8   8   4   8   8   4   8
#     4   9  19  35  66  88 122 185 215 275 330 390
#     4  11  23  38  67  92 133 174 222 272 341 402
#     4  10  22  39  65  96 129 172 205 273 342 388
#     4   9  19  39  64  90 130 175 221 285 336 373
#     4  11  21  41  65  94 129 176 213 272 338 397
#     4  11  20  42  66  99 126 169 220 261 332 389
#     4  10  22  36  74  96 124 174 212 270 314 391
#     4   9  19  38  60  91 130 174 227 269 331 405
#
# _framework density 21.545947000000002
#
# number of rings (size 3 to 8) (size 9 to 14) (size 15 to 20)
#    0.000    1.846    3.077    2.308    0.000    4.308 
#    0.000    3.077    3.385   11.077    0.000    0.000 
#    0.000    0.000    0.000    0.000    0.000    0.000 
#
# Total GULP energy -289656.514831 kJ/mol
# GULP energy per Si atom -5570.317593 kJ/mol
# Density = 2.149691 g / cm^3
# Si number density = 21.545947 Si / 1000 Ang^3
#
#
#
# Elastic Constant Matrix: (Units=GPa)
#
#
# Indices 1 2 3 4 5 6 
#
# 1 28.3336 26.9013 22.1644 0.0000 0.0000 0.0000
# 2 26.9013 83.8556 40.6038 0.0000 0.0000 0.0000
# 3 22.1644 40.6038 121.5538 0.0000 0.0000 0.0000
# 4 0.0000 0.0000 0.0000 -1.0979 0.0000 0.0000
# 5 0.0000 0.0000 0.0000 0.0000 4.9808 0.0000
# 6 0.0000 0.0000 0.0000 0.0000 0.0000 38.0045
#
#
#
# Elastic Compliance Matrix: (Units=1/GPa)
#
#
# Indices 1 2 3 4 5 6 
#
# 1 0.052955 -0.014689 -0.004749 0.000000 0.000000 0.000000
# 2 -0.014689 0.018301 -0.003435 0.000000 0.000000 0.000000
# 3 -0.004749 -0.003435 0.010240 0.000000 0.000000 0.000000
# 4 0.000000 0.000000 0.000000 -0.910868 0.000000 0.000000
# 5 0.000000 0.000000 0.000000 0.000000 0.200772 0.000000
# 6 0.000000 0.000000 0.000000 0.000000 0.000000 0.026313
#
#
# Mechanical properties :
#
#
# Convention : Reuss Voigt Hill
#
# Bulk Modulus (GPa) = 27.97169 45.89800 36.93485
# Shear Modulus (GPa) = -9.18062 17.98238 4.40088
#
# Velocity S-wave (km/s) = -2.06645 2.89209 1.43073
# Velocity P-wave (km/s) = 2.70498 5.70095 4.46194
#
# Compressibility (1/GPa) = 0.03575043
#
# Stress axis : x y z
#
# Youngs Moduli (GPa) = 18.88389 54.64300 97.65460
#
# Poissons Ratio (x) = 0.80263 0.46380
# Poissons Ratio (y) = 0.27738 0.33542
# Poissons Ratio (z) = 0.08969 0.18769
#
# Static dielectric constant tensor:
#      x y z
#    x 1.849630 0.000000 0.000000 
#    y 0.000000 1.819630 0.000000 
#    z 0.000000 0.000000 1.734910 
# 
# From -- ./inp_files/22606.got.cif
#   From: 2010.05.17/outbox.cif.g08.bks.cpg/sg55_12_cif.got.tgz:22606.got - 2010.06.03 13:27:54.
