data_PCOD9428195
_publ_section_title
;
Structure prediction by ZEFSAII (Michael W. Deem and Ramdas Pophale) SiO2 
 PCOD9428195
Probable space group: P B A M
;
_chemical_formula_sum "Si O2"
_cell_formula_units_Z 48
_cell_length_a 27.942895
_cell_length_b 10.337329
_cell_length_c 7.828205
_cell_angle_alpha 90.000000
_cell_angle_beta 90.000000
_cell_angle_gamma 90.000000
_cell_volume 2261.215363
_symmetry_space_group_name_H-M "P B A M"
_symmetry_group_IT_number 55
_symmetry_cell_setting 'orthorhombic'
loop_
_space_group_symop_operation_xyz
x,y,z
-x,-y,z
1/2+x,1/2-y,-z
1/2-x,1/2+y,-z
-x,-y,-z
x,y,-z
1/2-x,1/2+y,z
1/2+x,1/2-y,z
loop_
_atom_site_type_symbol
_atom_site_label
_atom_site_fract_x
_atom_site_fract_y
_atom_site_fract_z
Si Si1 0.960483 0.397595 0.793046
Si Si2 0.282898 0.259465 0.199754
Si Si3 0.175098 0.246325 0.302753
Si Si4 0.538514 0.604903 0.209310
Si Si5 0.643667 0.531856 0.200074
Si Si6 0.352253 0.029570 0.702757
O O1 0.972881 0.251500 0.739845
O O2 0.907101 0.432130 0.734270
O O3 0.000000 0.500000 0.733307
O O4 0.959918 0.400356 0.000000
O O5 0.232453 0.241773 0.290524
O O6 0.313297 0.380669 0.271415
O O7 0.316809 0.134486 0.215774
O O8 0.271598 0.281387 0.000000
O O9 0.160149 0.239696 0.500000
O O10 0.154096 0.119188 0.215525
O O11 0.157774 0.384423 0.232177
O O12 0.500000 0.500000 0.267190
O O13 0.591798 0.569141 0.270297
O O14 0.538658 0.601245 0.000000
O O15 0.642132 0.567222 0.000000
O O16 0.342558 0.030804 0.500000
#
# Coordination Sequence:
#
# PCOD9428195 Si02
#       6
#     8   8   8   8   8   8
#     4  10  21  38  63  92 119 154 201 251 300 352
#     4  11  22  40  64  90 118 152 203 253 299 354
#     4  11  25  40  57  87 123 160 203 242 293 360
#     4   9  18  35  59  90 121 148 189 244 299 351
#     4  10  21  38  62  90 120 155 197 249 300 351
#     4  11  24  41  61  87 125 166 199 243 299 359
#
# _framework density 21.227520999999999
#
# number of rings (size 3 to 8) (size 9 to 14) (size 15 to 20)
#    0.000    1.667    1.667    2.500    2.333    7.000 
#    0.000    0.000    0.000    1.000    0.000    0.000 
#    0.000    0.000    0.000    0.000    0.000    0.000 
#
# Total GULP energy -268343.492558 kJ/mol
# GULP energy per Si atom -5590.489428 kJ/mol
# Density = 2.117921 g / cm^3
# Si number density = 21.227521 Si / 1000 Ang^3
#
#
#
# Elastic Constant Matrix: (Units=GPa)
#
#
# Indices 1 2 3 4 5 6 
#
# 1 88.5837 56.1323 -9.6518 0.0000 0.0000 0.0000
# 2 56.1323 165.6409 -9.3852 0.0000 0.0000 0.0000
# 3 -9.6518 -9.3852 28.0062 0.0000 0.0000 0.0000
# 4 0.0000 0.0000 0.0000 74.4894 0.0000 0.0000
# 5 0.0000 0.0000 0.0000 0.0000 44.0997 0.0000
# 6 0.0000 0.0000 0.0000 0.0000 0.0000 43.5212
#
#
#
# Elastic Compliance Matrix: (Units=1/GPa)
#
#
# Indices 1 2 3 4 5 6 
#
# 1 0.014698 -0.004785 0.003462 0.000000 0.000000 0.000000
# 2 -0.004785 0.007712 0.000935 0.000000 0.000000 0.000000
# 3 0.003462 0.000935 0.037213 0.000000 0.000000 0.000000
# 4 0.000000 0.000000 0.000000 0.013425 0.000000 0.000000
# 5 0.000000 0.000000 0.000000 0.000000 0.022676 0.000000
# 6 0.000000 0.000000 0.000000 0.000000 0.000000 0.022977
#
#
# Mechanical properties :
#
#
# Convention : Reuss Voigt Hill
#
# Bulk Modulus (GPa) = 16.99308 39.60238 28.29773
# Shear Modulus (GPa) = 35.94772 48.76442 42.35607
#
# Velocity S-wave (km/s) = 4.11962 4.79814 4.47177
# Velocity P-wave (km/s) = 5.53633 7.02800 6.32628
#
# Compressibility (1/GPa) = 0.05884748
#
# Stress axis : x y z
#
# Youngs Moduli (GPa) = 68.03736 129.67543 26.87238
#
# Poissons Ratio (x) = 0.62045 -0.09303
# Poissons Ratio (y) = 0.32553 -0.02513
# Poissons Ratio (z) = -0.23554 -0.12129
#
# Static dielectric constant tensor:
#      x y z
#    x 1.711880 0.000000 0.000000 
#    y 0.000000 1.749930 0.000000 
#    z 0.000000 0.000000 1.765220 
# 
# From -- ./inp_files/4069.got.cif
#   From: 2010.05.17/outbox.cif.g08.bks.cpg/sg55_3_cif.got.tgz:4069.got - 2010.06.03 13:27:54.
