data_PCOD9428118
_publ_section_title
;
Structure prediction by ZEFSAII (Michael W. Deem and Ramdas Pophale) SiO2 
 PCOD9428118
Probable space group: P B A M
;
_chemical_formula_sum "Si O2"
_cell_formula_units_Z 48
_cell_length_a 7.816771
_cell_length_b 21.533647
_cell_length_c 13.176411
_cell_angle_alpha 90.000000
_cell_angle_beta 90.000000
_cell_angle_gamma 90.000000
_cell_volume 2217.900768
_symmetry_space_group_name_H-M "P B A M"
_symmetry_group_IT_number 55
_symmetry_cell_setting 'orthorhombic'
loop_
_space_group_symop_operation_xyz
x,y,z
-x,-y,z
1/2+x,1/2-y,-z
1/2-x,1/2+y,-z
-x,-y,-z
x,y,-z
1/2-x,1/2+y,z
1/2+x,1/2-y,z
loop_
_atom_site_type_symbol
_atom_site_label
_atom_site_fract_x
_atom_site_fract_y
_atom_site_fract_z
Si Si1 0.816357 0.965095 0.618123
Si Si2 0.631449 0.277357 0.500000
Si Si3 0.635977 0.083054 0.308110
Si Si4 0.350090 0.714419 0.115618
Si Si5 0.000038 0.152391 0.308303
Si Si6 0.023794 0.347582 0.884471
Si Si7 0.509995 0.850749 0.500000
O O1 0.770198 0.955179 0.500000
O O2 0.858671 0.901437 0.674330
O O3 0.687490 0.011777 0.672986
O O4 0.000000 0.000000 0.615618
O O5 0.532552 0.299604 0.600704
O O6 0.634392 0.203320 0.500000
O O7 0.813559 0.312283 0.500000
O O8 0.556044 0.101140 0.200447
O O9 0.520164 0.108486 0.399830
O O10 0.815215 0.120972 0.315308
O O11 0.466639 0.684292 0.201305
O O12 0.350752 0.788559 0.131074
O O13 0.163766 0.683516 0.124629
O O14 0.412485 0.704210 0.000000
O O15 0.043902 0.370476 0.000000
#
# Coordination Sequence:
#
# PCOD9428118 Si02
#       7
#     8   4   8   8   8   8   4
#     4   9  18  36  59  82 111 149 190 229 277 332
#     4  12  24  37  54  81 115 148 184 228 283 340
#     4  11  21  37  60  84 112 147 189 234 279 332
#     4  10  21  38  59  84 115 150 188 232 283 338
#     4  11  21  37  60  84 112 147 189 234 279 332
#     4  10  21  38  59  84 115 150 188 232 283 338
#     4  12  24  37  54  81 115 148 184 228 283 340
#
# _framework density 21.642085999999999
#
# number of rings (size 3 to 8) (size 9 to 14) (size 15 to 20)
#    0.000    1.500    1.667    4.500    0.000    2.000 
#    0.000    5.000    0.000    5.000    0.000    0.000 
#    0.000    0.000    0.000    0.000    0.000    0.000 
#
# Total GULP energy -268749.270830 kJ/mol
# GULP energy per Si atom -5598.943142 kJ/mol
# Density = 2.159283 g / cm^3
# Si number density = 21.642086 Si / 1000 Ang^3
#
#
#
# Elastic Constant Matrix: (Units=GPa)
#
#
# Indices 1 2 3 4 5 6 
#
# 1 89.5807 -3.1559 35.1639 0.0000 0.0000 0.0000
# 2 -3.1559 65.0124 49.4875 0.0000 0.0000 0.0000
# 3 35.1639 49.4875 148.6914 0.0000 0.0000 0.0000
# 4 0.0000 0.0000 0.0000 38.2795 0.0000 0.0000
# 5 0.0000 0.0000 0.0000 0.0000 12.4459 0.0000
# 6 0.0000 0.0000 0.0000 0.0000 0.0000 33.4214
#
#
#
# Elastic Compliance Matrix: (Units=1/GPa)
#
#
# Indices 1 2 3 4 5 6 
#
# 1 0.013035 0.003990 -0.004411 0.000000 0.000000 0.000000
# 2 0.003990 0.021822 -0.008206 0.000000 0.000000 0.000000
# 3 -0.004411 -0.008206 0.010500 0.000000 0.000000 0.000000
# 4 0.000000 0.000000 0.000000 0.026124 0.000000 0.000000
# 5 0.000000 0.000000 0.000000 0.000000 0.080348 0.000000
# 6 0.000000 0.000000 0.000000 0.000000 0.000000 0.029921
#
#
# Mechanical properties :
#
#
# Convention : Reuss Voigt Hill
#
# Bulk Modulus (GPa) = 35.58349 51.80839 43.69594
# Shear Modulus (GPa) = 23.99568 31.61529 27.80549
#
# Velocity S-wave (km/s) = 3.33340 3.82622 3.58828
# Velocity P-wave (km/s) = 5.59401 6.59626 6.11570
#
# Compressibility (1/GPa) = 0.02810292
#
# Stress axis : x y z
#
# Youngs Moduli (GPa) = 76.71632 45.82500 95.24094
#
# Poissons Ratio (x) = -0.18285 0.42007
# Poissons Ratio (y) = -0.30611 0.78159
# Poissons Ratio (z) = 0.33837 0.37606
#
# Static dielectric constant tensor:
#      x y z
#    x 1.860200 0.000000 0.000000 
#    y 0.000000 1.759450 0.000000 
#    z 0.000000 0.000000 1.730420 
# 
# From -- ./inp_files/12264.got.cif
#   From: 2010.05.17/outbox.cif.g08.bks.cpg/sg55_7_cif.got.tgz:12264.got - 2010.06.03 13:27:54.
