data_PCOD9428823
_publ_section_title
;
Structure prediction by ZEFSAII (Michael W. Deem and Ramdas Pophale) SiO2 
 PCOD9428823
Probable space group: P B A M
;
_chemical_formula_sum "Si O2"
_cell_formula_units_Z 56
_cell_length_a 9.084306
_cell_length_b 14.567442
_cell_length_c 19.170570
_cell_angle_alpha 90.000000
_cell_angle_beta 90.000000
_cell_angle_gamma 90.000000
_cell_volume 2536.939313
_symmetry_space_group_name_H-M "P B A M"
_symmetry_group_IT_number 55
_symmetry_cell_setting 'orthorhombic'
loop_
_space_group_symop_operation_xyz
x,y,z
-x,-y,z
1/2+x,1/2-y,-z
1/2-x,1/2+y,-z
-x,-y,-z
x,y,-z
1/2-x,1/2+y,z
1/2+x,1/2-y,z
loop_
_atom_site_type_symbol
_atom_site_label
_atom_site_fract_x
_atom_site_fract_y
_atom_site_fract_z
Si Si1 0.753715 0.818661 0.080487
Si Si2 0.158263 0.477291 0.782174
Si Si3 0.164391 0.045168 0.419838
Si Si4 0.525058 0.293506 0.660947
Si Si5 0.912689 0.627420 0.918984
Si Si6 0.585297 0.401994 0.204339
Si Si7 0.215354 0.373072 0.654057
O O1 0.581461 0.839846 0.097993
O O2 0.877766 0.867594 0.127325
O O3 0.798156 0.711763 0.086521
O O4 0.771526 0.845544 0.000000
O O5 0.254074 0.566612 0.771018
O O6 0.223898 0.396149 0.736293
O O7 0.000000 0.500000 0.753208
O O8 0.140225 0.446774 0.862407
O O9 0.202899 0.061932 0.500000
O O10 0.139408 0.137937 0.377124
O O11 0.271543 0.969855 0.385468
O O12 0.000000 0.000000 0.417149
O O13 0.531469 0.324143 0.742577
O O14 0.361851 0.316591 0.635138
O O15 0.574925 0.190867 0.645332
O O16 0.911829 0.596522 0.000000
O O17 0.500000 0.500000 0.206048
#
# Coordination Sequence:
#
# PCOD9428823 Si02
#       7
#     8   8   8   8   8   8   8
#     4  10  23  41  59  84 118 160 210 264 320 383
#     4  12  24  39  63  90 121 165 211 267 321 377
#     4   9  19  41  67  93 130 170 208 251 304 368
#     4  11  23  41  64  94 129 168 209 259 313 373
#     4  10  23  41  59  83 118 160 210 264 323 384
#     4  12  23  40  62  87 125 160 209 264 317 382
#     4  11  24  40  65  96 129 167 211 259 314 375
#
# _framework density 22.073844999999999
#
# number of rings (size 3 to 8) (size 9 to 14) (size 15 to 20)
#    0.000    1.286    4.286    1.286    4.000    4.000 
#    0.000    0.000    0.000    3.000    0.000    0.000 
#    0.000    0.000    0.000    0.000    0.000    0.000 
#
# Total GULP energy -312584.187315 kJ/mol
# GULP energy per Si atom -5581.860488 kJ/mol
# Density = 2.202360 g / cm^3
# Si number density = 22.073845 Si / 1000 Ang^3
#
#
#
# Elastic Constant Matrix: (Units=GPa)
#
#
# Indices 1 2 3 4 5 6 
#
# 1 45.7012 -3.9040 0.2021 0.0000 0.0000 0.0000
# 2 -3.9040 38.5119 6.9151 0.0000 0.0000 0.0000
# 3 0.2021 6.9151 78.3642 0.0000 0.0000 0.0000
# 4 0.0000 0.0000 0.0000 0.8702 0.0000 0.0000
# 5 0.0000 0.0000 0.0000 0.0000 13.4011 0.0000
# 6 0.0000 0.0000 0.0000 0.0000 0.0000 40.8449
#
#
#
# Elastic Compliance Matrix: (Units=1/GPa)
#
#
# Indices 1 2 3 4 5 6 
#
# 1 0.022078 0.002284 -0.000259 0.000000 0.000000 0.000000
# 2 0.002284 0.026620 -0.002355 0.000000 0.000000 0.000000
# 3 -0.000259 -0.002355 0.012969 0.000000 0.000000 0.000000
# 4 0.000000 0.000000 0.000000 1.149150 0.000000 0.000000
# 5 0.000000 0.000000 0.000000 0.000000 0.074620 0.000000
# 6 0.000000 0.000000 0.000000 0.000000 0.000000 0.024483
#
#
# Mechanical properties :
#
#
# Convention : Reuss Voigt Hill
#
# Bulk Modulus (GPa) = 16.39092 18.77816 17.58454
# Shear Modulus (GPa) = 3.75681 21.64753 12.70217
#
# Velocity S-wave (km/s) = 1.30600 3.13499 2.40144
# Velocity P-wave (km/s) = 3.11701 4.65077 3.95888
#
# Compressibility (1/GPa) = 0.06100940
#
# Stress axis : x y z
#
# Youngs Moduli (GPa) = 45.29485 37.56513 77.10451
#
# Poissons Ratio (x) = -0.08582 0.01993
# Poissons Ratio (y) = -0.10347 0.18158
# Poissons Ratio (z) = 0.01171 0.08846
#
# Static dielectric constant tensor:
#      x y z
#    x 1.845030 0.000000 0.000000 
#    y 0.000000 1.822440 0.000000 
#    z 0.000000 0.000000 1.834730 
# 
# From -- ./inp_files/22625.got.cif
#   From: 2010.05.17/outbox.cif.g08.bks.cpg/sg55_12_cif.got.tgz:22625.got - 2010.06.03 13:27:54.
