data_PCOD9428380
_publ_section_title
;
Structure prediction by ZEFSAII (Michael W. Deem and Ramdas Pophale) SiO2 
 PCOD9428380
Probable space group: P B A M
;
_chemical_formula_sum "Si O2"
_cell_formula_units_Z 48
_cell_length_a 14.583346
_cell_length_b 20.492927
_cell_length_c 8.768584
_cell_angle_alpha 90.000000
_cell_angle_beta 90.000000
_cell_angle_gamma 90.000000
_cell_volume 2620.539073
_symmetry_space_group_name_H-M "P B A M"
_symmetry_group_IT_number 55
_symmetry_cell_setting 'orthorhombic'
loop_
_space_group_symop_operation_xyz
x,y,z
-x,-y,z
1/2+x,1/2-y,-z
1/2-x,1/2+y,-z
-x,-y,-z
x,y,-z
1/2-x,1/2+y,z
1/2+x,1/2-y,z
loop_
_atom_site_type_symbol
_atom_site_label
_atom_site_fract_x
_atom_site_fract_y
_atom_site_fract_z
Si Si1 0.284446 0.702615 0.817740
Si Si2 0.475184 0.876355 0.182790
Si Si3 0.212018 0.433645 0.680857
Si Si4 0.342867 0.327594 0.817662
Si Si5 0.326971 0.070558 0.817674
Si Si6 0.520954 0.267718 0.680952
O O1 0.223168 0.765966 0.780531
O O2 0.227522 0.637187 0.785009
O O3 0.379708 0.705849 0.729386
O O4 0.302613 0.704718 0.000000
O O5 0.384511 0.904561 0.259880
O O6 0.566147 0.917567 0.220267
O O7 0.490299 0.802433 0.237643
O O8 0.463346 0.876887 0.000000
O O9 0.217641 0.426693 0.500000
O O10 0.292236 0.391916 0.758830
O O11 0.212934 0.508866 0.730472
O O12 0.439958 0.314079 0.739646
O O13 0.353764 0.329438 0.000000
O O14 0.321883 0.058692 0.000000
O O15 0.515606 0.259297 0.500000
#
# Coordination Sequence:
#
# PCOD9428380 Si02
#       6
#     8   8   8   8   8   8
#     4  10  21  40  65  89 117 159 210 250 294 361
#     4  11  21  38  62  89 123 164 208 248 296 364
#     4  12  25  39  58  92 129 161 198 251 313 364
#     4  11  22  41  66  88 118 164 209 249 293 361
#     4  10  22  41  63  88 119 162 208 250 297 361
#     4  12  24  37  60  95 129 156 196 256 313 355
#
# _framework density 18.316842000000001
#
# number of rings (size 3 to 8) (size 9 to 14) (size 15 to 20)
#    0.000    1.000    3.333    4.500    0.000    4.667 
#    0.000    0.833    0.000    5.000    0.000    0.000 
#    0.000    0.000    0.000    0.000    0.000    0.000 
#
# Total GULP energy -268503.471925 kJ/mol
# GULP energy per Si atom -5593.822332 kJ/mol
# Density = 1.827515 g / cm^3
# Si number density = 18.316842 Si / 1000 Ang^3
#
#
#
# Elastic Constant Matrix: (Units=GPa)
#
#
# Indices 1 2 3 4 5 6 
#
# 1 61.1518 -14.9273 17.6652 0.0000 0.0000 0.0000
# 2 -14.9273 30.6572 4.9194 0.0000 0.0000 0.0000
# 3 17.6652 4.9194 38.7168 0.0000 0.0000 0.0000
# 4 0.0000 0.0000 0.0000 6.5314 0.0000 0.0000
# 5 0.0000 0.0000 0.0000 0.0000 -117.8254 0.0000
# 6 0.0000 0.0000 0.0000 0.0000 0.0000 23.1352
#
#
#
# Elastic Compliance Matrix: (Units=1/GPa)
#
#
# Indices 1 2 3 4 5 6 
#
# 1 0.023109 0.013213 -0.012223 0.000000 0.000000 0.000000
# 2 0.013213 0.040853 -0.011220 0.000000 0.000000 0.000000
# 3 -0.012223 -0.011220 0.032831 0.000000 0.000000 0.000000
# 4 0.000000 0.000000 0.000000 0.153108 0.000000 0.000000
# 5 0.000000 0.000000 0.000000 0.000000 -0.008487 0.000000
# 6 0.000000 0.000000 0.000000 0.000000 0.000000 0.043224
#
#
# Mechanical properties :
#
#
# Convention : Reuss Voigt Hill
#
# Bulk Modulus (GPa) = 13.10021 16.20450 14.65235
# Shear Modulus (GPa) = 15.12673 -9.44054 2.84309
#
# Velocity S-wave (km/s) = 2.87686 -2.27271 1.24721
# Velocity P-wave (km/s) = 4.26645 1.40678 3.17660
#
# Compressibility (1/GPa) = 0.07633468
#
# Stress axis : x y z
#
# Youngs Moduli (GPa) = 43.27312 24.47812 30.45895
#
# Poissons Ratio (x) = -0.32344 0.37229
# Poissons Ratio (y) = -0.57178 0.34174
# Poissons Ratio (z) = 0.52892 0.27464
#
# Static dielectric constant tensor:
#      x y z
#    x 1.608620 0.000000 0.000000 
#    y 0.000000 1.612600 0.000000 
#    z 0.000000 0.000000 1.605280 
# 
# From -- ./inp_files/5595.got.cif
#   From: 2010.05.17/outbox.cif.g08.bks.cpg/sg55_3_cif.got.tgz:5595.got - 2010.06.03 13:27:54.
