data_PCOD9428475
_publ_section_title
;
Structure prediction by ZEFSAII (Michael W. Deem and Ramdas Pophale) SiO2 
 PCOD9428475
Probable space group: P B A M
;
_chemical_formula_sum "Si O2"
_cell_formula_units_Z 40
_cell_length_a 7.967661
_cell_length_b 14.513742
_cell_length_c 14.555542
_cell_angle_alpha 90.000000
_cell_angle_beta 90.000000
_cell_angle_gamma 90.000000
_cell_volume 1683.211262
_symmetry_space_group_name_H-M "P B A M"
_symmetry_group_IT_number 55
_symmetry_cell_setting 'orthorhombic'
loop_
_space_group_symop_operation_xyz
x,y,z
-x,-y,z
1/2+x,1/2-y,-z
1/2-x,1/2+y,-z
-x,-y,-z
x,y,-z
1/2-x,1/2+y,z
1/2+x,1/2-y,z
loop_
_atom_site_type_symbol
_atom_site_label
_atom_site_fract_x
_atom_site_fract_y
_atom_site_fract_z
Si Si1 0.385967 0.143882 0.603019
Si Si2 0.855517 0.729348 0.133963
Si Si3 0.351568 0.170431 0.000000
Si Si4 0.000000 0.500000 0.748537
Si Si5 0.031820 0.176659 0.322719
Si Si6 0.848300 0.061197 0.819831
O O1 0.427078 0.114336 0.500000
O O2 0.431229 0.251115 0.616093
O O3 0.189022 0.134803 0.624319
O O4 0.482041 0.086513 0.680673
O O5 0.794765 0.817529 0.078566
O O6 0.896555 0.763708 0.235846
O O7 0.702267 0.655589 0.128886
O O8 0.003762 0.677602 0.080914
O O9 0.171308 0.490633 0.806374
O O10 0.915882 0.098735 0.277972
O O11 0.000000 0.000000 0.858611
#
# Coordination Sequence:
#
# PCOD9428475 Si02
#       6
#     8   8   4   4   8   8
#     4  12  24  41  67 103 142 185 244 302 350 417
#     4  11  21  42  70 103 134 180 236 288 352 421
#     4  10  22  36  70 106 130 170 236 296 342 408
#     4  12  25  44  68 101 146 188 234 291 372 416
#     4  12  22  43  71  99 135 193 243 287 354 431
#     4  12  25  43  71 104 139 190 236 286 352 439
#
# _framework density 23.764101
#
# number of rings (size 3 to 8) (size 9 to 14) (size 15 to 20)
#    0.000    0.400    8.000    0.900    0.000    0.000 
#    0.000    6.000    0.000    3.600    0.000    0.000 
#    0.000    0.000    0.000    0.000    0.000    0.000 
#
# Total GULP energy -222720.993653 kJ/mol
# GULP energy per Si atom -5568.024841 kJ/mol
# Density = 2.371001 g / cm^3
# Si number density = 23.764101 Si / 1000 Ang^3
#
#
#
# Elastic Constant Matrix: (Units=GPa)
#
#
# Indices 1 2 3 4 5 6 
#
# 1 123.1494 23.0735 5.6567 0.0000 0.0000 0.0000
# 2 23.0735 75.1008 4.3586 0.0000 0.0000 0.0000
# 3 5.6567 4.3586 61.7724 0.0000 0.0000 0.0000
# 4 0.0000 0.0000 0.0000 32.9374 0.0000 0.0000
# 5 0.0000 0.0000 0.0000 0.0000 149.4866 0.0000
# 6 0.0000 0.0000 0.0000 0.0000 0.0000 52.6921
#
#
#
# Elastic Compliance Matrix: (Units=1/GPa)
#
#
# Indices 1 2 3 4 5 6 
#
# 1 0.008639 -0.002619 -0.000606 0.000000 0.000000 0.000000
# 2 -0.002619 0.014164 -0.000760 0.000000 0.000000 0.000000
# 3 -0.000606 -0.000760 0.016298 0.000000 0.000000 0.000000
# 4 0.000000 0.000000 0.000000 0.030361 0.000000 0.000000
# 5 0.000000 0.000000 0.000000 0.000000 0.006690 0.000000
# 6 0.000000 0.000000 0.000000 0.000000 0.000000 0.018978
#
#
# Mechanical properties :
#
#
# Convention : Reuss Voigt Hill
#
# Bulk Modulus (GPa) = 32.12245 36.24447 34.18346
# Shear Modulus (GPa) = 44.06239 62.15213 53.10726
#
# Velocity S-wave (km/s) = 4.31066 5.11963 4.73246
# Velocity P-wave (km/s) = 6.19050 7.08748 6.65412
#
# Compressibility (1/GPa) = 0.03113088
#
# Stress axis : x y z
#
# Youngs Moduli (GPa) = 115.75737 70.60074 61.35878
#
# Poissons Ratio (x) = 0.18490 0.03720
# Poissons Ratio (y) = 0.30316 0.04661
# Poissons Ratio (z) = 0.07018 0.05363
#
# Static dielectric constant tensor:
#      x y z
#    x 1.943820 0.000000 0.000000 
#    y 0.000000 1.991910 0.000000 
#    z 0.000000 0.000000 1.847100 
# 
# From -- ./inp_files/17123.got.cif
#   From: 2010.05.17/outbox.cif.g08.bks.cpg/sg55_9_cif.got.tgz:17123.got - 2010.06.03 13:27:54.
