data_PCOD9428074
_publ_section_title
;
Structure prediction by ZEFSAII (Michael W. Deem and Ramdas Pophale) SiO2 
 PCOD9428074
Probable space group: P B A M
;
_chemical_formula_sum "Si O2"
_cell_formula_units_Z 48
_cell_length_a 27.757965
_cell_length_b 10.367022
_cell_length_c 7.759102
_cell_angle_alpha 90.000000
_cell_angle_beta 90.000000
_cell_angle_gamma 90.000000
_cell_volume 2232.816871
_symmetry_space_group_name_H-M "P B A M"
_symmetry_group_IT_number 55
_symmetry_cell_setting 'orthorhombic'
loop_
_space_group_symop_operation_xyz
x,y,z
-x,-y,z
1/2+x,1/2-y,-z
1/2-x,1/2+y,-z
-x,-y,-z
x,y,-z
1/2-x,1/2+y,z
1/2+x,1/2-y,z
loop_
_atom_site_type_symbol
_atom_site_label
_atom_site_fract_x
_atom_site_fract_y
_atom_site_fract_z
Si Si1 0.354045 0.504213 0.790608
Si Si2 0.715430 0.265225 0.702818
Si Si3 0.639713 0.053324 0.300546
Si Si4 0.824771 0.277389 0.198826
Si Si5 0.959463 0.898920 0.211165
Si Si6 0.033072 0.388389 0.200316
O O1 0.312839 0.600900 0.726926
O O2 0.345605 0.357524 0.732531
O O3 0.406056 0.557615 0.736107
O O4 0.352067 0.504706 0.000000
O O5 0.724245 0.243140 0.500000
O O6 0.680518 0.150966 0.768330
O O7 0.767062 0.268481 0.791366
O O8 0.631853 0.088902 0.500000
O O9 0.588855 0.071801 0.208640
O O10 0.657688 0.907008 0.289484
O O11 0.840058 0.289567 0.000000
O O12 0.970922 0.755125 0.274384
O O13 0.958868 0.896734 0.000000
O O14 0.000000 0.000000 0.264525
O O15 0.000000 0.500000 0.279566
O O16 0.018238 0.376460 0.000000
#
# Coordination Sequence:
#
# PCOD9428074 Si02
#       6
#     8   8   8   8   8   8
#     4  10  21  38  62  90 119 155 197 248 301 351
#     4  11  23  40  61  85 119 160 202 242 297 361
#     4  11  24  41  61  87 125 166 200 242 299 360
#     4  11  24  38  60  91 120 153 203 251 295 353
#     4   9  18  34  59  89 120 149 188 244 300 350
#     4  10  21  37  63  92 119 155 201 251 300 352
#
# _framework density 21.497509999999998
#
# number of rings (size 3 to 8) (size 9 to 14) (size 15 to 20)
#    0.000    1.667    1.667    2.500    2.333    6.333 
#    0.000    0.000    0.000    1.000    0.000    0.000 
#    0.000    0.000    0.000    0.000    0.000    0.000 
#
# Total GULP energy -268383.234929 kJ/mol
# GULP energy per Si atom -5591.317394 kJ/mol
# Density = 2.144858 g / cm^3
# Si number density = 21.497510 Si / 1000 Ang^3
#
#
#
# Elastic Constant Matrix: (Units=GPa)
#
#
# Indices 1 2 3 4 5 6 
#
# 1 82.8276 60.5051 -11.4897 0.0000 0.0000 0.0000
# 2 60.5051 179.4507 -7.3491 0.0000 0.0000 0.0000
# 3 -11.4897 -7.3491 34.1229 0.0000 0.0000 0.0000
# 4 0.0000 0.0000 0.0000 -1.0698 0.0000 0.0000
# 5 0.0000 0.0000 0.0000 0.0000 53.0490 0.0000
# 6 0.0000 0.0000 0.0000 0.0000 0.0000 45.9061
#
#
#
# Elastic Compliance Matrix: (Units=1/GPa)
#
#
# Indices 1 2 3 4 5 6 
#
# 1 0.016659 -0.005435 0.004439 0.000000 0.000000 0.000000
# 2 -0.005435 0.007395 -0.000237 0.000000 0.000000 0.000000
# 3 0.004439 -0.000237 0.030749 0.000000 0.000000 0.000000
# 4 0.000000 0.000000 0.000000 -0.934720 0.000000 0.000000
# 5 0.000000 0.000000 0.000000 0.000000 0.018850 0.000000
# 6 0.000000 0.000000 0.000000 0.000000 0.000000 0.021784
#
#
# Mechanical properties :
#
#
# Convention : Reuss Voigt Hill
#
# Bulk Modulus (GPa) = 19.10704 42.19266 30.64985
# Shear Modulus (GPa) = -6.10226 36.55937 15.22856
#
# Velocity S-wave (km/s) = -1.68664 4.12835 2.66444
# Velocity P-wave (km/s) = 2.26149 6.51104 4.87381
#
# Compressibility (1/GPa) = 0.05233672
#
# Stress axis : x y z
#
# Youngs Moduli (GPa) = 60.02597 135.21852 32.52104
#
# Poissons Ratio (x) = 0.73495 -0.14436
# Poissons Ratio (y) = 0.32626 0.00772
# Poissons Ratio (z) = -0.26645 0.03210
#
# Static dielectric constant tensor:
#      x y z
#    x 1.721160 0.000000 0.000000 
#    y 0.000000 1.764500 0.000000 
#    z 0.000000 0.000000 1.791530 
# 
# From -- ./inp_files/4074.got.cif
#   From: 2010.05.17/outbox.cif.g08.bks.cpg/sg55_3_cif.got.tgz:4074.got - 2010.06.03 13:27:54.
