data_PCOD9428977
_publ_section_title
;
Structure prediction by ZEFSAII (Michael W. Deem and Ramdas Pophale) SiO2 
 PCOD9428977
Probable space group: P B A M
;
_chemical_formula_sum "Si O2"
_cell_formula_units_Z 56
_cell_length_a 12.443263
_cell_length_b 18.567905
_cell_length_c 13.959068
_cell_angle_alpha 90.000000
_cell_angle_beta 90.000000
_cell_angle_gamma 90.000000
_cell_volume 3225.177407
_symmetry_space_group_name_H-M "P B A M"
_symmetry_group_IT_number 55
_symmetry_cell_setting 'orthorhombic'
loop_
_space_group_symop_operation_xyz
x,y,z
-x,-y,z
1/2+x,1/2-y,-z
1/2-x,1/2+y,-z
-x,-y,-z
x,y,-z
1/2-x,1/2+y,z
1/2+x,1/2-y,z
loop_
_atom_site_type_symbol
_atom_site_label
_atom_site_fract_x
_atom_site_fract_y
_atom_site_fract_z
Si Si1 0.896948 0.805527 0.702566
Si Si2 0.946766 0.075611 0.385594
Si Si3 0.781816 0.544243 0.303879
Si Si4 0.951732 0.882840 0.110865
Si Si5 0.549656 0.152984 0.387064
Si Si6 0.298782 0.116158 0.387445
Si Si7 0.172989 0.966108 0.111015
O O1 0.916019 0.822807 0.814123
O O2 0.919880 0.725148 0.669223
O O3 0.779275 0.829973 0.668457
O O4 0.979687 0.859529 0.649734
O O5 0.943875 0.074825 0.500000
O O6 0.826566 0.079573 0.346331
O O7 0.000000 0.000000 0.352303
O O8 0.883879 0.587339 0.341909
O O9 0.784745 0.463066 0.343369
O O10 0.764463 0.544643 0.189678
O O11 0.073666 0.910903 0.127596
O O12 0.878074 0.954153 0.124116
O O13 0.943262 0.860811 0.000000
O O14 0.577040 0.160100 0.500000
O O15 0.422613 0.138866 0.380508
O O16 0.268000 0.114270 0.500000
O O17 0.206091 0.959311 0.000000
#
# Coordination Sequence:
#
# PCOD9428977 Si02
#       7
#     8   8   8   8   8   8   8
#     4  12  22  38  59  87 121 151 195 251 305 350
#     4  11  20  31  54  88 115 141 187 250 295 334
#     4  12  21  38  62  85 116 158 204 243 289 351
#     4   9  17  33  58  90 122 149 189 247 308 355
#     4  11  27  42  56  82 123 168 200 234 298 371
#     4  11  23  40  60  83 117 160 204 243 286 360
#     4   9  17  32  59  94 120 145 191 251 305 348
#
# _framework density 17.363385999999998
#
# number of rings (size 3 to 8) (size 9 to 14) (size 15 to 20)
#    0.000    1.286    4.286    3.857    2.000    1.143 
#    0.000    0.714    0.000    4.286    0.000    0.000 
#    0.000    0.000    0.000    0.000    0.000    0.000 
#
# Total GULP energy -312884.996465 kJ/mol
# GULP energy per Si atom -5587.232080 kJ/mol
# Density = 1.732387 g / cm^3
# Si number density = 17.363386 Si / 1000 Ang^3
#
#
#
# Elastic Constant Matrix: (Units=GPa)
#
#
# Indices 1 2 3 4 5 6 
#
# 1 61.0579 11.4034 36.5216 0.0000 0.0000 0.0000
# 2 11.4034 22.6144 22.7790 0.0000 0.0000 0.0000
# 3 36.5216 22.7790 139.0623 0.0000 0.0000 0.0000
# 4 0.0000 0.0000 0.0000 27.7634 0.0000 0.0000
# 5 0.0000 0.0000 0.0000 0.0000 21.3856 0.0000
# 6 0.0000 0.0000 0.0000 0.0000 0.0000 12.9732
#
#
#
# Elastic Compliance Matrix: (Units=1/GPa)
#
#
# Indices 1 2 3 4 5 6 
#
# 1 0.020036 -0.005752 -0.004320 0.000000 0.000000 0.000000
# 2 -0.005752 0.054609 -0.007435 0.000000 0.000000 0.000000
# 3 -0.004320 -0.007435 0.009543 0.000000 0.000000 0.000000
# 4 0.000000 0.000000 0.000000 0.036019 0.000000 0.000000
# 5 0.000000 0.000000 0.000000 0.000000 0.046760 0.000000
# 6 0.000000 0.000000 0.000000 0.000000 0.000000 0.077082
#
#
# Mechanical properties :
#
#
# Convention : Reuss Voigt Hill
#
# Bulk Modulus (GPa) = 20.33535 40.46030 30.39783
# Shear Modulus (GPa) = 16.92313 22.55982 19.74147
#
# Velocity S-wave (km/s) = 3.12532 3.60846 3.37554
# Velocity P-wave (km/s) = 4.97600 6.38075 5.72165
#
# Compressibility (1/GPa) = 0.04917545
#
# Stress axis : x y z
#
# Youngs Moduli (GPa) = 49.91004 18.31207 104.78522
#
# Poissons Ratio (x) = 0.10533 0.45265
# Poissons Ratio (y) = 0.28708 0.77903
# Poissons Ratio (z) = 0.21560 0.13614
#
# Static dielectric constant tensor:
#      x y z
#    x 1.579900 0.000000 0.000000 
#    y 0.000000 1.577890 0.000000 
#    z 0.000000 0.000000 1.605260 
# 
# From -- ./inp_files/18364.got.cif
#   From: 2010.05.17/outbox.cif.g08.bks.cpg/sg55_10_cif.got.tgz:18364.got - 2010.06.03 13:27:54.
