data_PCOD9428546
_publ_section_title
;
Structure prediction by ZEFSAII (Michael W. Deem and Ramdas Pophale) SiO2 
 PCOD9428546
Probable space group: P B A M
;
_chemical_formula_sum "Si O2"
_cell_formula_units_Z 48
_cell_length_a 16.179418
_cell_length_b 9.360628
_cell_length_c 14.588820
_cell_angle_alpha 90.000000
_cell_angle_beta 90.000000
_cell_angle_gamma 90.000000
_cell_volume 2209.469686
_symmetry_space_group_name_H-M "P B A M"
_symmetry_group_IT_number 55
_symmetry_cell_setting 'orthorhombic'
loop_
_space_group_symop_operation_xyz
x,y,z
-x,-y,z
1/2+x,1/2-y,-z
1/2-x,1/2+y,-z
-x,-y,-z
x,y,-z
1/2-x,1/2+y,z
1/2+x,1/2-y,z
loop_
_atom_site_type_symbol
_atom_site_label
_atom_site_fract_x
_atom_site_fract_y
_atom_site_fract_z
Si Si1 0.345022 0.707888 0.799182
Si Si2 0.903291 0.535746 0.303872
Si Si3 0.088179 0.917031 0.500000
Si Si4 0.662400 0.676098 0.000000
Si Si5 0.094766 0.951225 0.697307
Si Si6 0.651448 0.791962 0.191044
Si Si7 0.909124 0.428641 0.500000
Si Si8 0.657644 0.328601 0.000000
O O1 0.388785 0.799687 0.720494
O O2 0.354664 0.544824 0.768525
O O3 0.248222 0.744013 0.801132
O O4 0.380639 0.717794 0.902532
O O5 0.860596 0.455749 0.217920
O O6 0.870698 0.484469 0.403653
O O7 0.000000 0.500000 0.301380
O O8 0.129250 0.962421 0.594861
O O9 0.081386 0.743862 0.500000
O O10 0.000000 0.000000 0.500000
O O11 0.621700 0.737434 0.907545
O O12 0.666300 0.502783 0.000000
O O13 0.752862 0.751116 0.000000
O O14 0.101504 0.790096 0.730661
O O15 0.000000 0.000000 0.699215
O O16 0.000000 0.500000 0.500000
#
# Coordination Sequence:
#
# PCOD9428546 Si02
#       8
#     8   8   4   4   8   8   4   4
#     4  11  24  40  65  94 124 166 209 258 311 372
#     4  11  24  42  65  91 128 165 210 258 312 374
#     4  10  22  38  65  91 124 168 214 249 306 388
#     4  10  22  38  65  90 126 170 208 250 306 388
#     4  11  22  40  64  91 125 162 211 255 309 368
#     4  11  22  42  64  92 125 161 210 256 312 368
#     4  10  22  40  63  89 126 170 210 249 312 386
#     4  10  22  40  63  92 124 168 214 246 312 386
#
# _framework density 21.724668999999999
#
# number of rings (size 3 to 8) (size 9 to 14) (size 15 to 20)
#    0.000    1.333    3.333    2.000   14.000    0.000 
#    0.000   10.000    0.000    0.000    0.000    0.000 
#    0.000    0.000    0.000    0.000    0.000    0.000 
#
# Total GULP energy -267800.665044 kJ/mol
# GULP energy per Si atom -5579.180522 kJ/mol
# Density = 2.167522 g / cm^3
# Si number density = 21.724669 Si / 1000 Ang^3
#
#
#
# Elastic Constant Matrix: (Units=GPa)
#
#
# Indices 1 2 3 4 5 6 
#
# 1 36.8872 -0.7075 15.5187 0.0000 0.0000 0.0000
# 2 -0.7075 65.6817 10.3197 0.0000 0.0000 0.0000
# 3 15.5187 10.3197 152.5852 0.0000 0.0000 0.0000
# 4 0.0000 0.0000 0.0000 36.6829 0.0000 0.0000
# 5 0.0000 0.0000 0.0000 0.0000 17.7758 0.0000
# 6 0.0000 0.0000 0.0000 0.0000 0.0000 38.6454
#
#
#
# Elastic Compliance Matrix: (Units=1/GPa)
#
#
# Indices 1 2 3 4 5 6 
#
# 1 0.028360 0.000767 -0.002936 0.000000 0.000000 0.000000
# 2 0.000767 0.015409 -0.001120 0.000000 0.000000 0.000000
# 3 -0.002936 -0.001120 0.006928 0.000000 0.000000 0.000000
# 4 0.000000 0.000000 0.000000 0.027261 0.000000 0.000000
# 5 0.000000 0.000000 0.000000 0.000000 0.056256 0.000000
# 6 0.000000 0.000000 0.000000 0.000000 0.000000 0.025876
#
#
# Mechanical properties :
#
#
# Convention : Reuss Voigt Hill
#
# Bulk Modulus (GPa) = 22.66656 33.93511 28.30083
# Shear Modulus (GPa) = 27.56716 33.95569 30.76143
#
# Velocity S-wave (km/s) = 3.56607 3.95777 3.76702
# Velocity P-wave (km/s) = 5.23565 6.04481 5.65472
#
# Compressibility (1/GPa) = 0.04411786
#
# Stress axis : x y z
#
# Youngs Moduli (GPa) = 35.26140 64.89630 144.33972
#
# Poissons Ratio (x) = -0.04976 0.42381
# Poissons Ratio (y) = -0.02704 0.16168
# Poissons Ratio (z) = 0.10353 0.07269
#
# Static dielectric constant tensor:
#      x y z
#    x 1.779020 0.000000 0.000000 
#    y 0.000000 1.774060 0.000000 
#    z 0.000000 0.000000 1.835420 
# 
# From -- ./inp_files/19407.got.cif
#   From: 2010.05.17/outbox.cif.g08.bks.cpg/sg55_10_cif.got.tgz:19407.got - 2010.06.03 13:27:54.
