data_PCOD9428853
_publ_section_title
;
Structure prediction by ZEFSAII (Michael W. Deem and Ramdas Pophale) SiO2 
 PCOD9428853
Probable space group: P B A M
;
_chemical_formula_sum "Si O2"
_cell_formula_units_Z 36
_cell_length_a 4.987862
_cell_length_b 18.908879
_cell_length_c 14.182412
_cell_angle_alpha 90.000000
_cell_angle_beta 90.000000
_cell_angle_gamma 90.000000
_cell_volume 1337.612472
_symmetry_space_group_name_H-M "P B A M"
_symmetry_group_IT_number 55
_symmetry_cell_setting 'orthorhombic'
loop_
_space_group_symop_operation_xyz
x,y,z
-x,-y,z
1/2+x,1/2-y,-z
1/2-x,1/2+y,-z
-x,-y,-z
x,y,-z
1/2-x,1/2+y,z
1/2+x,1/2-y,z
loop_
_atom_site_type_symbol
_atom_site_label
_atom_site_fract_x
_atom_site_fract_y
_atom_site_fract_z
Si Si1 0.000000 0.500000 0.266415
Si Si2 0.328547 0.290842 0.113700
Si Si3 0.173720 0.791817 0.385846
Si Si4 0.167341 0.072057 0.105560
Si Si5 0.647402 0.428736 0.386839
O O1 0.875881 0.446976 0.185849
O O2 0.945142 0.439291 0.348739
O O3 0.531986 0.228944 0.145520
O O4 0.466578 0.365264 0.134825
O O5 0.317272 0.289086 0.000000
O O6 0.176410 0.796036 0.500000
O O7 0.974461 0.727578 0.359402
O O8 0.020627 0.861820 0.353808
O O9 0.279548 0.088495 0.000000
O O10 0.000000 0.000000 0.097650
O O11 0.500000 0.500000 0.346854
O O12 0.648375 0.430132 0.500000
#
# Coordination Sequence:
#
# PCOD9428853 Si02
#       5
#     4   8   8   8   8
#     4  12  24  40  64  96 132 168 226 278 330 400
#     4   9  19  37  64  95 129 174 226 277 334 402
#     4   9  19  37  64  95 129 174 226 277 334 402
#     4  10  23  42  67  96 133 178 224 277 341 403
#     4  10  23  42  67  96 133 178 224 277 341 403
#
# _framework density 26.913626000000001
#
# number of rings (size 3 to 8) (size 9 to 14) (size 15 to 20)
#    0.000    2.222    0.000    1.333    6.222    0.000 
#    0.000    2.222    0.000    0.000    0.000    0.000 
#    0.000    0.000    0.000    0.000    0.000    0.000 
#
# Total GULP energy -200715.159228 kJ/mol
# GULP energy per Si atom -5575.421090 kJ/mol
# Density = 2.685237 g / cm^3
# Si number density = 26.913626 Si / 1000 Ang^3
#
#
#
# Elastic Constant Matrix: (Units=GPa)
#
#
# Indices 1 2 3 4 5 6 
#
# 1 84.8481 8.2484 -22.9589 0.0000 0.0000 0.0000
# 2 8.2484 110.4630 -0.5090 0.0000 0.0000 0.0000
# 3 -22.9589 -0.5090 134.0453 0.0000 0.0000 0.0000
# 4 0.0000 0.0000 0.0000 82.8336 0.0000 0.0000
# 5 0.0000 0.0000 0.0000 0.0000 58.3077 0.0000
# 6 0.0000 0.0000 0.0000 0.0000 0.0000 43.6027
#
#
#
# Elastic Compliance Matrix: (Units=1/GPa)
#
#
# Indices 1 2 3 4 5 6 
#
# 1 0.012451 -0.000920 0.002129 0.000000 0.000000 0.000000
# 2 -0.000920 0.009121 -0.000123 0.000000 0.000000 0.000000
# 3 0.002129 -0.000123 0.007824 0.000000 0.000000 0.000000
# 4 0.000000 0.000000 0.000000 0.012072 0.000000 0.000000
# 5 0.000000 0.000000 0.000000 0.000000 0.017150 0.000000
# 6 0.000000 0.000000 0.000000 0.000000 0.000000 0.022934
#
#
# Mechanical properties :
#
#
# Convention : Reuss Voigt Hill
#
# Bulk Modulus (GPa) = 31.67653 33.21307 32.44480
# Shear Modulus (GPa) = 55.61470 59.92052 57.76761
#
# Velocity S-wave (km/s) = 4.55071 4.72359 4.63796
# Velocity P-wave (km/s) = 6.27752 6.48978 6.38453
#
# Compressibility (1/GPa) = 0.03156911
#
# Stress axis : x y z
#
# Youngs Moduli (GPa) = 80.31282 109.63795 127.80583
#
# Poissons Ratio (x) = 0.10086 -0.27212
# Poissons Ratio (y) = 0.07388 0.01571
# Poissons Ratio (z) = -0.17100 0.01348
#
# Static dielectric constant tensor:
#      x y z
#    x 1.934990 0.000000 0.000000 
#    y 0.000000 2.088150 0.000000 
#    z 0.000000 0.000000 2.084590 
# 
# From -- ./inp_files/16495.got.cif
#   From: 2010.05.17/outbox.cif.g08.bks.cpg/sg55_9_cif.got.tgz:16495.got - 2010.06.03 13:27:54.
