data_PCOD9428501
_publ_section_title
;
Structure prediction by ZEFSAII (Michael W. Deem and Ramdas Pophale) SiO2 
 PCOD9428501
Probable space group: P B A M
;
_chemical_formula_sum "Si O2"
_cell_formula_units_Z 38
_cell_length_a 5.205771
_cell_length_b 9.279338
_cell_length_c 27.518013
_cell_angle_alpha 90.000000
_cell_angle_beta 90.000000
_cell_angle_gamma 90.000000
_cell_volume 1329.288126
_symmetry_space_group_name_H-M "P B A M"
_symmetry_group_IT_number 55
_symmetry_cell_setting 'orthorhombic'
loop_
_space_group_symop_operation_xyz
x,y,z
-x,-y,z
1/2+x,1/2-y,-z
1/2-x,1/2+y,-z
-x,-y,-z
x,y,-z
1/2-x,1/2+y,z
1/2+x,1/2-y,z
loop_
_atom_site_type_symbol
_atom_site_label
_atom_site_fract_x
_atom_site_fract_y
_atom_site_fract_z
Si Si1 0.297164 0.652284 0.602502
Si Si2 0.298429 0.152148 0.295060
Si Si3 0.297479 0.152308 0.500000
Si Si4 0.707611 0.347275 0.807374
Si Si5 0.752488 0.850825 0.086769
Si Si6 0.000000 0.500000 0.000000
O O1 0.578297 0.723236 0.602509
O O2 0.249460 0.573958 0.653715
O O3 0.249918 0.574158 0.551246
O O4 0.579231 0.223581 0.295100
O O5 0.252528 0.073608 0.243780
O O6 0.078650 0.276794 0.500000
O O7 0.426469 0.276496 0.807057
O O8 0.746753 0.420677 0.859495
O O9 0.511618 0.741341 0.082638
O O10 0.707199 0.957559 0.042834
#
# Coordination Sequence:
#
# PCOD9428501 Si02
#       6
#     8   8   4   8   8   2
#     4   8  12  16  22  34  52  77 112 151 192 240
#     4   8  12  18  30  46  63  88 123 161 203 251
#     4   8  12  16  20  28  48  76 106 147 192 233
#     4   8  14  26  42  59  82 109 138 179 224 264
#     4  10  22  38  55  78 105 132 166 205 244 291
#     4  12  24  38  60  80 104 138 168 200 248 292
#
# _framework density 28.586728000000001
#
# number of rings (size 3 to 8) (size 9 to 14) (size 15 to 20)
#    0.000    3.368    0.000    0.632    0.000    1.684 
#    0.000    0.000    0.000    0.000    0.000    0.000 
#    0.000    0.000    0.000    0.000    0.000    1.053 
#
# Total GULP energy -212323.263851 kJ/mol
# GULP energy per Si atom -5587.454312 kJ/mol
# Density = 2.852166 g / cm^3
# Si number density = 28.586728 Si / 1000 Ang^3
#
#
#
# Elastic Constant Matrix: (Units=GPa)
#
#
# Indices 1 2 3 4 5 6 
#
# 1 249.8656 83.7545 2.2086 0.0000 0.0000 0.0000
# 2 83.7545 61.5815 52.9770 0.0000 0.0000 0.0000
# 3 2.2086 52.9770 361.4937 0.0000 0.0000 0.0000
# 4 0.0000 0.0000 0.0000 -6.5076 0.0000 0.0000
# 5 0.0000 0.0000 0.0000 0.0000 37.2043 0.0000
# 6 0.0000 0.0000 0.0000 0.0000 0.0000 78.3218
#
#
#
# Elastic Compliance Matrix: (Units=1/GPa)
#
#
# Indices 1 2 3 4 5 6 
#
# 1 0.008298 -0.012864 0.001834 0.000000 0.000000 0.000000
# 2 -0.012864 0.038523 -0.005567 0.000000 0.000000 0.000000
# 3 0.001834 -0.005567 0.003571 0.000000 0.000000 0.000000
# 4 0.000000 0.000000 0.000000 -0.153666 0.000000 0.000000
# 5 0.000000 0.000000 0.000000 0.000000 0.026879 0.000000
# 6 0.000000 0.000000 0.000000 0.000000 0.000000 0.012768
#
#
# Mechanical properties :
#
#
# Convention : Reuss Voigt Hill
#
# Bulk Modulus (GPa) = 58.14109 105.64677 81.89393
# Shear Modulus (GPa) = -202.40932 57.40374 -72.50279
#
# Velocity S-wave (km/s) = -8.42372 4.48599 -5.04157
# Velocity P-wave (km/s) = 8.61565 7.99181 2.27601
#
# Compressibility (1/GPa) = 0.01719954
#
# Stress axis : x y z
#
# Youngs Moduli (GPa) = 120.51349 25.95838 280.03852
#
# Poissons Ratio (x) = 0.33392 -0.51373
# Poissons Ratio (y) = 1.55025 1.55897
# Poissons Ratio (z) = -0.22108 0.14451
#
# Static dielectric constant tensor:
#      x y z
#    x 2.162920 0.000000 0.000000 
#    y 0.000000 2.099670 0.000000 
#    z 0.000000 0.000000 2.248160 
# 
# From -- ./inp_files/23754.got.cif
#   From: 2010.05.17/outbox.cif.g08.bks.cpg/sg55_12_cif.got.tgz:23754.got - 2010.06.03 13:27:54.
