data_PCOD9428670
_publ_section_title
;
Structure prediction by ZEFSAII (Michael W. Deem and Ramdas Pophale) SiO2 
 PCOD9428670
Probable space group: P B A M
;
_chemical_formula_sum "Si O2"
_cell_formula_units_Z 64
_cell_length_a 12.232368
_cell_length_b 14.266350
_cell_length_c 16.795915
_cell_angle_alpha 90.000000
_cell_angle_beta 90.000000
_cell_angle_gamma 90.000000
_cell_volume 2931.076008
_symmetry_space_group_name_H-M "P B A M"
_symmetry_group_IT_number 55
_symmetry_cell_setting 'orthorhombic'
loop_
_space_group_symop_operation_xyz
x,y,z
-x,-y,z
1/2+x,1/2-y,-z
1/2-x,1/2+y,-z
-x,-y,-z
x,y,-z
1/2-x,1/2+y,z
1/2+x,1/2-y,z
loop_
_atom_site_type_symbol
_atom_site_label
_atom_site_fract_x
_atom_site_fract_y
_atom_site_fract_z
Si Si1 0.555247 0.595785 0.157884
Si Si2 0.261494 0.947059 0.732120
Si Si3 0.028897 0.108407 0.589937
Si Si4 0.787075 0.183431 0.587872
Si Si5 0.617654 0.293587 0.914428
Si Si6 0.667776 0.780266 0.847622
Si Si7 0.453734 0.900739 0.142486
Si Si8 0.726189 0.340402 0.691020
O O1 0.500000 0.500000 0.125425
O O2 0.639849 0.566424 0.227661
O O3 0.445020 0.658712 0.159550
O O4 0.630471 0.678649 0.119936
O O5 0.267770 0.883326 0.653624
O O6 0.361874 0.924526 0.791509
O O7 0.267044 0.055862 0.709333
O O8 0.078203 0.114032 0.500000
O O9 0.102175 0.148142 0.660827
O O10 0.914165 0.159539 0.587891
O O11 0.000000 0.000000 0.604569
O O12 0.741376 0.167683 0.500000
O O13 0.778250 0.289842 0.615389
O O14 0.743825 0.321443 0.907617
O O15 0.602701 0.181348 0.909665
O O16 0.573062 0.325853 0.000000
O O17 0.563830 0.845332 0.831584
O O18 0.736588 0.775881 0.765457
O O19 0.500000 0.000000 0.109287
#
# Coordination Sequence:
#
# PCOD9428670 Si02
#       8
#     8   8   8   8   8   8   8   8
#     4  11  25  44  73 106 137 183 238 295 346 409
#     4  12  24  43  71 103 139 185 239 298 347 420
#     4  10  22  40  65  97 135 179 234 291 353 419
#     4  11  25  42  64 101 141 185 236 295 362 420
#     4  11  26  47  75 108 146 180 225 287 354 424
#     4  11  24  44  71 103 139 179 234 286 352 415
#     4  11  24  46  71 105 142 184 236 280 345 423
#     4  12  23  39  69  99 133 182 230 298 343 413
#
# _framework density 21.834985
#
# number of rings (size 3 to 8) (size 9 to 14) (size 15 to 20)
#    0.000    0.875    5.000    1.125    3.500    5.000 
#    0.000    1.250    0.000    1.125    0.000    0.000 
#    0.000    0.000    0.000    0.000    0.000    0.000 
#
# Total GULP energy -356337.101654 kJ/mol
# GULP energy per Si atom -5567.767213 kJ/mol
# Density = 2.178529 g / cm^3
# Si number density = 21.834985 Si / 1000 Ang^3
#
#
#
# Elastic Constant Matrix: (Units=GPa)
#
#
# Indices 1 2 3 4 5 6 
#
# 1 106.3711 38.1027 39.3412 0.0000 0.0000 0.0000
# 2 38.1027 124.0428 24.3300 0.0000 0.0000 0.0000
# 3 39.3412 24.3300 91.3967 0.0000 0.0000 0.0000
# 4 0.0000 0.0000 0.0000 8.0145 0.0000 0.0000
# 5 0.0000 0.0000 0.0000 0.0000 16.9124 0.0000
# 6 0.0000 0.0000 0.0000 0.0000 0.0000 32.7709
#
#
#
# Elastic Compliance Matrix: (Units=1/GPa)
#
#
# Indices 1 2 3 4 5 6 
#
# 1 0.012056 -0.002833 -0.004435 0.000000 0.000000 0.000000
# 2 -0.002833 0.009172 -0.001222 0.000000 0.000000 0.000000
# 3 -0.004435 -0.001222 0.013176 0.000000 0.000000 0.000000
# 4 0.000000 0.000000 0.000000 0.124774 0.000000 0.000000
# 5 0.000000 0.000000 0.000000 0.000000 0.059128 0.000000
# 6 0.000000 0.000000 0.000000 0.000000 0.000000 0.030515
#
#
# Mechanical properties :
#
#
# Convention : Reuss Voigt Hill
#
# Bulk Modulus (GPa) = 57.39694 58.37317 57.88505
# Shear Modulus (GPa) = 18.40873 26.20868 22.30870
#
# Velocity S-wave (km/s) = 2.90674 3.46830 3.19986
# Velocity P-wave (km/s) = 6.13264 6.54451 6.34192
#
# Compressibility (1/GPa) = 0.01742253
#
# Stress axis : x y z
#
# Youngs Moduli (GPa) = 82.94334 109.03032 75.89703
#
# Poissons Ratio (x) = 0.30893 0.33663
# Poissons Ratio (y) = 0.23502 0.09274
# Poissons Ratio (z) = 0.36788 0.13322
#
# Static dielectric constant tensor:
#      x y z
#    x 1.794630 0.000000 0.000000 
#    y 0.000000 1.931250 0.000000 
#    z 0.000000 0.000000 1.864400 
# 
# From -- ./inp_files/21352.got.cif
#   From: 2010.05.17/outbox.cif.g08.bks.cpg/sg55_11_cif.got.tgz:21352.got - 2010.06.03 13:27:54.
