data_PCOD9428084
_publ_section_title
;
Structure prediction by ZEFSAII (Michael W. Deem and Ramdas Pophale) SiO2 
 PCOD9428084
Probable space group: P B A M
;
_chemical_formula_sum "Si O2"
_cell_formula_units_Z 56
_cell_length_a 5.360553
_cell_length_b 16.592226
_cell_length_c 26.954816
_cell_angle_alpha 90.000000
_cell_angle_beta 90.000000
_cell_angle_gamma 90.000000
_cell_volume 2397.455862
_symmetry_space_group_name_H-M "P B A M"
_symmetry_group_IT_number 55
_symmetry_cell_setting 'orthorhombic'
loop_
_space_group_symop_operation_xyz
x,y,z
-x,-y,z
1/2+x,1/2-y,-z
1/2-x,1/2+y,-z
-x,-y,-z
x,y,-z
1/2-x,1/2+y,z
1/2+x,1/2-y,z
loop_
_atom_site_type_symbol
_atom_site_label
_atom_site_fract_x
_atom_site_fract_y
_atom_site_fract_z
Si Si1 0.249276 0.021944 0.687678
Si Si2 0.675705 0.300997 0.940858
Si Si3 0.607566 0.221307 0.558048
Si Si4 0.669972 0.796195 0.200299
Si Si5 0.681096 0.794807 0.320160
Si Si6 0.749928 0.446664 0.865796
Si Si7 0.751078 0.043036 0.421715
O O1 0.256539 0.112834 0.668326
O O2 0.500000 0.000000 0.715875
O O3 0.247731 0.966201 0.638245
O O4 0.000000 0.000000 0.716251
O O5 0.414128 0.256176 0.929288
O O6 0.706239 0.384045 0.911123
O O7 0.679465 0.315855 0.000000
O O8 0.569950 0.240152 0.500000
O O9 0.323829 0.219223 0.577783
O O10 0.735310 0.135131 0.563752
O O11 0.406922 0.757742 0.184045
O O12 0.674491 0.795667 0.259959
O O13 0.705860 0.885884 0.180171
O O14 0.407110 0.764184 0.334849
O O15 0.500000 0.500000 0.859762
O O16 0.000000 0.500000 0.872825
O O17 0.500000 0.000000 0.439505
O O18 0.000000 0.000000 0.439947
#
# Coordination Sequence:
#
# PCOD9428084 Si02
#       7
#     8   8   8   8   8   8   8
#     4  10  21  38  56  81 116 148 182 225 279 334
#     4  10  21  39  61  81 109 155 199 232 276 339
#     4  10  21  38  60  85 113 147 189 234 275 323
#     4  10  21  39  60  81 111 150 189 229 278 340
#     4  10  21  38  61  85 109 145 191 235 277 328
#     4  12  24  36  56  88 119 147 184 236 293 336
#     4  10  21  38  56  83 115 148 184 223 278 332
#
# _framework density 23.358094999999999
#
# number of rings (size 3 to 8) (size 9 to 14) (size 15 to 20)
#    0.000    1.714    0.000    4.286    0.000    2.286 
#    0.000   17.143    0.000    0.000    0.000    0.000 
#    0.000    0.000    0.000    0.000    0.000    0.000 
#
# Total GULP energy -313443.182301 kJ/mol
# GULP energy per Si atom -5597.199684 kJ/mol
# Density = 2.330493 g / cm^3
# Si number density = 23.358095 Si / 1000 Ang^3
#
#
#
# Elastic Constant Matrix: (Units=GPa)
#
#
# Indices 1 2 3 4 5 6 
#
# 1 242.2039 83.2253 22.1022 0.0000 0.0000 0.0000
# 2 83.2253 126.9374 -2.6468 0.0000 0.0000 0.0000
# 3 22.1022 -2.6468 53.4038 0.0000 0.0000 0.0000
# 4 0.0000 0.0000 0.0000 24.5422 0.0000 0.0000
# 5 0.0000 0.0000 0.0000 0.0000 25.4173 0.0000
# 6 0.0000 0.0000 0.0000 0.0000 0.0000 49.5757
#
#
#
# Elastic Compliance Matrix: (Units=1/GPa)
#
#
# Indices 1 2 3 4 5 6 
#
# 1 0.005650 -0.003757 -0.002525 0.000000 0.000000 0.000000
# 2 -0.003757 0.010384 0.002070 0.000000 0.000000 0.000000
# 3 -0.002525 0.002070 0.019873 0.000000 0.000000 0.000000
# 4 0.000000 0.000000 0.000000 0.040746 0.000000 0.000000
# 5 0.000000 0.000000 0.000000 0.000000 0.039343 0.000000
# 6 0.000000 0.000000 0.000000 0.000000 0.000000 0.020171
#
#
# Mechanical properties :
#
#
# Convention : Reuss Voigt Hill
#
# Bulk Modulus (GPa) = 36.38614 69.76738 53.07676
# Shear Modulus (GPa) = 32.51970 41.23135 36.87552
#
# Velocity S-wave (km/s) = 3.73530 4.20597 3.97760
# Velocity P-wave (km/s) = 5.84933 7.31576 6.62325
#
# Compressibility (1/GPa) = 0.02748299
#
# Stress axis : x y z
#
# Youngs Moduli (GPa) = 176.98678 96.29863 50.32029
#
# Poissons Ratio (x) = 0.36180 0.12704
# Poissons Ratio (y) = 0.66496 -0.10414
# Poissons Ratio (z) = 0.44683 -0.19930
#
# Static dielectric constant tensor:
#      x y z
#    x 2.023470 0.000000 0.000000 
#    y 0.000000 1.844120 0.000000 
#    z 0.000000 0.000000 1.917200 
# 
# From -- ./inp_files/24067.got.cif
#   From: 2010.05.17/outbox.cif.g08.bks.cpg/sg55_13_cif.got.tgz:24067.got - 2010.06.03 13:27:54.
