data_PCOD9428716
_publ_section_title
;
Structure prediction by ZEFSAII (Michael W. Deem and Ramdas Pophale) SiO2 
 PCOD9428716
Probable space group: P B A M
;
_chemical_formula_sum "Si O2"
_cell_formula_units_Z 48
_cell_length_a 25.529638
_cell_length_b 8.084702
_cell_length_c 9.657785
_cell_angle_alpha 90.000000
_cell_angle_beta 90.000000
_cell_angle_gamma 90.000000
_cell_volume 1993.362144
_symmetry_space_group_name_H-M "P B A M"
_symmetry_group_IT_number 55
_symmetry_cell_setting 'orthorhombic'
loop_
_space_group_symop_operation_xyz
x,y,z
-x,-y,z
1/2+x,1/2-y,-z
1/2-x,1/2+y,-z
-x,-y,-z
x,y,-z
1/2-x,1/2+y,z
1/2+x,1/2-y,z
loop_
_atom_site_type_symbol
_atom_site_label
_atom_site_fract_x
_atom_site_fract_y
_atom_site_fract_z
Si Si1 0.733627 0.762116 0.164329
Si Si2 0.308568 0.926873 0.341613
Si Si3 0.939752 0.546757 0.000000
Si Si4 0.438992 0.556958 0.000000
Si Si5 0.863532 0.060302 0.243503
Si Si6 0.016981 0.738416 0.500000
Si Si7 0.911836 0.923419 0.500000
Si Si8 0.409641 0.088311 0.707639
O O1 0.711224 0.910846 0.257430
O O2 0.787851 0.713681 0.238277
O O3 0.693395 0.605098 0.182111
O O4 0.737297 0.798861 0.000000
O O5 0.287600 0.914160 0.500000
O O6 0.370741 0.951477 0.352024
O O7 0.915815 0.463293 0.134705
O O8 0.000000 0.500000 0.000000
O O9 0.935223 0.744479 0.000000
O O10 0.500000 0.500000 0.000000
O O11 0.406827 0.487208 0.129974
O O12 0.880177 0.237660 0.304191
O O13 0.873633 0.934498 0.368431
O O14 0.036751 0.632656 0.369077
O O15 0.956005 0.782021 0.500000
O O16 0.050084 0.911569 0.500000
#
# Coordination Sequence:
#
# PCOD9428716 Si02
#       8
#     8   8   4   4   8   4   4   8
#     4  11  24  42  68 100 139 182 232 290 354 424
#     4  11  24  43  72 101 138 188 234 287 354 426
#     4  12  28  42  65  98 137 178 221 276 345 416
#     4  12  26  44  67  94 129 176 225 282 337 408
#     4  10  22  41  67  98 129 170 230 277 346 411
#     4   9  18  38  65  97 131 171 226 275 343 413
#     4   9  20  32  66 100 125 172 222 283 333 409
#     4  10  22  43  69  97 135 174 226 284 349 419
#
# _framework density 24.079920000000001
#
# number of rings (size 3 to 8) (size 9 to 14) (size 15 to 20)
#    0.000    1.500    1.667    2.500   16.333    1.333 
#    0.000    1.250    0.000    0.000    0.000    0.000 
#    0.000    0.000    0.000    0.000    0.000    0.000 
#
# Total GULP energy -268264.366109 kJ/mol
# GULP energy per Si atom -5588.840961 kJ/mol
# Density = 2.402511 g / cm^3
# Si number density = 24.079920 Si / 1000 Ang^3
#
#
#
# Elastic Constant Matrix: (Units=GPa)
#
#
# Indices 1 2 3 4 5 6 
#
# 1 78.4561 7.4461 18.4301 0.0000 0.0000 0.0000
# 2 7.4461 66.9496 -7.9705 0.0000 0.0000 0.0000
# 3 18.4301 -7.9705 174.3319 0.0000 0.0000 0.0000
# 4 0.0000 0.0000 0.0000 34.4352 0.0000 0.0000
# 5 0.0000 0.0000 0.0000 0.0000 80.4378 0.0000
# 6 0.0000 0.0000 0.0000 0.0000 0.0000 41.3891
#
#
#
# Elastic Compliance Matrix: (Units=1/GPa)
#
#
# Indices 1 2 3 4 5 6 
#
# 1 0.013249 -0.001649 -0.001476 0.000000 0.000000 0.000000
# 2 -0.001649 0.015224 0.000870 0.000000 0.000000 0.000000
# 3 -0.001476 0.000870 0.005932 0.000000 0.000000 0.000000
# 4 0.000000 0.000000 0.000000 0.029040 0.000000 0.000000
# 5 0.000000 0.000000 0.000000 0.000000 0.012432 0.000000
# 6 0.000000 0.000000 0.000000 0.000000 0.000000 0.024161
#
#
# Mechanical properties :
#
#
# Convention : Reuss Voigt Hill
#
# Bulk Modulus (GPa) = 33.45048 39.50543 36.47795
# Shear Modulus (GPa) = 43.66322 51.37457 47.51889
#
# Velocity S-wave (km/s) = 4.26286 4.62400 4.44710
# Velocity P-wave (km/s) = 6.17664 6.70448 6.44597
#
# Compressibility (1/GPa) = 0.02989494
#
# Stress axis : x y z
#
# Youngs Moduli (GPa) = 75.47593 65.68723 168.57634
#
# Poissons Ratio (x) = 0.10834 0.24883
# Poissons Ratio (y) = 0.12448 -0.14673
# Poissons Ratio (z) = 0.11141 -0.05717
#
# Static dielectric constant tensor:
#      x y z
#    x 1.925790 0.000000 0.000000 
#    y 0.000000 1.971640 0.000000 
#    z 0.000000 0.000000 1.908300 
# 
# From -- ./inp_files/10594.got.cif
#   From: 2010.05.17/outbox.cif.g08.bks.cpg/sg55_6_cif.got.tgz:10594.got - 2010.06.03 13:27:54.
