data_PCOD9428897
_publ_section_title
;
Structure prediction by ZEFSAII (Michael W. Deem and Ramdas Pophale) SiO2 
 PCOD9428897
Probable space group: P B A M
;
_chemical_formula_sum "Si O2"
_cell_formula_units_Z 32
_cell_length_a 10.295707
_cell_length_b 10.217115
_cell_length_c 15.612466
_cell_angle_alpha 90.000000
_cell_angle_beta 90.000000
_cell_angle_gamma 90.000000
_cell_volume 1642.313119
_symmetry_space_group_name_H-M "P B A M"
_symmetry_group_IT_number 55
_symmetry_cell_setting 'orthorhombic'
loop_
_space_group_symop_operation_xyz
x,y,z
-x,-y,z
1/2+x,1/2-y,-z
1/2-x,1/2+y,-z
-x,-y,-z
x,y,-z
1/2-x,1/2+y,z
1/2+x,1/2-y,z
loop_
_atom_site_type_symbol
_atom_site_label
_atom_site_fract_x
_atom_site_fract_y
_atom_site_fract_z
Si Si1 0.107822 0.598526 0.148187
Si Si2 0.657636 0.850626 0.333266
Si Si3 0.509747 0.716386 0.000000
Si Si4 0.788983 0.980159 0.000000
Si Si5 0.133197 0.355970 0.601966
O O1 0.173690 0.661020 0.230631
O O2 0.000000 0.500000 0.183517
O O3 0.038411 0.699481 0.084233
O O4 0.203143 0.519699 0.085270
O O5 0.508190 0.820020 0.359106
O O6 0.759771 0.753522 0.376887
O O7 0.675780 0.002232 0.361112
O O8 0.366687 0.656780 0.000000
O O9 0.610372 0.597141 0.000000
O O10 0.117972 0.369047 0.500000
#
# Coordination Sequence:
#
# PCOD9428897 Si02
#       5
#     8   8   4   4   8
#     4  11  24  40  64  89 128 163 211 250 325 363
#     4  11  25  41  71  97 133 172 216 269 325 397
#     4  10  24  39  63  89 126 166 209 260 304 375
#     4  10  24  39  63  89 126 166 209 260 304 375
#     4  11  23  46  68  98 130 171 215 273 330 389
#
# _framework density 19.484712999999999
#
# number of rings (size 3 to 8) (size 9 to 14) (size 15 to 20)
#    0.000    1.250    2.500    4.500   14.000    1.000 
#    0.000    2.500    0.000    0.000    0.000    0.000 
#    0.000    0.000    0.000    0.000    0.000    0.000 
#
# Total GULP energy -178840.217197 kJ/mol
# GULP energy per Si atom -5588.756787 kJ/mol
# Density = 1.944036 g / cm^3
# Si number density = 19.484713 Si / 1000 Ang^3
#
#
#
# Elastic Constant Matrix: (Units=GPa)
#
#
# Indices 1 2 3 4 5 6 
#
# 1 90.8298 46.8755 12.2128 0.0000 0.0000 0.0000
# 2 46.8755 79.0417 11.6046 0.0000 0.0000 0.0000
# 3 12.2128 11.6046 134.5531 0.0000 0.0000 0.0000
# 4 0.0000 0.0000 0.0000 15.0913 0.0000 0.0000
# 5 0.0000 0.0000 0.0000 0.0000 18.6908 0.0000
# 6 0.0000 0.0000 0.0000 0.0000 0.0000 45.2267
#
#
#
# Elastic Compliance Matrix: (Units=1/GPa)
#
#
# Indices 1 2 3 4 5 6 
#
# 1 0.015919 -0.009347 -0.000639 0.000000 0.000000 0.000000
# 2 -0.009347 0.018302 -0.000730 0.000000 0.000000 0.000000
# 3 -0.000639 -0.000730 0.007553 0.000000 0.000000 0.000000
# 4 0.000000 0.000000 0.000000 0.066264 0.000000 0.000000
# 5 0.000000 0.000000 0.000000 0.000000 0.053502 0.000000
# 6 0.000000 0.000000 0.000000 0.000000 0.000000 0.022111
#
#
# Mechanical properties :
#
#
# Convention : Reuss Voigt Hill
#
# Bulk Modulus (GPa) = 49.15854 49.53451 49.34652
# Shear Modulus (GPa) = 23.60009 31.38388 27.49198
#
# Velocity S-wave (km/s) = 3.48402 4.01770 3.76034
# Velocity P-wave (km/s) = 6.43961 6.85565 6.65088
#
# Compressibility (1/GPa) = 0.02034234
#
# Stress axis : x y z
#
# Youngs Moduli (GPa) = 62.81656 54.63874 132.39853
#
# Poissons Ratio (x) = 0.51072 0.08457
# Poissons Ratio (y) = 0.58716 0.09666
# Poissons Ratio (z) = 0.04013 0.03989
#
# Static dielectric constant tensor:
#      x y z
#    x 1.672490 0.000000 0.000000 
#    y 0.000000 1.674340 0.000000 
#    z 0.000000 0.000000 1.639970 
# 
# From -- ./inp_files/16876.got.cif
#   From: 2010.05.17/outbox.cif.g08.bks.cpg/sg55_9_cif.got.tgz:16876.got - 2010.06.03 13:27:54.
