data_PCOD9428632
_publ_section_title
;
Structure prediction by ZEFSAII (Michael W. Deem and Ramdas Pophale) SiO2 
 PCOD9428632
Probable space group: P B A M
;
_chemical_formula_sum "Si O2"
_cell_formula_units_Z 56
_cell_length_a 19.898989
_cell_length_b 16.456628
_cell_length_c 8.880255
_cell_angle_alpha 90.000000
_cell_angle_beta 90.000000
_cell_angle_gamma 90.000000
_cell_volume 2908.019410
_symmetry_space_group_name_H-M "P B A M"
_symmetry_group_IT_number 55
_symmetry_cell_setting 'orthorhombic'
loop_
_space_group_symop_operation_xyz
x,y,z
-x,-y,z
1/2+x,1/2-y,-z
1/2-x,1/2+y,-z
-x,-y,-z
x,y,-z
1/2-x,1/2+y,z
1/2+x,1/2-y,z
loop_
_atom_site_type_symbol
_atom_site_label
_atom_site_fract_x
_atom_site_fract_y
_atom_site_fract_z
Si Si1 0.733770 0.324934 0.680659
Si Si2 0.659712 0.476388 0.824516
Si Si3 0.109792 0.283437 0.323870
Si Si4 0.878765 0.298965 0.821088
Si Si5 0.609561 0.628718 0.327700
Si Si6 0.545048 0.391961 0.331013
Si Si7 0.492296 0.906021 0.818331
O O1 0.730802 0.327456 0.500000
O O2 0.706323 0.408863 0.748678
O O3 0.682244 0.252152 0.728932
O O4 0.808935 0.315702 0.738195
O O5 0.659452 0.561717 0.738293
O O6 0.585684 0.438797 0.795769
O O7 0.673865 0.486046 0.000000
O O8 0.116133 0.304321 0.500000
O O9 0.061651 0.203765 0.313405
O O10 0.073013 0.357653 0.241561
O O11 0.894342 0.206568 0.777966
O O12 0.940800 0.356044 0.772458
O O13 0.870304 0.308641 0.000000
O O14 0.626959 0.650968 0.500000
O O15 0.533854 0.594121 0.329511
O O16 0.570815 0.414634 0.500000
O O17 0.500000 0.000000 0.769818
O O18 0.489103 0.905060 0.000000
#
# Coordination Sequence:
#
# PCOD9428632 Si02
#       7
#     8   8   8   8   8   8   8
#     4  10  22  42  63  85 119 162 205 251 311 373
#     4  11  22  35  55  86 120 153 196 244 295 357
#     4   9  18  36  61  88 114 150 201 248 293 358
#     4  11  23  40  62  89 121 158 204 255 314 370
#     4  11  21  36  58  84 118 156 195 239 296 361
#     4   9  18  33  55  83 117 153 189 233 289 351
#     4  10  22  40  62  90 123 159 199 252 314 368
#
# _framework density 19.257093000000001
#
# number of rings (size 3 to 8) (size 9 to 14) (size 15 to 20)
#    0.000    1.857    1.429    3.857    0.000    6.571 
#    2.571    0.000    0.000    0.000    0.000    0.000 
#    0.000    0.000    0.000    0.000    0.000    0.000 
#
# Total GULP energy -312541.190230 kJ/mol
# GULP energy per Si atom -5581.092683 kJ/mol
# Density = 1.921326 g / cm^3
# Si number density = 19.257093 Si / 1000 Ang^3
#
#
#
# Elastic Constant Matrix: (Units=GPa)
#
#
# Indices 1 2 3 4 5 6 
#
# 1 78.5616 23.0274 19.0398 0.0000 0.0000 0.0000
# 2 23.0274 88.4394 7.9182 0.0000 0.0000 0.0000
# 3 19.0398 7.9182 47.9620 0.0000 0.0000 0.0000
# 4 0.0000 0.0000 0.0000 27.2531 0.0000 0.0000
# 5 0.0000 0.0000 0.0000 0.0000 27.4948 0.0000
# 6 0.0000 0.0000 0.0000 0.0000 0.0000 2.7866
#
#
#
# Elastic Compliance Matrix: (Units=1/GPa)
#
#
# Indices 1 2 3 4 5 6 
#
# 1 0.015045 -0.003433 -0.005406 0.000000 0.000000 0.000000
# 2 -0.003433 0.012260 -0.000661 0.000000 0.000000 0.000000
# 3 -0.005406 -0.000661 0.023105 0.000000 0.000000 0.000000
# 4 0.000000 0.000000 0.000000 0.036693 0.000000 0.000000
# 5 0.000000 0.000000 0.000000 0.000000 0.036371 0.000000
# 6 0.000000 0.000000 0.000000 0.000000 0.000000 0.358861
#
#
# Mechanical properties :
#
#
# Convention : Reuss Voigt Hill
#
# Bulk Modulus (GPa) = 31.83702 34.99263 33.41482
# Shear Modulus (GPa) = 9.76933 22.50539 16.13736
#
# Velocity S-wave (km/s) = 2.25480 3.42231 2.89796
# Velocity P-wave (km/s) = 4.83191 5.81610 5.34670
#
# Compressibility (1/GPa) = 0.03140998
#
# Stress axis : x y z
#
# Youngs Moduli (GPa) = 66.46554 81.56375 43.28068
#
# Poissons Ratio (x) = 0.28004 0.23397
# Poissons Ratio (y) = 0.22821 0.02861
# Poissons Ratio (z) = 0.35930 0.05392
#
# Static dielectric constant tensor:
#      x y z
#    x 1.681750 0.000000 0.000000 
#    y 0.000000 1.690140 0.000000 
#    z 0.000000 0.000000 1.652730 
# 
# From -- ./inp_files/8793.got.cif
#   From: 2010.05.17/outbox.cif.g08.bks.cpg/sg55_5_cif.got.tgz:8793.got - 2010.06.03 13:27:54.
