data_PCOD9428470
_publ_section_title
;
Structure prediction by ZEFSAII (Michael W. Deem and Ramdas Pophale) SiO2 
 PCOD9428470
Probable space group: P B A M
;
_chemical_formula_sum "Si O2"
_cell_formula_units_Z 56
_cell_length_a 20.443768
_cell_length_b 9.309800
_cell_length_c 15.463708
_cell_angle_alpha 90.000000
_cell_angle_beta 90.000000
_cell_angle_gamma 90.000000
_cell_volume 2943.167204
_symmetry_space_group_name_H-M "P B A M"
_symmetry_group_IT_number 55
_symmetry_cell_setting 'orthorhombic'
loop_
_space_group_symop_operation_xyz
x,y,z
-x,-y,z
1/2+x,1/2-y,-z
1/2-x,1/2+y,-z
-x,-y,-z
x,y,-z
1/2-x,1/2+y,z
1/2+x,1/2-y,z
loop_
_atom_site_type_symbol
_atom_site_label
_atom_site_fract_x
_atom_site_fract_y
_atom_site_fract_z
Si Si1 0.331242 0.955284 0.204561
Si Si2 0.435718 0.088809 0.669767
Si Si3 0.653630 0.703253 0.591937
Si Si4 0.739423 0.306534 0.720158
Si Si5 0.944275 0.619626 0.900215
Si Si6 0.017112 0.167878 0.750874
Si Si7 0.618791 0.385070 0.399621
O O1 0.386673 0.988566 0.276683
O O2 0.274839 0.070636 0.224220
O O3 0.299962 0.800995 0.219620
O O4 0.373855 0.953345 0.117844
O O5 0.393836 0.160384 0.594789
O O6 0.456895 0.226911 0.727328
O O7 0.500000 0.000000 0.646393
O O8 0.689682 0.696992 0.500000
O O9 0.703748 0.721082 0.669839
O O10 0.612507 0.557698 0.598443
O O11 0.689015 0.358721 0.645952
O O12 0.951822 0.753904 0.834722
O O13 0.000000 0.500000 0.880060
O O14 0.951502 0.661399 0.000000
O O15 0.064254 0.172585 0.666414
O O16 0.000000 0.000000 0.765978
O O17 0.615231 0.334267 0.500000
#
# Coordination Sequence:
#
# PCOD9428470 Si02
#       7
#     8   8   8   8   8   8   8
#     4  11  21  39  65  90 122 160 207 252 317 373
#     4  11  20  38  60  86 118 164 210 258 320 372
#     4  10  22  36  53  85 124 164 215 263 298 359
#     4  11  21  38  61  86 120 170 210 251 300 370
#     4  11  23  44  72  96 122 159 205 262 327 385
#     4  12  22  38  64  92 126 166 207 259 315 377
#     4  11  22  36  57  89 129 173 211 254 309 366
#
# _framework density 19.027123
#
# number of rings (size 3 to 8) (size 9 to 14) (size 15 to 20)
#    0.000    1.000    7.143    0.429    0.000    1.429 
#    0.000    4.286    0.000    0.429    0.000    0.000 
#    0.000    0.000    0.000    0.000    0.000    0.000 
#
# Total GULP energy -312289.686707 kJ/mol
# GULP energy per Si atom -5576.601548 kJ/mol
# Density = 1.898382 g / cm^3
# Si number density = 19.027123 Si / 1000 Ang^3
#
#
#
# Elastic Constant Matrix: (Units=GPa)
#
#
# Indices 1 2 3 4 5 6 
#
# 1 91.9647 37.6387 33.8849 0.0000 0.0000 0.0000
# 2 37.6387 90.8730 39.6116 0.0000 0.0000 0.0000
# 3 33.8849 39.6116 95.6371 0.0000 0.0000 0.0000
# 4 0.0000 0.0000 0.0000 22.6783 0.0000 0.0000
# 5 0.0000 0.0000 0.0000 0.0000 21.9116 0.0000
# 6 0.0000 0.0000 0.0000 0.0000 0.0000 36.8199
#
#
#
# Elastic Compliance Matrix: (Units=1/GPa)
#
#
# Indices 1 2 3 4 5 6 
#
# 1 0.013797 -0.004373 -0.003077 0.000000 0.000000 0.000000
# 2 -0.004373 0.014815 -0.004587 0.000000 0.000000 0.000000
# 3 -0.003077 -0.004587 0.013446 0.000000 0.000000 0.000000
# 4 0.000000 0.000000 0.000000 0.044095 0.000000 0.000000
# 5 0.000000 0.000000 0.000000 0.000000 0.045638 0.000000
# 6 0.000000 0.000000 0.000000 0.000000 0.000000 0.027159
#
#
# Mechanical properties :
#
#
# Convention : Reuss Voigt Hill
#
# Bulk Modulus (GPa) = 55.60412 55.63834 55.62123
# Shear Modulus (GPa) = 26.45222 27.43795 26.94509
#
# Velocity S-wave (km/s) = 3.73263 3.80155 3.76725
# Velocity P-wave (km/s) = 6.91837 6.96951 6.94399
#
# Compressibility (1/GPa) = 0.01798428
#
# Stress axis : x y z
#
# Youngs Moduli (GPa) = 72.47719 67.49844 74.37058
#
# Poissons Ratio (x) = 0.29520 0.22885
# Poissons Ratio (y) = 0.31698 0.34111
# Poissons Ratio (z) = 0.22302 0.30959
#
# Static dielectric constant tensor:
#      x y z
#    x 1.694890 0.000000 0.000000 
#    y 0.000000 1.676690 0.000000 
#    z 0.000000 0.000000 1.657290 
# 
# From -- ./inp_files/19744.got.cif
#   From: 2010.05.17/outbox.cif.g08.bks.cpg/sg55_10_cif.got.tgz:19744.got - 2010.06.03 13:27:54.
