data_PCOD9428153
_publ_section_title
;
Structure prediction by ZEFSAII (Michael W. Deem and Ramdas Pophale) SiO2 
 PCOD9428153
Probable space group: P B A M
;
_chemical_formula_sum "Si O2"
_cell_formula_units_Z 52
_cell_length_a 14.693650
_cell_length_b 19.269219
_cell_length_c 9.200325
_cell_angle_alpha 90.000000
_cell_angle_beta 90.000000
_cell_angle_gamma 90.000000
_cell_volume 2604.935489
_symmetry_space_group_name_H-M "P B A M"
_symmetry_group_IT_number 55
_symmetry_cell_setting 'orthorhombic'
loop_
_space_group_symop_operation_xyz
x,y,z
-x,-y,z
1/2+x,1/2-y,-z
1/2-x,1/2+y,-z
-x,-y,-z
x,y,-z
1/2-x,1/2+y,z
1/2+x,1/2-y,z
loop_
_atom_site_type_symbol
_atom_site_label
_atom_site_fract_x
_atom_site_fract_y
_atom_site_fract_z
Si Si1 0.178368 0.075121 0.337414
Si Si2 0.500000 0.500000 0.251677
Si Si3 0.606359 0.631047 0.164337
Si Si4 0.702588 0.286911 0.827030
Si Si5 0.104148 0.734375 0.672683
Si Si6 0.226269 0.437983 0.327496
Si Si7 0.418419 0.829621 0.672333
O O1 0.196345 0.102409 0.500000
O O2 0.170227 0.137534 0.225818
O O3 0.256389 0.019072 0.297430
O O4 0.085174 0.031164 0.338409
O O5 0.541486 0.564379 0.164881
O O6 0.569348 0.691348 0.268274
O O7 0.701453 0.605278 0.233033
O O8 0.618152 0.656597 0.000000
O O9 0.802701 0.278620 0.757473
O O10 0.637959 0.227565 0.761098
O O11 0.704717 0.282151 0.000000
O O12 0.120449 0.737489 0.500000
O O13 0.025079 0.678763 0.703459
O O14 0.247282 0.428779 0.500000
O O15 0.127989 0.404211 0.301290
O O16 0.407124 0.814196 0.500000
#
# Coordination Sequence:
#
# PCOD9428153 Si02
#       7
#     8   4   8   8   8   8   8
#     4  10  21  38  61  87 119 158 202 253 306 365
#     4  10  22  36  58  92 128 160 202 246 310 382
#     4  11  21  34  54  84 121 160 194 240 302 365
#     4  12  25  40  60  90 126 164 203 252 312 374
#     4  11  23  39  61  87 118 159 207 257 305 363
#     4   9  19  37  60  84 112 150 195 244 298 356
#     4  10  21  39  64  89 115 153 203 255 305 359
#
# _framework density 19.962105000000001
#
# number of rings (size 3 to 8) (size 9 to 14) (size 15 to 20)
#    0.000    1.538    1.538    3.692    0.000    8.615 
#    0.000    0.769    0.000    4.615    0.000    0.000 
#    0.000    0.000    0.000    0.000    0.000    0.000 
#
# Total GULP energy -290403.729892 kJ/mol
# GULP energy per Si atom -5584.687113 kJ/mol
# Density = 1.991667 g / cm^3
# Si number density = 19.962105 Si / 1000 Ang^3
#
#
#
# Elastic Constant Matrix: (Units=GPa)
#
#
# Indices 1 2 3 4 5 6 
#
# 1 59.0106 6.1484 16.7979 0.0000 0.0000 0.0000
# 2 6.1484 47.4102 8.9604 0.0000 0.0000 0.0000
# 3 16.7979 8.9604 70.6450 0.0000 0.0000 0.0000
# 4 0.0000 0.0000 0.0000 45.4202 0.0000 0.0000
# 5 0.0000 0.0000 0.0000 0.0000 8.0983 0.0000
# 6 0.0000 0.0000 0.0000 0.0000 0.0000 29.0631
#
#
#
# Elastic Compliance Matrix: (Units=1/GPa)
#
#
# Indices 1 2 3 4 5 6 
#
# 1 0.018292 -0.001588 -0.004148 0.000000 0.000000 0.000000
# 2 -0.001588 0.021748 -0.002381 0.000000 0.000000 0.000000
# 3 -0.004148 -0.002381 0.015444 0.000000 0.000000 0.000000
# 4 0.000000 0.000000 0.000000 0.022017 0.000000 0.000000
# 5 0.000000 0.000000 0.000000 0.000000 0.123482 0.000000
# 6 0.000000 0.000000 0.000000 0.000000 0.000000 0.034408
#
#
# Mechanical properties :
#
#
# Convention : Reuss Voigt Hill
#
# Bulk Modulus (GPa) = 25.47771 26.76436 26.12104
# Shear Modulus (GPa) = 18.88867 26.19360 22.54113
#
# Velocity S-wave (km/s) = 3.07942 3.62631 3.36400
# Velocity P-wave (km/s) = 5.04326 5.56509 5.31059
#
# Compressibility (1/GPa) = 0.03924999
#
# Stress axis : x y z
#
# Youngs Moduli (GPa) = 54.66750 45.98028 64.75173
#
# Poissons Ratio (x) = 0.07303 0.26860
# Poissons Ratio (y) = 0.08683 0.15416
# Poissons Ratio (z) = 0.22677 0.10947
#
# Static dielectric constant tensor:
#      x y z
#    x 1.727990 0.000000 0.000000 
#    y 0.000000 1.729440 0.000000 
#    z 0.000000 0.000000 1.683810 
# 
# From -- ./inp_files/5906.got.cif
#   From: 2010.05.17/outbox.cif.g08.bks.cpg/sg55_3_cif.got.tgz:5906.got - 2010.06.03 13:27:54.
