data_PCOD9428917
_publ_section_title
;
Structure prediction by ZEFSAII (Michael W. Deem and Ramdas Pophale) SiO2 
 PCOD9428917
Probable space group: P B A M
;
_chemical_formula_sum "Si O2"
_cell_formula_units_Z 24
_cell_length_a 10.436093
_cell_length_b 4.660342
_cell_length_c 18.752958
_cell_angle_alpha 90.000000
_cell_angle_beta 90.000000
_cell_angle_gamma 90.000000
_cell_volume 912.064412
_symmetry_space_group_name_H-M "P B A M"
_symmetry_group_IT_number 55
_symmetry_cell_setting 'orthorhombic'
loop_
_space_group_symop_operation_xyz
x,y,z
-x,-y,z
1/2+x,1/2-y,-z
1/2-x,1/2+y,-z
-x,-y,-z
x,y,-z
1/2-x,1/2+y,z
1/2+x,1/2-y,z
loop_
_atom_site_type_symbol
_atom_site_label
_atom_site_fract_x
_atom_site_fract_y
_atom_site_fract_z
Si Si1 0.840176 0.351535 0.135614
Si Si2 0.336994 0.774796 0.628588
Si Si3 0.500000 0.000000 0.000000
Si Si4 0.000000 0.000000 0.500000
Si Si5 0.500000 0.500000 0.751703
O O1 0.793671 0.678885 0.137033
O O2 0.918753 0.328041 0.062759
O O3 0.921313 0.221833 0.199750
O O4 0.298980 0.106613 0.625174
O O5 0.420614 0.678315 0.562028
O O6 0.405489 0.679166 0.700623
#
# Coordination Sequence:
#
# PCOD9428917 Si02
#       5
#     8   8   2   2   4
#     4  12  27  47  73 106 143 188 241 300 367 443
#     4  11  25  44  69 105 145 192 245 301 366 438
#     4  12  28  50  76 106 144 188 240 302 372 446
#     4  10  24  42  72 102 144 192 244 304 364 430
#     4  11  26  46  74 107 148 194 244 305 370 440
#
# _framework density 26.313929999999999
#
# number of rings (size 3 to 8) (size 9 to 14) (size 15 to 20)
#    0.000    0.667    0.000    6.000    0.000   16.667 
#    0.000    0.000    0.000    0.000    0.000    0.000 
#    0.000    0.000    0.000    0.000    0.000    0.000 
#
# Total GULP energy -133828.168656 kJ/mol
# GULP energy per Si atom -5576.173694 kJ/mol
# Density = 2.625404 g / cm^3
# Si number density = 26.313930 Si / 1000 Ang^3
#
#
#
# Elastic Constant Matrix: (Units=GPa)
#
#
# Indices 1 2 3 4 5 6 
#
# 1 112.6289 26.3360 73.2410 0.0000 0.0000 0.0000
# 2 26.3360 89.7587 31.5497 0.0000 0.0000 0.0000
# 3 73.2410 31.5497 256.6313 0.0000 0.0000 0.0000
# 4 0.0000 0.0000 0.0000 8.8635 0.0000 0.0000
# 5 0.0000 0.0000 0.0000 0.0000 -71.4386 0.0000
# 6 0.0000 0.0000 0.0000 0.0000 0.0000 63.5927
#
#
#
# Elastic Compliance Matrix: (Units=1/GPa)
#
#
# Indices 1 2 3 4 5 6 
#
# 1 0.011334 -0.002287 -0.002954 0.000000 0.000000 0.000000
# 2 -0.002287 0.012106 -0.000835 0.000000 0.000000 0.000000
# 3 -0.002954 -0.000835 0.004842 0.000000 0.000000 0.000000
# 4 0.000000 0.000000 0.000000 0.112823 0.000000 0.000000
# 5 0.000000 0.000000 0.000000 0.000000 -0.013998 0.000000
# 6 0.000000 0.000000 0.000000 0.000000 0.000000 0.015725
#
#
# Mechanical properties :
#
#
# Convention : Reuss Voigt Hill
#
# Bulk Modulus (GPa) = 61.99815 80.14139 71.06977
# Shear Modulus (GPa) = 31.17960 22.06299 26.62129
#
# Velocity S-wave (km/s) = 3.44598 2.89875 3.18414
# Velocity P-wave (km/s) = 6.28054 6.45954 6.37067
#
# Compressibility (1/GPa) = 0.01612951
#
# Stress axis : x y z
#
# Youngs Moduli (GPa) = 88.22845 82.60516 206.51506
#
# Poissons Ratio (x) = 0.18895 0.60994
# Poissons Ratio (y) = 0.20182 0.17253
# Poissons Ratio (z) = 0.26058 0.06901
#
# Static dielectric constant tensor:
#      x y z
#    x 2.107400 0.000000 0.000000 
#    y 0.000000 2.025800 0.000000 
#    z 0.000000 0.000000 1.931880 
# 
# From -- ./inp_files/21159.got.cif
#   From: 2010.05.17/outbox.cif.g08.bks.cpg/sg55_11_cif.got.tgz:21159.got - 2010.06.03 13:27:54.
