data_PCOD9428432
_publ_section_title
;
Structure prediction by ZEFSAII (Michael W. Deem and Ramdas Pophale) SiO2 
 PCOD9428432
Probable space group: P B A M
;
_chemical_formula_sum "Si O2"
_cell_formula_units_Z 64
_cell_length_a 30.530342
_cell_length_b 12.031519
_cell_length_c 9.047806
_cell_angle_alpha 90.000000
_cell_angle_beta 90.000000
_cell_angle_gamma 90.000000
_cell_volume 3323.497914
_symmetry_space_group_name_H-M "P B A M"
_symmetry_group_IT_number 55
_symmetry_cell_setting 'orthorhombic'
loop_
_space_group_symop_operation_xyz
x,y,z
-x,-y,z
1/2+x,1/2-y,-z
1/2-x,1/2+y,-z
-x,-y,-z
x,y,-z
1/2-x,1/2+y,z
1/2+x,1/2-y,z
loop_
_atom_site_type_symbol
_atom_site_label
_atom_site_fract_x
_atom_site_fract_y
_atom_site_fract_z
Si Si1 0.947639 0.993898 0.326403
Si Si2 0.881312 0.835717 0.176856
Si Si3 0.284301 0.050665 0.824311
Si Si4 0.072274 0.776601 0.170134
Si Si5 0.625736 0.073158 0.822872
Si Si6 0.808072 0.990098 0.674657
Si Si7 0.454235 0.059420 0.323733
Si Si8 0.173035 0.784840 0.168188
O O1 0.936340 0.992993 0.500000
O O2 0.930260 0.104839 0.248397
O O3 0.924857 0.889162 0.248277
O O4 0.000000 0.000000 0.312389
O O5 0.876661 0.704772 0.208273
O O6 0.840698 0.904654 0.243863
O O7 0.882333 0.851074 0.000000
O O8 0.296304 0.180009 0.803218
O O9 0.326874 0.977819 0.782145
O O10 0.241184 0.023818 0.733264
O O11 0.276517 0.032818 0.000000
O O12 0.045975 0.682355 0.255274
O O13 0.123229 0.742037 0.171690
O O14 0.058072 0.785924 0.000000
O O15 0.586330 0.009290 0.743041
O O16 0.620872 0.057184 0.000000
O O17 0.810944 0.973711 0.500000
O O18 0.821728 0.114583 0.720081
O O19 0.449528 0.066244 0.500000
O O20 0.500000 0.000000 0.288583
O O21 0.181117 0.826171 0.000000
#
# Coordination Sequence:
#
# PCOD9428432 Si02
#       8
#     8   8   8   8   8   8   8   8
#     4  11  25  43  64  93 131 169 207 258 322 382
#     4  11  24  43  66  93 126 168 217 262 310 371
#     4  10  22  43  67  91 123 163 210 259 313 371
#     4  11  22  41  69  95 122 162 216 266 309 369
#     4  10  23  44  67  93 123 164 216 265 312 370
#     4  12  26  41  62  95 131 165 207 257 316 378
#     4  11  25  42  63  94 132 171 207 254 321 381
#     4  10  21  41  68  92 120 161 209 262 314 369
#
# _framework density 19.256820000000001
#
# number of rings (size 3 to 8) (size 9 to 14) (size 15 to 20)
#    0.000    1.250    2.500    2.625    3.500    4.500 
#    0.000    0.000    0.000    0.000    0.000    0.000 
#    0.000    0.000    0.000    0.000    0.000    0.000 
#
# Total GULP energy -357840.318106 kJ/mol
# GULP energy per Si atom -5591.254970 kJ/mol
# Density = 1.921299 g / cm^3
# Si number density = 19.256820 Si / 1000 Ang^3
#
#
#
# Elastic Constant Matrix: (Units=GPa)
#
#
# Indices 1 2 3 4 5 6 
#
# 1 71.8595 11.8897 34.4237 0.0000 0.0000 0.0000
# 2 11.8897 67.5066 34.9004 0.0000 0.0000 0.0000
# 3 34.4237 34.9004 72.5678 0.0000 0.0000 0.0000
# 4 0.0000 0.0000 0.0000 -6.2839 0.0000 0.0000
# 5 0.0000 0.0000 0.0000 0.0000 36.5623 0.0000
# 6 0.0000 0.0000 0.0000 0.0000 0.0000 30.3096
#
#
#
# Elastic Compliance Matrix: (Units=1/GPa)
#
#
# Indices 1 2 3 4 5 6 
#
# 1 0.018149 0.001669 -0.009412 0.000000 0.000000 0.000000
# 2 0.001669 0.019869 -0.010348 0.000000 0.000000 0.000000
# 3 -0.009412 -0.010348 0.023221 0.000000 0.000000 0.000000
# 4 0.000000 0.000000 0.000000 -0.159138 0.000000 0.000000
# 5 0.000000 0.000000 0.000000 0.000000 0.027351 0.000000
# 6 0.000000 0.000000 0.000000 0.000000 0.000000 0.032993
#
#
# Mechanical properties :
#
#
# Convention : Reuss Voigt Hill
#
# Bulk Modulus (GPa) = 39.90622 41.59572 40.75097
# Shear Modulus (GPa) = 716.57277 20.83228 368.70252
#
# Velocity S-wave (km/s) = 19.31118 3.29266 13.85213
# Velocity P-wave (km/s) = 22.75955 6.00857 16.64482
#
# Compressibility (1/GPa) = 0.02505875
#
# Stress axis : x y z
#
# Youngs Moduli (GPa) = 55.10088 50.32971 43.06359
#
# Poissons Ratio (x) = -0.08402 0.40531
# Poissons Ratio (y) = -0.09199 0.44561
# Poissons Ratio (z) = 0.51861 0.52079
#
# Static dielectric constant tensor:
#      x y z
#    x 1.734070 0.000000 0.000000 
#    y 0.000000 1.646870 0.000000 
#    z 0.000000 0.000000 1.649000 
# 
# From -- ./inp_files/10751.got.cif
#   From: 2010.05.17/outbox.cif.g08.bks.cpg/sg55_6_cif.got.tgz:10751.got - 2010.06.03 13:27:54.
