data_PCOD9428070
_publ_section_title
;
Structure prediction by ZEFSAII (Michael W. Deem and Ramdas Pophale) SiO2 
 PCOD9428070
Probable space group: P B A M
;
_chemical_formula_sum "Si O2"
_cell_formula_units_Z 48
_cell_length_a 20.823029
_cell_length_b 14.733530
_cell_length_c 7.672564
_cell_angle_alpha 90.000000
_cell_angle_beta 90.000000
_cell_angle_gamma 90.000000
_cell_volume 2353.917488
_symmetry_space_group_name_H-M "P B A M"
_symmetry_group_IT_number 55
_symmetry_cell_setting 'orthorhombic'
loop_
_space_group_symop_operation_xyz
x,y,z
-x,-y,z
1/2+x,1/2-y,-z
1/2-x,1/2+y,-z
-x,-y,-z
x,y,-z
1/2-x,1/2+y,z
1/2+x,1/2-y,z
loop_
_atom_site_type_symbol
_atom_site_label
_atom_site_fract_x
_atom_site_fract_y
_atom_site_fract_z
Si Si1 0.928337 0.975286 0.287903
Si Si2 0.595724 0.265508 0.703102
Si Si3 0.200428 0.543854 0.302774
Si Si4 0.598487 0.952859 0.000000
Si Si5 0.809836 0.096672 0.289235
Si Si6 0.738790 0.272341 0.203023
Si Si7 0.969054 0.649043 0.000000
O O1 0.928149 0.979230 0.500000
O O2 0.910267 0.871703 0.244270
O O3 0.874534 0.046877 0.227757
O O4 0.000000 0.000000 0.228572
O O5 0.577435 0.256869 0.500000
O O6 0.670387 0.238535 0.725491
O O7 0.552892 0.205392 0.830895
O O8 0.179298 0.523732 0.500000
O O9 0.142660 0.554784 0.169808
O O10 0.249233 0.466048 0.241346
O O11 0.240699 0.636806 0.300443
O O12 0.543665 0.876740 0.000000
O O13 0.567281 0.052586 0.000000
O O14 0.812202 0.099886 0.500000
O O15 0.793466 0.196486 0.223522
O O16 0.730357 0.293763 0.000000
#
# Coordination Sequence:
#
# PCOD9428070 Si02
#       7
#     8   8   8   4   8   8   4
#     4   9  19  38  64  94 130 171 215 266 324 392
#     4  11  22  42  68  95 131 177 221 266 330 402
#     4  11  23  42  66  93 129 171 216 273 332 387
#     4  11  26  45  64  94 131 165 219 281 328 383
#     4  10  21  37  62  96 129 165 217 269 325 393
#     4  12  23  38  65  97 133 171 216 273 327 384
#     4  11  26  45  65  94 130 169 220 273 324 401
#
# _framework density 20.391538000000001
#
# number of rings (size 3 to 8) (size 9 to 14) (size 15 to 20)
#    0.000    1.333    3.333    2.500    1.167    4.000 
#    1.500    3.750    0.000    0.000    0.000    0.000 
#    0.000    0.000    0.000    0.000    0.000    0.000 
#
# Total GULP energy -268427.765600 kJ/mol
# GULP energy per Si atom -5592.245117 kJ/mol
# Density = 2.034513 g / cm^3
# Si number density = 20.391538 Si / 1000 Ang^3
#
#
#
# Elastic Constant Matrix: (Units=GPa)
#
#
# Indices 1 2 3 4 5 6 
#
# 1 91.1906 -4.8115 20.0065 0.0000 0.0000 0.0000
# 2 -4.8115 54.8062 -6.1715 0.0000 0.0000 0.0000
# 3 20.0065 -6.1715 78.0274 0.0000 0.0000 0.0000
# 4 0.0000 0.0000 0.0000 55.9104 0.0000 0.0000
# 5 0.0000 0.0000 0.0000 0.0000 10.7965 0.0000
# 6 0.0000 0.0000 0.0000 0.0000 0.0000 34.9256
#
#
#
# Elastic Compliance Matrix: (Units=1/GPa)
#
#
# Indices 1 2 3 4 5 6 
#
# 1 0.011646 0.000692 -0.002931 0.000000 0.000000 0.000000
# 2 0.000692 0.018451 0.001282 0.000000 0.000000 0.000000
# 3 -0.002931 0.001282 0.013669 0.000000 0.000000 0.000000
# 4 0.000000 0.000000 0.000000 0.017886 0.000000 0.000000
# 5 0.000000 0.000000 0.000000 0.000000 0.092622 0.000000
# 6 0.000000 0.000000 0.000000 0.000000 0.000000 0.028632
#
#
# Mechanical properties :
#
#
# Convention : Reuss Voigt Hill
#
# Bulk Modulus (GPa) = 23.89386 26.89682 25.39534
# Shear Modulus (GPa) = 25.15457 34.65987 29.90722
#
# Velocity S-wave (km/s) = 3.51604 4.12724 3.83384
# Velocity P-wave (km/s) = 5.31285 5.99424 5.66380
#
# Compressibility (1/GPa) = 0.04185175
#
# Stress axis : x y z
#
# Youngs Moduli (GPa) = 85.86891 54.19688 73.15840
#
# Poissons Ratio (x) = -0.03752 0.21444
# Poissons Ratio (y) = -0.05945 -0.09378
# Poissons Ratio (z) = 0.25170 -0.06947
#
# Static dielectric constant tensor:
#      x y z
#    x 1.711340 0.000000 0.000000 
#    y 0.000000 1.704600 0.000000 
#    z 0.000000 0.000000 1.508960 
# 
# From -- ./inp_files/7469.got.cif
#   From: 2010.05.17/outbox.cif.g08.bks.cpg/sg55_4_cif.got.tgz:7469.got - 2010.06.03 13:27:54.
