data_PCOD9428395
_publ_section_title
;
Structure prediction by ZEFSAII (Michael W. Deem and Ramdas Pophale) SiO2 
 PCOD9428395
Probable space group: P B A M
;
_chemical_formula_sum "Si O2"
_cell_formula_units_Z 48
_cell_length_a 33.784312
_cell_length_b 7.599279
_cell_length_c 8.550286
_cell_angle_alpha 90.000000
_cell_angle_beta 90.000000
_cell_angle_gamma 90.000000
_cell_volume 2195.169755
_symmetry_space_group_name_H-M "P B A M"
_symmetry_group_IT_number 55
_symmetry_cell_setting 'orthorhombic'
loop_
_space_group_symop_operation_xyz
x,y,z
-x,-y,z
1/2+x,1/2-y,-z
1/2-x,1/2+y,-z
-x,-y,-z
x,y,-z
1/2-x,1/2+y,z
1/2+x,1/2-y,z
loop_
_atom_site_type_symbol
_atom_site_label
_atom_site_fract_x
_atom_site_fract_y
_atom_site_fract_z
Si Si1 0.945647 0.354506 0.000000
Si Si2 0.200424 0.419110 0.827236
Si Si3 0.383827 0.063437 0.253799
Si Si4 0.920975 0.811881 0.316143
Si Si5 0.648931 0.568929 0.325566
Si Si6 0.030268 0.234040 0.000000
Si Si7 0.272864 0.575704 0.681392
O O1 0.916834 0.344739 0.853346
O O2 0.960207 0.556818 0.000000
O O3 0.982616 0.223647 0.000000
O O4 0.155597 0.485336 0.824765
O O5 0.232956 0.562255 0.779976
O O6 0.207586 0.265711 0.702802
O O7 0.208908 0.349490 0.000000
O O8 0.366148 0.233046 0.339035
O O9 0.405237 0.890411 0.322683
O O10 0.932733 0.856213 0.500000
O O11 0.951694 0.826430 0.168963
O O12 0.885015 0.939828 0.263633
O O13 0.655566 0.497948 0.500000
O O14 0.692553 0.552958 0.253749
O O15 0.263027 0.539997 0.500000
#
# Coordination Sequence:
#
# PCOD9428395 Si02
#       7
#     4   8   8   8   8   4   8
#     4   9  20  41  63  96 129 165 215 256 332 399
#     4  12  24  41  61  93 128 166 223 275 323 381
#     4  11  21  39  65  89 129 172 212 269 326 385
#     4  10  21  40  67  97 129 172 219 267 329 392
#     4  10  22  39  60  93 126 169 222 265 317 388
#     4   9  20  41  69  96 135 169 207 276 326 395
#     4  11  24  41  62  88 130 175 217 268 327 384
#
# _framework density 21.866191000000001
#
# number of rings (size 3 to 8) (size 9 to 14) (size 15 to 20)
#    0.000    1.500    2.500    2.500    0.000    4.000 
#    4.500    9.167    0.000    2.000    0.000    0.000 
#    0.000    0.000    0.000    0.000    0.000    0.000 
#
# Total GULP energy -267307.433006 kJ/mol
# GULP energy per Si atom -5568.904854 kJ/mol
# Density = 2.181642 g / cm^3
# Si number density = 21.866191 Si / 1000 Ang^3
#
#
#
# Elastic Constant Matrix: (Units=GPa)
#
#
# Indices 1 2 3 4 5 6 
#
# 1 122.9168 12.9346 51.6555 0.0000 0.0000 0.0000
# 2 12.9346 77.2663 11.0577 0.0000 0.0000 0.0000
# 3 51.6555 11.0577 101.3589 0.0000 0.0000 0.0000
# 4 0.0000 0.0000 0.0000 -26.9254 0.0000 0.0000
# 5 0.0000 0.0000 0.0000 0.0000 23.7909 0.0000
# 6 0.0000 0.0000 0.0000 0.0000 0.0000 24.0172
#
#
#
# Elastic Compliance Matrix: (Units=1/GPa)
#
#
# Indices 1 2 3 4 5 6 
#
# 1 0.010428 -0.001001 -0.005205 0.000000 0.000000 0.000000
# 2 -0.001001 0.013244 -0.000935 0.000000 0.000000 0.000000
# 3 -0.005205 -0.000935 0.012621 0.000000 0.000000 0.000000
# 4 0.000000 0.000000 0.000000 -0.037140 0.000000 0.000000
# 5 0.000000 0.000000 0.000000 0.000000 0.042033 0.000000
# 6 0.000000 0.000000 0.000000 0.000000 0.000000 0.041637
#
#
# Mechanical properties :
#
#
# Convention : Reuss Voigt Hill
#
# Bulk Modulus (GPa) = 45.43236 50.31529 47.87382
# Shear Modulus (GPa) = 47.87347 19.23615 33.55481
#
# Velocity S-wave (km/s) = 4.68416 2.96923 3.92159
# Velocity P-wave (km/s) = 7.07656 5.90047 6.51511
#
# Compressibility (1/GPa) = 0.02201074
#
# Stress axis : x y z
#
# Youngs Moduli (GPa) = 95.89109 75.50840 79.23434
#
# Poissons Ratio (x) = 0.07557 0.41245
# Poissons Ratio (y) = 0.09597 0.07407
# Poissons Ratio (z) = 0.49916 0.07058
#
# Static dielectric constant tensor:
#      x y z
#    x 1.846060 0.000000 0.000000 
#    y 0.000000 1.812000 0.000000 
#    z 0.000000 0.000000 1.819820 
# 
# From -- ./inp_files/10574.got.cif
#   From: 2010.05.17/outbox.cif.g08.bks.cpg/sg55_6_cif.got.tgz:10574.got - 2010.06.03 13:27:54.
