data_PCOD9428049
_publ_section_title
;
Structure prediction by ZEFSAII (Michael W. Deem and Ramdas Pophale) SiO2 
 PCOD9428049
Probable space group: P B A M
;
_chemical_formula_sum "Si O2"
_cell_formula_units_Z 56
_cell_length_a 8.422115
_cell_length_b 15.000686
_cell_length_c 21.205269
_cell_angle_alpha 90.000000
_cell_angle_beta 90.000000
_cell_angle_gamma 90.000000
_cell_volume 2679.020727
_symmetry_space_group_name_H-M "P B A M"
_symmetry_group_IT_number 55
_symmetry_cell_setting 'orthorhombic'
loop_
_space_group_symop_operation_xyz
x,y,z
-x,-y,z
1/2+x,1/2-y,-z
1/2-x,1/2+y,-z
-x,-y,-z
x,y,-z
1/2-x,1/2+y,z
1/2+x,1/2-y,z
loop_
_atom_site_type_symbol
_atom_site_label
_atom_site_fract_x
_atom_site_fract_y
_atom_site_fract_z
Si Si1 0.180726 0.527201 0.827860
Si Si2 0.330784 0.531193 0.424512
Si Si3 0.377469 0.345696 0.818266
Si Si4 0.084898 0.096496 0.070886
Si Si5 0.869159 0.630246 0.573420
Si Si6 0.189412 0.712227 0.618144
Si Si7 0.795377 0.810471 0.242404
O O1 0.287683 0.440147 0.813636
O O2 0.257286 0.576328 0.888723
O O3 0.199124 0.599402 0.772534
O O4 0.000000 0.500000 0.837609
O O5 0.500000 0.500000 0.398491
O O6 0.333675 0.519685 0.500000
O O7 0.190430 0.465326 0.402478
O O8 0.296121 0.632638 0.409411
O O9 0.467910 0.344938 0.885589
O O10 0.520375 0.334431 0.767889
O O11 0.255685 0.266000 0.806776
O O12 0.111068 0.129767 0.000000
O O13 0.000000 0.000000 0.066701
O O14 0.918628 0.622995 0.500000
O O15 0.720765 0.697507 0.580007
O O16 0.011611 0.675953 0.611013
O O17 0.245911 0.724159 0.689503
#
# Coordination Sequence:
#
# PCOD9428049 Si02
#       7
#     8   8   8   8   8   8   8
#     4  10  21  37  60  89 123 164 201 249 311 361
#     4  10  22  40  60  83 113 149 192 247 308 367
#     4  10  21  40  60  84 123 161 200 251 303 352
#     4   8  16  34  60  87 116 155 200 245 295 349
#     4  11  23  40  61  85 116 151 193 250 311 366
#     4  12  24  38  60  87 114 154 200 247 302 369
#     4  11  23  38  58  85 119 160 204 250 299 365
#
# _framework density 20.903158999999999
#
# number of rings (size 3 to 8) (size 9 to 14) (size 15 to 20)
#    0.000    1.714    0.000    5.571    0.000    6.000 
#    0.000    2.857    0.000    3.429    0.000    0.000 
#    0.000    0.000    0.000    0.000    0.000    0.000 
#
# Total GULP energy -312894.268691 kJ/mol
# GULP energy per Si atom -5587.397655 kJ/mol
# Density = 2.085558 g / cm^3
# Si number density = 20.903159 Si / 1000 Ang^3
#
#
#
# Elastic Constant Matrix: (Units=GPa)
#
#
# Indices 1 2 3 4 5 6 
#
# 1 67.0926 1.2362 27.2525 0.0000 0.0000 0.0000
# 2 1.2362 76.7941 7.4886 0.0000 0.0000 0.0000
# 3 27.2525 7.4886 56.1354 0.0000 0.0000 0.0000
# 4 0.0000 0.0000 0.0000 29.0269 0.0000 0.0000
# 5 0.0000 0.0000 0.0000 0.0000 -4.6013 0.0000
# 6 0.0000 0.0000 0.0000 0.0000 0.0000 32.9404
#
#
#
# Elastic Compliance Matrix: (Units=1/GPa)
#
#
# Indices 1 2 3 4 5 6 
#
# 1 0.018592 0.000589 -0.009105 0.000000 0.000000 0.000000
# 2 0.000589 0.013212 -0.002048 0.000000 0.000000 0.000000
# 3 -0.009105 -0.002048 0.022507 0.000000 0.000000 0.000000
# 4 0.000000 0.000000 0.000000 0.034451 0.000000 0.000000
# 5 0.000000 0.000000 0.000000 0.000000 -0.217330 0.000000
# 6 0.000000 0.000000 0.000000 0.000000 0.000000 0.030358
#
#
# Mechanical properties :
#
#
# Convention : Reuss Voigt Hill
#
# Bulk Modulus (GPa) = 30.13589 30.21964 30.17776
# Shear Modulus (GPa) = -75.73467 22.40952 -26.66257
#
# Velocity S-wave (km/s) = -6.02577 3.27779 -3.57533
# Velocity P-wave (km/s) = 5.82795 5.36783 1.60489
#
# Compressibility (1/GPa) = 0.03318303
#
# Stress axis : x y z
#
# Youngs Moduli (GPa) = 53.78615 75.68826 44.42989
#
# Poissons Ratio (x) = -0.04455 0.40452
# Poissons Ratio (y) = -0.03166 0.09100
# Poissons Ratio (z) = 0.48970 0.15503
#
# Static dielectric constant tensor:
#      x y z
#    x 1.778890 0.000000 0.000000 
#    y 0.000000 1.733000 0.000000 
#    z 0.000000 0.000000 1.766050 
# 
# From -- ./inp_files/22628.got.cif
#   From: 2010.05.17/outbox.cif.g08.bks.cpg/sg55_12_cif.got.tgz:22628.got - 2010.06.03 13:27:54.
