data_PCOD9428954
_publ_section_title
;
Structure prediction by ZEFSAII (Michael W. Deem and Ramdas Pophale) SiO2 
 PCOD9428954
Probable space group: P B A M
;
_chemical_formula_sum "Si O2"
_cell_formula_units_Z 46
_cell_length_a 7.316778
_cell_length_b 13.828625
_cell_length_c 19.608990
_cell_angle_alpha 90.000000
_cell_angle_beta 90.000000
_cell_angle_gamma 90.000000
_cell_volume 1984.056809
_symmetry_space_group_name_H-M "P B A M"
_symmetry_group_IT_number 55
_symmetry_cell_setting 'orthorhombic'
loop_
_space_group_symop_operation_xyz
x,y,z
-x,-y,z
1/2+x,1/2-y,-z
1/2-x,1/2+y,-z
-x,-y,-z
x,y,-z
1/2-x,1/2+y,z
1/2+x,1/2-y,z
loop_
_atom_site_type_symbol
_atom_site_label
_atom_site_fract_x
_atom_site_fract_y
_atom_site_fract_z
Si Si1 0.810891 0.937321 0.609036
Si Si2 0.435534 0.373404 0.073673
Si Si3 0.000000 0.000000 0.187833
Si Si4 0.861336 0.344904 0.896654
Si Si5 0.000000 0.500000 0.000000
Si Si6 0.827426 0.588522 0.500000
Si Si7 0.148749 0.584956 0.749954
Si Si8 0.040140 0.209658 0.500000
O O1 0.681978 0.897215 0.669944
O O2 0.870127 0.843554 0.565525
O O3 0.699440 0.015736 0.563524
O O4 0.000000 0.000000 0.625817
O O5 0.375932 0.433220 0.138858
O O6 0.378831 0.263969 0.078696
O O7 0.655228 0.375755 0.082905
O O8 0.380360 0.414657 0.000000
O O9 0.143499 0.057428 0.231187
O O10 0.897581 0.346813 0.815009
O O11 0.987157 0.415732 0.939909
O O12 0.977887 0.673496 0.500000
O O13 0.659510 0.662948 0.500000
O O14 0.000000 0.500000 0.754318
#
# Coordination Sequence:
#
# PCOD9428954 Si02
#       8
#     8   8   4   8   2   4   8   4
#     4   9  19  41  64  88 133 175 209 265 318 387
#     4  11  22  42  62  94 116 169 211 277 332 392
#     4  10  25  42  62  89 130 160 220 262 330 389
#     4  11  25  40  65  92 129 161 221 273 333 394
#     4  12  20  44  64  92 128 166 218 286 316 390
#     4   9  19  37  66  94 128 170 212 266 318 375
#     4  11  23  42  64  93 125 175 208 266 330 382
#     4   9  19  37  64  98 126 166 222 256 316 378
#
# _framework density 23.184822
#
# number of rings (size 3 to 8) (size 9 to 14) (size 15 to 20)
#    0.000    1.739    3.478    1.304    2.435    1.391 
#    9.391    1.739    0.000    0.000    0.000    0.000 
#    0.000    0.000    0.000    0.000    0.000    0.000 
#
# Total GULP energy -256093.872661 kJ/mol
# GULP energy per Si atom -5567.258101 kJ/mol
# Density = 2.313205 g / cm^3
# Si number density = 23.184822 Si / 1000 Ang^3
#
#
#
# Elastic Constant Matrix: (Units=GPa)
#
#
# Indices 1 2 3 4 5 6 
#
# 1 49.2251 -25.4759 -1.8513 0.0000 0.0000 0.0000
# 2 -25.4759 92.0100 7.0396 0.0000 0.0000 0.0000
# 3 -1.8513 7.0396 127.1626 0.0000 0.0000 0.0000
# 4 0.0000 0.0000 0.0000 27.9274 0.0000 0.0000
# 5 0.0000 0.0000 0.0000 0.0000 -14.1450 0.0000
# 6 0.0000 0.0000 0.0000 0.0000 0.0000 25.1105
#
#
#
# Elastic Compliance Matrix: (Units=1/GPa)
#
#
# Indices 1 2 3 4 5 6 
#
# 1 0.023713 0.006567 -0.000018 0.000000 0.000000 0.000000
# 2 0.006567 0.012733 -0.000609 0.000000 0.000000 0.000000
# 3 -0.000018 -0.000609 0.007897 0.000000 0.000000 0.000000
# 4 0.000000 0.000000 0.000000 0.035807 0.000000 0.000000
# 5 0.000000 0.000000 0.000000 0.000000 -0.070697 0.000000
# 6 0.000000 0.000000 0.000000 0.000000 0.000000 0.039824
#
#
# Mechanical properties :
#
#
# Convention : Reuss Voigt Hill
#
# Bulk Modulus (GPa) = 17.78646 25.31359 21.55003
# Shear Modulus (GPa) = 89.06293 27.02428 58.04361
#
# Velocity S-wave (km/s) = 6.20465 3.41780 5.00894
# Velocity P-wave (km/s) = 7.68235 5.14946 6.53971
#
# Compressibility (1/GPa) = 0.05622253
#
# Stress axis : x y z
#
# Youngs Moduli (GPa) = 42.17117 78.53420 126.62383
#
# Poissons Ratio (x) = -0.51574 0.00232
# Poissons Ratio (y) = -0.27694 0.07715
# Poissons Ratio (z) = 0.00077 0.04785
#
# Static dielectric constant tensor:
#      x y z
#    x 2.025300 0.000000 0.000000 
#    y 0.000000 1.948130 0.000000 
#    z 0.000000 0.000000 1.913160 
# 
# From -- ./inp_files/22562.got.cif
#   From: 2010.05.17/outbox.cif.g08.bks.cpg/sg55_12_cif.got.tgz:22562.got - 2010.06.03 13:27:54.
