data_PCOD9428506
_publ_section_title
;
Structure prediction by ZEFSAII (Michael W. Deem and Ramdas Pophale) SiO2 
 PCOD9428506
Probable space group: P B A M
;
_chemical_formula_sum "Si O2"
_cell_formula_units_Z 32
_cell_length_a 5.186923
_cell_length_b 33.249762
_cell_length_c 8.086776
_cell_angle_alpha 90.000000
_cell_angle_beta 90.000000
_cell_angle_gamma 90.000000
_cell_volume 1394.677374
_symmetry_space_group_name_H-M "P B A M"
_symmetry_group_IT_number 55
_symmetry_cell_setting 'orthorhombic'
loop_
_space_group_symop_operation_xyz
x,y,z
-x,-y,z
1/2+x,1/2-y,-z
1/2-x,1/2+y,-z
-x,-y,-z
x,y,-z
1/2-x,1/2+y,z
1/2+x,1/2-y,z
loop_
_atom_site_type_symbol
_atom_site_label
_atom_site_fract_x
_atom_site_fract_y
_atom_site_fract_z
Si Si1 0.548025 0.047768 0.321493
Si Si2 0.199540 0.119600 0.304085
Si Si3 0.289331 0.833937 0.809860
Si Si4 0.808284 0.224321 0.500000
Si Si5 0.255645 0.471828 0.000000
O O1 0.653078 0.061576 0.500000
O O2 0.289398 0.073094 0.290300
O O3 0.500000 0.000000 0.333654
O O4 0.731800 0.053196 0.166499
O O5 0.173158 0.128146 0.500000
O O6 0.946135 0.135034 0.214488
O O7 0.442839 0.144017 0.231819
O O8 0.245104 0.800868 0.667025
O O9 0.291662 0.819281 0.000000
O O10 0.101961 0.239474 0.500000
O O11 0.500000 0.500000 0.000000
O O12 0.000000 0.500000 0.000000
#
# Coordination Sequence:
#
# PCOD9428506 Si02
#       5
#     8   8   8   4   4
#     4   9  21  40  63  93 130 180 236 290 339 393
#     4  11  22  44  70  97 142 189 234 287 347 402
#     4  12  26  45  72 107 141 182 227 276 341 415
#     4  12  26  48  78 106 143 176 217 276 340 412
#     4  10  22  38  56  84 122 162 216 282 338 386
#
# _framework density 22.944375999999998
#
# number of rings (size 3 to 8) (size 9 to 14) (size 15 to 20)
#    0.000    1.250    2.500    2.250    3.500    5.500 
#    0.000    7.500    0.000    0.000    0.000    0.000 
#    0.000    0.000    0.000    0.000    0.000    0.000 
#
# Total GULP energy -179031.537701 kJ/mol
# GULP energy per Si atom -5594.735553 kJ/mol
# Density = 2.289215 g / cm^3
# Si number density = 22.944376 Si / 1000 Ang^3
#
#
#
# Elastic Constant Matrix: (Units=GPa)
#
#
# Indices 1 2 3 4 5 6 
#
# 1 113.1294 7.5789 28.3268 0.0000 0.0000 0.0000
# 2 7.5789 73.1725 26.5658 0.0000 0.0000 0.0000
# 3 28.3268 26.5658 199.1451 0.0000 0.0000 0.0000
# 4 0.0000 0.0000 0.0000 4.8228 0.0000 0.0000
# 5 0.0000 0.0000 0.0000 0.0000 7.5144 0.0000
# 6 0.0000 0.0000 0.0000 0.0000 0.0000 40.2328
#
#
#
# Elastic Compliance Matrix: (Units=1/GPa)
#
#
# Indices 1 2 3 4 5 6 
#
# 1 0.009183 -0.000501 -0.001239 0.000000 0.000000 0.000000
# 2 -0.000501 0.014389 -0.001848 0.000000 0.000000 0.000000
# 3 -0.001239 -0.001848 0.005444 0.000000 0.000000 0.000000
# 4 0.000000 0.000000 0.000000 0.207348 0.000000 0.000000
# 5 0.000000 0.000000 0.000000 0.000000 0.133078 0.000000
# 6 0.000000 0.000000 0.000000 0.000000 0.000000 0.024855
#
#
# Mechanical properties :
#
#
# Convention : Reuss Voigt Hill
#
# Bulk Modulus (GPa) = 45.78908 56.71002 51.24955
# Shear Modulus (GPa) = 12.23224 32.04569 22.13897
#
# Velocity S-wave (km/s) = 2.31146 3.74126 3.10965
# Velocity P-wave (km/s) = 5.20804 6.59034 5.93954
#
# Compressibility (1/GPa) = 0.02183927
#
# Stress axis : x y z
#
# Youngs Moduli (GPa) = 108.89274 69.49624 183.67795
#
# Poissons Ratio (x) = 0.03483 0.22765
# Poissons Ratio (y) = 0.05458 0.33948
# Poissons Ratio (z) = 0.13496 0.12844
#
# Static dielectric constant tensor:
#      x y z
#    x 1.796840 0.000000 0.000000 
#    y 0.000000 1.869860 0.000000 
#    z 0.000000 0.000000 1.818100 
# 
# From -- ./inp_files/1377.got.cif
#   From: 2010.05.17/outbox.cif.g08.bks.cpg/sg55_1_cif.got.tgz:1377.got - 2010.06.03 13:27:54.
