data_PCOD9428609
_publ_section_title
;
Structure prediction by ZEFSAII (Michael W. Deem and Ramdas Pophale) SiO2 
 PCOD9428609
Probable space group: P B A M
;
_chemical_formula_sum "Si O2"
_cell_formula_units_Z 40
_cell_length_a 28.416408
_cell_length_b 10.513163
_cell_length_c 7.414787
_cell_angle_alpha 90.000000
_cell_angle_beta 90.000000
_cell_angle_gamma 90.000000
_cell_volume 2215.140398
_symmetry_space_group_name_H-M "P B A M"
_symmetry_group_IT_number 55
_symmetry_cell_setting 'orthorhombic'
loop_
_space_group_symop_operation_xyz
x,y,z
-x,-y,z
1/2+x,1/2-y,-z
1/2-x,1/2+y,-z
-x,-y,-z
x,y,-z
1/2-x,1/2+y,z
1/2+x,1/2-y,z
loop_
_atom_site_type_symbol
_atom_site_label
_atom_site_fract_x
_atom_site_fract_y
_atom_site_fract_z
Si Si1 0.294572 0.790518 0.000000
Si Si2 0.210283 0.990618 0.000000
Si Si3 0.369826 0.480922 0.289229
Si Si4 0.024043 0.369855 0.720169
Si Si5 0.031375 0.880264 0.720087
Si Si6 0.374734 0.781072 0.289136
O O1 0.253683 0.894448 0.000000
O O2 0.328984 0.807774 0.171244
O O3 0.277699 0.642188 0.000000
O O4 0.176556 0.965224 0.171261
O O5 0.360844 0.454896 0.500000
O O6 0.414553 0.399477 0.225881
O O7 0.384515 0.629563 0.274263
O O8 0.024554 0.368034 0.500000
O O9 0.078275 0.352463 0.774241
O O10 0.000000 0.500000 0.778284
O O11 0.993224 0.249284 0.778195
O O12 0.031586 0.882052 0.500000
O O13 0.000000 0.000000 0.778057
O O14 0.366654 0.809124 0.500000
#
# Coordination Sequence:
#
# PCOD9428609 Si02
#       6
#     4   4   8   8   8   8
#     4  10  22  40  58  74 100 133 172 223 269 304
#     4  10  22  40  56  75 102 131 170 224 269 304
#     4   9  17  32  56  80 102 134 175 211 250 304
#     4   9  16  27  46  76 111 139 166 202 246 300
#     4   9  14  25  48  75 104 136 166 201 242 292
#     4   9  17  33  56  78 103 139 174 203 251 315
#
# _framework density 18.057547
#
# number of rings (size 3 to 8) (size 9 to 14) (size 15 to 20)
#    0.000    2.800    2.000    0.000    0.000    0.800 
#    3.600    2.000    0.000    0.000    0.000    0.000 
#    0.000    0.000    0.000    0.000    0.000    0.000 
#
# Total GULP energy -223166.122042 kJ/mol
# GULP energy per Si atom -5579.153051 kJ/mol
# Density = 1.801645 g / cm^3
# Si number density = 18.057547 Si / 1000 Ang^3
#
#
#
# Elastic Constant Matrix: (Units=GPa)
#
#
# Indices 1 2 3 4 5 6 
#
# 1 157.3503 100.0939 51.4478 0.0000 0.0000 0.0000
# 2 100.0939 131.7595 34.9699 0.0000 0.0000 0.0000
# 3 51.4478 34.9699 76.7089 0.0000 0.0000 0.0000
# 4 0.0000 0.0000 0.0000 3.5553 0.0000 0.0000
# 5 0.0000 0.0000 0.0000 0.0000 19.7111 0.0000
# 6 0.0000 0.0000 0.0000 0.0000 0.0000 41.4505
#
#
#
# Elastic Compliance Matrix: (Units=1/GPa)
#
#
# Indices 1 2 3 4 5 6 
#
# 1 0.013864 -0.009174 -0.005116 0.000000 0.000000 0.000000
# 2 -0.009174 0.014705 -0.000551 0.000000 0.000000 0.000000
# 3 -0.005116 -0.000551 0.016719 0.000000 0.000000 0.000000
# 4 0.000000 0.000000 0.000000 0.281271 0.000000 0.000000
# 5 0.000000 0.000000 0.000000 0.000000 0.050733 0.000000
# 6 0.000000 0.000000 0.000000 0.000000 0.000000 0.024125
#
#
# Mechanical properties :
#
#
# Convention : Reuss Voigt Hill
#
# Bulk Modulus (GPa) = 64.07898 82.09356 73.08627
# Shear Modulus (GPa) = 11.46000 24.89719 18.17859
#
# Velocity S-wave (km/s) = 2.52193 3.71721 3.17630
# Velocity P-wave (km/s) = 6.63651 7.99902 7.34941
#
# Compressibility (1/GPa) = 0.01560574
#
# Stress axis : x y z
#
# Youngs Moduli (GPa) = 72.12978 68.00365 59.81345
#
# Poissons Ratio (x) = 0.62388 0.30601
# Poissons Ratio (y) = 0.66173 0.03294
# Poissons Ratio (z) = 0.36902 0.03745
#
# Static dielectric constant tensor:
#      x y z
#    x 1.583430 0.000000 0.000000 
#    y 0.000000 1.599010 0.000000 
#    z 0.000000 0.000000 1.672380 
# 
# From -- ./inp_files/2521.got.cif
#   From: 2010.05.17/outbox.cif.g08.bks.cpg/sg55_2_cif.got.tgz:2521.got - 2010.06.03 13:27:54.
