data_PCOD9428964
_publ_section_title
;
Structure prediction by ZEFSAII (Michael W. Deem and Ramdas Pophale) SiO2 
 PCOD9428964
Probable space group: P B A M
;
_chemical_formula_sum "Si O2"
_cell_formula_units_Z 64
_cell_length_a 23.940259
_cell_length_b 10.335540
_cell_length_c 13.112465
_cell_angle_alpha 90.000000
_cell_angle_beta 90.000000
_cell_angle_gamma 90.000000
_cell_volume 3244.489393
_symmetry_space_group_name_H-M "P B A M"
_symmetry_group_IT_number 55
_symmetry_cell_setting 'orthorhombic'
loop_
_space_group_symop_operation_xyz
x,y,z
-x,-y,z
1/2+x,1/2-y,-z
1/2-x,1/2+y,-z
-x,-y,-z
x,y,-z
1/2-x,1/2+y,z
1/2+x,1/2-y,z
loop_
_atom_site_type_symbol
_atom_site_label
_atom_site_fract_x
_atom_site_fract_y
_atom_site_fract_z
Si Si1 0.029822 0.633768 0.825888
Si Si2 0.349060 0.212847 0.888363
Si Si3 0.792822 0.987006 0.669644
Si Si4 0.920168 0.964759 0.613220
Si Si5 0.071272 0.726642 0.386928
Si Si6 0.959066 0.881318 0.170659
Si Si7 0.300817 0.209951 0.330413
Si Si8 0.841304 0.981079 0.111193
O O1 0.090890 0.646505 0.875166
O O2 0.040919 0.655092 0.704991
O O3 0.000000 0.500000 0.846982
O O4 0.990175 0.751182 0.858888
O O5 0.311405 0.185060 0.790328
O O6 0.358971 0.367779 0.883091
O O7 0.325355 0.182735 0.000000
O O8 0.853013 0.955483 0.620807
O O9 0.782189 0.140447 0.655138
O O10 0.802918 0.961444 0.790519
O O11 0.744049 0.893563 0.632161
O O12 0.938778 0.925843 0.500000
O O13 0.932561 0.117724 0.628200
O O14 0.946996 0.889420 0.707321
O O15 0.051195 0.694341 0.500000
O O16 0.137659 0.697777 0.378697
O O17 0.898327 0.900974 0.122280
O O18 0.000000 0.000000 0.144726
O O19 0.815677 0.957951 0.000000
#
# Coordination Sequence:
#
# PCOD9428964 Si02
#       8
#     8   8   8   8   8   8   8   8
#     4  11  22  35  51  74 108 140 166 207 258 301
#     4   9  18  35  55  75 101 137 174 204 248 309
#     4   9  18  34  53  75 104 133 167 204 256 304
#     4   9  18  33  55  79 101 128 172 219 249 291
#     4   9  18  35  55  75 101 137 174 204 248 309
#     4  11  18  33  55  78  98 132 176 206 245 299
#     4   9  18  34  55  76 100 135 167 208 253 302
#     4   9  18  33  55  79 101 128 172 219 249 291
#
# _framework density 19.725753999999998
#
# number of rings (size 3 to 8) (size 9 to 14) (size 15 to 20)
#    0.000    2.500    2.500    1.500    0.000    3.000 
#    9.000    0.000    0.000    0.000    0.000    0.000 
#    0.000    0.000    0.000    0.000    0.000    0.000 
#
# Total GULP energy -357252.694679 kJ/mol
# GULP energy per Si atom -5582.073354 kJ/mol
# Density = 1.968086 g / cm^3
# Si number density = 19.725754 Si / 1000 Ang^3
#
#
#
# Elastic Constant Matrix: (Units=GPa)
#
#
# Indices 1 2 3 4 5 6 
#
# 1 66.2227 40.2604 -14.3409 0.0000 0.0000 0.0000
# 2 40.2604 80.8830 -7.0413 0.0000 0.0000 0.0000
# 3 -14.3409 -7.0413 72.4734 0.0000 0.0000 0.0000
# 4 0.0000 0.0000 0.0000 7.8181 0.0000 0.0000
# 5 0.0000 0.0000 0.0000 0.0000 -6.2029 0.0000
# 6 0.0000 0.0000 0.0000 0.0000 0.0000 28.2369
#
#
#
# Elastic Compliance Matrix: (Units=1/GPa)
#
#
# Indices 1 2 3 4 5 6 
#
# 1 0.022447 -0.010879 0.003385 0.000000 0.000000 0.000000
# 2 -0.010879 0.017741 -0.000429 0.000000 0.000000 0.000000
# 3 0.003385 -0.000429 0.014426 0.000000 0.000000 0.000000
# 4 0.000000 0.000000 0.000000 0.127908 0.000000 0.000000
# 5 0.000000 0.000000 0.000000 0.000000 -0.161215 0.000000
# 6 0.000000 0.000000 0.000000 0.000000 0.000000 0.035415
#
#
# Mechanical properties :
#
#
# Convention : Reuss Voigt Hill
#
# Bulk Modulus (GPa) = 25.79367 28.59282 27.19324
# Shear Modulus (GPa) = 58.48557 19.35049 38.91803
#
# Velocity S-wave (km/s) = 5.45103 3.13545 4.44661
# Velocity P-wave (km/s) = 7.26105 5.25687 6.33867
#
# Compressibility (1/GPa) = 0.03876920
#
# Stress axis : x y z
#
# Youngs Moduli (GPa) = 44.54874 56.36600 69.31789
#
# Poissons Ratio (x) = 0.61319 -0.23463
# Poissons Ratio (y) = 0.48463 0.02974
# Poissons Ratio (z) = -0.15079 0.02418
#
# Static dielectric constant tensor:
#      x y z
#    x 1.675940 0.000000 0.000000 
#    y 0.000000 1.646760 0.000000 
#    z 0.000000 0.000000 1.742320 
# 
# From -- ./inp_files/19949.got.cif
#   From: 2010.05.17/outbox.cif.g08.bks.cpg/sg55_10_cif.got.tgz:19949.got - 2010.06.03 13:27:54.
