data_PCOD9428834
_publ_section_title
;
Structure prediction by ZEFSAII (Michael W. Deem and Ramdas Pophale) SiO2 
 PCOD9428834
Probable space group: P B A M
;
_chemical_formula_sum "Si O2"
_cell_formula_units_Z 58
_cell_length_a 22.213219
_cell_length_b 8.396692
_cell_length_c 15.287180
_cell_angle_alpha 90.000000
_cell_angle_beta 90.000000
_cell_angle_gamma 90.000000
_cell_volume 2851.327486
_symmetry_space_group_name_H-M "P B A M"
_symmetry_group_IT_number 55
_symmetry_cell_setting 'orthorhombic'
loop_
_space_group_symop_operation_xyz
x,y,z
-x,-y,z
1/2+x,1/2-y,-z
1/2-x,1/2+y,-z
-x,-y,-z
x,y,-z
1/2-x,1/2+y,z
1/2+x,1/2-y,z
loop_
_atom_site_type_symbol
_atom_site_label
_atom_site_fract_x
_atom_site_fract_y
_atom_site_fract_z
Si Si1 0.839842 0.224140 0.400643
Si Si2 0.233342 0.141226 0.860382
Si Si3 0.657190 0.659639 0.090913
Si Si4 0.083501 0.685364 0.237522
Si Si5 0.969789 0.843348 0.815081
Si Si6 0.500000 0.500000 0.000000
Si Si7 0.762027 0.500685 0.668140
Si Si8 0.144185 0.343962 0.224936
O O1 0.859206 0.199907 0.500000
O O2 0.893541 0.266518 0.333761
O O3 0.799016 0.078093 0.366097
O O4 0.793602 0.373043 0.393600
O O5 0.293962 0.199271 0.905530
O O6 0.191286 0.296830 0.850684
O O7 0.194598 0.001885 0.902177
O O8 0.250083 0.082725 0.762291
O O9 0.614571 0.687952 0.172027
O O10 0.620908 0.660066 0.000000
O O11 0.110287 0.511746 0.215735
O O12 0.013902 0.701451 0.215059
O O13 0.904414 0.796616 0.779624
O O14 0.000000 0.000000 0.772687
O O15 0.972667 0.882674 0.919242
O O16 0.813236 0.633254 0.690256
#
# Coordination Sequence:
#
# PCOD9428834 Si02
#       8
#     8   8   8   8   8   2   8   8
#     4  11  22  37  64  94 124 162 206 261 320 382
#     4  12  19  39  57  84 124 163 202 255 310 372
#     4  12  23  35  56  83 120 166 205 251 309 370
#     4  11  22  41  61  89 124 164 208 261 314 373
#     4  10  23  41  64  89 122 167 214 259 309 366
#     4   8  24  44  62  92 118 168 226 268 304 360
#     4  11  19  37  62  88 127 159 204 254 323 376
#     4  11  21  38  63  86 121 169 204 255 315 370
#
# _framework density 20.341404000000001
#
# number of rings (size 3 to 8) (size 9 to 14) (size 15 to 20)
#    0.414    0.552    6.897    2.069    0.966    0.000 
#    2.483    0.690    0.000    7.862    0.000    0.000 
#    0.000    0.000    0.000    0.000    0.000    0.000 
#
# Total GULP energy -323123.794548 kJ/mol
# GULP energy per Si atom -5571.099906 kJ/mol
# Density = 2.029511 g / cm^3
# Si number density = 20.341404 Si / 1000 Ang^3
#
#
#
# Elastic Constant Matrix: (Units=GPa)
#
#
# Indices 1 2 3 4 5 6 
#
# 1 61.5281 2.2646 15.5775 0.0000 0.0000 0.0000
# 2 2.2646 65.6854 20.3087 0.0000 0.0000 0.0000
# 3 15.5775 20.3087 118.6222 0.0000 0.0000 0.0000
# 4 0.0000 0.0000 0.0000 6.8446 0.0000 0.0000
# 5 0.0000 0.0000 0.0000 0.0000 11.0256 0.0000
# 6 0.0000 0.0000 0.0000 0.0000 0.0000 41.2076
#
#
#
# Elastic Compliance Matrix: (Units=1/GPa)
#
#
# Indices 1 2 3 4 5 6 
#
# 1 0.016812 0.000109 -0.002226 0.000000 0.000000 0.000000
# 2 0.000109 0.016076 -0.002767 0.000000 0.000000 0.000000
# 3 -0.002226 -0.002767 0.009196 0.000000 0.000000 0.000000
# 4 0.000000 0.000000 0.000000 0.146101 0.000000 0.000000
# 5 0.000000 0.000000 0.000000 0.000000 0.090698 0.000000
# 6 0.000000 0.000000 0.000000 0.000000 0.000000 0.024267
#
#
# Mechanical properties :
#
#
# Convention : Reuss Voigt Hill
#
# Bulk Modulus (GPa) = 30.94458 35.79303 33.36880
# Shear Modulus (GPa) = 15.44685 25.66123 20.55404
#
# Velocity S-wave (km/s) = 2.75867 3.55565 3.18221
# Velocity P-wave (km/s) = 5.03911 5.87292 5.47192
#
# Compressibility (1/GPa) = 0.03231584
#
# Stress axis : x y z
#
# Youngs Moduli (GPa) = 59.47986 62.20576 108.74129
#
# Poissons Ratio (x) = -0.00676 0.24211
# Poissons Ratio (y) = -0.00647 0.30083
# Poissons Ratio (z) = 0.13243 0.17209
#
# Static dielectric constant tensor:
#      x y z
#    x 2.140040 0.000000 0.000000 
#    y 0.000000 1.799650 0.000000 
#    z 0.000000 0.000000 1.715090 
# 
# From -- ./inp_files/19947.got.cif
#   From: 2010.05.17/outbox.cif.g08.bks.cpg/sg55_10_cif.got.tgz:19947.got - 2010.06.03 13:27:54.
