data_PCOD9428424
_publ_section_title
;
Structure prediction by ZEFSAII (Michael W. Deem and Ramdas Pophale) SiO2 
 PCOD9428424
Probable space group: P B A M
;
_chemical_formula_sum "Si O2"
_cell_formula_units_Z 48
_cell_length_a 14.382130
_cell_length_b 9.460601
_cell_length_c 16.980425
_cell_angle_alpha 90.000000
_cell_angle_beta 90.000000
_cell_angle_gamma 90.000000
_cell_volume 2310.417644
_symmetry_space_group_name_H-M "P B A M"
_symmetry_group_IT_number 55
_symmetry_cell_setting 'orthorhombic'
loop_
_space_group_symop_operation_xyz
x,y,z
-x,-y,z
1/2+x,1/2-y,-z
1/2-x,1/2+y,-z
-x,-y,-z
x,y,-z
1/2-x,1/2+y,z
1/2+x,1/2-y,z
loop_
_atom_site_type_symbol
_atom_site_label
_atom_site_fract_x
_atom_site_fract_y
_atom_site_fract_z
Si Si1 0.500000 0.000000 0.879175
Si Si2 0.104923 0.026261 0.158941
Si Si3 0.288297 0.444355 0.000000
Si Si4 0.881927 0.358891 0.000000
Si Si5 0.106152 0.329735 0.238228
Si Si6 0.500000 0.000000 0.359112
Si Si7 0.189973 0.632097 0.409248
Si Si8 0.801287 0.091067 0.311717
O O1 0.453989 0.126764 0.928148
O O2 0.583888 0.053794 0.826729
O O3 0.168484 0.002857 0.082087
O O4 0.133070 0.933905 0.236102
O O5 0.107361 0.182448 0.194562
O O6 0.000000 0.000000 0.133296
O O7 0.315845 0.277571 0.000000
O O8 0.182085 0.499615 0.000000
O O9 0.028951 0.366013 0.304266
O O10 0.204981 0.356618 0.275177
O O11 0.593922 0.957367 0.403865
O O12 0.217777 0.647417 0.500000
O O13 0.169335 0.784106 0.370323
O O14 0.270535 0.549423 0.360255
#
# Coordination Sequence:
#
# PCOD9428424 Si02
#       8
#     4   8   4   4   8   4   8   8
#     4  10  22  43  71  88 130 172 220 269 337 394
#     4  12  25  42  67  92 135 169 228 274 327 385
#     4  12  29  42  66  97 135 175 230 277 337 381
#     4  11  26  44  62  94 132 172 218 282 336 387
#     4  10  21  41  66  96 124 174 219 265 324 399
#     4   9  21  39  67  97 133 172 218 262 338 398
#     4  11  22  41  67  99 133 172 220 270 331 400
#     4  11  23  41  68  95 133 175 216 272 331 393
#
# _framework density 20.775465000000001
#
# number of rings (size 3 to 8) (size 9 to 14) (size 15 to 20)
#    0.000    1.167    1.667    4.000    4.667    3.333 
#    0.000    0.000    0.000    2.000    0.000    0.000 
#    0.000    0.000    0.000    0.000    0.000    0.000 
#
# Total GULP energy -267833.871340 kJ/mol
# GULP energy per Si atom -5579.872320 kJ/mol
# Density = 2.072818 g / cm^3
# Si number density = 20.775465 Si / 1000 Ang^3
#
#
#
# Elastic Constant Matrix: (Units=GPa)
#
#
# Indices 1 2 3 4 5 6 
#
# 1 52.3496 -14.4007 8.5087 0.0000 0.0000 0.0000
# 2 -14.4007 80.4658 21.2348 0.0000 0.0000 0.0000
# 3 8.5087 21.2348 110.9547 0.0000 0.0000 0.0000
# 4 0.0000 0.0000 0.0000 16.1278 0.0000 0.0000
# 5 0.0000 0.0000 0.0000 0.0000 18.0321 0.0000
# 6 0.0000 0.0000 0.0000 0.0000 0.0000 22.6533
#
#
#
# Elastic Compliance Matrix: (Units=1/GPa)
#
#
# Indices 1 2 3 4 5 6 
#
# 1 0.020689 0.004341 -0.002417 0.000000 0.000000 0.000000
# 2 0.004341 0.013999 -0.003012 0.000000 0.000000 0.000000
# 3 -0.002417 -0.003012 0.009775 0.000000 0.000000 0.000000
# 4 0.000000 0.000000 0.000000 0.062005 0.000000 0.000000
# 5 0.000000 0.000000 0.000000 0.000000 0.055457 0.000000
# 6 0.000000 0.000000 0.000000 0.000000 0.000000 0.044144
#
#
# Mechanical properties :
#
#
# Convention : Reuss Voigt Hill
#
# Bulk Modulus (GPa) = 23.64874 30.49509 27.07191
# Shear Modulus (GPa) = 22.48796 26.59110 24.53953
#
# Velocity S-wave (km/s) = 3.29360 3.58149 3.44056
# Velocity P-wave (km/s) = 5.08640 5.64030 5.37050
#
# Compressibility (1/GPa) = 0.04228556
#
# Stress axis : x y z
#
# Youngs Moduli (GPa) = 48.33424 71.43185 102.30672
#
# Poissons Ratio (x) = -0.31006 0.24731
# Poissons Ratio (y) = -0.20980 0.30816
# Poissons Ratio (z) = 0.11684 0.21516
#
# Static dielectric constant tensor:
#      x y z
#    x 1.733470 0.000000 0.000000 
#    y 0.000000 1.749670 0.000000 
#    z 0.000000 0.000000 1.770400 
# 
# From -- ./inp_files/21558.got.cif
#   From: 2010.05.17/outbox.cif.g08.bks.cpg/sg55_11_cif.got.tgz:21558.got - 2010.06.03 13:27:54.
