data_PCOD9428236
_publ_section_title
;
Structure prediction by ZEFSAII (Michael W. Deem and Ramdas Pophale) SiO2 
 PCOD9428236
Probable space group: P B A M
;
_chemical_formula_sum "Si O2"
_cell_formula_units_Z 52
_cell_length_a 18.914931
_cell_length_b 15.710151
_cell_length_c 7.475713
_cell_angle_alpha 90.000000
_cell_angle_beta 90.000000
_cell_angle_gamma 90.000000
_cell_volume 2221.456128
_symmetry_space_group_name_H-M "P B A M"
_symmetry_group_IT_number 55
_symmetry_cell_setting 'orthorhombic'
loop_
_space_group_symop_operation_xyz
x,y,z
-x,-y,z
1/2+x,1/2-y,-z
1/2-x,1/2+y,-z
-x,-y,-z
x,y,-z
1/2-x,1/2+y,z
1/2+x,1/2-y,z
loop_
_atom_site_type_symbol
_atom_site_label
_atom_site_fract_x
_atom_site_fract_y
_atom_site_fract_z
Si Si1 0.727648 0.275784 0.000000
Si Si2 0.382146 0.654415 0.704942
Si Si3 0.601662 0.060371 0.282793
Si Si4 0.943804 0.381693 0.282310
Si Si5 0.243514 0.349769 0.295023
Si Si6 0.867843 0.034473 0.205965
Si Si7 0.460555 0.303566 0.716174
O O1 0.679034 0.320674 0.158645
O O2 0.768533 0.220615 0.157351
O O3 0.367864 0.681142 0.500000
O O4 0.392547 0.552745 0.706561
O O5 0.456512 0.695740 0.761567
O O6 0.604409 0.060943 0.500000
O O7 0.604026 0.961497 0.223729
O O8 0.524765 0.095569 0.231770
O O9 0.666645 0.118647 0.225543
O O10 0.942054 0.381993 0.500000
O O11 0.928238 0.286380 0.222302
O O12 0.240290 0.321342 0.500000
O O13 0.295791 0.429882 0.288960
O O14 0.923408 0.111283 0.218540
O O15 0.854344 0.015366 0.000000
O O16 0.455466 0.305765 0.500000
#
# Coordination Sequence:
#
# PCOD9428236 Si02
#       7
#     4   8   8   8   8   8   8
#     4  12  24  42  67 101 131 172 221 281 329 402
#     4  11  24  44  71 101 132 174 225 281 345 411
#     4   8  15  31  60  91 125 169 213 262 328 396
#     4   8  14  30  58  95 128 159 211 273 326 388
#     4  11  23  43  67  94 133 181 226 275 337 410
#     4  12  25  45  65  94 135 181 228 283 346 408
#     4  10  21  38  66 100 131 171 228 286 346 411
#
# _framework density 23.408071
#
# number of rings (size 3 to 8) (size 9 to 14) (size 15 to 20)
#    0.000    1.846    1.538    4.154    1.077    4.308 
#    2.769    0.000    1.692    1.846    0.000    0.000 
#    0.000    0.000    0.000    0.000    0.000    0.000 
#
# Total GULP energy -289773.568682 kJ/mol
# GULP energy per Si atom -5572.568629 kJ/mol
# Density = 2.335479 g / cm^3
# Si number density = 23.408071 Si / 1000 Ang^3
#
#
#
# Elastic Constant Matrix: (Units=GPa)
#
#
# Indices 1 2 3 4 5 6 
#
# 1 24.1574 24.3164 6.1761 0.0000 0.0000 0.0000
# 2 24.3164 109.4970 10.4972 0.0000 0.0000 0.0000
# 3 6.1761 10.4972 114.7135 0.0000 0.0000 0.0000
# 4 0.0000 0.0000 0.0000 5.8511 0.0000 0.0000
# 5 0.0000 0.0000 0.0000 0.0000 14.1158 0.0000
# 6 0.0000 0.0000 0.0000 0.0000 0.0000 -18.3380
#
#
#
# Elastic Compliance Matrix: (Units=1/GPa)
#
#
# Indices 1 2 3 4 5 6 
#
# 1 0.053684 -0.011748 -0.001815 0.000000 0.000000 0.000000
# 2 -0.011748 0.011784 -0.000446 0.000000 0.000000 0.000000
# 3 -0.001815 -0.000446 0.008856 0.000000 0.000000 0.000000
# 4 0.000000 0.000000 0.000000 0.170908 0.000000 0.000000
# 5 0.000000 0.000000 0.000000 0.000000 0.070842 0.000000
# 6 0.000000 0.000000 0.000000 0.000000 0.000000 -0.054532
#
#
# Mechanical properties :
#
#
# Convention : Reuss Voigt Hill
#
# Bulk Modulus (GPa) = 21.59523 36.70525 29.15024
# Shear Modulus (GPa) = 16.39363 14.15101 15.27232
#
# Velocity S-wave (km/s) = 2.64927 2.46140 2.55706
# Velocity P-wave (km/s) = 4.31320 4.87777 4.60415
#
# Compressibility (1/GPa) = 0.04630652
#
# Stress axis : x y z
#
# Youngs Moduli (GPa) = 18.62741 84.85870 112.91902
#
# Poissons Ratio (x) = 0.99691 0.20498
# Poissons Ratio (y) = 0.21883 0.05035
# Poissons Ratio (z) = 0.03381 0.03784
#
# Static dielectric constant tensor:
#      x y z
#    x 1.894550 0.000000 0.000000 
#    y 0.000000 1.902170 0.000000 
#    z 0.000000 0.000000 1.923390 
# 
# From -- ./inp_files/8594.got.cif
#   From: 2010.05.17/outbox.cif.g08.bks.cpg/sg55_5_cif.got.tgz:8594.got - 2010.06.03 13:27:54.
