data_PCOD9428346
_publ_section_title
;
Structure prediction by ZEFSAII (Michael W. Deem and Ramdas Pophale) SiO2 
 PCOD9428346
Probable space group: P B A M
;
_chemical_formula_sum "Si O2"
_cell_formula_units_Z 64
_cell_length_a 9.052295
_cell_length_b 28.284837
_cell_length_c 11.603243
_cell_angle_alpha 90.000000
_cell_angle_beta 90.000000
_cell_angle_gamma 90.000000
_cell_volume 2970.925534
_symmetry_space_group_name_H-M "P B A M"
_symmetry_group_IT_number 55
_symmetry_cell_setting 'orthorhombic'
loop_
_space_group_symop_operation_xyz
x,y,z
-x,-y,z
1/2+x,1/2-y,-z
1/2-x,1/2+y,-z
-x,-y,-z
x,y,-z
1/2-x,1/2+y,z
1/2+x,1/2-y,z
loop_
_atom_site_type_symbol
_atom_site_label
_atom_site_fract_x
_atom_site_fract_y
_atom_site_fract_z
Si Si1 0.897238 0.628554 0.302752
Si Si2 0.830896 0.077039 0.131972
Si Si3 0.470130 0.268992 0.236005
Si Si4 0.098740 0.132498 0.787118
Si Si5 0.789886 0.726157 0.622506
Si Si6 0.189047 0.580230 0.631545
Si Si7 0.831946 0.479505 0.870169
Si Si8 0.609910 0.821380 0.877168
O O1 0.779879 0.599989 0.226130
O O2 0.817493 0.670124 0.372427
O O3 0.018608 0.598081 0.371069
O O4 0.005890 0.656425 0.217495
O O5 0.999784 0.089354 0.166074
O O6 0.785296 0.022151 0.131717
O O7 0.806112 0.094284 0.000000
O O8 0.482378 0.324299 0.215149
O O9 0.629166 0.249881 0.270127
O O10 0.378167 0.262013 0.352476
O O11 0.400168 0.235099 0.140403
O O12 0.184496 0.118756 0.668395
O O13 0.230605 0.154531 0.863493
O O14 0.835659 0.745455 0.500000
O O15 0.221217 0.562567 0.500000
O O16 0.190066 0.549253 0.750829
O O17 0.000000 0.500000 0.866013
O O18 0.819934 0.456420 0.000000
O O19 0.547217 0.833918 0.000000
#
# Coordination Sequence:
#
# PCOD9428346 Si02
#       8
#     8   8   8   8   8   8   8   8
#     4  10  21  40  62  95 125 163 221 269 327 390
#     4  11  22  40  68 100 132 170 219 275 335 413
#     4  11  22  41  57  89 121 161 222 261 318 384
#     4  11  24  43  61  93 135 172 220 272 333 393
#     4  11  22  38  59  82 119 164 207 262 321 384
#     4  11  25  45  70  98 135 178 225 278 338 406
#     4  10  22  43  72 103 135 173 220 276 340 412
#     4  10  22  39  61  88 128 173 212 267 327 385
#
# _framework density 21.542109
#
# number of rings (size 3 to 8) (size 9 to 14) (size 15 to 20)
#    0.000    1.375    3.750    1.500    0.000    5.250 
#    0.000    2.500    0.000    0.000    0.000    0.000 
#    0.000    0.000    0.000    0.000    0.000    0.000 
#
# Total GULP energy -356363.803814 kJ/mol
# GULP energy per Si atom -5568.184435 kJ/mol
# Density = 2.149308 g / cm^3
# Si number density = 21.542109 Si / 1000 Ang^3
#
#
#
# Elastic Constant Matrix: (Units=GPa)
#
#
# Indices 1 2 3 4 5 6 
#
# 1 73.5553 5.9571 17.5551 0.0000 0.0000 0.0000
# 2 5.9571 49.4500 25.7945 0.0000 0.0000 0.0000
# 3 17.5551 25.7945 130.1576 0.0000 0.0000 0.0000
# 4 0.0000 0.0000 0.0000 10.3507 0.0000 0.0000
# 5 0.0000 0.0000 0.0000 0.0000 228.1348 0.0000
# 6 0.0000 0.0000 0.0000 0.0000 0.0000 29.0118
#
#
#
# Elastic Compliance Matrix: (Units=1/GPa)
#
#
# Indices 1 2 3 4 5 6 
#
# 1 0.014075 -0.000787 -0.001742 0.000000 0.000000 0.000000
# 2 -0.000787 0.022598 -0.004372 0.000000 0.000000 0.000000
# 3 -0.001742 -0.004372 0.008785 0.000000 0.000000 0.000000
# 4 0.000000 0.000000 0.000000 0.096612 0.000000 0.000000
# 5 0.000000 0.000000 0.000000 0.000000 0.004383 0.000000
# 6 0.000000 0.000000 0.000000 0.000000 0.000000 0.034469
#
#
# Mechanical properties :
#
#
# Convention : Reuss Voigt Hill
#
# Bulk Modulus (GPa) = 31.59118 39.08625 35.33872
# Shear Modulus (GPa) = 24.35747 67.08987 45.72367
#
# Velocity S-wave (km/s) = 3.36622 5.58670 4.61209
# Velocity P-wave (km/s) = 5.45942 7.73295 6.69342
#
# Compressibility (1/GPa) = 0.03165440
#
# Stress axis : x y z
#
# Youngs Moduli (GPa) = 71.04900 44.25178 113.83672
#
# Poissons Ratio (x) = 0.03481 0.19836
# Poissons Ratio (y) = 0.05589 0.49773
# Poissons Ratio (z) = 0.12380 0.19348
#
# Static dielectric constant tensor:
#      x y z
#    x 1.775680 0.000000 0.000000 
#    y 0.000000 1.873830 0.000000 
#    z 0.000000 0.000000 1.784920 
# 
# From -- ./inp_files/12628.got.cif
#   From: 2010.05.17/outbox.cif.g08.bks.cpg/sg55_7_cif.got.tgz:12628.got - 2010.06.03 13:27:54.
