data_PCOD9428261
_publ_section_title
;
Structure prediction by ZEFSAII (Michael W. Deem and Ramdas Pophale) SiO2 
 PCOD9428261
Probable space group: P B A M
;
_chemical_formula_sum "Si O2"
_cell_formula_units_Z 32
_cell_length_a 8.830654
_cell_length_b 15.633593
_cell_length_c 13.119590
_cell_angle_alpha 90.000000
_cell_angle_beta 90.000000
_cell_angle_gamma 90.000000
_cell_volume 1811.223037
_symmetry_space_group_name_H-M "P B A M"
_symmetry_group_IT_number 55
_symmetry_cell_setting 'orthorhombic'
loop_
_space_group_symop_operation_xyz
x,y,z
-x,-y,z
1/2+x,1/2-y,-z
1/2-x,1/2+y,-z
-x,-y,-z
x,y,-z
1/2-x,1/2+y,z
1/2+x,1/2-y,z
loop_
_atom_site_type_symbol
_atom_site_label
_atom_site_fract_x
_atom_site_fract_y
_atom_site_fract_z
Si Si1 0.163801 0.690170 0.380102
Si Si2 0.326835 0.967054 0.882547
Si Si3 0.166337 0.354140 0.701885
Si Si4 0.674651 0.476254 0.690608
O O1 0.143231 0.704221 0.500000
O O2 0.230025 0.775566 0.330079
O O3 0.278414 0.611557 0.361370
O O4 0.004099 0.664649 0.330807
O O5 0.322567 0.877107 0.821906
O O6 0.500000 0.000000 0.876228
O O7 0.222027 0.026449 0.810642
O O8 0.281861 0.963274 0.000000
O O9 0.225412 0.443076 0.652046
O O10 0.500000 0.500000 0.679397
#
# Coordination Sequence:
#
# PCOD9428261 Si02
#       4
#     8   8   8   8
#     4  12  23  38  61  86 118 163 200 248 307 354
#     4   9  18  40  66  87 118 158 195 247 308 352
#     4  10  22  40  57  89 121 153 205 254 293 368
#     4  10  21  39  61  87 123 152 201 250 295 365
#
# _framework density 17.667622000000001
#
# number of rings (size 3 to 8) (size 9 to 14) (size 15 to 20)
#    1.500    0.250    2.500    3.000    0.000    4.000 
#    0.000    2.500    0.000    0.000    0.000    0.000 
#    0.000    0.000    0.000    0.000    0.000    0.000 
#
# Total GULP energy -178255.326855 kJ/mol
# GULP energy per Si atom -5570.478964 kJ/mol
# Density = 1.762741 g / cm^3
# Si number density = 17.667622 Si / 1000 Ang^3
#
#
#
# Elastic Constant Matrix: (Units=GPa)
#
#
# Indices 1 2 3 4 5 6 
#
# 1 17.5693 -25.8012 -3.5747 0.0000 0.0000 0.0000
# 2 -25.8012 74.1920 13.5372 0.0000 0.0000 0.0000
# 3 -3.5747 13.5372 54.1214 0.0000 0.0000 0.0000
# 4 0.0000 0.0000 0.0000 25.8280 0.0000 0.0000
# 5 0.0000 0.0000 0.0000 0.0000 -11.0393 0.0000
# 6 0.0000 0.0000 0.0000 0.0000 0.0000 38.1014
#
#
#
# Elastic Compliance Matrix: (Units=1/GPa)
#
#
# Indices 1 2 3 4 5 6 
#
# 1 0.116662 0.041038 -0.002559 0.000000 0.000000 0.000000
# 2 0.041038 0.028559 -0.004433 0.000000 0.000000 0.000000
# 3 -0.002559 -0.004433 0.019417 0.000000 0.000000 0.000000
# 4 0.000000 0.000000 0.000000 0.038718 0.000000 0.000000
# 5 0.000000 0.000000 0.000000 0.000000 -0.090585 0.000000
# 6 0.000000 0.000000 0.000000 0.000000 0.000000 0.026246
#
#
# Mechanical properties :
#
#
# Convention : Reuss Voigt Hill
#
# Bulk Modulus (GPa) = 4.29685 12.68948 8.49317
# Shear Modulus (GPa) = 33.66995 21.35944 27.51469
#
# Velocity S-wave (km/s) = 4.37022 3.48078 3.95061
# Velocity P-wave (km/s) = 5.28227 4.83243 5.06235
#
# Compressibility (1/GPa) = 0.23272842
#
# Stress axis : x y z
#
# Youngs Moduli (GPa) = 8.57179 35.01561 51.50209
#
# Poissons Ratio (x) = -1.43696 0.13180
# Poissons Ratio (y) = -0.35177 0.22830
# Poissons Ratio (z) = 0.02194 0.15522
#
# Static dielectric constant tensor:
#      x y z
#    x 1.594160 0.000000 0.000000 
#    y 0.000000 1.588370 0.000000 
#    z 0.000000 0.000000 1.608940 
# 
# From -- ./inp_files/14614.got.cif
#   From: 2010.05.17/outbox.cif.g08.bks.cpg/sg55_8_cif.got.tgz:14614.got - 2010.06.03 13:27:54.
