data_PCOD9428854
_publ_section_title
;
Structure prediction by ZEFSAII (Michael W. Deem and Ramdas Pophale) SiO2 
 PCOD9428854
Probable space group: P B A M
;
_chemical_formula_sum "Si O2"
_cell_formula_units_Z 58
_cell_length_a 7.576073
_cell_length_b 19.449025
_cell_length_c 18.108259
_cell_angle_alpha 90.000000
_cell_angle_beta 90.000000
_cell_angle_gamma 90.000000
_cell_volume 2668.201861
_symmetry_space_group_name_H-M "P B A M"
_symmetry_group_IT_number 55
_symmetry_cell_setting 'orthorhombic'
loop_
_space_group_symop_operation_xyz
x,y,z
-x,-y,z
1/2+x,1/2-y,-z
1/2-x,1/2+y,-z
-x,-y,-z
x,y,-z
1/2-x,1/2+y,z
1/2+x,1/2-y,z
loop_
_atom_site_type_symbol
_atom_site_label
_atom_site_fract_x
_atom_site_fract_y
_atom_site_fract_z
Si Si1 0.440037 0.313713 0.824487
Si Si2 0.155189 0.554046 0.079303
Si Si3 0.447692 0.829632 0.584120
Si Si4 0.414613 0.308632 0.343833
Si Si5 0.725176 0.419645 0.622687
Si Si6 0.000000 0.000000 0.500000
Si Si7 0.348893 0.551559 0.778051
Si Si8 0.910529 0.684222 0.087978
O O1 0.398057 0.286849 0.741943
O O2 0.568871 0.376418 0.805221
O O3 0.528435 0.255322 0.874713
O O4 0.265396 0.337312 0.868034
O O5 0.262860 0.525554 0.147464
O O6 0.000000 0.500000 0.070805
O O7 0.064479 0.627505 0.096250
O O8 0.250847 0.559786 0.000000
O O9 0.387089 0.823592 0.500000
O O10 0.272517 0.840195 0.632358
O O11 0.540344 0.759126 0.609839
O O12 0.597945 0.886618 0.590772
O O13 0.571942 0.362095 0.361367
O O14 0.637634 0.472154 0.565434
O O15 0.771333 0.443259 0.705991
O O16 0.500000 0.500000 0.753457
O O17 0.876815 0.691799 0.000000
#
# Coordination Sequence:
#
# PCOD9428854 Si02
#       8
#     8   8   8   8   8   2   8   8
#     4  11  24  40  64  94 134 176 218 283 338 401
#     4  10  23  42  67  97 134 175 220 277 330 400
#     4  12  24  40  67 102 130 172 219 278 343 407
#     4  11  25  41  68 102 137 170 225 278 347 407
#     4  11  26  46  69  96 138 180 222 286 339 408
#     4  12  24  52  70  88 146 186 224 282 342 396
#     4  11  24  44  66  94 128 176 230 270 340 408
#     4  11  23  40  64  97 134 174 222 273 338 404
#
# _framework density 21.737486000000001
#
# number of rings (size 3 to 8) (size 9 to 14) (size 15 to 20)
#    0.000    0.966    2.759    3.310    7.724    2.483 
#    0.000    1.379    0.000    0.000    0.000    0.000 
#    0.000    0.000    0.000    0.000    0.000    0.000 
#
# Total GULP energy -323579.580837 kJ/mol
# GULP energy per Si atom -5578.958290 kJ/mol
# Density = 2.168801 g / cm^3
# Si number density = 21.737486 Si / 1000 Ang^3
#
#
#
# Elastic Constant Matrix: (Units=GPa)
#
#
# Indices 1 2 3 4 5 6 
#
# 1 49.3989 -23.4011 1.4573 0.0000 0.0000 0.0000
# 2 -23.4011 26.1298 -14.0333 0.0000 0.0000 0.0000
# 3 1.4573 -14.0333 116.5941 0.0000 0.0000 0.0000
# 4 0.0000 0.0000 0.0000 18.9947 0.0000 0.0000
# 5 0.0000 0.0000 0.0000 0.0000 28.2773 0.0000
# 6 0.0000 0.0000 0.0000 0.0000 0.0000 -49.0921
#
#
#
# Elastic Compliance Matrix: (Units=1/GPa)
#
#
# Indices 1 2 3 4 5 6 
#
# 1 0.036617 0.034797 0.003730 0.000000 0.000000 0.000000
# 2 0.034797 0.073982 0.008470 0.000000 0.000000 0.000000
# 3 0.003730 0.008470 0.009550 0.000000 0.000000 0.000000
# 4 0.000000 0.000000 0.000000 0.052646 0.000000 0.000000
# 5 0.000000 0.000000 0.000000 0.000000 0.035364 0.000000
# 6 0.000000 0.000000 0.000000 0.000000 0.000000 -0.020370
#
#
# Mechanical properties :
#
#
# Convention : Reuss Voigt Hill
#
# Bulk Modulus (GPa) = 4.66981 13.35208 9.01094
# Shear Modulus (GPa) = 30.27072 14.84265 22.55668
#
# Velocity S-wave (km/s) = 3.73575 2.61590 3.22481
# Velocity P-wave (km/s) = 4.55639 3.90893 4.24502
#
# Compressibility (1/GPa) = 0.21414147
#
# Stress axis : x y z
#
# Youngs Moduli (GPa) = 27.30972 13.51684 104.71714
#
# Poissons Ratio (x) = -0.47034 -0.39064
# Poissons Ratio (y) = -0.95028 -0.88691
# Poissons Ratio (z) = -0.10188 -0.11448
#
# Static dielectric constant tensor:
#      x y z
#    x 1.793200 0.000000 0.000000 
#    y 0.000000 1.803230 0.000000 
#    z 0.000000 0.000000 1.915150 
# 
# From -- ./inp_files/20994.got.cif
#   From: 2010.05.17/outbox.cif.g08.bks.cpg/sg55_11_cif.got.tgz:20994.got - 2010.06.03 13:27:54.
