data_PCOD9428990
_publ_section_title
;
Structure prediction by ZEFSAII (Michael W. Deem and Ramdas Pophale) SiO2 
 PCOD9428990
Probable space group: P B A M
;
_chemical_formula_sum "Si O2"
_cell_formula_units_Z 44
_cell_length_a 13.129588
_cell_length_b 8.960750
_cell_length_c 17.924445
_cell_angle_alpha 90.000000
_cell_angle_beta 90.000000
_cell_angle_gamma 90.000000
_cell_volume 2108.828084
_symmetry_space_group_name_H-M "P B A M"
_symmetry_group_IT_number 55
_symmetry_cell_setting 'orthorhombic'
loop_
_space_group_symop_operation_xyz
x,y,z
-x,-y,z
1/2+x,1/2-y,-z
1/2-x,1/2+y,-z
-x,-y,-z
x,y,-z
1/2-x,1/2+y,z
1/2+x,1/2-y,z
loop_
_atom_site_type_symbol
_atom_site_label
_atom_site_fract_x
_atom_site_fract_y
_atom_site_fract_z
Si Si1 0.603597 0.550135 0.632035
Si Si2 0.000000 0.500000 0.631805
Si Si3 0.438614 0.724310 0.715564
Si Si4 0.240224 0.828548 0.500000
Si Si5 0.625192 0.934644 0.500000
Si Si6 0.897003 0.232418 0.000000
Si Si7 0.948899 0.661605 0.122771
Si Si8 0.205387 0.447726 0.000000
O O1 0.500000 0.500000 0.588950
O O2 0.552185 0.661088 0.693643
O O3 0.633653 0.399093 0.676751
O O4 0.684306 0.614227 0.574905
O O5 0.067781 0.387887 0.679310
O O6 0.065417 0.599469 0.574585
O O7 0.425456 0.746644 0.802988
O O8 0.230172 0.652150 0.500000
O O9 0.352845 0.890468 0.500000
O O10 0.824081 0.090246 0.000000
O O11 0.970122 0.251118 0.071249
O O12 0.823144 0.377904 0.000000
O O13 0.000000 0.500000 0.141508
O O14 0.851169 0.623907 0.071860
#
# Coordination Sequence:
#
# PCOD9428990 Si02
#       8
#     8   4   8   4   4   4   8   4
#     4   8  20  34  56  77 112 138 179 219 290 311
#     4  11  20  40  56  81 102 154 182 225 276 346
#     4   9  18  34  61  79 103 148 181 223 271 334
#     4  12  21  40  52  83 107 145 184 243 260 336
#     4  11  26  34  58  78 112 138 198 222 282 323
#     4   9  19  37  56  84 112 147 181 225 262 328
#     4   9  17  35  62  79 109 149 186 216 271 337
#     4   9  19  37  56  84 110 147 183 219 272 322
#
# _framework density 20.864668999999999
#
# number of rings (size 3 to 8) (size 9 to 14) (size 15 to 20)
#    1.091    1.273    2.727    1.364    2.545    0.727 
#    6.545    4.545    0.000    0.000    0.000    0.000 
#    0.000    0.000    0.000    0.000    0.000    0.000 
#
# Total GULP energy -245015.480253 kJ/mol
# GULP energy per Si atom -5568.533642 kJ/mol
# Density = 2.081718 g / cm^3
# Si number density = 20.864669 Si / 1000 Ang^3
#
#
#
# Elastic Constant Matrix: (Units=GPa)
#
#
# Indices 1 2 3 4 5 6 
#
# 1 18.9005 -5.7679 -6.3395 0.0000 0.0000 0.0000
# 2 -5.7679 48.9612 28.6721 0.0000 0.0000 0.0000
# 3 -6.3395 28.6721 110.9426 0.0000 0.0000 0.0000
# 4 0.0000 0.0000 0.0000 37.3763 0.0000 0.0000
# 5 0.0000 0.0000 0.0000 0.0000 0.9632 0.0000
# 6 0.0000 0.0000 0.0000 0.0000 0.0000 31.0147
#
#
#
# Elastic Compliance Matrix: (Units=1/GPa)
#
#
# Indices 1 2 3 4 5 6 
#
# 1 0.055164 0.005482 0.001735 0.000000 0.000000 0.000000
# 2 0.005482 0.024612 -0.006047 0.000000 0.000000 0.000000
# 3 0.001735 -0.006047 0.010676 0.000000 0.000000 0.000000
# 4 0.000000 0.000000 0.000000 0.026755 0.000000 0.000000
# 5 0.000000 0.000000 0.000000 0.000000 1.038160 0.000000
# 6 0.000000 0.000000 0.000000 0.000000 0.000000 0.032243
#
#
# Mechanical properties :
#
#
# Convention : Reuss Voigt Hill
#
# Bulk Modulus (GPa) = 10.77682 23.54818 17.16250
# Shear Modulus (GPa) = 4.11117 24.68682 14.39900
#
# Velocity S-wave (km/s) = 1.40523 3.44348 2.62985
# Velocity P-wave (km/s) = 2.79450 5.20776 4.17911
#
# Compressibility (1/GPa) = 0.09279179
#
# Stress axis : x y z
#
# Youngs Moduli (GPa) = 18.12784 40.63130 93.67052
#
# Poissons Ratio (x) = -0.22276 -0.16255
# Poissons Ratio (y) = -0.09938 0.56646
# Poissons Ratio (z) = -0.03146 0.24571
#
# Static dielectric constant tensor:
#      x y z
#    x 1.729290 0.000000 0.000000 
#    y 0.000000 1.824690 0.000000 
#    z 0.000000 0.000000 1.716460 
# 
# From -- ./inp_files/21484.got.cif
#   From: 2010.05.17/outbox.cif.g08.bks.cpg/sg55_11_cif.got.tgz:21484.got - 2010.06.03 13:27:54.
