data_PCOD9428068
_publ_section_title
;
Structure prediction by ZEFSAII (Michael W. Deem and Ramdas Pophale) SiO2 
 PCOD9428068
Probable space group: P B A M
;
_chemical_formula_sum "Si O2"
_cell_formula_units_Z 64
_cell_length_a 12.009894
_cell_length_b 31.267705
_cell_length_c 7.639025
_cell_angle_alpha 90.000000
_cell_angle_beta 90.000000
_cell_angle_gamma 90.000000
_cell_volume 2868.620591
_symmetry_space_group_name_H-M "P B A M"
_symmetry_group_IT_number 55
_symmetry_cell_setting 'orthorhombic'
loop_
_space_group_symop_operation_xyz
x,y,z
-x,-y,z
1/2+x,1/2-y,-z
1/2-x,1/2+y,-z
-x,-y,-z
x,y,-z
1/2-x,1/2+y,z
1/2+x,1/2-y,z
loop_
_atom_site_type_symbol
_atom_site_label
_atom_site_fract_x
_atom_site_fract_y
_atom_site_fract_z
Si Si1 0.702289 0.384776 0.796631
Si Si2 0.438275 0.785848 0.701620
Si Si3 0.477151 0.548787 0.785939
Si Si4 0.215056 0.920664 0.786484
Si Si5 0.536163 0.308995 0.706478
Si Si6 0.429211 0.961456 0.204743
Si Si7 0.955372 0.373347 0.297162
Si Si8 0.218376 0.826127 0.790152
O O1 0.631922 0.425503 0.725843
O O2 0.619590 0.344073 0.784866
O O3 0.821515 0.375499 0.712804
O O4 0.726373 0.393432 0.000000
O O5 0.477455 0.783147 0.500000
O O6 0.456273 0.739120 0.781190
O O7 0.498630 0.828133 0.778107
O O8 0.306429 0.794095 0.708748
O O9 0.500000 0.500000 0.733556
O O10 0.588911 0.573129 0.729363
O O11 0.472177 0.549316 0.000000
O O12 0.305407 0.954435 0.721726
O O13 0.255875 0.873697 0.738710
O O14 0.212763 0.922539 0.000000
O O15 0.562771 0.307719 0.500000
O O16 0.408260 0.321672 0.732645
O O17 0.493708 0.916322 0.214356
O O18 0.500000 0.000000 0.284057
O O19 0.412520 0.971961 0.000000
O O20 0.989746 0.374604 0.500000
O O21 0.223303 0.822158 0.000000
#
# Coordination Sequence:
#
# PCOD9428068 Si02
#       8
#     8   8   8   8   8   8   8   8
#     4  11  23  40  62  90 121 155 204 257 305 357
#     4  10  24  43  62  85 117 162 205 242 296 368
#     4   9  18  33  58  88 118 153 192 240 298 354
#     4   9  17  33  56  86 120 149 191 249 298 343
#     4  11  24  42  63  87 122 164 204 243 300 372
#     4  10  21  37  62  92 121 158 205 252 302 360
#     4  11  24  42  61  85 123 164 202 248 309 372
#     4  11  21  38  64  92 121 150 197 260 304 345
#
# _framework density 22.310375000000001
#
# number of rings (size 3 to 8) (size 9 to 14) (size 15 to 20)
#    0.000    1.750    2.500    1.500    3.500    1.750 
#    0.000    0.000    0.000    1.500    0.000    0.000 
#    0.000    0.000    0.000    0.000    0.000    0.000 
#
# Total GULP energy -357428.158079 kJ/mol
# GULP energy per Si atom -5584.814970 kJ/mol
# Density = 2.225960 g / cm^3
# Si number density = 22.310375 Si / 1000 Ang^3
#
#
#
# Elastic Constant Matrix: (Units=GPa)
#
#
# Indices 1 2 3 4 5 6 
#
# 1 87.8995 2.0845 -19.8657 0.0000 0.0000 0.0000
# 2 2.0845 88.3178 -12.0564 0.0000 0.0000 0.0000
# 3 -19.8657 -12.0564 49.0042 0.0000 0.0000 0.0000
# 4 0.0000 0.0000 0.0000 11.2911 0.0000 0.0000
# 5 0.0000 0.0000 0.0000 0.0000 18.2812 0.0000
# 6 0.0000 0.0000 0.0000 0.0000 0.0000 32.4897
#
#
#
# Elastic Compliance Matrix: (Units=1/GPa)
#
#
# Indices 1 2 3 4 5 6 
#
# 1 0.012539 0.000412 0.005184 0.000000 0.000000 0.000000
# 2 0.000412 0.011730 0.003053 0.000000 0.000000 0.000000
# 3 0.005184 0.003053 0.023259 0.000000 0.000000 0.000000
# 4 0.000000 0.000000 0.000000 0.088565 0.000000 0.000000
# 5 0.000000 0.000000 0.000000 0.000000 0.054701 0.000000
# 6 0.000000 0.000000 0.000000 0.000000 0.000000 0.030779
#
#
# Mechanical properties :
#
#
# Convention : Reuss Voigt Hill
#
# Bulk Modulus (GPa) = 15.42613 18.39403 16.91008
# Shear Modulus (GPa) = 22.13536 29.41636 25.77586
#
# Velocity S-wave (km/s) = 3.15327 3.63506 3.40270
# Velocity P-wave (km/s) = 4.49297 5.08731 4.79935
#
# Compressibility (1/GPa) = 0.06482507
#
# Stress axis : x y z
#
# Youngs Moduli (GPa) = 79.75415 85.25320 42.99389
#
# Poissons Ratio (x) = -0.03511 -0.22289
# Poissons Ratio (y) = -0.03284 -0.13125
# Poissons Ratio (z) = -0.41347 -0.26026
#
# Static dielectric constant tensor:
#      x y z
#    x 1.789120 0.000000 0.000000 
#    y 0.000000 1.864010 0.000000 
#    z 0.000000 0.000000 1.854320 
# 
# From -- ./inp_files/4497.got.cif
#   From: 2010.05.17/outbox.cif.g08.bks.cpg/sg55_3_cif.got.tgz:4497.got - 2010.06.03 13:27:54.
