data_PCOD9428190
_publ_section_title
;
Structure prediction by ZEFSAII (Michael W. Deem and Ramdas Pophale) SiO2 
 PCOD9428190
Probable space group: P B A M
;
_chemical_formula_sum "Si O2"
_cell_formula_units_Z 48
_cell_length_a 15.301713
_cell_length_b 17.716889
_cell_length_c 9.070805
_cell_angle_alpha 90.000000
_cell_angle_beta 90.000000
_cell_angle_gamma 90.000000
_cell_volume 2459.083904
_symmetry_space_group_name_H-M "P B A M"
_symmetry_group_IT_number 55
_symmetry_cell_setting 'orthorhombic'
loop_
_space_group_symop_operation_xyz
x,y,z
-x,-y,z
1/2+x,1/2-y,-z
1/2-x,1/2+y,-z
-x,-y,-z
x,y,-z
1/2-x,1/2+y,z
1/2+x,1/2-y,z
loop_
_atom_site_type_symbol
_atom_site_label
_atom_site_fract_x
_atom_site_fract_y
_atom_site_fract_z
Si Si1 0.455615 0.795359 0.175203
Si Si2 0.886409 0.211986 0.675370
Si Si3 0.740934 0.960306 0.827508
Si Si4 0.087943 0.450826 0.329435
Si Si5 0.580178 0.553868 0.826900
Si Si6 0.723315 0.286033 0.824168
O O1 0.542846 0.769983 0.258196
O O2 0.424136 0.876568 0.231322
O O3 0.376386 0.737334 0.206317
O O4 0.471430 0.796498 0.000000
O O5 0.886509 0.215282 0.500000
O O6 0.912780 0.129397 0.732941
O O7 0.791580 0.233965 0.738409
O O8 0.758133 0.873230 0.788204
O O9 0.667399 0.999025 0.729625
O O10 0.830658 0.006692 0.814339
O O11 0.714028 0.962717 0.000000
O O12 0.102152 0.429328 0.500000
O O13 0.000000 0.500000 0.320401
O O14 0.500000 0.500000 0.784162
O O15 0.567791 0.574596 0.000000
O O16 0.736975 0.275622 0.000000
#
# Coordination Sequence:
#
# PCOD9428190 Si02
#       6
#     8   8   8   8   8   8
#     4  11  23  41  65  89 116 156 205 251 293 344
#     4  12  25  39  59  90 126 160 194 240 301 361
#     4  10  21  38  62  89 115 150 197 245 293 347
#     4  11  24  40  58  85 121 157 194 241 300 359
#     4  10  21  40  64  88 117 155 200 246 291 346
#     4  10  22  41  64  89 117 154 202 250 294 346
#
# _framework density 19.519463999999999
#
# number of rings (size 3 to 8) (size 9 to 14) (size 15 to 20)
#    0.000    1.333    0.000    5.500    0.000   13.667 
#    0.000    1.667    0.000    0.000    0.000    0.000 
#    0.000    0.000    0.000    0.000    0.000    0.000 
#
# Total GULP energy -268575.637392 kJ/mol
# GULP energy per Si atom -5595.325779 kJ/mol
# Density = 1.947504 g / cm^3
# Si number density = 19.519464 Si / 1000 Ang^3
#
#
#
# Elastic Constant Matrix: (Units=GPa)
#
#
# Indices 1 2 3 4 5 6 
#
# 1 46.8766 -21.7667 19.7571 0.0000 0.0000 0.0000
# 2 -21.7667 50.0170 12.7114 0.0000 0.0000 0.0000
# 3 19.7571 12.7114 48.4828 0.0000 0.0000 0.0000
# 4 0.0000 0.0000 0.0000 102.0802 0.0000 0.0000
# 5 0.0000 0.0000 0.0000 0.0000 189.2255 0.0000
# 6 0.0000 0.0000 0.0000 0.0000 0.0000 34.8086
#
#
#
# Elastic Compliance Matrix: (Units=1/GPa)
#
#
# Indices 1 2 3 4 5 6 
#
# 1 0.042971 0.024803 -0.024014 0.000000 0.000000 0.000000
# 2 0.024803 0.035737 -0.019477 0.000000 0.000000 0.000000
# 3 -0.024014 -0.019477 0.035518 0.000000 0.000000 0.000000
# 4 0.000000 0.000000 0.000000 0.009796 0.000000 0.000000
# 5 0.000000 0.000000 0.000000 0.000000 0.005285 0.000000
# 6 0.000000 0.000000 0.000000 0.000000 0.000000 0.028729
#
#
# Mechanical properties :
#
#
# Convention : Reuss Voigt Hill
#
# Bulk Modulus (GPa) = 13.01223 18.53113 15.77168
# Shear Modulus (GPa) = 22.62144 74.20116 48.41130
#
# Velocity S-wave (km/s) = 3.40798 6.17223 4.98552
# Velocity P-wave (km/s) = 4.70813 7.76592 6.42169
#
# Compressibility (1/GPa) = 0.07685080
#
# Stress axis : x y z
#
# Youngs Moduli (GPa) = 23.27147 27.98194 28.15439
#
# Poissons Ratio (x) = -0.69405 0.67610
# Poissons Ratio (y) = -0.57721 0.54837
# Poissons Ratio (z) = 0.55884 0.54501
#
# Static dielectric constant tensor:
#      x y z
#    x 1.652550 0.000000 0.000000 
#    y 0.000000 1.657610 0.000000 
#    z 0.000000 0.000000 1.654830 
# 
# From -- ./inp_files/5581.got.cif
#   From: 2010.05.17/outbox.cif.g08.bks.cpg/sg55_3_cif.got.tgz:5581.got - 2010.06.03 13:27:54.
