data_PCOD9428910
_publ_section_title
;
Structure prediction by ZEFSAII (Michael W. Deem and Ramdas Pophale) SiO2 
 PCOD9428910
Probable space group: P B A M
;
_chemical_formula_sum "Si O2"
_cell_formula_units_Z 32
_cell_length_a 8.353686
_cell_length_b 14.350064
_cell_length_c 11.076856
_cell_angle_alpha 90.000000
_cell_angle_beta 90.000000
_cell_angle_gamma 90.000000
_cell_volume 1327.848400
_symmetry_space_group_name_H-M "P B A M"
_symmetry_group_IT_number 55
_symmetry_cell_setting 'orthorhombic'
loop_
_space_group_symop_operation_xyz
x,y,z
-x,-y,z
1/2+x,1/2-y,-z
1/2-x,1/2+y,-z
-x,-y,-z
x,y,-z
1/2-x,1/2+y,z
1/2+x,1/2-y,z
loop_
_atom_site_type_symbol
_atom_site_label
_atom_site_fract_x
_atom_site_fract_y
_atom_site_fract_z
Si Si1 0.942550 0.835862 0.500000
Si Si2 0.818780 0.626575 0.500000
Si Si3 0.833698 0.883327 0.760015
Si Si4 0.155378 0.441529 0.229638
Si Si5 0.972754 0.278158 0.860170
O O1 0.909754 0.725385 0.500000
O O2 0.866941 0.880692 0.618254
O O3 0.130697 0.852112 0.500000
O O4 0.853518 0.575425 0.373900
O O5 0.801289 0.989388 0.798804
O O6 0.670725 0.824674 0.784914
O O7 0.975794 0.824851 0.820732
O O8 0.870648 0.657061 0.165589
O O9 0.000000 0.500000 0.190742
O O10 0.930420 0.282410 0.000000
#
# Coordination Sequence:
#
# PCOD9428910 Si02
#       5
#     4   4   8   8   8
#     4  12  25  41  73  98 137 178 217 283 342 399
#     4  12  24  43  68 105 143 175 223 276 341 412
#     4  11  24  44  67  97 134 176 223 280 342 398
#     4  10  24  41  69  99 137 180 222 271 343 408
#     4  11  24  44  68  97 133 180 231 277 332 404
#
# _framework density 24.099139000000001
#
# number of rings (size 3 to 8) (size 9 to 14) (size 15 to 20)
#    0.000    1.000    2.500    3.375    3.500    7.500 
#    0.000    0.000    0.000    3.000    0.000    0.000 
#    0.000    0.000    0.000    0.000    0.000    0.000 
#
# Total GULP energy -179237.901702 kJ/mol
# GULP energy per Si atom -5601.184428 kJ/mol
# Density = 2.404429 g / cm^3
# Si number density = 24.099139 Si / 1000 Ang^3
#
#
#
# Elastic Constant Matrix: (Units=GPa)
#
#
# Indices 1 2 3 4 5 6 
#
# 1 85.1581 20.6878 14.7967 0.0000 0.0000 0.0000
# 2 20.6878 104.4001 -8.0606 0.0000 0.0000 0.0000
# 3 14.7967 -8.0606 75.9965 0.0000 0.0000 0.0000
# 4 0.0000 0.0000 0.0000 -11.6472 0.0000 0.0000
# 5 0.0000 0.0000 0.0000 0.0000 -2.7111 0.0000
# 6 0.0000 0.0000 0.0000 0.0000 0.0000 40.7128
#
#
#
# Elastic Compliance Matrix: (Units=1/GPa)
#
#
# Indices 1 2 3 4 5 6 
#
# 1 0.012904 -0.002774 -0.002807 0.000000 0.000000 0.000000
# 2 -0.002774 0.010254 0.001628 0.000000 0.000000 0.000000
# 3 -0.002807 0.001628 0.013878 0.000000 0.000000 0.000000
# 4 0.000000 0.000000 0.000000 -0.085858 0.000000 0.000000
# 5 0.000000 0.000000 0.000000 0.000000 -0.368857 0.000000
# 6 0.000000 0.000000 0.000000 0.000000 0.000000 0.024562
#
#
# Mechanical properties :
#
#
# Convention : Reuss Voigt Hill
#
# Bulk Modulus (GPa) = 34.32879 35.60029 34.96454
# Shear Modulus (GPa) = -13.31555 21.14630 3.91537
#
# Velocity S-wave (km/s) = -2.35315 2.96543 1.27602
# Velocity P-wave (km/s) = 2.62539 5.15068 4.08792
#
# Compressibility (1/GPa) = 0.02913007
#
# Stress axis : x y z
#
# Youngs Moduli (GPa) = 77.49297 97.52428 72.05854
#
# Poissons Ratio (x) = 0.27051 0.20225
# Poissons Ratio (y) = 0.21495 -0.11729
# Poissons Ratio (z) = 0.21750 -0.15873
#
# Static dielectric constant tensor:
#      x y z
#    x 1.947240 0.000000 0.000000 
#    y 0.000000 1.958380 0.000000 
#    z 0.000000 0.000000 1.843060 
# 
# From -- ./inp_files/11805.got.cif
#   From: 2010.05.17/outbox.cif.g08.bks.cpg/sg55_6_cif.got.tgz:11805.got - 2010.06.03 13:27:54.
