data_PCOD9428491
_publ_section_title
;
Structure prediction by ZEFSAII (Michael W. Deem and Ramdas Pophale) SiO2 
 PCOD9428491
Probable space group: P B A M
;
_chemical_formula_sum "Si O2"
_cell_formula_units_Z 40
_cell_length_a 26.214118
_cell_length_b 9.244591
_cell_length_c 7.639590
_cell_angle_alpha 90.000000
_cell_angle_beta 90.000000
_cell_angle_gamma 90.000000
_cell_volume 1851.369068
_symmetry_space_group_name_H-M "P B A M"
_symmetry_group_IT_number 55
_symmetry_cell_setting 'orthorhombic'
loop_
_space_group_symop_operation_xyz
x,y,z
-x,-y,z
1/2+x,1/2-y,-z
1/2-x,1/2+y,-z
-x,-y,-z
x,y,-z
1/2-x,1/2+y,z
1/2+x,1/2-y,z
loop_
_atom_site_type_symbol
_atom_site_label
_atom_site_fract_x
_atom_site_fract_y
_atom_site_fract_z
Si Si1 0.626106 0.172405 0.290843
Si Si2 0.714548 0.668048 0.000000
Si Si3 0.160972 0.010200 0.304837
Si Si4 0.680595 0.003426 0.000000
Si Si5 0.448842 0.426631 0.799256
Si Si6 0.991311 0.665166 0.709784
O O1 0.627624 0.141268 0.500000
O O2 0.658102 0.319481 0.258804
O O3 0.566964 0.204810 0.243741
O O4 0.647462 0.043744 0.171601
O O5 0.689624 0.589628 0.167732
O O6 0.772873 0.617620 0.000000
O O7 0.701889 0.839221 0.000000
O O8 0.182364 0.995716 0.500000
O O9 0.102050 0.960447 0.302478
O O10 0.500000 0.500000 0.725338
O O11 0.465104 0.260583 0.796137
O O12 0.441586 0.475577 0.000000
O O13 0.996181 0.681564 0.500000
O O14 0.000000 0.500000 0.755537
#
# Coordination Sequence:
#
# PCOD9428491 Si02
#       6
#     8   4   8   4   8   8
#     4  10  23  43  69 101 133 178 223 268 333 393
#     4  12  28  50  70 104 122 170 220 273 353 397
#     4  11  23  42  70  99 138 177 223 275 325 398
#     4  12  28  48  76  92 134 165 210 291 337 408
#     4  11  22  35  60  97 135 182 225 263 311 383
#     4  10  22  37  57  90 135 177 217 263 314 379
#
# _framework density 21.605630999999999
#
# number of rings (size 3 to 8) (size 9 to 14) (size 15 to 20)
#    0.000    1.200    3.000    2.400    4.200    2.800 
#    0.000    0.000    0.000    0.000    0.000    0.000 
#    0.000    0.000    0.000    0.000    0.000    0.000 
#
# Total GULP energy -223666.000622 kJ/mol
# GULP energy per Si atom -5591.650016 kJ/mol
# Density = 2.155646 g / cm^3
# Si number density = 21.605631 Si / 1000 Ang^3
#
#
#
# Elastic Constant Matrix: (Units=GPa)
#
#
# Indices 1 2 3 4 5 6 
#
# 1 48.1114 -5.4069 20.6288 0.0000 0.0000 0.0000
# 2 -5.4069 95.4878 46.5018 0.0000 0.0000 0.0000
# 3 20.6288 46.5018 88.7119 0.0000 0.0000 0.0000
# 4 0.0000 0.0000 0.0000 8.6111 0.0000 0.0000
# 5 0.0000 0.0000 0.0000 0.0000 223.5284 0.0000
# 6 0.0000 0.0000 0.0000 0.0000 0.0000 38.0894
#
#
#
# Elastic Compliance Matrix: (Units=1/GPa)
#
#
# Indices 1 2 3 4 5 6 
#
# 1 0.025243 0.005758 -0.008888 0.000000 0.000000 0.000000
# 2 0.005758 0.015376 -0.009399 0.000000 0.000000 0.000000
# 3 -0.008888 -0.009399 0.018266 0.000000 0.000000 0.000000
# 4 0.000000 0.000000 0.000000 0.116129 0.000000 0.000000
# 5 0.000000 0.000000 0.000000 0.000000 0.004474 0.000000
# 6 0.000000 0.000000 0.000000 0.000000 0.000000 0.026254
#
#
# Mechanical properties :
#
#
# Convention : Reuss Voigt Hill
#
# Bulk Modulus (GPa) = 29.56233 39.52873 34.54553
# Shear Modulus (GPa) = 20.65473 65.41828 43.03651
#
# Velocity S-wave (km/s) = 3.09526 5.50855 4.46793
# Velocity P-wave (km/s) = 5.14651 7.66773 6.52996
#
# Compressibility (1/GPa) = 0.03382683
#
# Stress axis : x y z
#
# Youngs Moduli (GPa) = 39.61459 65.03783 54.74664
#
# Poissons Ratio (x) = -0.37448 0.48660
# Poissons Ratio (y) = -0.22810 0.51455
# Poissons Ratio (z) = 0.35210 0.61127
#
# Static dielectric constant tensor:
#      x y z
#    x 1.770090 0.000000 0.000000 
#    y 0.000000 1.824070 0.000000 
#    z 0.000000 0.000000 1.807390 
# 
# From -- ./inp_files/10016.got.cif
#   From: 2010.05.17/outbox.cif.g08.bks.cpg/sg55_6_cif.got.tgz:10016.got - 2010.06.03 13:27:54.
