data_PCOD9428761
_publ_section_title
;
Structure prediction by ZEFSAII (Michael W. Deem and Ramdas Pophale) SiO2 
 PCOD9428761
Probable space group: P B A M
;
_chemical_formula_sum "Si O2"
_cell_formula_units_Z 60
_cell_length_a 26.081585
_cell_length_b 10.976082
_cell_length_c 10.546109
_cell_angle_alpha 90.000000
_cell_angle_beta 90.000000
_cell_angle_gamma 90.000000
_cell_volume 3019.072754
_symmetry_space_group_name_H-M "P B A M"
_symmetry_group_IT_number 55
_symmetry_cell_setting 'orthorhombic'
loop_
_space_group_symop_operation_xyz
x,y,z
-x,-y,z
1/2+x,1/2-y,-z
1/2-x,1/2+y,-z
-x,-y,-z
x,y,-z
1/2-x,1/2+y,z
1/2+x,1/2-y,z
loop_
_atom_site_type_symbol
_atom_site_label
_atom_site_fract_x
_atom_site_fract_y
_atom_site_fract_z
Si Si1 0.941618 0.956572 0.143255
Si Si2 0.386049 0.396310 0.645747
Si Si3 0.190528 0.350051 0.500000
Si Si4 0.040278 0.664235 0.638805
Si Si5 0.624025 0.027044 0.714528
Si Si6 0.776984 0.422856 0.150440
Si Si7 0.271820 0.338531 0.730956
Si Si8 0.957769 0.669837 0.141179
O O1 0.943301 0.811590 0.144323
O O2 0.904306 0.005897 0.251234
O O3 0.927504 0.998844 0.000000
O O4 0.000000 0.000000 0.167133
O O5 0.383224 0.442050 0.500000
O O6 0.429124 0.291134 0.650115
O O7 0.330761 0.344456 0.685259
O O8 0.148323 0.382932 0.388190
O O9 0.234686 0.332413 0.610387
O O10 0.014929 0.659343 0.500000
O O11 0.083711 0.562346 0.648730
O O12 0.000485 0.649008 0.752113
O O13 0.592607 0.095532 0.823069
O O14 0.669919 0.950750 0.777096
O O15 0.761718 0.285126 0.189565
O O16 0.740359 0.533933 0.196762
O O17 0.782784 0.429451 0.000000
O O18 0.976758 0.640605 0.000000
#
# Coordination Sequence:
#
# PCOD9428761 Si02
#       8
#     8   8   4   8   8   8   8   8
#     4  10  22  43  64  91 135 182 221 268 334 403
#     4  11  23  41  67 102 128 171 225 282 333 402
#     4  10  24  44  71  98 132 176 224 282 353 412
#     4  11  23  40  69  98 134 172 223 272 331 399
#     4  11  23  43  68  97 135 177 221 280 341 407
#     4  11  25  44  68  99 135 176 227 284 349 415
#     4  11  24  45  71  99 133 177 224 290 348 415
#     4  11  25  43  65  99 140 181 227 276 333 407
#
# _framework density 19.873652
#
# number of rings (size 3 to 8) (size 9 to 14) (size 15 to 20)
#    0.000    1.200    4.000    1.200    0.933    8.267 
#    2.400    2.667    0.000    0.000    0.000    0.000 
#    0.000    0.000    0.000    0.000    0.000    0.000 
#
# Total GULP energy -334102.298352 kJ/mol
# GULP energy per Si atom -5568.371639 kJ/mol
# Density = 1.982842 g / cm^3
# Si number density = 19.873652 Si / 1000 Ang^3
#
#
#
# Elastic Constant Matrix: (Units=GPa)
#
#
# Indices 1 2 3 4 5 6 
#
# 1 72.0187 20.9002 46.9908 0.0000 0.0000 0.0000
# 2 20.9002 78.9760 33.2215 0.0000 0.0000 0.0000
# 3 46.9908 33.2215 151.2738 0.0000 0.0000 0.0000
# 4 0.0000 0.0000 0.0000 13.9564 0.0000 0.0000
# 5 0.0000 0.0000 0.0000 0.0000 29.8165 0.0000
# 6 0.0000 0.0000 0.0000 0.0000 0.0000 23.3150
#
#
#
# Elastic Compliance Matrix: (Units=1/GPa)
#
#
# Indices 1 2 3 4 5 6 
#
# 1 0.017902 -0.002642 -0.004981 0.000000 0.000000 0.000000
# 2 -0.002642 0.014341 -0.002329 0.000000 0.000000 0.000000
# 3 -0.004981 -0.002329 0.008669 0.000000 0.000000 0.000000
# 4 0.000000 0.000000 0.000000 0.071652 0.000000 0.000000
# 5 0.000000 0.000000 0.000000 0.000000 0.033538 0.000000
# 6 0.000000 0.000000 0.000000 0.000000 0.000000 0.042891
#
#
# Mechanical properties :
#
#
# Convention : Reuss Voigt Hill
#
# Bulk Modulus (GPa) = 47.59971 56.05484 51.82727
# Shear Modulus (GPa) = 23.15893 26.82796 24.99345
#
# Velocity S-wave (km/s) = 3.41736 3.67812 3.55014
# Velocity P-wave (km/s) = 6.29081 6.80477 6.55283
#
# Compressibility (1/GPa) = 0.02100853
#
# Stress axis : x y z
#
# Youngs Moduli (GPa) = 55.85998 69.73059 115.35261
#
# Poissons Ratio (x) = 0.18426 0.57453
# Poissons Ratio (y) = 0.14761 0.26861
# Poissons Ratio (z) = 0.27822 0.16237
#
# Static dielectric constant tensor:
#      x y z
#    x 1.673130 0.000000 0.000000 
#    y 0.000000 1.727440 0.000000 
#    z 0.000000 0.000000 1.692240 
# 
# From -- ./inp_files/10179.got.cif
#   From: 2010.05.17/outbox.cif.g08.bks.cpg/sg55_6_cif.got.tgz:10179.got - 2010.06.03 13:27:54.
