data_PCOD9428489
_publ_section_title
;
Structure prediction by ZEFSAII (Michael W. Deem and Ramdas Pophale) SiO2 
 PCOD9428489
Probable space group: P B A M
;
_chemical_formula_sum "Si O2"
_cell_formula_units_Z 58
_cell_length_a 12.431527
_cell_length_b 30.106688
_cell_length_c 7.512398
_cell_angle_alpha 90.000000
_cell_angle_beta 90.000000
_cell_angle_gamma 90.000000
_cell_volume 2811.681011
_symmetry_space_group_name_H-M "P B A M"
_symmetry_group_IT_number 55
_symmetry_cell_setting 'orthorhombic'
loop_
_space_group_symop_operation_xyz
x,y,z
-x,-y,z
1/2+x,1/2-y,-z
1/2-x,1/2+y,-z
-x,-y,-z
x,y,-z
1/2-x,1/2+y,z
1/2+x,1/2-y,z
loop_
_atom_site_type_symbol
_atom_site_label
_atom_site_fract_x
_atom_site_fract_y
_atom_site_fract_z
Si Si1 0.725398 0.421944 0.212621
Si Si2 0.776790 0.116879 0.212764
Si Si3 0.658358 0.285002 0.715496
Si Si4 0.481469 0.630745 0.210848
Si Si5 0.096402 0.311870 0.290580
Si Si6 0.636052 0.838738 0.711557
Si Si7 0.000000 0.000000 0.500000
Si Si8 0.820006 0.020235 0.214133
O O1 0.611813 0.402053 0.285053
O O2 0.820206 0.388601 0.263249
O O3 0.736179 0.473392 0.260275
O O4 0.718525 0.419913 0.000000
O O5 0.687818 0.151034 0.276616
O O6 0.753691 0.065073 0.248265
O O7 0.897878 0.126321 0.281723
O O8 0.779812 0.122419 0.000000
O O9 0.664197 0.284238 0.500000
O O10 0.565357 0.319957 0.764115
O O11 0.634694 0.235654 0.782635
O O12 0.770387 0.306162 0.782182
O O13 0.488093 0.621137 0.000000
O O14 0.079333 0.303944 0.500000
O O15 0.982144 0.328538 0.215987
O O16 0.632624 0.831808 0.500000
O O17 0.077434 0.978896 0.341727
O O18 0.846741 0.019828 0.000000
#
# Coordination Sequence:
#
# PCOD9428489 Si02
#       8
#     8   8   8   8   8   8   2   8
#     4   9  18  36  60  82 113 153 189 241 296 346
#     4  10  22  39  56  81 121 159 189 244 302 348
#     4   9  19  35  56  81 110 148 188 238 299 354
#     4   9  18  33  54  82 112 143 186 232 289 348
#     4  10  22  37  57  81 113 152 195 244 295 352
#     4   9  19  36  56  82 114 146 194 248 294 351
#     4  12  22  32  64  94 118 168 210 228 312 364
#     4  10  22  39  57  88 130 160 202 255 298 357
#
# _framework density 20.628228
#
# number of rings (size 3 to 8) (size 9 to 14) (size 15 to 20)
#    0.000    2.483    0.000    1.034    3.862    3.862 
#    4.966    0.690    0.000    4.138    0.000    0.000 
#    0.000    0.000    0.000    0.000    0.000    0.000 
#
# Total GULP energy -323071.920140 kJ/mol
# GULP energy per Si atom -5570.205520 kJ/mol
# Density = 2.058128 g / cm^3
# Si number density = 20.628228 Si / 1000 Ang^3
#
#
#
# Elastic Constant Matrix: (Units=GPa)
#
#
# Indices 1 2 3 4 5 6 
#
# 1 99.4091 81.2059 -3.8508 0.0000 0.0000 0.0000
# 2 81.2059 175.7982 2.7719 0.0000 0.0000 0.0000
# 3 -3.8508 2.7719 58.1260 0.0000 0.0000 0.0000
# 4 0.0000 0.0000 0.0000 12.1493 0.0000 0.0000
# 5 0.0000 0.0000 0.0000 0.0000 22.5156 0.0000
# 6 0.0000 0.0000 0.0000 0.0000 0.0000 14.4128
#
#
#
# Elastic Compliance Matrix: (Units=1/GPa)
#
#
# Indices 1 2 3 4 5 6 
#
# 1 0.016275 -0.007540 0.001438 0.000000 0.000000 0.000000
# 2 -0.007540 0.009186 -0.000938 0.000000 0.000000 0.000000
# 3 0.001438 -0.000938 0.017344 0.000000 0.000000 0.000000
# 4 0.000000 0.000000 0.000000 0.082309 0.000000 0.000000
# 5 0.000000 0.000000 0.000000 0.000000 0.044414 0.000000
# 6 0.000000 0.000000 0.000000 0.000000 0.000000 0.069383
#
#
# Mechanical properties :
#
#
# Convention : Reuss Voigt Hill
#
# Bulk Modulus (GPa) = 34.81349 54.84303 44.82826
# Shear Modulus (GPa) = 19.04285 26.69598 22.86941
#
# Velocity S-wave (km/s) = 3.04163 3.60133 3.33325
# Velocity P-wave (km/s) = 5.40820 6.62849 6.04919
#
# Compressibility (1/GPa) = 0.02872450
#
# Stress axis : x y z
#
# Youngs Moduli (GPa) = 61.44454 108.85821 57.65688
#
# Poissons Ratio (x) = 0.82084 -0.08290
# Poissons Ratio (y) = 0.46332 0.05406
# Poissons Ratio (z) = -0.08834 0.10207
#
# Static dielectric constant tensor:
#      x y z
#    x 1.722990 0.000000 0.000000 
#    y 0.000000 1.750270 0.000000 
#    z 0.000000 0.000000 1.789940 
# 
# From -- ./inp_files/4289.got.cif
#   From: 2010.05.17/outbox.cif.g08.bks.cpg/sg55_3_cif.got.tgz:4289.got - 2010.06.03 13:27:54.
