data_PCOD9428578
_publ_section_title
;
Structure prediction by ZEFSAII (Michael W. Deem and Ramdas Pophale) SiO2 
 PCOD9428578
Probable space group: P B A M
;
_chemical_formula_sum "Si O2"
_cell_formula_units_Z 56
_cell_length_a 14.757962
_cell_length_b 21.320363
_cell_length_c 7.845845
_cell_angle_alpha 90.000000
_cell_angle_beta 90.000000
_cell_angle_gamma 90.000000
_cell_volume 2468.656739
_symmetry_space_group_name_H-M "P B A M"
_symmetry_group_IT_number 55
_symmetry_cell_setting 'orthorhombic'
loop_
_space_group_symop_operation_xyz
x,y,z
-x,-y,z
1/2+x,1/2-y,-z
1/2-x,1/2+y,-z
-x,-y,-z
x,y,-z
1/2-x,1/2+y,z
1/2+x,1/2-y,z
loop_
_atom_site_type_symbol
_atom_site_label
_atom_site_fract_x
_atom_site_fract_y
_atom_site_fract_z
Si Si1 0.390364 0.866985 0.303852
Si Si2 0.211880 0.486729 0.293567
Si Si3 0.783849 0.294056 0.798836
Si Si4 0.912545 0.772907 0.197563
Si Si5 0.917133 0.401324 0.799555
Si Si6 0.103958 0.823337 0.696987
Si Si7 0.590767 0.534130 0.708557
O O1 0.370282 0.851065 0.500000
O O2 0.316211 0.916372 0.240979
O O3 0.401109 0.802107 0.206044
O O4 0.486839 0.902120 0.292515
O O5 0.205479 0.488639 0.500000
O O6 0.141519 0.536372 0.221316
O O7 0.315464 0.499549 0.243593
O O8 0.682024 0.299304 0.729327
O O9 0.855824 0.344059 0.729854
O O10 0.825557 0.224903 0.778909
O O11 0.776193 0.306924 0.000000
O O12 0.003670 0.793708 0.289803
O O13 0.922973 0.791445 0.000000
O O14 0.935690 0.390691 0.000000
O O15 0.131089 0.828074 0.500000
O O16 0.097468 0.893749 0.766574
O O17 0.500000 0.500000 0.768268
O O18 0.587382 0.535233 0.500000
#
# Coordination Sequence:
#
# PCOD9428578 Si02
#       7
#     8   8   8   8   8   8   8
#     4  11  22  39  61  91 122 157 202 251 308 362
#     4  10  22  39  61  87 121 159 200 254 301 355
#     4  10  23  41  60  85 123 165 200 248 305 363
#     4  11  23  39  61  88 122 161 199 246 306 362
#     4  11  23  39  60  88 122 161 203 249 304 365
#     4  11  22  38  64  94 120 156 203 252 302 361
#     4   9  20  39  61  88 122 158 198 246 301 356
#
# _framework density 22.6844
#
# number of rings (size 3 to 8) (size 9 to 14) (size 15 to 20)
#    0.000    1.571    1.429    3.000    2.000    5.714 
#    0.000    1.429    0.000    2.143    0.000    0.000 
#    0.000    0.000    0.000    0.000    0.000    0.000 
#
# Total GULP energy -313213.062045 kJ/mol
# GULP energy per Si atom -5593.090394 kJ/mol
# Density = 2.263277 g / cm^3
# Si number density = 22.684400 Si / 1000 Ang^3
#
#
#
# Elastic Constant Matrix: (Units=GPa)
#
#
# Indices 1 2 3 4 5 6 
#
# 1 114.6852 -5.1726 -3.5470 0.0000 0.0000 0.0000
# 2 -5.1726 48.5350 -6.3411 0.0000 0.0000 0.0000
# 3 -3.5470 -6.3411 31.9604 0.0000 0.0000 0.0000
# 4 0.0000 0.0000 0.0000 46.7966 0.0000 0.0000
# 5 0.0000 0.0000 0.0000 0.0000 -8.9844 0.0000
# 6 0.0000 0.0000 0.0000 0.0000 0.0000 31.1329
#
#
#
# Elastic Compliance Matrix: (Units=1/GPa)
#
#
# Indices 1 2 3 4 5 6 
#
# 1 0.008806 0.001095 0.001194 0.000000 0.000000 0.000000
# 2 0.001095 0.021288 0.004345 0.000000 0.000000 0.000000
# 3 0.001194 0.004345 0.032283 0.000000 0.000000 0.000000
# 4 0.000000 0.000000 0.000000 0.021369 0.000000 0.000000
# 5 0.000000 0.000000 0.000000 0.000000 -0.111304 0.000000
# 6 0.000000 0.000000 0.000000 0.000000 0.000000 0.032120
#
#
# Mechanical properties :
#
#
# Convention : Reuss Voigt Hill
#
# Bulk Modulus (GPa) = 13.21957 18.33992 15.77974
# Shear Modulus (GPa) = 302.84451 27.80509 165.32480
#
# Velocity S-wave (km/s) = 11.56690 3.50485 8.54626
# Velocity P-wave (km/s) = 13.57318 4.94783 10.21548
#
# Compressibility (1/GPa) = 0.07564540
#
# Stress axis : x y z
#
# Youngs Moduli (GPa) = 113.56113 46.97479 30.97566
#
# Poissons Ratio (x) = -0.05142 -0.03700
# Poissons Ratio (y) = -0.12430 -0.13459
# Poissons Ratio (z) = -0.13564 -0.20411
#
# Static dielectric constant tensor:
#      x y z
#    x 1.837840 0.000000 0.000000 
#    y 0.000000 1.828260 0.000000 
#    z 0.000000 0.000000 1.832300 
# 
# From -- ./inp_files/6110.got.cif
#   From: 2010.05.17/outbox.cif.g08.bks.cpg/sg55_4_cif.got.tgz:6110.got - 2010.06.03 13:27:54.
