data_PCOD9428586
_publ_section_title
;
Structure prediction by ZEFSAII (Michael W. Deem and Ramdas Pophale) SiO2 
 PCOD9428586
Probable space group: P B A M
;
_chemical_formula_sum "Si O2"
_cell_formula_units_Z 40
_cell_length_a 15.551906
_cell_length_b 10.441885
_cell_length_c 13.238181
_cell_angle_alpha 90.000000
_cell_angle_beta 90.000000
_cell_angle_gamma 90.000000
_cell_volume 2149.764284
_symmetry_space_group_name_H-M "P B A M"
_symmetry_group_IT_number 55
_symmetry_cell_setting 'orthorhombic'
loop_
_space_group_symop_operation_xyz
x,y,z
-x,-y,z
1/2+x,1/2-y,-z
1/2-x,1/2+y,-z
-x,-y,-z
x,y,-z
1/2-x,1/2+y,z
1/2+x,1/2-y,z
loop_
_atom_site_type_symbol
_atom_site_label
_atom_site_fract_x
_atom_site_fract_y
_atom_site_fract_z
Si Si1 0.906217 0.787755 0.747967
Si Si2 0.401141 0.238454 0.755468
Si Si3 0.737227 0.192322 0.881065
Si Si4 0.354985 0.474159 0.617197
Si Si5 0.328098 0.970400 0.708125
O O1 0.834650 0.789862 0.836363
O O2 0.878298 0.661160 0.684282
O O3 0.001520 0.763733 0.788225
O O4 0.900227 0.913433 0.680442
O O5 0.330510 0.265508 0.841616
O O6 0.379519 0.338525 0.666343
O O7 0.386542 0.094447 0.717083
O O8 0.712046 0.063765 0.818877
O O9 0.732803 0.178884 0.000000
O O10 0.376440 0.480274 0.500000
O O11 0.252571 0.491664 0.635210
#
# Coordination Sequence:
#
# PCOD9428586 Si02
#       5
#     8   8   8   8   8
#     4  10  22  39  61  92 124 158 206 255 302 366
#     4  11  21  39  62  91 123 160 206 255 303 363
#     4   9  21  39  62  90 123 161 199 247 311 361
#     4  11  22  41  64  87 124 169 204 250 317 373
#     4   9  20  40  60  90 117 161 202 259 297 358
#
# _framework density 18.606691999999999
#
# number of rings (size 3 to 8) (size 9 to 14) (size 15 to 20)
#    1.200    0.800    2.000    1.200    0.000    6.400 
#    0.000    1.000    0.000    7.200    0.000    0.000 
#    0.000    0.000    0.000    0.000    0.000    0.000 
#
# Total GULP energy -222909.695611 kJ/mol
# GULP energy per Si atom -5572.742390 kJ/mol
# Density = 1.856434 g / cm^3
# Si number density = 18.606692 Si / 1000 Ang^3
#
#
#
# Elastic Constant Matrix: (Units=GPa)
#
#
# Indices 1 2 3 4 5 6 
#
# 1 105.3847 -9.5029 11.1137 0.0000 0.0000 0.0000
# 2 -9.5029 89.5282 17.3708 0.0000 0.0000 0.0000
# 3 11.1137 17.3708 48.2371 0.0000 0.0000 0.0000
# 4 0.0000 0.0000 0.0000 9.7608 0.0000 0.0000
# 5 0.0000 0.0000 0.0000 0.0000 0.0110 0.0000
# 6 0.0000 0.0000 0.0000 0.0000 0.0000 24.2007
#
#
#
# Elastic Compliance Matrix: (Units=1/GPa)
#
#
# Indices 1 2 3 4 5 6 
#
# 1 0.009937 0.001612 -0.002870 0.000000 0.000000 0.000000
# 2 0.001612 0.012270 -0.004790 0.000000 0.000000 0.000000
# 3 -0.002870 -0.004790 0.023117 0.000000 0.000000 0.000000
# 4 0.000000 0.000000 0.000000 0.102451 0.000000 0.000000
# 5 0.000000 0.000000 0.000000 0.000000 90.704517 0.000000
# 6 0.000000 0.000000 0.000000 0.000000 0.000000 0.041321
#
#
# Mechanical properties :
#
#
# Convention : Reuss Voigt Hill
#
# Bulk Modulus (GPa) = 30.09527 31.23481 30.66504
# Shear Modulus (GPa) = 0.05500 21.73905 10.89702
#
# Velocity S-wave (km/s) = 0.17211 3.42182 2.42265
# Velocity P-wave (km/s) = 4.03101 5.69518 4.93377
#
# Compressibility (1/GPa) = 0.03322782
#
# Stress axis : x y z
#
# Youngs Moduli (GPa) = 100.63385 81.49894 43.25815
#
# Poissons Ratio (x) = -0.13134 0.12414
# Poissons Ratio (y) = -0.16218 0.20720
# Poissons Ratio (z) = 0.28880 0.39037
#
# Static dielectric constant tensor:
#      x y z
#    x 1.668240 0.000000 0.000000 
#    y 0.000000 1.654520 0.000000 
#    z 0.000000 0.000000 1.593210 
# 
# From -- ./inp_files/18740.got.cif
#   From: 2010.05.17/outbox.cif.g08.bks.cpg/sg55_10_cif.got.tgz:18740.got - 2010.06.03 13:27:54.
