data_PCOD9428600
_publ_section_title
;
Structure prediction by ZEFSAII (Michael W. Deem and Ramdas Pophale) SiO2 
 PCOD9428600
Probable space group: P B A M
;
_chemical_formula_sum "Si O2"
_cell_formula_units_Z 32
_cell_length_a 10.208228
_cell_length_b 13.643851
_cell_length_c 11.327355
_cell_angle_alpha 90.000000
_cell_angle_beta 90.000000
_cell_angle_gamma 90.000000
_cell_volume 1577.668814
_symmetry_space_group_name_H-M "P B A M"
_symmetry_group_IT_number 55
_symmetry_cell_setting 'orthorhombic'
loop_
_space_group_symop_operation_xyz
x,y,z
-x,-y,z
1/2+x,1/2-y,-z
1/2-x,1/2+y,-z
-x,-y,-z
x,y,-z
1/2-x,1/2+y,z
1/2+x,1/2-y,z
loop_
_atom_site_type_symbol
_atom_site_label
_atom_site_fract_x
_atom_site_fract_y
_atom_site_fract_z
Si Si1 0.228793 0.154665 0.860355
Si Si2 0.531325 0.741787 0.241792
Si Si3 0.952324 0.328219 0.500000
Si Si4 0.639624 0.537289 0.730346
Si Si5 0.193198 0.478339 0.500000
O O1 0.377169 0.177486 0.819849
O O2 0.118448 0.225100 0.799290
O O3 0.193026 0.045080 0.818241
O O4 0.216524 0.164834 0.000000
O O5 0.538874 0.764230 0.381642
O O6 0.606860 0.640900 0.212185
O O7 0.829617 0.403545 0.500000
O O8 0.067968 0.407960 0.500000
O O9 0.500000 0.500000 0.683177
O O10 0.732879 0.547409 0.619468
#
# Coordination Sequence:
#
# PCOD9428600 Si02
#       5
#     8   8   4   8   4
#     4  11  24  42  64  91 126 170 219 264 313 375
#     4  11  23  42  65  94 128 166 212 264 321 379
#     4  11  23  37  66  93 127 161 200 259 326 380
#     4  10  22  39  64  90 125 166 210 257 317 385
#     4  11  20  39  61  93 129 156 199 257 322 373
#
# _framework density 20.283090999999999
#
# number of rings (size 3 to 8) (size 9 to 14) (size 15 to 20)
#    0.000    1.250    2.500    3.375    0.000    9.500 
#    0.000    0.000    0.000    4.500    0.000    0.000 
#    0.000    0.000    0.000    0.000    0.000    0.000 
#
# Total GULP energy -178664.072667 kJ/mol
# GULP energy per Si atom -5583.252271 kJ/mol
# Density = 2.023693 g / cm^3
# Si number density = 20.283091 Si / 1000 Ang^3
#
#
#
# Elastic Constant Matrix: (Units=GPa)
#
#
# Indices 1 2 3 4 5 6 
#
# 1 30.8945 2.5992 10.0378 0.0000 0.0000 0.0000
# 2 2.5992 58.6227 -3.7716 0.0000 0.0000 0.0000
# 3 10.0378 -3.7716 94.0428 0.0000 0.0000 0.0000
# 4 0.0000 0.0000 0.0000 20.8382 0.0000 0.0000
# 5 0.0000 0.0000 0.0000 0.0000 16.9926 0.0000
# 6 0.0000 0.0000 0.0000 0.0000 0.0000 31.5944
#
#
#
# Elastic Compliance Matrix: (Units=1/GPa)
#
#
# Indices 1 2 3 4 5 6 
#
# 1 0.033705 -0.001730 -0.003667 0.000000 0.000000 0.000000
# 2 -0.001730 0.017191 0.000874 0.000000 0.000000 0.000000
# 3 -0.003667 0.000874 0.011060 0.000000 0.000000 0.000000
# 4 0.000000 0.000000 0.000000 0.047989 0.000000 0.000000
# 5 0.000000 0.000000 0.000000 0.000000 0.058849 0.000000
# 6 0.000000 0.000000 0.000000 0.000000 0.000000 0.031651
#
#
# Mechanical properties :
#
#
# Convention : Reuss Voigt Hill
#
# Bulk Modulus (GPa) = 18.90004 22.36565 20.63285
# Shear Modulus (GPa) = 22.01398 25.53135 23.77266
#
# Velocity S-wave (km/s) = 3.29802 3.55174 3.42723
# Velocity P-wave (km/s) = 4.88272 5.27925 5.08485
#
# Compressibility (1/GPa) = 0.05290995
#
# Stress axis : x y z
#
# Youngs Moduli (GPa) = 29.66902 58.16932 90.41657
#
# Poissons Ratio (x) = 0.10065 0.33156
# Poissons Ratio (y) = 0.05134 -0.07904
# Poissons Ratio (z) = 0.10880 -0.05085
#
# Static dielectric constant tensor:
#      x y z
#    x 1.750980 0.000000 0.000000 
#    y 0.000000 1.754890 0.000000 
#    z 0.000000 0.000000 1.659240 
# 
# From -- ./inp_files/3339.got.cif
#   From: 2010.05.17/outbox.cif.g08.bks.cpg/sg55_2_cif.got.tgz:3339.got - 2010.06.03 13:27:54.
