data_PCOD9428192
_publ_section_title
;
Structure prediction by ZEFSAII (Michael W. Deem and Ramdas Pophale) SiO2 
 PCOD9428192
Probable space group: P B A M
;
_chemical_formula_sum "Si O2"
_cell_formula_units_Z 58
_cell_length_a 11.920301
_cell_length_b 28.854023
_cell_length_c 7.872706
_cell_angle_alpha 90.000000
_cell_angle_beta 90.000000
_cell_angle_gamma 90.000000
_cell_volume 2707.806516
_symmetry_space_group_name_H-M "P B A M"
_symmetry_group_IT_number 55
_symmetry_cell_setting 'orthorhombic'
loop_
_space_group_symop_operation_xyz
x,y,z
-x,-y,z
1/2+x,1/2-y,-z
1/2-x,1/2+y,-z
-x,-y,-z
x,y,-z
1/2-x,1/2+y,z
1/2+x,1/2-y,z
loop_
_atom_site_type_symbol
_atom_site_label
_atom_site_fract_x
_atom_site_fract_y
_atom_site_fract_z
Si Si1 0.500000 0.500000 0.500000
Si Si2 0.902135 0.151619 0.798261
Si Si3 0.859409 0.811116 0.203864
Si Si4 0.311601 0.793514 0.296238
Si Si5 0.275136 0.440815 0.700601
Si Si6 0.370922 0.536127 0.809060
Si Si7 0.187174 0.615246 0.798600
Si Si8 0.066165 0.385037 0.299424
O O1 0.456280 0.535411 0.652574
O O2 0.812462 0.192451 0.764895
O O3 0.849508 0.105325 0.719136
O O4 0.024442 0.166335 0.733424
O O5 0.908798 0.143835 0.000000
O O6 0.849944 0.756962 0.240193
O O7 0.751636 0.839395 0.269438
O O8 0.860604 0.817041 0.000000
O O9 0.311183 0.793982 0.500000
O O10 0.392841 0.835009 0.232294
O O11 0.280474 0.455272 0.500000
O O12 0.317691 0.484810 0.802634
O O13 0.151522 0.424861 0.760366
O O14 0.272778 0.572909 0.775340
O O15 0.416635 0.545379 0.000000
O O16 0.064280 0.607024 0.726504
O O17 0.170463 0.621010 0.000000
O O18 0.088694 0.383979 0.500000
#
# Coordination Sequence:
#
# PCOD9428192 Si02
#       8
#     2   8   8   8   8   8   8   8
#     4  12  26  44  68  96 132 180 218 264 334 378
#     4  10  21  38  62  89 120 160 209 264 318 381
#     4  10  23  40  59  85 121 162 207 261 322 384
#     4  10  22  40  59  89 120 160 209 260 321 389
#     4  10  21  41  65  96 127 169 218 268 322 385
#     4  11  25  44  67  99 134 174 226 272 329 397
#     4  10  24  42  61  93 130 166 214 269 325 393
#     4   9  21  40  64  89 128 166 212 267 323 387
#
# _framework density 21.419553000000001
#
# number of rings (size 3 to 8) (size 9 to 14) (size 15 to 20)
#    0.000    1.931    0.690    2.276    4.828    5.517 
#    0.000    2.759    0.000    0.000    0.000    0.000 
#    0.000    0.000    0.000    0.000    0.000    0.000 
#
# Total GULP energy -323593.354183 kJ/mol
# GULP energy per Si atom -5579.195762 kJ/mol
# Density = 2.137080 g / cm^3
# Si number density = 21.419553 Si / 1000 Ang^3
#
#
#
# Elastic Constant Matrix: (Units=GPa)
#
#
# Indices 1 2 3 4 5 6 
#
# 1 74.9955 6.7212 11.5977 0.0000 0.0000 0.0000
# 2 6.7212 62.6519 3.8517 0.0000 0.0000 0.0000
# 3 11.5977 3.8517 64.2194 0.0000 0.0000 0.0000
# 4 0.0000 0.0000 0.0000 38.9334 0.0000 0.0000
# 5 0.0000 0.0000 0.0000 0.0000 26.9776 0.0000
# 6 0.0000 0.0000 0.0000 0.0000 0.0000 18.6242
#
#
#
# Elastic Compliance Matrix: (Units=1/GPa)
#
#
# Indices 1 2 3 4 5 6 
#
# 1 0.013828 -0.001335 -0.002417 0.000000 0.000000 0.000000
# 2 -0.001335 0.016149 -0.000728 0.000000 0.000000 0.000000
# 3 -0.002417 -0.000728 0.016052 0.000000 0.000000 0.000000
# 4 0.000000 0.000000 0.000000 0.025685 0.000000 0.000000
# 5 0.000000 0.000000 0.000000 0.000000 0.037068 0.000000
# 6 0.000000 0.000000 0.000000 0.000000 0.000000 0.053693
#
#
# Mechanical properties :
#
#
# Convention : Reuss Voigt Hill
#
# Bulk Modulus (GPa) = 26.97633 27.35646 27.16640
# Shear Modulus (GPa) = 27.20495 28.88679 28.04587
#
# Velocity S-wave (km/s) = 3.56771 3.67634 3.62243
# Velocity P-wave (km/s) = 5.43995 5.55158 5.49605
#
# Compressibility (1/GPa) = 0.03706954
#
# Stress axis : x y z
#
# Youngs Moduli (GPa) = 72.31939 61.92285 62.29839
#
# Poissons Ratio (x) = 0.08265 0.15058
# Poissons Ratio (y) = 0.09653 0.04532
# Poissons Ratio (z) = 0.17481 0.04505
#
# Static dielectric constant tensor:
#      x y z
#    x 1.836640 0.000000 0.000000 
#    y 0.000000 1.768530 0.000000 
#    z 0.000000 0.000000 2.473640 
# 
# From -- ./inp_files/4315.got.cif
#   From: 2010.05.17/outbox.cif.g08.bks.cpg/sg55_3_cif.got.tgz:4315.got - 2010.06.03 13:27:54.
