data_PCOD9428191
_publ_section_title
;
Structure prediction by ZEFSAII (Michael W. Deem and Ramdas Pophale) SiO2 
 PCOD9428191
Probable space group: P B A M
;
_chemical_formula_sum "Si O2"
_cell_formula_units_Z 48
_cell_length_a 31.580325
_cell_length_b 9.131124
_cell_length_c 8.732778
_cell_angle_alpha 90.000000
_cell_angle_beta 90.000000
_cell_angle_gamma 90.000000
_cell_volume 2518.217603
_symmetry_space_group_name_H-M "P B A M"
_symmetry_group_IT_number 55
_symmetry_cell_setting 'orthorhombic'
loop_
_space_group_symop_operation_xyz
x,y,z
-x,-y,z
1/2+x,1/2-y,-z
1/2-x,1/2+y,-z
-x,-y,-z
x,y,-z
1/2-x,1/2+y,z
1/2+x,1/2-y,z
loop_
_atom_site_type_symbol
_atom_site_label
_atom_site_fract_x
_atom_site_fract_y
_atom_site_fract_z
Si Si1 0.789372 0.913598 0.684103
Si Si2 0.871832 0.421466 0.315121
Si Si3 0.041675 0.410772 0.684679
Si Si4 0.376340 0.420090 0.684171
Si Si5 0.457519 0.584730 0.816646
Si Si6 0.790716 0.586867 0.182783
O O1 0.785233 0.912076 0.500000
O O2 0.790717 0.748816 0.745850
O O3 0.832950 0.996714 0.723961
O O4 0.749865 0.999151 0.755319
O O5 0.866533 0.430211 0.500000
O O6 0.915813 0.500903 0.274867
O O7 0.873603 0.250527 0.272473
O O8 0.832715 0.502201 0.236763
O O9 0.040442 0.398728 0.500000
O O10 0.042394 0.249112 0.753212
O O11 0.000000 0.500000 0.733847
O O12 0.381140 0.426889 0.500000
O O13 0.416387 0.498908 0.758299
O O14 0.500000 0.500000 0.765916
O O15 0.457105 0.589096 0.000000
O O16 0.789299 0.596035 0.000000
#
# Coordination Sequence:
#
# PCOD9428191 Si02
#       6
#     8   8   8   8   8   8
#     4  11  23  41  64  89 119 158 202 245 295 355
#     4  10  21  39  62  89 120 155 198 246 298 354
#     4  10  21  38  62  89 116 152 200 249 293 345
#     4  10  22  40  64  89 114 152 200 246 290 345
#     4  11  24  39  57  85 121 158 194 238 296 357
#     4  12  25  40  61  91 124 158 198 246 300 355
#
# _framework density 19.061101000000001
#
# number of rings (size 3 to 8) (size 9 to 14) (size 15 to 20)
#    0.000    1.333    0.000    5.500    0.000   11.000 
#    0.000    0.000    0.000    0.000    0.000    0.000 
#    0.000    0.000    0.000    0.000    0.000    0.000 
#
# Total GULP energy -268552.744106 kJ/mol
# GULP energy per Si atom -5594.848836 kJ/mol
# Density = 1.901772 g / cm^3
# Si number density = 19.061101 Si / 1000 Ang^3
#
#
#
# Elastic Constant Matrix: (Units=GPa)
#
#
# Indices 1 2 3 4 5 6 
#
# 1 201.9726 115.9315 64.6780 0.0000 0.0000 0.0000
# 2 115.9315 208.6686 53.7446 0.0000 0.0000 0.0000
# 3 64.6780 53.7446 46.0320 0.0000 0.0000 0.0000
# 4 0.0000 0.0000 0.0000 3.2095 0.0000 0.0000
# 5 0.0000 0.0000 0.0000 0.0000 18.8577 0.0000
# 6 0.0000 0.0000 0.0000 0.0000 0.0000 43.6407
#
#
#
# Elastic Compliance Matrix: (Units=1/GPa)
#
#
# Indices 1 2 3 4 5 6 
#
# 1 0.010010 -0.002773 -0.010827 0.000000 0.000000 0.000000
# 2 -0.002773 0.007621 -0.005002 0.000000 0.000000 0.000000
# 3 -0.010827 -0.005002 0.042778 0.000000 0.000000 0.000000
# 4 0.000000 0.000000 0.000000 0.311572 0.000000 0.000000
# 5 0.000000 0.000000 0.000000 0.000000 0.053029 0.000000
# 6 0.000000 0.000000 0.000000 0.000000 0.000000 0.022914
#
#
# Mechanical properties :
#
#
# Convention : Reuss Voigt Hill
#
# Bulk Modulus (GPa) = 43.09601 102.82017 72.95809
# Shear Modulus (GPa) = 10.14480 27.96285 19.05382
#
# Velocity S-wave (km/s) = 2.30950 3.83431 3.16510
# Velocity P-wave (km/s) = 5.45621 8.58266 7.19140
#
# Compressibility (1/GPa) = 0.02320401
#
# Stress axis : x y z
#
# Youngs Moduli (GPa) = 99.90103 131.21554 23.37664
#
# Poissons Ratio (x) = 0.36380 0.25311
# Poissons Ratio (y) = 0.27698 0.11694
# Poissons Ratio (z) = 1.08168 0.65638
#
# Static dielectric constant tensor:
#      x y z
#    x 1.630150 0.000000 0.000000 
#    y 0.000000 1.619990 0.000000 
#    z 0.000000 0.000000 1.639750 
# 
# From -- ./inp_files/10491.got.cif
#   From: 2010.05.17/outbox.cif.g08.bks.cpg/sg55_6_cif.got.tgz:10491.got - 2010.06.03 13:27:54.
