data_PCOD9428837
_publ_section_title
;
Structure prediction by ZEFSAII (Michael W. Deem and Ramdas Pophale) SiO2 
 PCOD9428837
Probable space group: P B A M
;
_chemical_formula_sum "Si O2"
_cell_formula_units_Z 34
_cell_length_a 18.008793
_cell_length_b 7.635476
_cell_length_c 10.058084
_cell_angle_alpha 90.000000
_cell_angle_beta 90.000000
_cell_angle_gamma 90.000000
_cell_volume 1383.043949
_symmetry_space_group_name_H-M "P B A M"
_symmetry_group_IT_number 55
_symmetry_cell_setting 'orthorhombic'
loop_
_space_group_symop_operation_xyz
x,y,z
-x,-y,z
1/2+x,1/2-y,-z
1/2-x,1/2+y,-z
-x,-y,-z
x,y,-z
1/2-x,1/2+y,z
1/2+x,1/2-y,z
loop_
_atom_site_type_symbol
_atom_site_label
_atom_site_fract_x
_atom_site_fract_y
_atom_site_fract_z
Si Si1 0.761293 0.590123 0.648022
Si Si2 0.873370 0.102808 0.848830
Si Si3 0.088192 0.604110 0.654598
Si Si4 0.595281 0.286801 0.710918
Si Si5 0.000000 0.000000 0.500000
O O1 0.727356 0.594201 0.500000
O O2 0.704578 0.591215 0.769366
O O3 0.822327 0.432870 0.651357
O O4 0.820156 0.750038 0.664551
O O5 0.920358 0.242915 0.761968
O O6 0.903589 0.903262 0.842906
O O7 0.865706 0.161827 0.000000
O O8 0.066741 0.649997 0.500000
O O9 0.061967 0.408598 0.697430
O O10 0.553695 0.412269 0.611897
#
# Coordination Sequence:
#
# PCOD9428837 Si02
#       5
#     8   8   8   8   2
#     4   9  19  38  62  94 132 165 214 277 328 384
#     4  12  25  37  61  99 138 176 205 257 342 414
#     4   9  20  38  60  91 122 160 213 271 314 377
#     4  10  23  41  66  98 127 168 229 270 329 375
#     4  12  20  48  72  96 124 170 234 294 314 368
#
# _framework density 24.583456999999999
#
# number of rings (size 3 to 8) (size 9 to 14) (size 15 to 20)
#    1.412    0.471    2.353    2.118    3.294    6.588 
#    0.000    2.941    0.000    1.412    0.000    0.000 
#    0.000    0.000    0.000    0.000    0.000    0.000 
#
# Total GULP energy -189349.162072 kJ/mol
# GULP energy per Si atom -5569.093002 kJ/mol
# Density = 2.452750 g / cm^3
# Si number density = 24.583457 Si / 1000 Ang^3
#
#
#
# Elastic Constant Matrix: (Units=GPa)
#
#
# Indices 1 2 3 4 5 6 
#
# 1 56.1277 18.0679 30.0537 0.0000 0.0000 0.0000
# 2 18.0679 126.3150 83.0408 0.0000 0.0000 0.0000
# 3 30.0537 83.0408 203.9687 0.0000 0.0000 0.0000
# 4 0.0000 0.0000 0.0000 11.6295 0.0000 0.0000
# 5 0.0000 0.0000 0.0000 0.0000 2.5540 0.0000
# 6 0.0000 0.0000 0.0000 0.0000 0.0000 44.5327
#
#
#
# Elastic Compliance Matrix: (Units=1/GPa)
#
#
# Indices 1 2 3 4 5 6 
#
# 1 0.019481 -0.001228 -0.002370 0.000000 0.000000 0.000000
# 2 -0.001228 0.010887 -0.004252 0.000000 0.000000 0.000000
# 3 -0.002370 -0.004252 0.006983 0.000000 0.000000 0.000000
# 4 0.000000 0.000000 0.000000 0.085988 0.000000 0.000000
# 5 0.000000 0.000000 0.000000 0.000000 0.391539 0.000000
# 6 0.000000 0.000000 0.000000 0.000000 0.000000 0.022455
#
#
# Mechanical properties :
#
#
# Convention : Reuss Voigt Hill
#
# Bulk Modulus (GPa) = 46.18709 72.08180 59.13445
# Shear Modulus (GPa) = 8.92456 28.75983 18.84220
#
# Velocity S-wave (km/s) = 1.90740 3.42407 2.77150
# Velocity P-wave (km/s) = 4.86617 6.70949 5.86075
#
# Compressibility (1/GPa) = 0.02165107
#
# Stress axis : x y z
#
# Youngs Moduli (GPa) = 51.33171 91.84901 143.20683
#
# Poissons Ratio (x) = 0.11281 0.33946
# Poissons Ratio (y) = 0.06305 0.60886
# Poissons Ratio (z) = 0.12168 0.39050
#
# Static dielectric constant tensor:
#      x y z
#    x 2.103250 0.000000 0.000000 
#    y 0.000000 2.147170 0.000000 
#    z 0.000000 0.000000 1.770840 
# 
# From -- ./inp_files/8381.got.cif
#   From: 2010.05.17/outbox.cif.g08.bks.cpg/sg55_5_cif.got.tgz:8381.got - 2010.06.03 13:27:54.
