data_PCOD9428200
_publ_section_title
;
Structure prediction by ZEFSAII (Michael W. Deem and Ramdas Pophale) SiO2 
 PCOD9428200
Probable space group: P B A M
;
_chemical_formula_sum "Si O2"
_cell_formula_units_Z 64
_cell_length_a 13.714473
_cell_length_b 13.194828
_cell_length_c 17.775447
_cell_angle_alpha 90.000000
_cell_angle_beta 90.000000
_cell_angle_gamma 90.000000
_cell_volume 3216.646886
_symmetry_space_group_name_H-M "P B A M"
_symmetry_group_IT_number 55
_symmetry_cell_setting 'orthorhombic'
loop_
_space_group_symop_operation_xyz
x,y,z
-x,-y,z
1/2+x,1/2-y,-z
1/2-x,1/2+y,-z
-x,-y,-z
x,y,-z
1/2-x,1/2+y,z
1/2+x,1/2-y,z
loop_
_atom_site_type_symbol
_atom_site_label
_atom_site_fract_x
_atom_site_fract_y
_atom_site_fract_z
Si Si1 0.295880 0.094009 0.087652
Si Si2 0.681790 0.109962 0.830309
Si Si3 0.093764 0.732599 0.671856
Si Si4 0.796385 0.439782 0.412290
Si Si5 0.408003 0.695926 0.090150
Si Si6 0.075914 0.413190 0.676394
Si Si7 0.111726 0.789015 0.844761
Si Si8 0.599613 0.555390 0.410533
O O1 0.184077 0.123554 0.107792
O O2 0.358326 0.195035 0.102188
O O3 0.333876 0.001637 0.137115
O O4 0.298854 0.066137 0.000000
O O5 0.620614 0.194768 0.875169
O O6 0.649108 0.113156 0.743634
O O7 0.795468 0.137167 0.841525
O O8 0.172355 0.653317 0.639927
O O9 0.098483 0.744645 0.761247
O O10 0.109084 0.840608 0.634029
O O11 0.988934 0.682520 0.653120
O O12 0.805739 0.412768 0.500000
O O13 0.867366 0.533240 0.391401
O O14 0.688677 0.479692 0.396207
O O15 0.510999 0.664297 0.125724
O O16 0.415624 0.702338 0.000000
O O17 0.000000 0.500000 0.704500
O O18 0.500000 0.500000 0.389820
O O19 0.598571 0.577226 0.500000
#
# Coordination Sequence:
#
# PCOD9428200 Si02
#       8
#     8   8   8   8   8   8   8   8
#     4  10  22  39  62  89 118 160 205 253 312 370
#     4  11  22  39  62  89 121 160 204 253 304 368
#     4  11  22  40  64  89 125 169 203 251 317 364
#     4  10  22  40  63  93 125 162 207 256 304 363
#     4  10  22  40  60  87 121 156 201 256 310 368
#     4  10  21  38  62  91 124 155 207 258 301 368
#     4  11  23  40  58  89 125 158 203 255 302 368
#     4  10  23  42  62  93 129 163 209 254 299 367
#
# _framework density 19.896495999999999
#
# number of rings (size 3 to 8) (size 9 to 14) (size 15 to 20)
#    0.000    1.625    1.250    3.375    0.000    6.750 
#    4.500    5.000    0.000    0.000    0.000    0.000 
#    0.000    0.000    0.000    0.000    0.000    0.000 
#
# Total GULP energy -357704.271946 kJ/mol
# GULP energy per Si atom -5589.129249 kJ/mol
# Density = 1.985121 g / cm^3
# Si number density = 19.896496 Si / 1000 Ang^3
#
#
#
# Elastic Constant Matrix: (Units=GPa)
#
#
# Indices 1 2 3 4 5 6 
#
# 1 69.0523 -2.1594 22.2954 0.0000 0.0000 0.0000
# 2 -2.1594 39.1486 14.8605 0.0000 0.0000 0.0000
# 3 22.2954 14.8605 54.1007 0.0000 0.0000 0.0000
# 4 0.0000 0.0000 0.0000 29.4215 0.0000 0.0000
# 5 0.0000 0.0000 0.0000 0.0000 29.8681 0.0000
# 6 0.0000 0.0000 0.0000 0.0000 0.0000 11.6970
#
#
#
# Elastic Compliance Matrix: (Units=1/GPa)
#
#
# Indices 1 2 3 4 5 6 
#
# 1 0.017269 0.004079 -0.008237 0.000000 0.000000 0.000000
# 2 0.004079 0.029481 -0.009779 0.000000 0.000000 0.000000
# 3 -0.008237 -0.009779 0.024565 0.000000 0.000000 0.000000
# 4 0.000000 0.000000 0.000000 0.033989 0.000000 0.000000
# 5 0.000000 0.000000 0.000000 0.000000 0.033481 0.000000
# 6 0.000000 0.000000 0.000000 0.000000 0.000000 0.085492
#
#
# Mechanical properties :
#
#
# Convention : Reuss Voigt Hill
#
# Bulk Modulus (GPa) = 23.01988 25.81052 24.41520
# Shear Modulus (GPa) = 18.75261 22.68433 20.71847
#
# Velocity S-wave (km/s) = 3.07336 3.38022 3.23044
# Velocity P-wave (km/s) = 4.91823 5.31367 5.11977
#
# Compressibility (1/GPa) = 0.04344071
#
# Stress axis : x y z
#
# Youngs Moduli (GPa) = 57.90743 33.92050 40.70866
#
# Poissons Ratio (x) = -0.13837 0.33533
# Poissons Ratio (y) = -0.23622 0.39809
# Poissons Ratio (z) = 0.47699 0.33171
#
# Static dielectric constant tensor:
#      x y z
#    x 1.716940 0.000000 0.000000 
#    y 0.000000 1.728490 0.000000 
#    z 0.000000 0.000000 1.663350 
# 
# From -- ./inp_files/21331.got.cif
#   From: 2010.05.17/outbox.cif.g08.bks.cpg/sg55_11_cif.got.tgz:21331.got - 2010.06.03 13:27:54.
