data_PCOD9428169
_publ_section_title
;
Structure prediction by ZEFSAII (Michael W. Deem and Ramdas Pophale) SiO2 
 PCOD9428169
Probable space group: P B A M
;
_chemical_formula_sum "Si O2"
_cell_formula_units_Z 40
_cell_length_a 8.407337
_cell_length_b 29.383514
_cell_length_c 7.320641
_cell_angle_alpha 90.000000
_cell_angle_beta 90.000000
_cell_angle_gamma 90.000000
_cell_volume 1808.469955
_symmetry_space_group_name_H-M "P B A M"
_symmetry_group_IT_number 55
_symmetry_cell_setting 'orthorhombic'
loop_
_space_group_symop_operation_xyz
x,y,z
-x,-y,z
1/2+x,1/2-y,-z
1/2-x,1/2+y,-z
-x,-y,-z
x,y,-z
1/2-x,1/2+y,z
1/2+x,1/2-y,z
loop_
_atom_site_type_symbol
_atom_site_label
_atom_site_fract_x
_atom_site_fract_y
_atom_site_fract_z
Si Si1 0.117249 0.564299 0.778026
Si Si2 0.371979 0.379261 0.217434
Si Si3 0.362961 0.223641 0.500000
Si Si4 0.774998 0.842980 0.782380
Si Si5 0.765443 0.529373 0.220919
Si Si6 0.712776 0.182129 0.500000
O O1 0.168760 0.614088 0.718969
O O2 0.231692 0.522872 0.716798
O O3 0.938217 0.550145 0.729328
O O4 0.123185 0.565172 0.000000
O O5 0.544227 0.358159 0.253478
O O6 0.360245 0.432258 0.274994
O O7 0.243536 0.349789 0.325786
O O8 0.342524 0.377262 0.000000
O O9 0.276245 0.201504 0.674585
O O10 0.543377 0.206412 0.500000
O O11 0.342178 0.277446 0.500000
O O12 0.756653 0.836948 0.000000
O O13 0.758049 0.526876 0.000000
#
# Coordination Sequence:
#
# PCOD9428169 Si02
#       6
#     8   8   4   8   8   4
#     4   8  14  27  50  81 117 156 195 233 277 333
#     4  10  21  38  61  89 121 155 192 236 287 344
#     4  12  26  44  65  86 113 148 190 243 295 347
#     4  10  21  38  61  89 121 155 192 236 287 344
#     4   8  14  27  50  81 117 156 195 233 277 333
#     4  12  26  44  65  86 113 148 190 243 295 347
#
# _framework density 22.118145999999999
#
# number of rings (size 3 to 8) (size 9 to 14) (size 15 to 20)
#    0.000    2.400    0.000    4.200    0.000    4.000 
#    0.000    5.000    0.000    6.000    0.000    0.000 
#    0.000    0.000    0.000    0.000    0.000    0.000 
#
# Total GULP energy -223541.230219 kJ/mol
# GULP energy per Si atom -5588.530755 kJ/mol
# Density = 2.206780 g / cm^3
# Si number density = 22.118146 Si / 1000 Ang^3
#
#
#
# Elastic Constant Matrix: (Units=GPa)
#
#
# Indices 1 2 3 4 5 6 
#
# 1 33.4765 -16.8165 11.0466 0.0000 0.0000 0.0000
# 2 -16.8165 74.9592 6.5756 0.0000 0.0000 0.0000
# 3 11.0466 6.5756 74.6919 0.0000 0.0000 0.0000
# 4 0.0000 0.0000 0.0000 28.7773 0.0000 0.0000
# 5 0.0000 0.0000 0.0000 0.0000 21.3596 0.0000
# 6 0.0000 0.0000 0.0000 0.0000 0.0000 34.0210
#
#
#
# Elastic Compliance Matrix: (Units=1/GPa)
#
#
# Indices 1 2 3 4 5 6 
#
# 1 0.036247 0.008669 -0.006124 0.000000 0.000000 0.000000
# 2 0.008669 0.015518 -0.002648 0.000000 0.000000 0.000000
# 3 -0.006124 -0.002648 0.014527 0.000000 0.000000 0.000000
# 4 0.000000 0.000000 0.000000 0.034750 0.000000 0.000000
# 5 0.000000 0.000000 0.000000 0.000000 0.046817 0.000000
# 6 0.000000 0.000000 0.000000 0.000000 0.000000 0.029394
#
#
# Mechanical properties :
#
#
# Convention : Reuss Voigt Hill
#
# Bulk Modulus (GPa) = 15.13188 20.52656 17.82922
# Shear Modulus (GPa) = 25.06422 28.98639 27.02530
#
# Velocity S-wave (km/s) = 3.36995 3.62405 3.49931
# Velocity P-wave (km/s) = 4.69024 5.17805 4.94017
#
# Compressibility (1/GPa) = 0.06608564
#
# Stress axis : x y z
#
# Youngs Moduli (GPa) = 27.58834 64.44251 68.83645
#
# Poissons Ratio (x) = -0.55865 0.42155
# Poissons Ratio (y) = -0.23916 0.18229
# Poissons Ratio (z) = 0.16895 0.17066
#
# Static dielectric constant tensor:
#      x y z
#    x 1.812130 0.000000 0.000000 
#    y 0.000000 1.768670 0.000000 
#    z 0.000000 0.000000 1.830640 
# 
# From -- ./inp_files/2354.got.cif
#   From: 2010.05.17/outbox.cif.g08.bks.cpg/sg55_2_cif.got.tgz:2354.got - 2010.06.03 13:27:54.
