data_PCOD9428286
_publ_section_title
;
Structure prediction by ZEFSAII (Michael W. Deem and Ramdas Pophale) SiO2 
 PCOD9428286
Probable space group: P B A M
;
_chemical_formula_sum "Si O2"
_cell_formula_units_Z 60
_cell_length_a 5.296501
_cell_length_b 22.532938
_cell_length_c 26.209484
_cell_angle_alpha 90.000000
_cell_angle_beta 90.000000
_cell_angle_gamma 90.000000
_cell_volume 3127.989966
_symmetry_space_group_name_H-M "P B A M"
_symmetry_group_IT_number 55
_symmetry_cell_setting 'orthorhombic'
loop_
_space_group_symop_operation_xyz
x,y,z
-x,-y,z
1/2+x,1/2-y,-z
1/2-x,1/2+y,-z
-x,-y,-z
x,y,-z
1/2-x,1/2+y,z
1/2+x,1/2-y,z
loop_
_atom_site_type_symbol
_atom_site_label
_atom_site_fract_x
_atom_site_fract_y
_atom_site_fract_z
Si Si1 0.416708 0.566763 0.177946
Si Si2 0.996747 0.709534 0.739356
Si Si3 0.000000 0.500000 0.313437
Si Si4 0.503598 0.789033 0.943259
Si Si5 0.148622 0.711046 0.440224
Si Si6 0.927953 0.633954 0.156960
Si Si7 0.434212 0.435396 0.709374
Si Si8 0.815590 0.376681 0.349092
O O1 0.500000 0.500000 0.166425
O O2 0.143327 0.583718 0.157788
O O3 0.412618 0.573698 0.239444
O O4 0.642974 0.609872 0.160561
O O5 0.236201 0.753760 0.736046
O O6 0.984821 0.675309 0.793542
O O7 0.038413 0.663212 0.692941
O O8 0.843049 0.543835 0.275431
O O9 0.915686 0.444563 0.349179
O O10 0.279630 0.740533 0.940053
O O11 0.463316 0.831089 0.895439
O O12 0.481097 0.816765 0.000000
O O13 0.153602 0.694378 0.500000
O O14 0.389789 0.753256 0.430503
O O15 0.166910 0.655793 0.402446
O O16 0.500000 0.500000 0.684815
O O17 0.525910 0.385274 0.671175
#
# Coordination Sequence:
#
# PCOD9428286 Si02
#       8
#     8   8   4   8   8   8   8   8
#     4  11  23  37  59  86 120 162 203 243 295 365
#     4  12  25  37  56  89 126 158 193 244 314 367
#     4  10  22  36  61  86 124 160 213 246 302 354
#     4  10  21  39  63  87 113 154 203 247 300 366
#     4  10  23  43  66  90 118 160 208 253 302 363
#     4  12  22  39  59  86 124 156 198 252 304 357
#     4   9  20  35  54  84 115 159 197 243 285 358
#     4  11  22  38  61  88 123 161 203 252 303 364
#
# _framework density 19.181647000000002
#
# number of rings (size 3 to 8) (size 9 to 14) (size 15 to 20)
#    0.000    1.333    1.333    4.400    7.467    0.000 
#    0.000    0.333    0.000    6.000    0.000    0.000 
#    0.000    0.000    0.000    0.000    0.000    0.000 
#
# Total GULP energy -334263.000758 kJ/mol
# GULP energy per Si atom -5571.050013 kJ/mol
# Density = 1.913799 g / cm^3
# Si number density = 19.181647 Si / 1000 Ang^3
#
#
#
# Elastic Constant Matrix: (Units=GPa)
#
#
# Indices 1 2 3 4 5 6 
#
# 1 68.1290 12.7413 5.3751 0.0000 0.0000 0.0000
# 2 12.7413 81.5381 47.4929 0.0000 0.0000 0.0000
# 3 5.3751 47.4929 88.3024 0.0000 0.0000 0.0000
# 4 0.0000 0.0000 0.0000 26.8003 0.0000 0.0000
# 5 0.0000 0.0000 0.0000 0.0000 14.6757 0.0000
# 6 0.0000 0.0000 0.0000 0.0000 0.0000 36.7772
#
#
#
# Elastic Compliance Matrix: (Units=1/GPa)
#
#
# Indices 1 2 3 4 5 6 
#
# 1 0.015136 -0.002663 0.000511 0.000000 0.000000 0.000000
# 2 -0.002663 0.018327 -0.009695 0.000000 0.000000 0.000000
# 3 0.000511 -0.009695 0.016508 0.000000 0.000000 0.000000
# 4 0.000000 0.000000 0.000000 0.037313 0.000000 0.000000
# 5 0.000000 0.000000 0.000000 0.000000 0.068140 0.000000
# 6 0.000000 0.000000 0.000000 0.000000 0.000000 0.027191
#
#
# Mechanical properties :
#
#
# Convention : Reuss Voigt Hill
#
# Bulk Modulus (GPa) = 38.05600 41.02089 39.53844
# Shear Modulus (GPa) = 23.24846 27.14131 25.19488
#
# Velocity S-wave (km/s) = 3.48518 3.76568 3.62814
# Velocity P-wave (km/s) = 6.00651 6.35130 6.18131
#
# Compressibility (1/GPa) = 0.02627707
#
# Stress axis : x y z
#
# Youngs Moduli (GPa) = 66.06899 54.56323 60.57626
#
# Poissons Ratio (x) = 0.14528 -0.03094
# Poissons Ratio (y) = 0.17592 0.58730
# Poissons Ratio (z) = -0.03374 0.52900
#
# Static dielectric constant tensor:
#      x y z
#    x 0.404000 0.000000 0.000000 
#    y 0.000000 1.677050 0.000000 
#    z 0.000000 0.000000 1.641970 
# 
# From -- ./inp_files/23349.got.cif
#   From: 2010.05.17/outbox.cif.g08.bks.cpg/sg55_12_cif.got.tgz:23349.got - 2010.06.03 13:27:54.
