data_PCOD9428795
_publ_section_title
;
Structure prediction by ZEFSAII (Michael W. Deem and Ramdas Pophale) SiO2 
 PCOD9428795
Probable space group: P B A M
;
_chemical_formula_sum "Si O2"
_cell_formula_units_Z 56
_cell_length_a 30.144774
_cell_length_b 8.766642
_cell_length_c 11.407692
_cell_angle_alpha 90.000000
_cell_angle_beta 90.000000
_cell_angle_gamma 90.000000
_cell_volume 3014.692990
_symmetry_space_group_name_H-M "P B A M"
_symmetry_group_IT_number 55
_symmetry_cell_setting 'orthorhombic'
loop_
_space_group_symop_operation_xyz
x,y,z
-x,-y,z
1/2+x,1/2-y,-z
1/2-x,1/2+y,-z
-x,-y,-z
x,y,-z
1/2-x,1/2+y,z
1/2+x,1/2-y,z
loop_
_atom_site_type_symbol
_atom_site_label
_atom_site_fract_x
_atom_site_fract_y
_atom_site_fract_z
Si Si1 0.621954 0.624687 0.635497
Si Si2 0.231371 0.416822 0.365077
Si Si3 0.010951 0.246576 0.500000
Si Si4 0.139411 0.557602 0.289926
Si Si5 0.043545 0.070581 0.730330
Si Si6 0.880434 0.735005 0.861464
Si Si7 0.071125 0.543597 0.500000
Si Si8 0.692485 0.399406 0.282975
O O1 0.622285 0.677055 0.500000
O O2 0.638178 0.759311 0.722088
O O3 0.575243 0.563270 0.681864
O O4 0.654793 0.480977 0.640672
O O5 0.246544 0.434581 0.500000
O O6 0.187011 0.513773 0.342798
O O7 0.268957 0.474266 0.275340
O O8 0.216600 0.243623 0.343097
O O9 0.023818 0.154672 0.616155
O O10 0.040861 0.395859 0.500000
O O11 0.961282 0.311045 0.500000
O O12 0.128255 0.436248 0.188137
O O13 0.101508 0.532808 0.386258
O O14 0.076419 0.184067 0.801688
O O15 0.000000 0.000000 0.793632
O O16 0.836416 0.832085 0.824273
O O17 0.885898 0.733554 0.000000
#
# Coordination Sequence:
#
# PCOD9428795 Si02
#       8
#     8   8   4   8   8   8   4   8
#     4  11  20  33  56  90 132 162 189 241 311 388
#     4  11  19  33  56  88 130 158 190 241 304 377
#     4  11  21  34  60  93 135 164 192 254 316 391
#     4  11  21  36  59  91 125 163 204 246 311 367
#     4  11  22  36  60  93 126 159 206 251 320 382
#     4  10  24  46  64  80 119 169 221 268 303 348
#     4  11  20  34  58  93 131 166 198 250 313 383
#     4  10  23  36  58  91 122 163 205 243 304 365
#
# _framework density 18.575688
#
# number of rings (size 3 to 8) (size 9 to 14) (size 15 to 20)
#    0.000    1.286    3.571    3.214    0.000    0.286 
#    0.000    5.714    0.000    6.000    0.000    0.000 
#    0.000    0.000    0.000    0.000    0.000    0.000 
#
# Total GULP energy -312226.085595 kJ/mol
# GULP energy per Si atom -5575.465814 kJ/mol
# Density = 1.853341 g / cm^3
# Si number density = 18.575688 Si / 1000 Ang^3
#
#
#
# Elastic Constant Matrix: (Units=GPa)
#
#
# Indices 1 2 3 4 5 6 
#
# 1 113.9485 41.6719 28.7196 0.0000 0.0000 0.0000
# 2 41.6719 106.9321 34.2859 0.0000 0.0000 0.0000
# 3 28.7196 34.2859 101.4074 0.0000 0.0000 0.0000
# 4 0.0000 0.0000 0.0000 34.3975 0.0000 0.0000
# 5 0.0000 0.0000 0.0000 0.0000 8.6516 0.0000
# 6 0.0000 0.0000 0.0000 0.0000 0.0000 44.7994
#
#
#
# Elastic Compliance Matrix: (Units=1/GPa)
#
#
# Indices 1 2 3 4 5 6 
#
# 1 0.010515 -0.003525 -0.001786 0.000000 0.000000 0.000000
# 2 -0.003525 0.011671 -0.002947 0.000000 0.000000 0.000000
# 3 -0.001786 -0.002947 0.011364 0.000000 0.000000 0.000000
# 4 0.000000 0.000000 0.000000 0.029072 0.000000 0.000000
# 5 0.000000 0.000000 0.000000 0.000000 0.115585 0.000000
# 6 0.000000 0.000000 0.000000 0.000000 0.000000 0.022322
#
#
# Mechanical properties :
#
#
# Convention : Reuss Voigt Hill
#
# Bulk Modulus (GPa) = 58.71349 59.07143 58.89246
# Shear Modulus (GPa) = 22.44942 32.07708 27.26325
#
# Velocity S-wave (km/s) = 3.48017 4.16002 3.83519
# Velocity P-wave (km/s) = 6.91557 7.41241 7.16830
#
# Compressibility (1/GPa) = 0.01703186
#
# Stress axis : x y z
#
# Youngs Moduli (GPa) = 95.09997 85.68585 88.00019
#
# Poissons Ratio (x) = 0.30205 0.15718
# Poissons Ratio (y) = 0.33524 0.25938
# Poissons Ratio (z) = 0.16987 0.25256
#
# Static dielectric constant tensor:
#      x y z
#    x 1.666180 0.000000 0.000000 
#    y 0.000000 1.714610 0.000000 
#    z 0.000000 0.000000 1.589180 
# 
# From -- ./inp_files/16001.got.cif
#   From: 2010.05.17/outbox.cif.g08.bks.cpg/sg55_9_cif.got.tgz:16001.got - 2010.06.03 13:27:54.
