data_PCOD9428296
_publ_section_title
;
Structure prediction by ZEFSAII (Michael W. Deem and Ramdas Pophale) SiO2 
 PCOD9428296
Probable space group: P B A M
;
_chemical_formula_sum "Si O2"
_cell_formula_units_Z 40
_cell_length_a 18.005118
_cell_length_b 8.517343
_cell_length_c 12.686684
_cell_angle_alpha 90.000000
_cell_angle_beta 90.000000
_cell_angle_gamma 90.000000
_cell_volume 1945.576140
_symmetry_space_group_name_H-M "P B A M"
_symmetry_group_IT_number 55
_symmetry_cell_setting 'orthorhombic'
loop_
_space_group_symop_operation_xyz
x,y,z
-x,-y,z
1/2+x,1/2-y,-z
1/2-x,1/2+y,-z
-x,-y,-z
x,y,-z
1/2-x,1/2+y,z
1/2+x,1/2-y,z
loop_
_atom_site_type_symbol
_atom_site_label
_atom_site_fract_x
_atom_site_fract_y
_atom_site_fract_z
Si Si1 0.922240 0.065394 0.675934
Si Si2 0.648778 0.437434 0.121370
Si Si3 0.849714 0.570731 0.500000
Si Si4 0.685516 0.438409 0.500000
Si Si5 0.310838 0.928503 0.121561
Si Si6 0.579807 0.935779 0.290684
O O1 0.924643 0.252115 0.684819
O O2 0.908812 0.990456 0.790806
O O3 0.854749 0.013015 0.601375
O O4 0.000000 0.000000 0.632828
O O5 0.723897 0.537920 0.137783
O O6 0.670295 0.254813 0.135931
O O7 0.624310 0.458707 0.000000
O O8 0.772612 0.474761 0.500000
O O9 0.829330 0.753356 0.500000
O O10 0.895697 0.526116 0.603642
O O11 0.359416 0.028726 0.201774
O O12 0.327278 0.971321 0.000000
O O13 0.500000 0.000000 0.255525
#
# Coordination Sequence:
#
# PCOD9428296 Si02
#       6
#     8   8   4   4   8   8
#     4  12  25  42  63  90 124 161 202 249 304 361
#     4  10  21  39  63  91 123 161 205 251 300 356
#     4  12  25  44  67  92 122 158 202 248 299 358
#     4  12  25  44  67  92 122 158 202 248 299 358
#     4  10  21  39  63  91 123 161 205 251 300 356
#     4  12  25  42  63  90 124 161 202 249 304 361
#
# _framework density 20.559462
#
# number of rings (size 3 to 8) (size 9 to 14) (size 15 to 20)
#    0.000    0.800    0.000    8.400    0.000    3.200 
#    0.000    0.000    0.000    0.000    0.000    0.000 
#    0.000    0.000    0.000    0.000    0.000    0.000 
#
# Total GULP energy -224014.705033 kJ/mol
# GULP energy per Si atom -5600.367626 kJ/mol
# Density = 2.051267 g / cm^3
# Si number density = 20.559462 Si / 1000 Ang^3
#
#
#
# Elastic Constant Matrix: (Units=GPa)
#
#
# Indices 1 2 3 4 5 6 
#
# 1 33.8402 -21.0602 8.4587 0.0000 0.0000 0.0000
# 2 -21.0602 100.4709 8.0851 0.0000 0.0000 0.0000
# 3 8.4587 8.0851 65.7426 0.0000 0.0000 0.0000
# 4 0.0000 0.0000 0.0000 14.1633 0.0000 0.0000
# 5 0.0000 0.0000 0.0000 0.0000 190.9647 0.0000
# 6 0.0000 0.0000 0.0000 0.0000 0.0000 30.1138
#
#
#
# Elastic Compliance Matrix: (Units=1/GPa)
#
#
# Indices 1 2 3 4 5 6 
#
# 1 0.035917 0.007980 -0.005603 0.000000 0.000000 0.000000
# 2 0.007980 0.011825 -0.002481 0.000000 0.000000 0.000000
# 3 -0.005603 -0.002481 0.016237 0.000000 0.000000 0.000000
# 4 0.000000 0.000000 0.000000 0.070605 0.000000 0.000000
# 5 0.000000 0.000000 0.000000 0.000000 0.005237 0.000000
# 6 0.000000 0.000000 0.000000 0.000000 0.000000 0.033207
#
#
# Mechanical properties :
#
#
# Convention : Reuss Voigt Hill
#
# Bulk Modulus (GPa) = 15.68101 21.22455 18.45278
# Shear Modulus (GPa) = 25.70780 60.68636 43.19708
#
# Velocity S-wave (km/s) = 3.53995 5.43889 4.58873
# Velocity P-wave (km/s) = 4.93478 7.05606 6.08852
#
# Compressibility (1/GPa) = 0.06377140
#
# Stress axis : x y z
#
# Youngs Moduli (GPa) = 27.84189 84.56349 61.58843
#
# Poissons Ratio (x) = -0.67478 0.34506
# Poissons Ratio (y) = -0.22217 0.15280
# Poissons Ratio (z) = 0.15599 0.20980
#
# Static dielectric constant tensor:
#      x y z
#    x 1.684670 0.000000 0.000000 
#    y 0.000000 1.699950 0.000000 
#    z 0.000000 0.000000 1.717540 
# 
# From -- ./inp_files/11897.got.cif
#   From: 2010.05.17/outbox.cif.g08.bks.cpg/sg55_6_cif.got.tgz:11897.got - 2010.06.03 13:27:54.
