data_PCOD9428961
_publ_section_title
;
Structure prediction by ZEFSAII (Michael W. Deem and Ramdas Pophale) SiO2 
 PCOD9428961
Probable space group: P B A M
;
_chemical_formula_sum "Si O2"
_cell_formula_units_Z 58
_cell_length_a 15.331628
_cell_length_b 22.749929
_cell_length_c 7.765541
_cell_angle_alpha 90.000000
_cell_angle_beta 90.000000
_cell_angle_gamma 90.000000
_cell_volume 2708.569825
_symmetry_space_group_name_H-M "P B A M"
_symmetry_group_IT_number 55
_symmetry_cell_setting 'orthorhombic'
loop_
_space_group_symop_operation_xyz
x,y,z
-x,-y,z
1/2+x,1/2-y,-z
1/2-x,1/2+y,-z
-x,-y,-z
x,y,-z
1/2-x,1/2+y,z
1/2+x,1/2-y,z
loop_
_atom_site_type_symbol
_atom_site_label
_atom_site_fract_x
_atom_site_fract_y
_atom_site_fract_z
Si Si1 0.043295 0.658912 0.703377
Si Si2 0.040822 0.791545 0.705001
Si Si3 0.852041 0.650762 0.706666
Si Si4 0.331351 0.394748 0.198035
Si Si5 0.152601 0.210451 0.293143
Si Si6 0.000000 0.000000 0.500000
Si Si7 0.778349 0.389720 0.803822
Si Si8 0.622316 0.474672 0.787899
O O1 0.028899 0.665595 0.500000
O O2 0.061019 0.725385 0.771178
O O3 0.126929 0.618218 0.723637
O O4 0.949794 0.636463 0.770472
O O5 0.031327 0.786563 0.500000
O O6 0.115135 0.839285 0.733113
O O7 0.943966 0.808509 0.769139
O O8 0.846814 0.642704 0.500000
O O9 0.771407 0.615894 0.783378
O O10 0.839383 0.720256 0.741606
O O11 0.356932 0.458217 0.269562
O O12 0.355430 0.398144 0.000000
O O13 0.159323 0.202623 0.500000
O O14 0.228162 0.172200 0.211250
O O15 0.044982 0.040985 0.343444
O O16 0.707304 0.436526 0.741640
O O17 0.794699 0.405264 0.000000
O O18 0.606877 0.470224 0.000000
#
# Coordination Sequence:
#
# PCOD9428961 Si02
#       8
#     8   8   8   8   8   2   8   8
#     4   9  19  37  59  85 115 149 194 251 294 349
#     4   9  19  34  56  85 116 150 195 242 293 358
#     4   9  19  37  59  85 115 149 194 251 294 349
#     4  11  23  38  56  81 121 157 190 249 300 350
#     4   9  19  34  56  85 116 150 195 242 293 358
#     4  12  26  44  76  86 110 184 198 244 312 352
#     4  11  23  38  56  81 121 157 190 249 300 350
#     4  10  27  45  60  95 128 152 208 256 290 358
#
# _framework density 21.413516000000001
#
# number of rings (size 3 to 8) (size 9 to 14) (size 15 to 20)
#    0.000    2.207    0.000    3.517    5.793    5.517 
#    0.000    3.448    0.000    4.138    0.000    0.000 
#    0.000    0.000    0.000    0.000    0.000    0.000 
#
# Total GULP energy -323064.140716 kJ/mol
# GULP energy per Si atom -5570.071392 kJ/mol
# Density = 2.136478 g / cm^3
# Si number density = 21.413516 Si / 1000 Ang^3
#
#
#
# Elastic Constant Matrix: (Units=GPa)
#
#
# Indices 1 2 3 4 5 6 
#
# 1 105.7912 17.9776 -0.4449 0.0000 0.0000 0.0000
# 2 17.9776 16.9981 2.6490 0.0000 0.0000 0.0000
# 3 -0.4449 2.6490 31.7240 0.0000 0.0000 0.0000
# 4 0.0000 0.0000 0.0000 15.8273 0.0000 0.0000
# 5 0.0000 0.0000 0.0000 0.0000 24.8349 0.0000
# 6 0.0000 0.0000 0.0000 0.0000 0.0000 19.0531
#
#
#
# Elastic Compliance Matrix: (Units=1/GPa)
#
#
# Indices 1 2 3 4 5 6 
#
# 1 0.011569 -0.012422 0.001200 0.000000 0.000000 0.000000
# 2 -0.012422 0.072944 -0.006265 0.000000 0.000000 0.000000
# 3 0.001200 -0.006265 0.032062 0.000000 0.000000 0.000000
# 4 0.000000 0.000000 0.000000 0.063182 0.000000 0.000000
# 5 0.000000 0.000000 0.000000 0.000000 0.040266 0.000000
# 6 0.000000 0.000000 0.000000 0.000000 0.000000 0.052485
#
#
# Mechanical properties :
#
#
# Convention : Reuss Voigt Hill
#
# Bulk Modulus (GPa) = 12.25501 21.65295 16.95398
# Shear Modulus (GPa) = 14.93952 20.89850 17.91901
#
# Velocity S-wave (km/s) = 2.64421 3.12741 2.89590
# Velocity P-wave (km/s) = 3.88045 4.81401 4.37222
#
# Compressibility (1/GPa) = 0.08159928
#
# Stress axis : x y z
#
# Youngs Moduli (GPa) = 86.44099 13.70908 31.18968
#
# Poissons Ratio (x) = 0.17030 -0.03741
# Poissons Ratio (y) = 1.07378 0.19541
# Poissons Ratio (z) = -0.10369 0.08589
#
# Static dielectric constant tensor:
#      x y z
#    x 1.837020 0.000000 0.000000 
#    y 0.000000 1.905100 0.000000 
#    z 0.000000 0.000000 1.832950 
# 
# From -- ./inp_files/6420.got.cif
#   From: 2010.05.17/outbox.cif.g08.bks.cpg/sg55_4_cif.got.tgz:6420.got - 2010.06.03 13:27:54.
