data_PCOD9428842
_publ_section_title
;
Structure prediction by ZEFSAII (Michael W. Deem and Ramdas Pophale) SiO2 
 PCOD9428842
Probable space group: P B A M
;
_chemical_formula_sum "Si O2"
_cell_formula_units_Z 64
_cell_length_a 25.434751
_cell_length_b 14.672608
_cell_length_c 9.059944
_cell_angle_alpha 90.000000
_cell_angle_beta 90.000000
_cell_angle_gamma 90.000000
_cell_volume 3381.117928
_symmetry_space_group_name_H-M "P B A M"
_symmetry_group_IT_number 55
_symmetry_cell_setting 'orthorhombic'
loop_
_space_group_symop_operation_xyz
x,y,z
-x,-y,z
1/2+x,1/2-y,-z
1/2-x,1/2+y,-z
-x,-y,-z
x,y,-z
1/2-x,1/2+y,z
1/2+x,1/2-y,z
loop_
_atom_site_type_symbol
_atom_site_label
_atom_site_fract_x
_atom_site_fract_y
_atom_site_fract_z
Si Si1 0.396687 0.528002 0.825420
Si Si2 0.663445 0.753413 0.320787
Si Si3 0.875127 0.633408 0.823763
Si Si4 0.440095 0.356682 0.323163
Si Si5 0.788063 0.955114 0.329751
Si Si6 0.720468 0.234550 0.671438
Si Si7 0.830715 0.463317 0.322026
Si Si8 0.455776 0.715103 0.176325
O O1 0.434590 0.457257 0.743707
O O2 0.337551 0.515939 0.766248
O O3 0.416250 0.630623 0.794945
O O4 0.399061 0.512730 0.000000
O O5 0.665345 0.754000 0.500000
O O6 0.613031 0.696076 0.276198
O O7 0.720218 0.714570 0.275175
O O8 0.659384 0.859097 0.275032
O O9 0.824544 0.689751 0.767816
O O10 0.869688 0.534942 0.750367
O O11 0.926230 0.692139 0.780610
O O12 0.874221 0.626496 0.000000
O O13 0.441926 0.360707 0.500000
O O14 0.490803 0.305516 0.261111
O O15 0.797016 0.983619 0.500000
O O16 0.730022 0.987444 0.283226
O O17 0.784771 0.844569 0.327370
O O18 0.714721 0.204791 0.500000
O O19 0.833965 0.466948 0.500000
O O20 0.465550 0.716615 0.000000
#
# Coordination Sequence:
#
# PCOD9428842 Si02
#       8
#     8   8   8   8   8   8   8   8
#     4  11  22  37  56  80 116 157 186 224 285 344
#     4   8  18  38  59  82 113 145 183 236 290 332
#     4  11  22  36  55  84 117 150 190 234 278 335
#     4  11  23  38  60  86 110 143 195 247 284 336
#     4   9  18  33  55  83 113 146 187 229 271 332
#     4   9  17  33  57  81 110 148 184 225 282 338
#     4   9  19  37  59  82 113 151 186 229 284 338
#     4  10  23  42  57  76 115 157 190 231 285 339
#
# _framework density 18.928650000000001
#
# number of rings (size 3 to 8) (size 9 to 14) (size 15 to 20)
#    0.000    2.250    1.250    3.000    1.750    4.000 
#    0.000    4.375    0.000    3.750    0.000    0.000 
#    0.000    0.000    0.000    0.000    0.000    0.000 
#
# Total GULP energy -357424.299525 kJ/mol
# GULP energy per Si atom -5584.754680 kJ/mol
# Density = 1.888557 g / cm^3
# Si number density = 18.928650 Si / 1000 Ang^3
#
#
#
# Elastic Constant Matrix: (Units=GPa)
#
#
# Indices 1 2 3 4 5 6 
#
# 1 63.8425 2.3627 25.0342 0.0000 0.0000 0.0000
# 2 2.3627 34.5809 7.6697 0.0000 0.0000 0.0000
# 3 25.0342 7.6697 24.0751 0.0000 0.0000 0.0000
# 4 0.0000 0.0000 0.0000 23.6577 0.0000 0.0000
# 5 0.0000 0.0000 0.0000 0.0000 104.5331 0.0000
# 6 0.0000 0.0000 0.0000 0.0000 0.0000 29.8602
#
#
#
# Elastic Compliance Matrix: (Units=1/GPa)
#
#
# Indices 1 2 3 4 5 6 
#
# 1 0.027151 0.004742 -0.029743 0.000000 0.000000 0.000000
# 2 0.004742 0.031944 -0.015107 0.000000 0.000000 0.000000
# 3 -0.029743 -0.015107 0.077278 0.000000 0.000000 0.000000
# 4 0.000000 0.000000 0.000000 0.042270 0.000000 0.000000
# 5 0.000000 0.000000 0.000000 0.000000 0.009566 0.000000
# 6 0.000000 0.000000 0.000000 0.000000 0.000000 0.033489
#
#
# Mechanical properties :
#
#
# Convention : Reuss Voigt Hill
#
# Bulk Modulus (GPa) = 17.80774 21.40354 19.60564
# Shear Modulus (GPa) = 15.59409 37.43900 26.51654
#
# Velocity S-wave (km/s) = 2.87337 4.45218 3.74688
# Velocity P-wave (km/s) = 4.52068 6.14502 5.39434
#
# Compressibility (1/GPa) = 0.05615536
#
# Stress axis : x y z
#
# Youngs Moduli (GPa) = 36.83089 31.30447 12.94037
#
# Poissons Ratio (x) = -0.14844 0.38489
# Poissons Ratio (y) = -0.17464 0.19549
# Poissons Ratio (z) = 1.09547 0.47292
#
# Static dielectric constant tensor:
#      x y z
#    x 1.646550 0.000000 0.000000 
#    y 0.000000 1.682130 0.000000 
#    z 0.000000 0.000000 1.626870 
# 
# From -- ./inp_files/9828.got.cif
#   From: 2010.05.17/outbox.cif.g08.bks.cpg/sg55_5_cif.got.tgz:9828.got - 2010.06.03 13:27:54.
