data_PCOD9428198
_publ_section_title
;
Structure prediction by ZEFSAII (Michael W. Deem and Ramdas Pophale) SiO2 
 PCOD9428198
Probable space group: P B A M
;
_chemical_formula_sum "Si O2"
_cell_formula_units_Z 48
_cell_length_a 19.467445
_cell_length_b 15.456397
_cell_length_c 8.680875
_cell_angle_alpha 90.000000
_cell_angle_beta 90.000000
_cell_angle_gamma 90.000000
_cell_volume 2612.045412
_symmetry_space_group_name_H-M "P B A M"
_symmetry_group_IT_number 55
_symmetry_cell_setting 'orthorhombic'
loop_
_space_group_symop_operation_xyz
x,y,z
-x,-y,z
1/2+x,1/2-y,-z
1/2-x,1/2+y,-z
-x,-y,-z
x,y,-z
1/2-x,1/2+y,z
1/2+x,1/2-y,z
loop_
_atom_site_type_symbol
_atom_site_label
_atom_site_fract_x
_atom_site_fract_y
_atom_site_fract_z
Si Si1 0.170028 0.374844 0.685277
Si Si2 0.923091 0.973071 0.185541
Si Si3 0.573969 0.781312 0.685326
Si Si4 0.577976 0.971424 0.184778
Si Si5 0.425699 0.725972 0.814760
Si Si6 0.828705 0.123165 0.314423
O O1 0.167074 0.373604 0.500000
O O2 0.130281 0.459046 0.746296
O O3 0.130552 0.291562 0.750287
O O4 0.249505 0.375059 0.734807
O O5 0.910846 0.873389 0.228541
O O6 0.868515 0.039601 0.252839
O O7 0.921134 0.978984 0.000000
O O8 0.000000 0.000000 0.235591
O O9 0.571499 0.784840 0.500000
O O10 0.590563 0.875827 0.750531
O O11 0.499778 0.752883 0.748808
O O12 0.629431 0.708964 0.733168
O O13 0.500000 0.000000 0.225441
O O14 0.583105 0.971202 0.000000
O O15 0.428361 0.732301 0.000000
O O16 0.829860 0.120549 0.500000
#
# Coordination Sequence:
#
# PCOD9428198 Si02
#       6
#     8   8   8   8   8   8
#     4  11  24  42  62  88 124 161 199 249 304 357
#     4  10  21  38  62  91 123 159 201 248 297 356
#     4  11  22  38  63  92 121 158 202 248 300 356
#     4  11  23  39  62  91 122 156 202 251 298 358
#     4  11  22  38  61  91 122 157 203 249 296 357
#     4  10  24  42  61  90 125 159 200 249 301 358
#
# _framework density 18.376404000000001
#
# number of rings (size 3 to 8) (size 9 to 14) (size 15 to 20)
#    0.000    1.333    3.333    2.000    0.000    5.667 
#    0.000    5.000    0.000    0.000    0.000    0.000 
#    0.000    0.000    0.000    0.000    0.000    0.000 
#
# Total GULP energy -268338.526401 kJ/mol
# GULP energy per Si atom -5590.385967 kJ/mol
# Density = 1.833458 g / cm^3
# Si number density = 18.376404 Si / 1000 Ang^3
#
#
#
# Elastic Constant Matrix: (Units=GPa)
#
#
# Indices 1 2 3 4 5 6 
#
# 1 192.9380 120.9004 48.0903 0.0000 0.0000 0.0000
# 2 120.9004 218.6930 52.8775 0.0000 0.0000 0.0000
# 3 48.0903 52.8775 43.1501 0.0000 0.0000 0.0000
# 4 0.0000 0.0000 0.0000 33.0423 0.0000 0.0000
# 5 0.0000 0.0000 0.0000 0.0000 64.0850 0.0000
# 6 0.0000 0.0000 0.0000 0.0000 0.0000 33.5755
#
#
#
# Elastic Compliance Matrix: (Units=1/GPa)
#
#
# Indices 1 2 3 4 5 6 
#
# 1 0.008742 -0.003520 -0.005429 0.000000 0.000000 0.000000
# 2 -0.003520 0.007915 -0.005777 0.000000 0.000000 0.000000
# 3 -0.005429 -0.005777 0.036305 0.000000 0.000000 0.000000
# 4 0.000000 0.000000 0.000000 0.030264 0.000000 0.000000
# 5 0.000000 0.000000 0.000000 0.000000 0.015604 0.000000
# 6 0.000000 0.000000 0.000000 0.000000 0.000000 0.029784
#
#
# Mechanical properties :
#
#
# Convention : Reuss Voigt Hill
#
# Bulk Modulus (GPa) = 42.53499 99.83528 71.18513
# Shear Modulus (GPa) = 30.13812 41.66809 35.90310
#
# Velocity S-wave (km/s) = 4.05414 4.76697 4.42493
# Velocity P-wave (km/s) = 6.71651 9.20568 8.05779
#
# Compressibility (1/GPa) = 0.02351005
#
# Stress axis : x y z
#
# Youngs Moduli (GPa) = 114.38885 126.33610 27.54477
#
# Poissons Ratio (x) = 0.44473 0.14955
# Poissons Ratio (y) = 0.40267 0.15911
# Poissons Ratio (z) = 0.62105 0.72979
#
# Static dielectric constant tensor:
#      x y z
#    x 1.604250 0.000000 0.000000 
#    y 0.000000 1.606860 0.000000 
#    z 0.000000 0.000000 1.621820 
# 
# From -- ./inp_files/5664.got.cif
#   From: 2010.05.17/outbox.cif.g08.bks.cpg/sg55_3_cif.got.tgz:5664.got - 2010.06.03 13:27:54.
