data_PCOD9428357
_publ_section_title
;
Structure prediction by ZEFSAII (Michael W. Deem and Ramdas Pophale) SiO2 
 PCOD9428357
Probable space group: P B A M
;
_chemical_formula_sum "Si O2"
_cell_formula_units_Z 40
_cell_length_a 16.207055
_cell_length_b 10.784707
_cell_length_c 11.304368
_cell_angle_alpha 90.000000
_cell_angle_beta 90.000000
_cell_angle_gamma 90.000000
_cell_volume 1975.871712
_symmetry_space_group_name_H-M "P B A M"
_symmetry_group_IT_number 55
_symmetry_cell_setting 'orthorhombic'
loop_
_space_group_symop_operation_xyz
x,y,z
-x,-y,z
1/2+x,1/2-y,-z
1/2-x,1/2+y,-z
-x,-y,-z
x,y,-z
1/2-x,1/2+y,z
1/2+x,1/2-y,z
loop_
_atom_site_type_symbol
_atom_site_label
_atom_site_fract_x
_atom_site_fract_y
_atom_site_fract_z
Si Si1 0.297838 0.342556 0.635916
Si Si2 0.507533 0.649075 0.366563
Si Si3 0.094482 0.214363 0.130469
Si Si4 0.754049 0.899903 0.238267
Si Si5 0.409068 0.001758 0.865339
O O1 0.277637 0.364134 0.500000
O O2 0.396014 0.318498 0.645266
O O3 0.277855 0.470212 0.702287
O O4 0.248843 0.221929 0.679815
O O5 0.500000 0.500000 0.367423
O O6 0.479483 0.691048 0.500000
O O7 0.459445 0.692367 0.248871
O O8 0.175985 0.131062 0.142654
O O9 0.118814 0.358989 0.132195
O O10 0.055150 0.191541 0.000000
O O11 0.661687 0.917248 0.191419
O O12 0.500000 0.000000 0.808156
O O13 0.420006 0.046785 0.000000
#
# Coordination Sequence:
#
# PCOD9428357 Si02
#       5
#     8   8   8   8   8
#     4  11  24  41  65  93 128 171 218 265 325 391
#     4  10  21  40  63  92 130 174 215 267 328 385
#     4  11  23  40  64  99 130 169 222 269 325 393
#     4  12  22  42  64  94 129 168 216 272 326 383
#     4  10  22  42  64  89 129 173 213 265 330 390
#
# _framework density 20.244229000000001
#
# number of rings (size 3 to 8) (size 9 to 14) (size 15 to 20)
#    0.000    1.200    4.000    2.400    0.000    1.200 
#    0.000    1.000    0.000    4.200    0.000    0.000 
#    0.000    0.000    0.000    0.000    0.000    0.000 
#
# Total GULP energy -223121.508117 kJ/mol
# GULP energy per Si atom -5578.037703 kJ/mol
# Density = 2.019815 g / cm^3
# Si number density = 20.244229 Si / 1000 Ang^3
#
#
#
# Elastic Constant Matrix: (Units=GPa)
#
#
# Indices 1 2 3 4 5 6 
#
# 1 72.9117 11.8503 41.3682 0.0000 0.0000 0.0000
# 2 11.8503 85.1839 32.4935 0.0000 0.0000 0.0000
# 3 41.3682 32.4935 123.8227 0.0000 0.0000 0.0000
# 4 0.0000 0.0000 0.0000 26.8248 0.0000 0.0000
# 5 0.0000 0.0000 0.0000 0.0000 27.8550 0.0000
# 6 0.0000 0.0000 0.0000 0.0000 0.0000 33.3530
#
#
#
# Elastic Compliance Matrix: (Units=1/GPa)
#
#
# Indices 1 2 3 4 5 6 
#
# 1 0.016927 -0.000220 -0.005597 0.000000 0.000000 0.000000
# 2 -0.000220 0.013048 -0.003351 0.000000 0.000000 0.000000
# 3 -0.005597 -0.003351 0.010825 0.000000 0.000000 0.000000
# 4 0.000000 0.000000 0.000000 0.037279 0.000000 0.000000
# 5 0.000000 0.000000 0.000000 0.000000 0.035900 0.000000
# 6 0.000000 0.000000 0.000000 0.000000 0.000000 0.029982
#
#
# Mechanical properties :
#
#
# Convention : Reuss Voigt Hill
#
# Bulk Modulus (GPa) = 44.51437 50.37137 47.44287
# Shear Modulus (GPa) = 29.44897 30.68700 30.06798
#
# Velocity S-wave (km/s) = 3.81817 3.89760 3.85809
# Velocity P-wave (km/s) = 6.44005 6.72242 6.58275
#
# Compressibility (1/GPa) = 0.02246466
#
# Stress axis : x y z
#
# Youngs Moduli (GPa) = 59.07804 76.64030 92.37524
#
# Poissons Ratio (x) = 0.01683 0.51707
# Poissons Ratio (y) = 0.01297 0.30952
# Poissons Ratio (z) = 0.33069 0.25680
#
# Static dielectric constant tensor:
#      x y z
#    x 1.750090 0.000000 0.000000 
#    y 0.000000 1.697730 0.000000 
#    z 0.000000 0.000000 1.749290 
# 
# From -- ./inp_files/13024.got.cif
#   From: 2010.05.17/outbox.cif.g08.bks.cpg/sg55_7_cif.got.tgz:13024.got - 2010.06.03 13:27:54.
