data_PCOD9428876
_publ_section_title
;
Structure prediction by ZEFSAII (Michael W. Deem and Ramdas Pophale) SiO2 
 PCOD9428876
Probable space group: P B A M
;
_chemical_formula_sum "Si O2"
_cell_formula_units_Z 48
_cell_length_a 9.551604
_cell_length_b 17.273664
_cell_length_c 12.846920
_cell_angle_alpha 90.000000
_cell_angle_beta 90.000000
_cell_angle_gamma 90.000000
_cell_volume 2119.628723
_symmetry_space_group_name_H-M "P B A M"
_symmetry_group_IT_number 55
_symmetry_cell_setting 'orthorhombic'
loop_
_space_group_symop_operation_xyz
x,y,z
-x,-y,z
1/2+x,1/2-y,-z
1/2-x,1/2+y,-z
-x,-y,-z
x,y,-z
1/2-x,1/2+y,z
1/2+x,1/2-y,z
loop_
_atom_site_type_symbol
_atom_site_label
_atom_site_fract_x
_atom_site_fract_y
_atom_site_fract_z
Si Si1 0.416021 0.078073 0.181541
Si Si2 0.343030 0.157140 0.376138
Si Si3 0.050624 0.077084 0.614718
Si Si4 0.878275 0.860020 0.117167
Si Si5 0.345049 0.822174 0.112500
Si Si6 0.628993 0.673632 0.278153
O O1 0.422384 0.093957 0.305708
O O2 0.253050 0.085580 0.148494
O O3 0.497234 0.148003 0.124032
O O4 0.500000 0.000000 0.154796
O O5 0.373976 0.160965 0.500000
O O6 0.180385 0.133224 0.360334
O O7 0.368804 0.237899 0.316066
O O8 0.095111 0.050911 0.500000
O O9 0.910595 0.127318 0.619085
O O10 0.000000 0.000000 0.674418
O O11 0.828676 0.770303 0.113557
O O12 0.006800 0.852910 0.197576
O O13 0.923871 0.880678 0.000000
O O14 0.266685 0.849299 0.215932
O O15 0.290552 0.849780 0.000000
#
# Coordination Sequence:
#
# PCOD9428876 Si02
#       6
#     8   8   8   8   8   8
#     4  12  26  45  67 100 144 190 234 295 364 419
#     4  11  24  44  69 102 138 181 245 298 353 425
#     4  10  23  43  68  99 140 189 233 288 360 430
#     4  11  22  42  69  97 136 184 233 280 347 431
#     4  11  23  40  66 100 137 179 229 280 348 428
#     4  12  21  41  71 105 133 179 232 297 352 420
#
# _framework density 22.645475999999999
#
# number of rings (size 3 to 8) (size 9 to 14) (size 15 to 20)
#    0.000    0.833    5.000    1.500    2.333    4.333 
#    0.000    0.833    0.000    3.000    0.000    0.000 
#    0.000    0.000    0.000    0.000    0.000    0.000 
#
# Total GULP energy -267308.269021 kJ/mol
# GULP energy per Si atom -5568.922271 kJ/mol
# Density = 2.259393 g / cm^3
# Si number density = 22.645476 Si / 1000 Ang^3
#
#
#
# Elastic Constant Matrix: (Units=GPa)
#
#
# Indices 1 2 3 4 5 6 
#
# 1 44.8631 -4.4881 15.4327 0.0000 0.0000 0.0000
# 2 -4.4881 60.7818 -1.9477 0.0000 0.0000 0.0000
# 3 15.4327 -1.9477 129.2723 0.0000 0.0000 0.0000
# 4 0.0000 0.0000 0.0000 3.2272 0.0000 0.0000
# 5 0.0000 0.0000 0.0000 0.0000 21.1354 0.0000
# 6 0.0000 0.0000 0.0000 0.0000 0.0000 27.9118
#
#
#
# Elastic Compliance Matrix: (Units=1/GPa)
#
#
# Indices 1 2 3 4 5 6 
#
# 1 0.023407 0.001640 -0.002770 0.000000 0.000000 0.000000
# 2 0.001640 0.016575 0.000054 0.000000 0.000000 0.000000
# 3 -0.002770 0.000054 0.008067 0.000000 0.000000 0.000000
# 4 0.000000 0.000000 0.000000 0.309871 0.000000 0.000000
# 5 0.000000 0.000000 0.000000 0.000000 0.047314 0.000000
# 6 0.000000 0.000000 0.000000 0.000000 0.000000 0.035827
#
#
# Mechanical properties :
#
#
# Convention : Reuss Voigt Hill
#
# Bulk Modulus (GPa) = 21.78796 28.10122 24.94459
# Shear Modulus (GPa) = 10.90484 25.51622 18.21053
#
# Velocity S-wave (km/s) = 2.19680 3.36038 2.83884
# Velocity P-wave (km/s) = 4.00959 5.24331 4.66739
#
# Compressibility (1/GPa) = 0.04589690
#
# Stress axis : x y z
#
# Youngs Moduli (GPa) = 42.72258 60.33145 123.96079
#
# Poissons Ratio (x) = -0.09892 0.34333
# Poissons Ratio (y) = -0.07005 -0.00669
# Poissons Ratio (z) = 0.11833 -0.00326
#
# Static dielectric constant tensor:
#      x y z
#    x 1.835240 0.000000 0.000000 
#    y 0.000000 2.593630 0.000000 
#    z 0.000000 0.000000 2.026150 
# 
# From -- ./inp_files/17339.got.cif
#   From: 2010.05.17/outbox.cif.g08.bks.cpg/sg55_9_cif.got.tgz:17339.got - 2010.06.03 13:27:54.
