data_PCOD9428963
_publ_section_title
;
Structure prediction by ZEFSAII (Michael W. Deem and Ramdas Pophale) SiO2 
 PCOD9428963
Probable space group: P B A M
;
_chemical_formula_sum "Si O2"
_cell_formula_units_Z 48
_cell_length_a 13.229497
_cell_length_b 11.932826
_cell_length_c 13.741902
_cell_angle_alpha 90.000000
_cell_angle_beta 90.000000
_cell_angle_gamma 90.000000
_cell_volume 2169.369286
_symmetry_space_group_name_H-M "P B A M"
_symmetry_group_IT_number 55
_symmetry_cell_setting 'orthorhombic'
loop_
_space_group_symop_operation_xyz
x,y,z
-x,-y,z
1/2+x,1/2-y,-z
1/2-x,1/2+y,-z
-x,-y,-z
x,y,-z
1/2-x,1/2+y,z
1/2+x,1/2-y,z
loop_
_atom_site_type_symbol
_atom_site_label
_atom_site_fract_x
_atom_site_fract_y
_atom_site_fract_z
Si Si1 0.484686 0.657189 0.388778
Si Si2 0.281999 0.321725 0.616803
Si Si3 0.846696 0.434431 0.885745
Si Si4 0.675918 0.351758 0.246626
Si Si5 0.551463 0.178263 0.114103
Si Si6 0.082388 0.418379 0.613184
O O1 0.464628 0.623191 0.500000
O O2 0.397462 0.351281 0.367605
O O3 0.410025 0.596123 0.315136
O O4 0.457169 0.790623 0.382779
O O5 0.269345 0.300689 0.500000
O O6 0.249972 0.214186 0.679166
O O7 0.198140 0.414084 0.647099
O O8 0.746443 0.422690 0.823265
O O9 0.893859 0.557954 0.877826
O O10 0.934786 0.345499 0.857084
O O11 0.825458 0.414683 0.000000
O O12 0.612432 0.265326 0.179093
O O13 0.552696 0.210369 0.000000
O O14 0.090176 0.452248 0.500000
O O15 0.000000 0.500000 0.660358
#
# Coordination Sequence:
#
# PCOD9428963 Si02
#       6
#     8   8   8   8   8   8
#     4   9  18  32  50  75 113 150 183 225 277 325
#     4   9  18  32  47  73 113 149 183 229 276 318
#     4   9  19  36  57  83 115 145 179 228 283 339
#     4  11  18  31  55  85 107 146 193 228 271 335
#     4   9  19  36  56  82 113 142 178 229 284 337
#     4   8  14  27  47  72  98 130 180 228 263 308
#
# _framework density 22.126245999999998
#
# number of rings (size 3 to 8) (size 9 to 14) (size 15 to 20)
#    0.000    2.833    0.000    4.000    0.000    0.000 
#   18.000    0.000    0.000    6.000    0.000   17.500 
#    0.000    0.000    0.000    0.000    0.000    0.000 
#
# Total GULP energy -268237.459356 kJ/mol
# GULP energy per Si atom -5588.280403 kJ/mol
# Density = 2.207589 g / cm^3
# Si number density = 22.126246 Si / 1000 Ang^3
#
#
#
# Elastic Constant Matrix: (Units=GPa)
#
#
# Indices 1 2 3 4 5 6 
#
# 1 193.3209 25.6260 73.4939 0.0000 0.0000 0.0000
# 2 25.6260 36.0800 22.2874 0.0000 0.0000 0.0000
# 3 73.4939 22.2874 95.5265 0.0000 0.0000 0.0000
# 4 0.0000 0.0000 0.0000 12.0633 0.0000 0.0000
# 5 0.0000 0.0000 0.0000 0.0000 41.0566 0.0000
# 6 0.0000 0.0000 0.0000 0.0000 0.0000 21.5622
#
#
#
# Elastic Compliance Matrix: (Units=1/GPa)
#
#
# Indices 1 2 3 4 5 6 
#
# 1 0.007438 -0.002042 -0.005246 0.000000 0.000000 0.000000
# 2 -0.002042 0.032944 -0.006115 0.000000 0.000000 0.000000
# 3 -0.005246 -0.006115 0.015931 0.000000 0.000000 0.000000
# 4 0.000000 0.000000 0.000000 0.082896 0.000000 0.000000
# 5 0.000000 0.000000 0.000000 0.000000 0.024357 0.000000
# 6 0.000000 0.000000 0.000000 0.000000 0.000000 0.046377
#
#
# Mechanical properties :
#
#
# Convention : Reuss Voigt Hill
#
# Bulk Modulus (GPa) = 33.89071 63.08244 48.48658
# Shear Modulus (GPa) = 20.27706 28.50445 24.39076
#
# Velocity S-wave (km/s) = 3.03054 3.59313 3.32376
# Velocity P-wave (km/s) = 5.25317 6.76656 6.05731
#
# Compressibility (1/GPa) = 0.02950661
#
# Stress axis : x y z
#
# Youngs Moduli (GPa) = 134.44974 30.35448 62.77118
#
# Poissons Ratio (x) = 0.06199 0.32928
# Poissons Ratio (y) = 0.27458 0.38385
# Poissons Ratio (z) = 0.70529 0.18562
#
# Static dielectric constant tensor:
#      x y z
#    x 1.810690 0.000000 0.000000 
#    y 0.000000 1.832520 0.000000 
#    z 0.000000 0.000000 1.831040 
# 
# From -- ./inp_files/18868.got.cif
#   From: 2010.05.17/outbox.cif.g08.bks.cpg/sg55_10_cif.got.tgz:18868.got - 2010.06.03 13:27:54.
