data_PCOD9428953
_publ_section_title
;
Structure prediction by ZEFSAII (Michael W. Deem and Ramdas Pophale) SiO2 
 PCOD9428953
Probable space group: P B A M
;
_chemical_formula_sum "Si O2"
_cell_formula_units_Z 48
_cell_length_a 25.587551
_cell_length_b 5.159563
_cell_length_c 16.119162
_cell_angle_alpha 90.000000
_cell_angle_beta 90.000000
_cell_angle_gamma 90.000000
_cell_volume 2128.061139
_symmetry_space_group_name_H-M "P B A M"
_symmetry_group_IT_number 55
_symmetry_cell_setting 'orthorhombic'
loop_
_space_group_symop_operation_xyz
x,y,z
-x,-y,z
1/2+x,1/2-y,-z
1/2-x,1/2+y,-z
-x,-y,-z
x,y,-z
1/2-x,1/2+y,z
1/2+x,1/2-y,z
loop_
_atom_site_type_symbol
_atom_site_label
_atom_site_fract_x
_atom_site_fract_y
_atom_site_fract_z
Si Si1 0.056816 0.627490 0.671469
Si Si2 0.718013 0.039610 0.827086
Si Si3 0.158048 0.261636 0.322042
Si Si4 0.093617 0.981616 0.196214
Si Si5 0.608063 0.034363 0.095760
Si Si6 0.212279 0.177252 0.500000
Si Si7 0.536521 0.744441 0.500000
O O1 0.103670 0.422302 0.679765
O O2 0.054408 0.845211 0.741002
O O3 0.068865 0.758573 0.583360
O O4 0.000000 0.500000 0.668652
O O5 0.761395 0.254458 0.843283
O O6 0.700006 0.074512 0.731093
O O7 0.668393 0.099131 0.884755
O O8 0.178081 0.198086 0.414415
O O9 0.143462 0.028228 0.258077
O O10 0.102211 0.758126 0.128342
O O11 0.078728 0.249313 0.151451
O O12 0.594720 0.057624 0.000000
O O13 0.253859 0.414048 0.500000
O O14 0.500000 0.500000 0.500000
O O15 0.500000 0.000000 0.500000
#
# Coordination Sequence:
#
# PCOD9428953 Si02
#       7
#     8   8   8   8   8   4   4
#     4  11  25  45  73 105 142 185 241 292 351 417
#     4  11  22  38  65  95 133 175 224 280 342 411
#     4  11  25  45  68 102 142 188 237 289 346 407
#     4  11  23  43  71 101 137 186 223 286 355 414
#     4  11  24  44  70 103 138 176 225 287 359 427
#     4  12  29  45  71 103 143 199 244 286 333 417
#     4  10  25  41  62 100 140 172 216 286 337 379
#
# _framework density 22.555744000000001
#
# number of rings (size 3 to 8) (size 9 to 14) (size 15 to 20)
#    0.000    1.000    3.333    4.000    7.000    1.333 
#    0.000    0.000    0.000    3.000    0.000    0.000 
#    0.000    0.000    0.000    0.000    0.000    0.000 
#
# Total GULP energy -268207.791238 kJ/mol
# GULP energy per Si atom -5587.662317 kJ/mol
# Density = 2.250441 g / cm^3
# Si number density = 22.555744 Si / 1000 Ang^3
#
#
#
# Elastic Constant Matrix: (Units=GPa)
#
#
# Indices 1 2 3 4 5 6 
#
# 1 36.0724 20.8421 -0.5228 0.0000 0.0000 0.0000
# 2 20.8421 116.9831 38.7268 0.0000 0.0000 0.0000
# 3 -0.5228 38.7268 164.1213 0.0000 0.0000 0.0000
# 4 0.0000 0.0000 0.0000 -51.0858 0.0000 0.0000
# 5 0.0000 0.0000 0.0000 0.0000 19.0797 0.0000
# 6 0.0000 0.0000 0.0000 0.0000 0.0000 36.9863
#
#
#
# Elastic Compliance Matrix: (Units=1/GPa)
#
#
# Indices 1 2 3 4 5 6 
#
# 1 0.031255 -0.006076 0.001533 0.000000 0.000000 0.000000
# 2 -0.006076 0.010454 -0.002486 0.000000 0.000000 0.000000
# 3 0.001533 -0.002486 0.006685 0.000000 0.000000 0.000000
# 4 0.000000 0.000000 0.000000 -0.019575 0.000000 0.000000
# 5 0.000000 0.000000 0.000000 0.000000 0.052412 0.000000
# 6 0.000000 0.000000 0.000000 0.000000 0.000000 0.027037
#
#
# Mechanical properties :
#
#
# Convention : Reuss Voigt Hill
#
# Bulk Modulus (GPa) = 29.12435 48.36324 38.74380
# Shear Modulus (GPa) = 37.37756 18.20474 27.79115
#
# Velocity S-wave (km/s) = 4.07519 2.84403 3.51395
# Velocity P-wave (km/s) = 5.92310 5.68092 5.80327
#
# Compressibility (1/GPa) = 0.03433553
#
# Stress axis : x y z
#
# Youngs Moduli (GPa) = 31.99498 95.65917 149.59845
#
# Poissons Ratio (x) = 0.58123 -0.22938
# Poissons Ratio (y) = 0.19440 0.37191
# Poissons Ratio (z) = -0.04906 0.23782
#
# Static dielectric constant tensor:
#      x y z
#    x 1.852070 0.000000 0.000000 
#    y 0.000000 1.880150 0.000000 
#    z 0.000000 0.000000 1.834740 
# 
# From -- ./inp_files/20062.got.cif
#   From: 2010.05.17/outbox.cif.g08.bks.cpg/sg55_11_cif.got.tgz:20062.got - 2010.06.03 13:27:54.
