data_PCOD9428281
_publ_section_title
;
Structure prediction by ZEFSAII (Michael W. Deem and Ramdas Pophale) SiO2 
 PCOD9428281
Probable space group: P B A M
;
_chemical_formula_sum "Si O2"
_cell_formula_units_Z 64
_cell_length_a 14.188121
_cell_length_b 12.917075
_cell_length_c 17.368206
_cell_angle_alpha 90.000000
_cell_angle_beta 90.000000
_cell_angle_gamma 90.000000
_cell_volume 3183.054146
_symmetry_space_group_name_H-M "P B A M"
_symmetry_group_IT_number 55
_symmetry_cell_setting 'orthorhombic'
loop_
_space_group_symop_operation_xyz
x,y,z
-x,-y,z
1/2+x,1/2-y,-z
1/2-x,1/2+y,-z
-x,-y,-z
x,y,-z
1/2-x,1/2+y,z
1/2+x,1/2-y,z
loop_
_atom_site_type_symbol
_atom_site_label
_atom_site_fract_x
_atom_site_fract_y
_atom_site_fract_z
Si Si1 0.723614 0.513904 0.911962
Si Si2 0.950475 0.888002 0.088546
Si Si3 0.125950 0.790200 0.851707
Si Si4 0.746321 0.342856 0.413588
Si Si5 0.405520 0.059013 0.845920
Si Si6 0.260045 0.342416 0.694981
Si Si7 0.895316 0.476699 0.671909
Si Si8 0.397563 0.468458 0.588066
O O1 0.653577 0.421811 0.884459
O O2 0.672312 0.624560 0.907638
O O3 0.817708 0.514214 0.863341
O O4 0.746398 0.491349 0.000000
O O5 0.014725 0.822365 0.146492
O O6 0.947444 0.845846 0.000000
O O7 0.000000 0.000000 0.082737
O O8 0.122113 0.671529 0.878561
O O9 0.188092 0.809763 0.774582
O O10 0.756154 0.299718 0.500000
O O11 0.724158 0.257752 0.350059
O O12 0.839648 0.402982 0.386042
O O13 0.665238 0.428618 0.414503
O O14 0.413157 0.077205 0.754446
O O15 0.500000 0.000000 0.872158
O O16 0.174305 0.426186 0.691920
O O17 0.343445 0.390138 0.642779
O O18 0.000000 0.500000 0.641634
O O19 0.500000 0.500000 0.617259
O O20 0.406702 0.429013 0.500000
#
# Coordination Sequence:
#
# PCOD9428281 Si02
#       8
#     8   8   8   8   8   8   8   8
#     4  10  22  42  65  91 124 163 208 260 310 374
#     4   8  17  36  61  89 120 151 198 253 299 360
#     4  11  21  38  63  91 120 165 205 253 314 367
#     4  10  21  39  62  91 122 157 207 256 303 364
#     4  11  24  42  60  89 130 165 205 259 310 368
#     4  11  21  37  61  90 116 163 207 251 301 366
#     4  10  22  42  61  86 126 167 206 253 311 367
#     4   9  20  38  57  83 122 156 191 251 312 361
#
# _framework density 20.106476000000001
#
# number of rings (size 3 to 8) (size 9 to 14) (size 15 to 20)
#    0.000    2.000    2.500    1.500    0.000    5.500 
#    0.000    2.500    0.000    0.000    0.000    0.000 
#    0.000    0.000    0.000    0.000    0.000    0.000 
#
# Total GULP energy -356571.063614 kJ/mol
# GULP energy per Si atom -5571.422869 kJ/mol
# Density = 2.006071 g / cm^3
# Si number density = 20.106476 Si / 1000 Ang^3
#
#
#
# Elastic Constant Matrix: (Units=GPa)
#
#
# Indices 1 2 3 4 5 6 
#
# 1 96.7628 1.1529 -1.5694 0.0000 0.0000 0.0000
# 2 1.1529 56.7812 -0.3613 0.0000 0.0000 0.0000
# 3 -1.5694 -0.3613 41.6229 0.0000 0.0000 0.0000
# 4 0.0000 0.0000 0.0000 19.1356 0.0000 0.0000
# 5 0.0000 0.0000 0.0000 0.0000 11.8703 0.0000
# 6 0.0000 0.0000 0.0000 0.0000 0.0000 12.5365
#
#
#
# Elastic Compliance Matrix: (Units=1/GPa)
#
#
# Indices 1 2 3 4 5 6 
#
# 1 0.010343 -0.000208 0.000388 0.000000 0.000000 0.000000
# 2 -0.000208 0.017617 0.000145 0.000000 0.000000 0.000000
# 3 0.000388 0.000145 0.024041 0.000000 0.000000 0.000000
# 4 0.000000 0.000000 0.000000 0.052259 0.000000 0.000000
# 5 0.000000 0.000000 0.000000 0.000000 0.084244 0.000000
# 6 0.000000 0.000000 0.000000 0.000000 0.000000 0.079767
#
#
# Mechanical properties :
#
#
# Convention : Reuss Voigt Hill
#
# Bulk Modulus (GPa) = 18.99246 21.51239 20.25242
# Shear Modulus (GPa) = 17.53341 21.77146 19.65243
#
# Velocity S-wave (km/s) = 2.95622 3.29417 3.12976
# Velocity P-wave (km/s) = 4.59551 5.01909 4.81196
#
# Compressibility (1/GPa) = 0.05265248
#
# Stress axis : x y z
#
# Youngs Moduli (GPa) = 96.68074 56.76462 41.59540
#
# Poissons Ratio (x) = 0.01178 -0.01615
# Poissons Ratio (y) = 0.02007 -0.00603
# Poissons Ratio (z) = -0.03753 -0.00824
#
# Static dielectric constant tensor:
#      x y z
#    x 1.750640 0.000000 0.000000 
#    y 0.000000 1.739140 0.000000 
#    z 0.000000 0.000000 1.707920 
# 
# From -- ./inp_files/21639.got.cif
#   From: 2010.05.17/outbox.cif.g08.bks.cpg/sg55_11_cif.got.tgz:21639.got - 2010.06.03 13:27:54.
