data_PCOD9428167
_publ_section_title
;
Structure prediction by ZEFSAII (Michael W. Deem and Ramdas Pophale) SiO2 
 PCOD9428167
Probable space group: P B A M
;
_chemical_formula_sum "Si O2"
_cell_formula_units_Z 56
_cell_length_a 10.837964
_cell_length_b 12.556078
_cell_length_c 21.530424
_cell_angle_alpha 90.000000
_cell_angle_beta 90.000000
_cell_angle_gamma 90.000000
_cell_volume 2929.910077
_symmetry_space_group_name_H-M "P B A M"
_symmetry_group_IT_number 55
_symmetry_cell_setting 'orthorhombic'
loop_
_space_group_symop_operation_xyz
x,y,z
-x,-y,z
1/2+x,1/2-y,-z
1/2-x,1/2+y,-z
-x,-y,-z
x,y,-z
1/2-x,1/2+y,z
1/2+x,1/2-y,z
loop_
_atom_site_type_symbol
_atom_site_label
_atom_site_fract_x
_atom_site_fract_y
_atom_site_fract_z
Si Si1 0.060835 0.609122 0.072371
Si Si2 0.112664 0.248493 0.321855
Si Si3 0.362095 0.330288 0.731699
Si Si4 0.881435 0.576445 0.570996
Si Si5 0.659171 0.461634 0.070022
Si Si6 0.558788 0.658099 0.872093
Si Si7 0.135430 0.013021 0.372715
O O1 0.204980 0.582943 0.073822
O O2 0.042507 0.719510 0.108207
O O3 0.000000 0.500000 0.097017
O O4 0.020892 0.622692 0.000000
O O5 0.226146 0.281056 0.277393
O O6 0.109007 0.330020 0.379019
O O7 0.977246 0.242511 0.291007
O O8 0.144104 0.132323 0.348125
O O9 0.390504 0.353923 0.802958
O O10 0.365214 0.433085 0.686534
O O11 0.880294 0.615449 0.500000
O O12 0.752714 0.516629 0.585637
O O13 0.000000 0.500000 0.578219
O O14 0.571799 0.400357 0.117974
O O15 0.648926 0.587595 0.084020
O O16 0.614549 0.440047 0.000000
O O17 0.000000 0.000000 0.403363
#
# Coordination Sequence:
#
# PCOD9428167 Si02
#       7
#     8   8   8   8   8   8   8
#     4  10  23  40  61  89 125 159 200 257 314 371
#     4  10  21  40  58  87 122 160 191 247 304 350
#     4  10  23  36  62  86 119 157 200 244 302 355
#     4  10  21  38  61  89 119 157 202 245 294 358
#     4  10  23  40  62  88 119 160 205 260 315 364
#     4  11  23  38  63  89 116 159 209 251 306 378
#     4   9  20  38  59  84 120 158 194 246 298 354
#
# _framework density 19.113213999999999
#
# number of rings (size 3 to 8) (size 9 to 14) (size 15 to 20)
#    0.000    2.000    0.000    2.571   10.000    0.857 
#    0.000   10.714    0.000    0.000    0.000    0.000 
#    0.000    0.000    0.000    0.000    0.000    0.000 
#
# Total GULP energy -312443.846188 kJ/mol
# GULP energy per Si atom -5579.354396 kJ/mol
# Density = 1.906971 g / cm^3
# Si number density = 19.113214 Si / 1000 Ang^3
#
#
#
# Elastic Constant Matrix: (Units=GPa)
#
#
# Indices 1 2 3 4 5 6 
#
# 1 103.5011 36.5957 44.1581 0.0000 0.0000 0.0000
# 2 36.5957 89.8626 24.9528 0.0000 0.0000 0.0000
# 3 44.1581 24.9528 96.0771 0.0000 0.0000 0.0000
# 4 0.0000 0.0000 0.0000 7.3576 0.0000 0.0000
# 5 0.0000 0.0000 0.0000 0.0000 14.3964 0.0000
# 6 0.0000 0.0000 0.0000 0.0000 0.0000 27.6295
#
#
#
# Elastic Compliance Matrix: (Units=1/GPa)
#
#
# Indices 1 2 3 4 5 6 
#
# 1 0.013222 -0.003984 -0.005042 0.000000 0.000000 0.000000
# 2 -0.003984 0.013194 -0.001595 0.000000 0.000000 0.000000
# 3 -0.005042 -0.001595 0.013140 0.000000 0.000000 0.000000
# 4 0.000000 0.000000 0.000000 0.135915 0.000000 0.000000
# 5 0.000000 0.000000 0.000000 0.000000 0.069462 0.000000
# 6 0.000000 0.000000 0.000000 0.000000 0.000000 0.036193
#
#
# Mechanical properties :
#
#
# Convention : Reuss Voigt Hill
#
# Bulk Modulus (GPa) = 54.60932 55.65046 55.12989
# Shear Modulus (GPa) = 16.20889 22.12563 19.16726
#
# Velocity S-wave (km/s) = 2.91528 3.40606 3.17018
# Velocity P-wave (km/s) = 6.32182 6.68190 6.50435
#
# Compressibility (1/GPa) = 0.01831189
#
# Stress axis : x y z
#
# Youngs Moduli (GPa) = 75.63356 75.79388 76.10341
#
# Poissons Ratio (x) = 0.30199 0.38371
# Poissons Ratio (y) = 0.30135 0.12141
# Poissons Ratio (z) = 0.38135 0.12092
#
# Static dielectric constant tensor:
#      x y z
#    x 1.685100 0.000000 0.000000 
#    y 0.000000 1.654410 0.000000 
#    z 0.000000 0.000000 1.639350 
# 
# From -- ./inp_files/22837.got.cif
#   From: 2010.05.17/outbox.cif.g08.bks.cpg/sg55_12_cif.got.tgz:22837.got - 2010.06.03 13:27:54.
