data_PCOD9428325
_publ_section_title
;
Structure prediction by ZEFSAII (Michael W. Deem and Ramdas Pophale) SiO2 
 PCOD9428325
Probable space group: P B A M
;
_chemical_formula_sum "Si O2"
_cell_formula_units_Z 56
_cell_length_a 14.561732
_cell_length_b 11.547282
_cell_length_c 15.855737
_cell_angle_alpha 90.000000
_cell_angle_beta 90.000000
_cell_angle_gamma 90.000000
_cell_volume 2666.117217
_symmetry_space_group_name_H-M "P B A M"
_symmetry_group_IT_number 55
_symmetry_cell_setting 'orthorhombic'
loop_
_space_group_symop_operation_xyz
x,y,z
-x,-y,z
1/2+x,1/2-y,-z
1/2-x,1/2+y,-z
-x,-y,-z
x,y,-z
1/2-x,1/2+y,z
1/2+x,1/2-y,z
loop_
_atom_site_type_symbol
_atom_site_label
_atom_site_fract_x
_atom_site_fract_y
_atom_site_fract_z
Si Si1 0.103856 0.142933 0.716565
Si Si2 0.308859 0.872348 0.000000
Si Si3 0.081378 0.318554 0.157429
Si Si4 0.220024 0.313683 0.598942
Si Si5 0.384402 0.369578 0.709995
Si Si6 0.130318 0.680987 0.169237
Si Si7 0.763951 0.384993 0.000000
Si Si8 0.602068 0.007294 0.688098
O O1 0.121071 0.196324 0.809809
O O2 0.163375 0.214540 0.649127
O O3 0.993380 0.157827 0.701944
O O4 0.124742 0.007506 0.714598
O O5 0.368528 0.883929 0.083587
O O6 0.292219 0.734388 0.000000
O O7 0.235880 0.978260 0.000000
O O8 0.089335 0.396205 0.240083
O O9 0.974498 0.308207 0.138280
O O10 0.216259 0.293666 0.500000
O O11 0.323516 0.321398 0.633732
O O12 0.173890 0.437550 0.623760
O O13 0.344716 0.307879 0.794369
O O14 0.183357 0.632958 0.089195
O O15 0.131727 0.602385 0.254758
O O16 0.500000 0.000000 0.648918
#
# Coordination Sequence:
#
# PCOD9428325 Si02
#       8
#     8   4   8   8   8   8   4   8
#     4   9  22  46  67  93 129 176 220 272 337 412
#     4  12  25  39  57  93 137 174 222 281 333 409
#     4   9  19  39  65  87 119 168 215 266 329 390
#     4  11  25  41  66 100 129 169 222 276 335 401
#     4  10  23  43  70  94 130 177 221 269 342 414
#     4  10  21  39  65  94 122 164 221 271 325 395
#     4  12  27  37  59  99 133 176 222 279 335 389
#     4   9  19  38  64  92 124 164 209 267 337 389
#
# _framework density 21.004328000000001
#
# number of rings (size 3 to 8) (size 9 to 14) (size 15 to 20)
#    0.000    2.000    1.429    1.286    6.000    3.143 
#    0.000    1.429    0.000    4.286    0.000    0.000 
#    0.000    0.000    0.000    0.000    0.000    0.000 
#
# Total GULP energy -312212.878845 kJ/mol
# GULP energy per Si atom -5575.229979 kJ/mol
# Density = 2.095652 g / cm^3
# Si number density = 21.004328 Si / 1000 Ang^3
#
#
#
# Elastic Constant Matrix: (Units=GPa)
#
#
# Indices 1 2 3 4 5 6 
#
# 1 52.6858 27.0035 27.4055 0.0000 0.0000 0.0000
# 2 27.0035 86.0602 22.5332 0.0000 0.0000 0.0000
# 3 27.4055 22.5332 68.5354 0.0000 0.0000 0.0000
# 4 0.0000 0.0000 0.0000 23.0023 0.0000 0.0000
# 5 0.0000 0.0000 0.0000 0.0000 6.2707 0.0000
# 6 0.0000 0.0000 0.0000 0.0000 0.0000 23.4625
#
#
#
# Elastic Compliance Matrix: (Units=1/GPa)
#
#
# Indices 1 2 3 4 5 6 
#
# 1 0.026588 -0.006083 -0.008632 0.000000 0.000000 0.000000
# 2 -0.006083 0.014106 -0.002205 0.000000 0.000000 0.000000
# 3 -0.008632 -0.002205 0.018768 0.000000 0.000000 0.000000
# 4 0.000000 0.000000 0.000000 0.043474 0.000000 0.000000
# 5 0.000000 0.000000 0.000000 0.000000 0.159472 0.000000
# 6 0.000000 0.000000 0.000000 0.000000 0.000000 0.042621
#
#
# Mechanical properties :
#
#
# Convention : Reuss Voigt Hill
#
# Bulk Modulus (GPa) = 39.02955 40.12952 39.57954
# Shear Modulus (GPa) = 14.39223 19.23637 16.81430
#
# Velocity S-wave (km/s) = 2.62048 3.02955 2.83241
# Velocity P-wave (km/s) = 5.27047 5.60218 5.43885
#
# Compressibility (1/GPa) = 0.02562161
#
# Stress axis : x y z
#
# Youngs Moduli (GPa) = 37.61078 70.89288 53.28255
#
# Poissons Ratio (x) = 0.43121 0.45994
# Poissons Ratio (y) = 0.22877 0.11751
# Poissons Ratio (z) = 0.32466 0.15635
#
# Static dielectric constant tensor:
#      x y z
#    x 1.801880 0.000000 0.000000 
#    y 0.000000 1.879860 0.000000 
#    z 0.000000 0.000000 1.710520 
# 
# From -- ./inp_files/19002.got.cif
#   From: 2010.05.17/outbox.cif.g08.bks.cpg/sg55_10_cif.got.tgz:19002.got - 2010.06.03 13:27:54.
