data_PCOD9428532
_publ_section_title
;
Structure prediction by ZEFSAII (Michael W. Deem and Ramdas Pophale) SiO2 
 PCOD9428532
Probable space group: P B A M
;
_chemical_formula_sum "Si O2"
_cell_formula_units_Z 32
_cell_length_a 17.046940
_cell_length_b 11.964094
_cell_length_c 8.109434
_cell_angle_alpha 90.000000
_cell_angle_beta 90.000000
_cell_angle_gamma 90.000000
_cell_volume 1653.928735
_symmetry_space_group_name_H-M "P B A M"
_symmetry_group_IT_number 55
_symmetry_cell_setting 'orthorhombic'
loop_
_space_group_symop_operation_xyz
x,y,z
-x,-y,z
1/2+x,1/2-y,-z
1/2-x,1/2+y,-z
-x,-y,-z
x,y,-z
1/2-x,1/2+y,z
1/2+x,1/2-y,z
loop_
_atom_site_type_symbol
_atom_site_label
_atom_site_fract_x
_atom_site_fract_y
_atom_site_fract_z
Si Si1 0.889254 0.096707 0.500000
Si Si2 0.804740 0.275726 0.683692
Si Si3 0.572179 0.344197 0.500000
Si Si4 0.858206 0.721783 0.185488
Si Si5 0.912100 0.474718 0.804836
O O1 0.847628 0.156827 0.655488
O O2 0.979603 0.132490 0.500000
O O3 0.885228 0.964412 0.500000
O O4 0.772624 0.302080 0.500000
O O5 0.731077 0.264216 0.801993
O O6 0.867522 0.370126 0.727382
O O7 0.594595 0.279033 0.666531
O O8 0.862914 0.588597 0.214877
O O9 0.889292 0.742567 0.000000
O O10 0.000000 0.500000 0.740435
O O11 0.919508 0.451447 0.000000
#
# Coordination Sequence:
#
# PCOD9428532 Si02
#       5
#     4   8   4   8   8
#     4   9  23  39  63  91 121 169 205 253 309 373
#     4  10  22  38  60  89 125 160 206 251 313 362
#     4  11  21  43  65  87 127 161 211 253 305 377
#     4  11  24  39  64  94 125 165 206 258 316 371
#     4  10  22  40  63  94 125 160 211 261 312 375
#
# _framework density 19.34787
#
# number of rings (size 3 to 8) (size 9 to 14) (size 15 to 20)
#    0.750    1.000    1.250    2.250    5.250    0.500 
#    0.000    5.000    0.000    0.000    0.000    0.000 
#    0.000    0.000    0.000    0.000    0.000    0.000 
#
# Total GULP energy -178469.094281 kJ/mol
# GULP energy per Si atom -5577.159196 kJ/mol
# Density = 1.930383 g / cm^3
# Si number density = 19.347870 Si / 1000 Ang^3
#
#
#
# Elastic Constant Matrix: (Units=GPa)
#
#
# Indices 1 2 3 4 5 6 
#
# 1 51.7864 -4.9895 -0.3320 0.0000 0.0000 0.0000
# 2 -4.9895 48.1335 30.5042 0.0000 0.0000 0.0000
# 3 -0.3320 30.5042 83.9885 0.0000 0.0000 0.0000
# 4 0.0000 0.0000 0.0000 29.6555 0.0000 0.0000
# 5 0.0000 0.0000 0.0000 0.0000 -14.9243 0.0000
# 6 0.0000 0.0000 0.0000 0.0000 0.0000 36.6731
#
#
#
# Elastic Compliance Matrix: (Units=1/GPa)
#
#
# Indices 1 2 3 4 5 6 
#
# 1 0.019552 0.002569 -0.000856 0.000000 0.000000 0.000000
# 2 0.002569 0.027325 -0.009914 0.000000 0.000000 0.000000
# 3 -0.000856 -0.009914 0.015504 0.000000 0.000000 0.000000
# 4 0.000000 0.000000 0.000000 0.033721 0.000000 0.000000
# 5 0.000000 0.000000 0.000000 0.000000 -0.067005 0.000000
# 6 0.000000 0.000000 0.000000 0.000000 0.000000 0.027268
#
#
# Mechanical properties :
#
#
# Convention : Reuss Voigt Hill
#
# Bulk Modulus (GPa) = 21.74898 26.03043 23.88971
# Shear Modulus (GPa) = 56.75875 20.86259 38.81067
#
# Velocity S-wave (km/s) = 5.42214 3.28729 4.48363
# Velocity P-wave (km/s) = 7.10386 5.28124 6.25925
#
# Compressibility (1/GPa) = 0.04597917
#
# Stress axis : x y z
#
# Youngs Moduli (GPa) = 51.14533 36.59675 64.50050
#
# Poissons Ratio (x) = -0.09402 0.05520
# Poissons Ratio (y) = -0.13140 0.63946
# Poissons Ratio (z) = 0.04377 0.36282
#
# Static dielectric constant tensor:
#      x y z
#    x 1.686600 0.000000 0.000000 
#    y 0.000000 1.644290 0.000000 
#    z 0.000000 0.000000 1.685070 
# 
# From -- ./inp_files/7148.got.cif
#   From: 2010.05.17/outbox.cif.g08.bks.cpg/sg55_4_cif.got.tgz:7148.got - 2010.06.03 13:27:54.
