data_PCOD9428893
_publ_section_title
;
Structure prediction by ZEFSAII (Michael W. Deem and Ramdas Pophale) SiO2 
 PCOD9428893
Probable space group: P B A M
;
_chemical_formula_sum "Si O2"
_cell_formula_units_Z 34
_cell_length_a 8.907063
_cell_length_b 9.402829
_cell_length_c 19.581875
_cell_angle_alpha 90.000000
_cell_angle_beta 90.000000
_cell_angle_gamma 90.000000
_cell_volume 1640.013172
_symmetry_space_group_name_H-M "P B A M"
_symmetry_group_IT_number 55
_symmetry_cell_setting 'orthorhombic'
loop_
_space_group_symop_operation_xyz
x,y,z
-x,-y,z
1/2+x,1/2-y,-z
1/2-x,1/2+y,-z
-x,-y,-z
x,y,-z
1/2-x,1/2+y,z
1/2+x,1/2-y,z
loop_
_atom_site_type_symbol
_atom_site_label
_atom_site_fract_x
_atom_site_fract_y
_atom_site_fract_z
Si Si1 0.106801 0.121454 0.641081
Si Si2 0.424090 0.145782 0.712597
Si Si3 0.390014 0.865109 0.921215
Si Si4 0.084977 0.854922 0.840469
Si Si5 0.500000 0.500000 0.500000
O O1 0.271188 0.113749 0.672482
O O2 0.092968 0.086056 0.560995
O O3 0.035792 0.272211 0.661163
O O4 0.000000 0.000000 0.672760
O O5 0.395595 0.250665 0.775857
O O6 0.500000 0.000000 0.736410
O O7 0.245495 0.885943 0.873912
O O8 0.482063 0.730009 0.894327
O O9 0.500000 0.000000 0.917233
O O10 0.343730 0.845877 0.000000
O O11 0.000000 0.000000 0.823354
#
# Coordination Sequence:
#
# PCOD9428893 Si02
#       5
#     8   8   8   8   2
#     4  10  23  46  69  99 138 175 222 275 337 409
#     4  12  25  44  72 102 137 183 230 284 339 402
#     4  11  25  45  69 101 139 184 235 288 348 411
#     4  12  26  44  69 100 141 185 233 289 345 404
#     4   8  24  48  72 100 144 172 220 274 340 412
#
# _framework density 20.731541
#
# number of rings (size 3 to 8) (size 9 to 14) (size 15 to 20)
#    0.706    0.235    0.000    6.353    0.000   10.353 
#    0.000    3.529    0.000    0.000    0.000    0.000 
#    0.000    0.000    0.000    0.000    0.000    0.000 
#
# Total GULP energy -189693.128831 kJ/mol
# GULP energy per Si atom -5579.209671 kJ/mol
# Density = 2.068435 g / cm^3
# Si number density = 20.731541 Si / 1000 Ang^3
#
#
#
# Elastic Constant Matrix: (Units=GPa)
#
#
# Indices 1 2 3 4 5 6 
#
# 1 132.7614 39.6048 75.4290 0.0000 0.0000 0.0000
# 2 39.6048 116.8220 68.1570 0.0000 0.0000 0.0000
# 3 75.4290 68.1570 190.2215 0.0000 0.0000 0.0000
# 4 0.0000 0.0000 0.0000 -15.8005 0.0000 0.0000
# 5 0.0000 0.0000 0.0000 0.0000 -97.3751 0.0000
# 6 0.0000 0.0000 0.0000 0.0000 0.0000 35.3839
#
#
#
# Elastic Compliance Matrix: (Units=1/GPa)
#
#
# Indices 1 2 3 4 5 6 
#
# 1 0.009887 -0.001346 -0.003438 0.000000 0.000000 0.000000
# 2 -0.001346 0.011006 -0.003410 0.000000 0.000000 0.000000
# 3 -0.003438 -0.003410 0.007842 0.000000 0.000000 0.000000
# 4 0.000000 0.000000 0.000000 -0.063289 0.000000 0.000000
# 5 0.000000 0.000000 0.000000 0.000000 -0.010270 0.000000
# 6 0.000000 0.000000 0.000000 0.000000 0.000000 0.028261
#
#
# Mechanical properties :
#
#
# Convention : Reuss Voigt Hill
#
# Bulk Modulus (GPa) = 80.99032 89.57627 85.28330
# Shear Modulus (GPa) = 1268.50868 1.54927 635.02897
#
# Velocity S-wave (km/s) = 24.76292 0.86540 17.52072
# Velocity P-wave (km/s) = 29.27036 6.65583 21.22562
#
# Compressibility (1/GPa) = 0.01234715
#
# Stress axis : x y z
#
# Youngs Moduli (GPa) = 101.13913 90.86285 127.51598
#
# Poissons Ratio (x) = 0.12230 0.43845
# Poissons Ratio (y) = 0.13613 0.43478
# Poissons Ratio (z) = 0.34776 0.30981
#
# Static dielectric constant tensor:
#      x y z
#    x 1.728610 0.000000 0.000000 
#    y 0.000000 1.771580 0.000000 
#    z 0.000000 0.000000 1.719710 
# 
# From -- ./inp_files/22508.got.cif
#   From: 2010.05.17/outbox.cif.g08.bks.cpg/sg55_12_cif.got.tgz:22508.got - 2010.06.03 13:27:54.
