data_PCOD9428040
_publ_section_title
;
Structure prediction by ZEFSAII (Michael W. Deem and Ramdas Pophale) SiO2 
 PCOD9428040
Probable space group: P B A M
;
_chemical_formula_sum "Si O2"
_cell_formula_units_Z 56
_cell_length_a 16.634548
_cell_length_b 9.461312
_cell_length_c 17.701165
_cell_angle_alpha 90.000000
_cell_angle_beta 90.000000
_cell_angle_gamma 90.000000
_cell_volume 2785.891633
_symmetry_space_group_name_H-M "P B A M"
_symmetry_group_IT_number 55
_symmetry_cell_setting 'orthorhombic'
loop_
_space_group_symop_operation_xyz
x,y,z
-x,-y,z
1/2+x,1/2-y,-z
1/2-x,1/2+y,-z
-x,-y,-z
x,y,-z
1/2-x,1/2+y,z
1/2+x,1/2-y,z
loop_
_atom_site_type_symbol
_atom_site_label
_atom_site_fract_x
_atom_site_fract_y
_atom_site_fract_z
Si Si1 0.286962 0.414119 0.587089
Si Si2 0.139787 0.609328 0.584092
Si Si3 0.290779 0.516867 0.751321
Si Si4 0.531699 0.160969 0.084428
Si Si5 0.009978 0.652160 0.709852
Si Si6 0.351456 0.816838 0.771670
Si Si7 0.565536 0.625459 0.828696
O O1 0.315133 0.451694 0.500000
O O2 0.195772 0.471652 0.589691
O O3 0.302357 0.246564 0.594589
O O4 0.320826 0.480871 0.665532
O O5 0.107244 0.617127 0.500000
O O6 0.065122 0.620447 0.639218
O O7 0.293645 0.683010 0.765294
O O8 0.201739 0.455274 0.761180
O O9 0.348498 0.444938 0.813968
O O10 0.598374 0.183969 0.149976
O O11 0.459508 0.272003 0.102461
O O12 0.500000 0.000000 0.085914
O O13 0.563196 0.188635 0.000000
O O14 0.053579 0.769392 0.758526
O O15 0.000000 0.500000 0.750021
O O16 0.918061 0.701095 0.705784
O O17 0.500000 0.500000 0.826446
#
# Coordination Sequence:
#
# PCOD9428040 Si02
#       7
#     8   8   8   8   8   8   8
#     4  10  21  37  59  91 131 171 216 275 340 390
#     4  10  21  38  60  88 126 172 222 277 339 401
#     4  12  23  39  65  96 129 172 225 277 332 392
#     4  10  23  45  70  98 134 172 211 264 337 408
#     4  11  22  39  59  88 125 171 216 272 321 392
#     4  11  25  40  65  95 129 171 222 274 326 396
#     4  11  21  41  65  94 126 168 215 270 321 397
#
# _framework density 20.101284
#
# number of rings (size 3 to 8) (size 9 to 14) (size 15 to 20)
#    0.000    1.286    4.286    3.429    4.000    0.571 
#    0.000    2.857    0.000    2.571    0.000    0.000 
#    0.000    0.000    0.000    0.000    0.000    0.000 
#
# Total GULP energy -312102.154504 kJ/mol
# GULP energy per Si atom -5573.252759 kJ/mol
# Density = 2.005553 g / cm^3
# Si number density = 20.101284 Si / 1000 Ang^3
#
#
#
# Elastic Constant Matrix: (Units=GPa)
#
#
# Indices 1 2 3 4 5 6 
#
# 1 82.5774 20.6178 40.1652 0.0000 0.0000 0.0000
# 2 20.6178 68.7529 32.9883 0.0000 0.0000 0.0000
# 3 40.1652 32.9883 121.9055 0.0000 0.0000 0.0000
# 4 0.0000 0.0000 0.0000 14.5472 0.0000 0.0000
# 5 0.0000 0.0000 0.0000 0.0000 25.5313 0.0000
# 6 0.0000 0.0000 0.0000 0.0000 0.0000 38.6728
#
#
#
# Elastic Compliance Matrix: (Units=1/GPa)
#
#
# Indices 1 2 3 4 5 6 
#
# 1 0.014759 -0.002405 -0.004212 0.000000 0.000000 0.000000
# 2 -0.002405 0.017107 -0.003837 0.000000 0.000000 0.000000
# 3 -0.004212 -0.003837 0.010629 0.000000 0.000000 0.000000
# 4 0.000000 0.000000 0.000000 0.068742 0.000000 0.000000
# 5 0.000000 0.000000 0.000000 0.000000 0.039168 0.000000
# 6 0.000000 0.000000 0.000000 0.000000 0.000000 0.025858
#
#
# Mechanical properties :
#
#
# Convention : Reuss Voigt Hill
#
# Bulk Modulus (GPa) = 46.32321 51.19761 48.76041
# Shear Modulus (GPa) = 24.46592 27.71456 26.09024
#
# Velocity S-wave (km/s) = 3.49253 3.71717 3.60660
# Velocity P-wave (km/s) = 6.27364 6.62935 6.45395
#
# Compressibility (1/GPa) = 0.02158745
#
# Stress axis : x y z
#
# Youngs Moduli (GPa) = 67.75519 58.45554 94.08133
#
# Poissons Ratio (x) = 0.14059 0.39627
# Poissons Ratio (y) = 0.16295 0.36098
# Poissons Ratio (z) = 0.28538 0.22429
#
# Static dielectric constant tensor:
#      x y z
#    x 1.718950 0.000000 0.000000 
#    y 0.000000 1.736270 0.000000 
#    z 0.000000 0.000000 1.755610 
# 
# From -- ./inp_files/22975.got.cif
#   From: 2010.05.17/outbox.cif.g08.bks.cpg/sg55_12_cif.got.tgz:22975.got - 2010.06.03 13:27:54.
