data_PCOD9428657
_publ_section_title
;
Structure prediction by ZEFSAII (Michael W. Deem and Ramdas Pophale) SiO2 
 PCOD9428657
Probable space group: P B A M
;
_chemical_formula_sum "Si O2"
_cell_formula_units_Z 64
_cell_length_a 23.977047
_cell_length_b 15.601097
_cell_length_c 8.964605
_cell_angle_alpha 90.000000
_cell_angle_beta 90.000000
_cell_angle_gamma 90.000000
_cell_volume 3353.373979
_symmetry_space_group_name_H-M "P B A M"
_symmetry_group_IT_number 55
_symmetry_cell_setting 'orthorhombic'
loop_
_space_group_symop_operation_xyz
x,y,z
-x,-y,z
1/2+x,1/2-y,-z
1/2-x,1/2+y,-z
-x,-y,-z
x,y,-z
1/2-x,1/2+y,z
1/2+x,1/2-y,z
loop_
_atom_site_type_symbol
_atom_site_label
_atom_site_fract_x
_atom_site_fract_y
_atom_site_fract_z
Si Si1 0.893108 0.915495 0.676999
Si Si2 0.698388 0.755742 0.178635
Si Si3 0.127008 0.594360 0.677411
Si Si4 0.605104 0.081358 0.822193
Si Si5 0.998837 0.342047 0.322036
Si Si6 0.873702 0.090868 0.822189
Si Si7 0.329781 0.742776 0.177442
Si Si8 0.500472 0.654985 0.822318
O O1 0.897986 0.915925 0.500000
O O2 0.858570 0.833369 0.732447
O O3 0.954161 0.906099 0.750927
O O4 0.865450 0.002660 0.735752
O O5 0.668866 0.834513 0.260237
O O6 0.668105 0.667000 0.221333
O O7 0.764078 0.752659 0.208677
O O8 0.690338 0.765866 0.000000
O O9 0.133143 0.585385 0.500000
O O10 0.133573 0.503193 0.756971
O O11 0.063794 0.626241 0.708433
O O12 0.545078 0.095266 0.746023
O O13 0.640819 0.166713 0.789757
O O14 0.598788 0.073886 0.000000
O O15 0.006325 0.336020 0.500000
O O16 0.006632 0.249087 0.247790
O O17 0.936790 0.123285 0.794162
O O18 0.868074 0.075771 0.000000
O O19 0.337291 0.726163 0.000000
O O20 0.491793 0.659337 0.000000
#
# Coordination Sequence:
#
# PCOD9428657 Si02
#       8
#     8   8   8   8   8   8   8   8
#     4  12  25  39  61  92 127 164 201 245 305 372
#     4  10  22  43  67  89 116 158 210 257 303 359
#     4  11  24  40  61  92 130 162 196 249 311 368
#     4  11  23  39  63  92 122 163 211 252 298 361
#     4  11  22  37  60  91 127 163 196 246 311 367
#     4  10  22  40  64  92 123 159 203 253 304 360
#     4  10  23  43  65  88 118 158 208 261 304 352
#     4  11  21  37  63  92 123 159 201 251 302 361
#
# _framework density 19.085255
#
# number of rings (size 3 to 8) (size 9 to 14) (size 15 to 20)
#    0.000    1.250    2.500    3.375    0.000    8.000 
#    0.000    2.500    0.000    0.000    0.000    0.000 
#    0.000    0.000    0.000    0.000    0.000    0.000 
#
# Total GULP energy -358010.607281 kJ/mol
# GULP energy per Si atom -5593.915739 kJ/mol
# Density = 1.904182 g / cm^3
# Si number density = 19.085255 Si / 1000 Ang^3
#
#
#
# Elastic Constant Matrix: (Units=GPa)
#
#
# Indices 1 2 3 4 5 6 
#
# 1 91.9273 28.5953 50.3518 0.0000 0.0000 0.0000
# 2 28.5953 107.2043 49.9621 0.0000 0.0000 0.0000
# 3 50.3518 49.9621 60.1765 0.0000 0.0000 0.0000
# 4 0.0000 0.0000 0.0000 -284.2084 0.0000 0.0000
# 5 0.0000 0.0000 0.0000 0.0000 17.2186 0.0000
# 6 0.0000 0.0000 0.0000 0.0000 0.0000 3.7776
#
#
#
# Elastic Compliance Matrix: (Units=1/GPa)
#
#
# Indices 1 2 3 4 5 6 
#
# 1 0.021213 0.004264 -0.021289 0.000000 0.000000 0.000000
# 2 0.004264 0.016072 -0.016912 0.000000 0.000000 0.000000
# 3 -0.021289 -0.016912 0.048472 0.000000 0.000000 0.000000
# 4 0.000000 0.000000 0.000000 -0.003519 0.000000 0.000000
# 5 0.000000 0.000000 0.000000 0.000000 0.058077 0.000000
# 6 0.000000 0.000000 0.000000 0.000000 0.000000 0.264721
#
#
# Mechanical properties :
#
#
# Convention : Reuss Voigt Hill
#
# Bulk Modulus (GPa) = 55.92024 57.45848 56.68936
# Shear Modulus (GPa) = 10.44119 -43.94917 -16.75399
#
# Velocity S-wave (km/s) = 2.34151 -4.80394 -2.96607
# Velocity P-wave (km/s) = 6.05591 0.77384 4.24707
#
# Compressibility (1/GPa) = 0.01788261
#
# Stress axis : x y z
#
# Youngs Moduli (GPa) = 47.14122 62.21871 20.63028
#
# Poissons Ratio (x) = -0.26528 0.43921
# Poissons Ratio (y) = -0.20099 0.34889
# Poissons Ratio (z) = 1.00361 1.05222
#
# Static dielectric constant tensor:
#      x y z
#    x 1.644400 0.000000 0.000000 
#    y 0.000000 1.647580 0.000000 
#    z 0.000000 0.000000 1.632930 
# 
# From -- ./inp_files/9650.got.cif
#   From: 2010.05.17/outbox.cif.g08.bks.cpg/sg55_5_cif.got.tgz:9650.got - 2010.06.03 13:27:54.
