data_PCOD9428480
_publ_section_title
;
Structure prediction by ZEFSAII (Michael W. Deem and Ramdas Pophale) SiO2 
 PCOD9428480
Probable space group: P B A M
;
_chemical_formula_sum "Si O2"
_cell_formula_units_Z 58
_cell_length_a 35.321745
_cell_length_b 10.540286
_cell_length_c 7.496933
_cell_angle_alpha 90.000000
_cell_angle_beta 90.000000
_cell_angle_gamma 90.000000
_cell_volume 2791.117859
_symmetry_space_group_name_H-M "P B A M"
_symmetry_group_IT_number 55
_symmetry_cell_setting 'orthorhombic'
loop_
_space_group_symop_operation_xyz
x,y,z
-x,-y,z
1/2+x,1/2-y,-z
1/2-x,1/2+y,-z
-x,-y,-z
x,y,-z
1/2-x,1/2+y,z
1/2+x,1/2-y,z
loop_
_atom_site_type_symbol
_atom_site_label
_atom_site_fract_x
_atom_site_fract_y
_atom_site_fract_z
Si Si1 0.276328 0.533681 0.794429
Si Si2 0.865544 0.684492 0.784354
Si Si3 0.780880 0.678288 0.218918
Si Si4 0.000000 0.000000 0.000000
Si Si5 0.980719 0.301169 0.783217
Si Si6 0.638816 0.480417 0.293386
Si Si7 0.443340 0.461341 0.297650
Si Si8 0.443318 0.930829 0.783531
O O1 0.273939 0.676658 0.718491
O O2 0.249644 0.424119 0.717958
O O3 0.320479 0.494413 0.792177
O O4 0.264448 0.546030 0.000000
O O5 0.823676 0.640812 0.728763
O O6 0.868864 0.830666 0.728473
O O7 0.901862 0.607201 0.719815
O O8 0.866113 0.681721 0.000000
O O9 0.780121 0.682922 0.000000
O O10 0.968768 0.964610 0.156550
O O11 0.961533 0.178311 0.703141
O O12 0.956411 0.426721 0.741724
O O13 0.023242 0.335995 0.725661
O O14 0.980914 0.278223 0.000000
O O15 0.643650 0.512144 0.500000
O O16 0.600115 0.546064 0.232539
O O17 0.443861 0.512499 0.500000
O O18 0.443538 0.924955 0.000000
#
# Coordination Sequence:
#
# PCOD9428480 Si02
#       8
#     8   8   8   2   8   8   8   8
#     4   9  17  33  56  78 108 145 185 231 291 347
#     4   9  17  31  55  81 109 142 186 232 282 339
#     4   8  15  29  50  80 108 135 181 237 281 340
#     4  12  26  40  64  80 116 152 194 232 298 342
#     4   9  17  34  54  78 113 152 192 232 280 335
#     4  10  22  37  53  79 113 145 184 235 283 341
#     4  11  25  40  57  87 118 148 195 245 287 346
#     4   8  16  30  54  81 108 147 191 231 276 339
#
# _framework density 20.780201999999999
#
# number of rings (size 3 to 8) (size 9 to 14) (size 15 to 20)
#    0.000    2.759    0.690    2.276    3.862    0.000 
#    2.483    4.828    0.000    0.000    0.000    0.000 
#    0.000    0.000    0.000    0.000    0.000    0.000 
#
# Total GULP energy -323094.830526 kJ/mol
# GULP energy per Si atom -5570.600526 kJ/mol
# Density = 2.073291 g / cm^3
# Si number density = 20.780202 Si / 1000 Ang^3
#
#
#
# Elastic Constant Matrix: (Units=GPa)
#
#
# Indices 1 2 3 4 5 6 
#
# 1 172.9863 83.8354 16.2146 0.0000 0.0000 0.0000
# 2 83.8354 71.2244 12.1257 0.0000 0.0000 0.0000
# 3 16.2146 12.1257 63.0111 0.0000 0.0000 0.0000
# 4 0.0000 0.0000 0.0000 15.9007 0.0000 0.0000
# 5 0.0000 0.0000 0.0000 0.0000 25.2749 0.0000
# 6 0.0000 0.0000 0.0000 0.0000 0.0000 35.6566
#
#
#
# Elastic Compliance Matrix: (Units=1/GPa)
#
#
# Indices 1 2 3 4 5 6 
#
# 1 0.013469 -0.015781 -0.000429 0.000000 0.000000 0.000000
# 2 -0.015781 0.033005 -0.002291 0.000000 0.000000 0.000000
# 3 -0.000429 -0.002291 0.016421 0.000000 0.000000 0.000000
# 4 0.000000 0.000000 0.000000 0.062890 0.000000 0.000000
# 5 0.000000 0.000000 0.000000 0.000000 0.039565 0.000000
# 6 0.000000 0.000000 0.000000 0.000000 0.000000 0.028045
#
#
# Mechanical properties :
#
#
# Convention : Reuss Voigt Hill
#
# Bulk Modulus (GPa) = 38.61826 59.06372 48.84099
# Shear Modulus (GPa) = 20.91805 28.36950 24.64378
#
# Velocity S-wave (km/s) = 3.17619 3.69889 3.44746
# Velocity P-wave (km/s) = 5.66352 6.83573 6.27705
#
# Compressibility (1/GPa) = 0.02589449
#
# Stress axis : x y z
#
# Youngs Moduli (GPa) = 74.24511 30.29856 60.89600
#
# Poissons Ratio (x) = 0.47813 0.02613
# Poissons Ratio (y) = 1.17164 0.13949
# Poissons Ratio (z) = 0.03186 0.06940
#
# Static dielectric constant tensor:
#      x y z
#    x 1.752050 0.000000 0.000000 
#    y 0.000000 1.780290 0.000000 
#    z 0.000000 0.000000 1.748000 
# 
# From -- ./inp_files/10665.got.cif
#   From: 2010.05.17/outbox.cif.g08.bks.cpg/sg55_6_cif.got.tgz:10665.got - 2010.06.03 13:27:54.
