data_PCOD9428477
_publ_section_title
;
Structure prediction by ZEFSAII (Michael W. Deem and Ramdas Pophale) SiO2 
 PCOD9428477
Probable space group: P B A M
;
_chemical_formula_sum "Si O2"
_cell_formula_units_Z 64
_cell_length_a 13.362793
_cell_length_b 29.556429
_cell_length_c 8.794777
_cell_angle_alpha 90.000000
_cell_angle_beta 90.000000
_cell_angle_gamma 90.000000
_cell_volume 3473.553837
_symmetry_space_group_name_H-M "P B A M"
_symmetry_group_IT_number 55
_symmetry_cell_setting 'orthorhombic'
loop_
_space_group_symop_operation_xyz
x,y,z
-x,-y,z
1/2+x,1/2-y,-z
1/2-x,1/2+y,-z
-x,-y,-z
x,y,-z
1/2-x,1/2+y,z
1/2+x,1/2-y,z
loop_
_atom_site_type_symbol
_atom_site_label
_atom_site_fract_x
_atom_site_fract_y
_atom_site_fract_z
Si Si1 0.113366 0.446397 0.316476
Si Si2 0.486419 0.742040 0.825716
Si Si3 0.218689 0.121472 0.685162
Si Si4 0.266143 0.780762 0.174330
Si Si5 0.111334 0.552290 0.315292
Si Si6 0.214343 0.884183 0.821083
Si Si7 0.850947 0.293203 0.324663
Si Si8 0.004978 0.856698 0.317766
O O1 0.116622 0.443198 0.500000
O O2 0.121743 0.499520 0.275193
O O3 0.206015 0.418672 0.250254
O O4 0.000401 0.431577 0.267622
O O5 0.373932 0.758754 0.813520
O O6 0.550717 0.785137 0.772612
O O7 0.503952 0.696140 0.731431
O O8 0.507947 0.730520 0.000000
O O9 0.215639 0.120190 0.500000
O O10 0.293834 0.081780 0.737052
O O11 0.275211 0.167968 0.727982
O O12 0.102727 0.122757 0.734642
O O13 0.260790 0.834013 0.197849
O O14 0.202029 0.754826 0.299149
O O15 0.230697 0.771993 0.000000
O O16 0.111022 0.554585 0.500000
O O17 0.103259 0.881084 0.749047
O O18 0.204179 0.893320 0.000000
O O19 0.875543 0.301680 0.500000
O O20 0.009088 0.859143 0.500000
#
# Coordination Sequence:
#
# PCOD9428477 Si02
#       8
#     8   8   8   8   8   8   8   8
#     4   9  18  35  63  89 109 140 181 224 278 339
#     4  11  22  36  51  72 108 149 185 225 275 328
#     4   9  19  34  54  83 114 140 177 230 280 322
#     4  10  22  37  52  72 107 153 189 222 270 328
#     4   8  16  35  60  87 115 140 172 225 286 338
#     4  11  23  38  55  79 113 151 186 228 278 325
#     4  11  21  33  53  81 109 142 185 232 273 319
#     4  11  21  36  56  79 107 145 190 229 270 322
#
# _framework density 18.424935000000001
#
# number of rings (size 3 to 8) (size 9 to 14) (size 15 to 20)
#    0.000    2.000    2.500    2.250    1.750    1.000 
#    0.000    1.875    0.000    8.250    0.000    0.000 
#    0.000    0.000    0.000    0.000    0.000    0.000 
#
# Total GULP energy -356719.241194 kJ/mol
# GULP energy per Si atom -5573.738144 kJ/mol
# Density = 1.838300 g / cm^3
# Si number density = 18.424935 Si / 1000 Ang^3
#
#
#
# Elastic Constant Matrix: (Units=GPa)
#
#
# Indices 1 2 3 4 5 6 
#
# 1 166.3369 68.0916 25.9598 0.0000 0.0000 0.0000
# 2 68.0916 72.3498 21.1807 0.0000 0.0000 0.0000
# 3 25.9598 21.1807 32.7270 0.0000 0.0000 0.0000
# 4 0.0000 0.0000 0.0000 -1.0605 0.0000 0.0000
# 5 0.0000 0.0000 0.0000 0.0000 28.1661 0.0000
# 6 0.0000 0.0000 0.0000 0.0000 0.0000 202.9198
#
#
#
# Elastic Compliance Matrix: (Units=1/GPa)
#
#
# Indices 1 2 3 4 5 6 
#
# 1 0.009912 -0.008670 -0.002252 0.000000 0.000000 0.000000
# 2 -0.008670 0.024636 -0.009067 0.000000 0.000000 0.000000
# 3 -0.002252 -0.009067 0.038210 0.000000 0.000000 0.000000
# 4 0.000000 0.000000 0.000000 -0.942960 0.000000 0.000000
# 5 0.000000 0.000000 0.000000 0.000000 0.035504 0.000000
# 6 0.000000 0.000000 0.000000 0.000000 0.000000 0.004928
#
#
# Mechanical properties :
#
#
# Convention : Reuss Voigt Hill
#
# Bulk Modulus (GPa) = 30.50539 55.76423 43.13481
# Shear Modulus (GPa) = -6.41959 56.41718 24.99880
#
# Velocity S-wave (km/s) = -1.86862 5.53954 3.68746
# Velocity P-wave (km/s) = 3.45498 8.44077 6.44917
#
# Compressibility (1/GPa) = 0.03278109
#
# Stress axis : x y z
#
# Youngs Moduli (GPa) = 100.88410 40.59164 26.17120
#
# Poissons Ratio (x) = 0.35192 0.05893
# Poissons Ratio (y) = 0.87464 0.23729
# Poissons Ratio (z) = 0.22716 0.36804
#
# Static dielectric constant tensor:
#      x y z
#    x 1.689090 0.000000 0.000000 
#    y 0.000000 1.609030 0.000000 
#    z 0.000000 0.000000 1.624470 
# 
# From -- ./inp_files/6930.got.cif
#   From: 2010.05.17/outbox.cif.g08.bks.cpg/sg55_4_cif.got.tgz:6930.got - 2010.06.03 13:27:54.
