data_PCOD9428267
_publ_section_title
;
Structure prediction by ZEFSAII (Michael W. Deem and Ramdas Pophale) SiO2 
 PCOD9428267
Probable space group: P B A M
;
_chemical_formula_sum "Si O2"
_cell_formula_units_Z 40
_cell_length_a 8.498110
_cell_length_b 24.966304
_cell_length_c 7.938350
_cell_angle_alpha 90.000000
_cell_angle_beta 90.000000
_cell_angle_gamma 90.000000
_cell_volume 1684.251123
_symmetry_space_group_name_H-M "P B A M"
_symmetry_group_IT_number 55
_symmetry_cell_setting 'orthorhombic'
loop_
_space_group_symop_operation_xyz
x,y,z
-x,-y,z
1/2+x,1/2-y,-z
1/2-x,1/2+y,-z
-x,-y,-z
x,y,-z
1/2-x,1/2+y,z
1/2+x,1/2-y,z
loop_
_atom_site_type_symbol
_atom_site_label
_atom_site_fract_x
_atom_site_fract_y
_atom_site_fract_z
Si Si1 0.144763 0.124124 0.295358
Si Si2 0.688891 0.575196 0.200806
Si Si3 0.377010 0.825369 0.805133
Si Si4 0.345489 0.027625 0.697296
Si Si5 0.306670 0.230005 0.303002
O O1 0.146713 0.124038 0.500000
O O2 0.279887 0.083194 0.232860
O O3 0.185840 0.184153 0.242069
O O4 0.978587 0.101514 0.238046
O O5 0.822033 0.617143 0.263172
O O6 0.712124 0.517689 0.284276
O O7 0.705146 0.569059 0.000000
O O8 0.228967 0.785045 0.790454
O O9 0.522156 0.796163 0.716878
O O10 0.419122 0.831855 0.000000
O O11 0.377830 0.037171 0.500000
O O12 0.500000 0.000000 0.775032
O O13 0.280149 0.240758 0.500000
#
# Coordination Sequence:
#
# PCOD9428267 Si02
#       5
#     8   8   8   8   8
#     4  10  22  39  60  87 117 151 193 243 295 345
#     4  11  24  39  58  86 119 156 195 237 288 349
#     4  11  24  41  60  86 122 159 194 239 299 355
#     4  10  21  39  62  86 115 152 193 240 294 347
#     4  11  23  40  64  91 117 152 201 248 290 346
#
# _framework density 23.749427000000001
#
# number of rings (size 3 to 8) (size 9 to 14) (size 15 to 20)
#    0.000    1.400    0.000    4.800    0.000   13.200 
#    0.000    0.000    0.000    0.000    0.000    0.000 
#    0.000    0.000    0.000    0.000    0.000    0.000 
#
# Total GULP energy -223893.820694 kJ/mol
# GULP energy per Si atom -5597.345517 kJ/mol
# Density = 2.369537 g / cm^3
# Si number density = 23.749427 Si / 1000 Ang^3
#
#
#
# Elastic Constant Matrix: (Units=GPa)
#
#
# Indices 1 2 3 4 5 6 
#
# 1 64.5687 -18.8283 -6.4593 0.0000 0.0000 0.0000
# 2 -18.8283 82.0439 -0.2209 0.0000 0.0000 0.0000
# 3 -6.4593 -0.2209 34.6683 0.0000 0.0000 0.0000
# 4 0.0000 0.0000 0.0000 -11.9046 0.0000 0.0000
# 5 0.0000 0.0000 0.0000 0.0000 6.0986 0.0000
# 6 0.0000 0.0000 0.0000 0.0000 0.0000 41.3995
#
#
#
# Elastic Compliance Matrix: (Units=1/GPa)
#
#
# Indices 1 2 3 4 5 6 
#
# 1 0.016942 0.003897 0.003181 0.000000 0.000000 0.000000
# 2 0.003897 0.013085 0.000809 0.000000 0.000000 0.000000
# 3 0.003181 0.000809 0.029443 0.000000 0.000000 0.000000
# 4 0.000000 0.000000 0.000000 -0.084001 0.000000 0.000000
# 5 0.000000 0.000000 0.000000 0.000000 0.163973 0.000000
# 6 0.000000 0.000000 0.000000 0.000000 0.000000 0.024155
#
#
# Mechanical properties :
#
#
# Convention : Reuss Voigt Hill
#
# Bulk Modulus (GPa) = 13.29007 14.47378 13.88193
# Shear Modulus (GPa) = 28.91789 20.90465 24.91127
#
# Velocity S-wave (km/s) = 3.49323 2.97006 3.24222
# Velocity P-wave (km/s) = 4.67743 4.22721 4.45801
#
# Compressibility (1/GPa) = 0.07524415
#
# Stress axis : x y z
#
# Youngs Moduli (GPa) = 59.02536 76.42342 33.96428
#
# Poissons Ratio (x) = -0.29779 -0.10805
# Poissons Ratio (y) = -0.23000 -0.02749
# Poissons Ratio (z) = -0.18778 -0.06185
#
# Static dielectric constant tensor:
#      x y z
#    x 1.940850 0.000000 0.000000 
#    y 0.000000 1.870360 0.000000 
#    z 0.000000 0.000000 1.844600 
# 
# From -- ./inp_files/2281.got.cif
#   From: 2010.05.17/outbox.cif.g08.bks.cpg/sg55_2_cif.got.tgz:2281.got - 2010.06.03 13:27:54.
