data_PCOD9428398
_publ_section_title
;
Structure prediction by ZEFSAII (Michael W. Deem and Ramdas Pophale) SiO2 
 PCOD9428398
Probable space group: P B A M
;
_chemical_formula_sum "Si O2"
_cell_formula_units_Z 48
_cell_length_a 14.812831
_cell_length_b 11.243610
_cell_length_c 13.960294
_cell_angle_alpha 90.000000
_cell_angle_beta 90.000000
_cell_angle_gamma 90.000000
_cell_volume 2325.082704
_symmetry_space_group_name_H-M "P B A M"
_symmetry_group_IT_number 55
_symmetry_cell_setting 'orthorhombic'
loop_
_space_group_symop_operation_xyz
x,y,z
-x,-y,z
1/2+x,1/2-y,-z
1/2-x,1/2+y,-z
-x,-y,-z
x,y,-z
1/2-x,1/2+y,z
1/2+x,1/2-y,z
loop_
_atom_site_type_symbol
_atom_site_label
_atom_site_fract_x
_atom_site_fract_y
_atom_site_fract_z
Si Si1 0.443910 0.116337 0.700544
Si Si2 0.694867 0.728602 0.205924
Si Si3 0.123698 0.247891 0.303875
Si Si4 0.766485 0.189589 0.000000
Si Si5 0.290728 0.835133 0.500000
Si Si6 0.821908 0.939433 0.000000
Si Si7 0.893789 0.992379 0.783748
Si Si8 0.657104 0.894866 0.500000
O O1 0.353623 0.152924 0.757642
O O2 0.520627 0.216508 0.713418
O O3 0.407228 0.102289 0.592935
O O4 0.500000 0.000000 0.729914
O O5 0.800835 0.712481 0.226646
O O6 0.648509 0.614807 0.252044
O O7 0.676794 0.715830 0.094331
O O8 0.153778 0.302373 0.404467
O O9 0.133225 0.107422 0.292491
O O10 0.746354 0.047487 0.000000
O O11 0.696510 0.298317 0.000000
O O12 0.210855 0.732988 0.500000
O O13 0.283196 0.981195 0.500000
O O14 0.865384 0.961187 0.105851
O O15 0.000000 0.000000 0.785857
#
# Coordination Sequence:
#
# PCOD9428398 Si02
#       8
#     8   8   8   4   4   4   8   4
#     4  12  25  44  70 100 138 185 228 284 341 417
#     4  11  25  44  68 102 139 181 235 281 347 412
#     4  12  25  43  69  98 137 178 230 279 347 402
#     4  10  22  42  67 100 138 179 227 290 342 407
#     4  12  27  44  72 104 135 189 228 288 342 420
#     4  10  21  40  68  96 136 179 225 281 344 412
#     4  11  23  43  67 100 134 177 229 286 341 409
#     4  12  26  49  72 104 145 181 238 281 359 412
#
# _framework density 20.644428000000001
#
# number of rings (size 3 to 8) (size 9 to 14) (size 15 to 20)
#    0.000    0.667    6.667    1.000    4.667    0.000 
#    0.000    1.667    0.000    0.000    0.000    0.000 
#    0.000    0.000    0.000    0.000    0.000    0.000 
#
# Total GULP energy -267232.080869 kJ/mol
# GULP energy per Si atom -5567.335018 kJ/mol
# Density = 2.059744 g / cm^3
# Si number density = 20.644428 Si / 1000 Ang^3
#
#
#
# Elastic Constant Matrix: (Units=GPa)
#
#
# Indices 1 2 3 4 5 6 
#
# 1 67.0184 39.9046 -3.2431 0.0000 0.0000 0.0000
# 2 39.9046 89.0365 11.7101 0.0000 0.0000 0.0000
# 3 -3.2431 11.7101 65.4825 0.0000 0.0000 0.0000
# 4 0.0000 0.0000 0.0000 -3.1236 0.0000 0.0000
# 5 0.0000 0.0000 0.0000 0.0000 12.9770 0.0000
# 6 0.0000 0.0000 0.0000 0.0000 0.0000 32.5893
#
#
#
# Elastic Compliance Matrix: (Units=1/GPa)
#
#
# Indices 1 2 3 4 5 6 
#
# 1 0.020831 -0.009700 0.002766 0.000000 0.000000 0.000000
# 2 -0.009700 0.016019 -0.003345 0.000000 0.000000 0.000000
# 3 0.002766 -0.003345 0.016006 0.000000 0.000000 0.000000
# 4 0.000000 0.000000 0.000000 -0.320147 0.000000 0.000000
# 5 0.000000 0.000000 0.000000 0.000000 0.077059 0.000000
# 6 0.000000 0.000000 0.000000 0.000000 0.000000 0.030685
#
#
# Mechanical properties :
#
#
# Convention : Reuss Voigt Hill
#
# Bulk Modulus (GPa) = 30.96101 35.36451 33.16276
# Shear Modulus (GPa) = -38.99418 20.03295 -9.48062
#
# Velocity S-wave (km/s) = -4.35080 3.11847 -2.14530
# Velocity P-wave (km/s) = 3.19523 5.48944 3.15630
#
# Compressibility (1/GPa) = 0.03229869
#
# Stress axis : x y z
#
# Youngs Moduli (GPa) = 48.00624 62.42777 62.47495
#
# Poissons Ratio (x) = 0.60553 -0.17282
# Poissons Ratio (y) = 0.46565 0.20897
# Poissons Ratio (z) = -0.13280 0.20882
#
# Static dielectric constant tensor:
#      x y z
#    x 1.762790 0.000000 0.000000 
#    y 0.000000 1.823940 0.000000 
#    z 0.000000 0.000000 1.736100 
# 
# From -- ./inp_files/18923.got.cif
#   From: 2010.05.17/outbox.cif.g08.bks.cpg/sg55_10_cif.got.tgz:18923.got - 2010.06.03 13:27:54.
