data_PCOD9428412
_publ_section_title
;
Structure prediction by ZEFSAII (Michael W. Deem and Ramdas Pophale) SiO2 
 PCOD9428412
Probable space group: P B A M
;
_chemical_formula_sum "Si O2"
_cell_formula_units_Z 48
_cell_length_a 8.815556
_cell_length_b 17.963669
_cell_length_c 16.070790
_cell_angle_alpha 90.000000
_cell_angle_beta 90.000000
_cell_angle_gamma 90.000000
_cell_volume 2544.965966
_symmetry_space_group_name_H-M "P B A M"
_symmetry_group_IT_number 55
_symmetry_cell_setting 'orthorhombic'
loop_
_space_group_symop_operation_xyz
x,y,z
-x,-y,z
1/2+x,1/2-y,-z
1/2-x,1/2+y,-z
-x,-y,-z
x,y,-z
1/2-x,1/2+y,z
1/2+x,1/2-y,z
loop_
_atom_site_type_symbol
_atom_site_label
_atom_site_fract_x
_atom_site_fract_y
_atom_site_fract_z
Si Si1 0.825366 0.986166 0.300205
Si Si2 0.643095 0.333948 0.757044
Si Si3 0.987349 0.321410 0.259575
Si Si4 0.635316 0.052487 0.149214
Si Si5 0.102925 0.425816 0.594726
Si Si6 0.961053 0.087413 0.091291
O O1 0.714137 0.002511 0.222225
O O2 0.762139 0.042815 0.369002
O O3 0.830350 0.897691 0.313141
O O4 0.000000 0.000000 0.280798
O O5 0.556304 0.260241 0.731239
O O6 0.550421 0.370255 0.834745
O O7 0.816403 0.312023 0.772850
O O8 0.064848 0.375108 0.192053
O O9 0.024172 0.366031 0.344986
O O10 0.778339 0.083956 0.098693
O O11 0.500000 0.000000 0.113252
O O12 0.116820 0.399919 0.500000
O O13 0.000000 0.500000 0.596970
O O14 0.005454 0.116874 0.000000
O O15 0.000000 0.000000 0.094146
#
# Coordination Sequence:
#
# PCOD9428412 Si02
#       6
#     8   8   8   8   8   8
#     4  11  19  35  64  88 118 162 207 251 297 369
#     4  12  21  40  58  92 120 162 211 250 306 377
#     4  11  23  36  64  88 118 168 208 247 308 375
#     4  11  18  37  61  89 119 161 216 251 300 383
#     4  10  21  41  64  91 122 156 205 261 309 360
#     4  11  22  38  62  92 122 157 203 266 314 352
#
# _framework density 18.860762999999999
#
# number of rings (size 3 to 8) (size 9 to 14) (size 15 to 20)
#    0.000    1.000    6.667    2.000    2.333    0.667 
#    0.000    5.833    0.000    0.000    0.000    0.000 
#    0.000    0.000    0.000    0.000    0.000    0.000 
#
# Total GULP energy -267246.281169 kJ/mol
# GULP energy per Si atom -5567.630858 kJ/mol
# Density = 1.881783 g / cm^3
# Si number density = 18.860763 Si / 1000 Ang^3
#
#
#
# Elastic Constant Matrix: (Units=GPa)
#
#
# Indices 1 2 3 4 5 6 
#
# 1 132.9333 30.7429 30.9409 0.0000 0.0000 0.0000
# 2 30.7429 102.4169 30.4390 0.0000 0.0000 0.0000
# 3 30.9409 30.4390 99.9469 0.0000 0.0000 0.0000
# 4 0.0000 0.0000 0.0000 -9.7449 0.0000 0.0000
# 5 0.0000 0.0000 0.0000 0.0000 20.4921 0.0000
# 6 0.0000 0.0000 0.0000 0.0000 0.0000 40.6149
#
#
#
# Elastic Compliance Matrix: (Units=1/GPa)
#
#
# Indices 1 2 3 4 5 6 
#
# 1 0.008441 -0.001932 -0.002025 0.000000 0.000000 0.000000
# 2 -0.001932 0.011178 -0.002806 0.000000 0.000000 0.000000
# 3 -0.002025 -0.002806 0.011487 0.000000 0.000000 0.000000
# 4 0.000000 0.000000 0.000000 -0.102618 0.000000 0.000000
# 5 0.000000 0.000000 0.000000 0.000000 0.048799 0.000000
# 6 0.000000 0.000000 0.000000 0.000000 0.000000 0.024621
#
#
# Mechanical properties :
#
#
# Convention : Reuss Voigt Hill
#
# Bulk Modulus (GPa) = 56.88348 57.72697 57.30523
# Shear Modulus (GPa) = 234.81772 26.48406 130.65089
#
# Velocity S-wave (km/s) = 11.17009 3.75132 8.33197
# Velocity P-wave (km/s) = 14.02093 7.03111 11.09105
#
# Compressibility (1/GPa) = 0.01757980
#
# Stress axis : x y z
#
# Youngs Moduli (GPa) = 118.47500 89.46191 87.05718
#
# Poissons Ratio (x) = 0.17283 0.17626
# Poissons Ratio (y) = 0.22888 0.24430
# Poissons Ratio (z) = 0.23987 0.25105
#
# Static dielectric constant tensor:
#      x y z
#    x 1.744960 0.000000 0.000000 
#    y 0.000000 1.678440 0.000000 
#    z 0.000000 0.000000 1.681640 
# 
# From -- ./inp_files/20901.got.cif
#   From: 2010.05.17/outbox.cif.g08.bks.cpg/sg55_11_cif.got.tgz:20901.got - 2010.06.03 13:27:54.
