data_PCOD9428119
_publ_section_title
;
Structure prediction by ZEFSAII (Michael W. Deem and Ramdas Pophale) SiO2 
 PCOD9428119
Probable space group: P B A M
;
_chemical_formula_sum "Si O2"
_cell_formula_units_Z 64
_cell_length_a 21.131227
_cell_length_b 18.293200
_cell_length_c 8.692529
_cell_angle_alpha 90.000000
_cell_angle_beta 90.000000
_cell_angle_gamma 90.000000
_cell_volume 3360.164554
_symmetry_space_group_name_H-M "P B A M"
_symmetry_group_IT_number 55
_symmetry_cell_setting 'orthorhombic'
loop_
_space_group_symop_operation_xyz
x,y,z
-x,-y,z
1/2+x,1/2-y,-z
1/2-x,1/2+y,-z
-x,-y,-z
x,y,-z
1/2-x,1/2+y,z
1/2+x,1/2-y,z
loop_
_atom_site_type_symbol
_atom_site_label
_atom_site_fract_x
_atom_site_fract_y
_atom_site_fract_z
Si Si1 0.374070 0.671139 0.685857
Si Si2 0.499851 0.085573 0.315476
Si Si3 0.249216 0.920223 0.185869
Si Si4 0.624359 0.836221 0.184844
Si Si5 0.499337 0.415461 0.685848
Si Si6 0.623005 0.666395 0.814342
Si Si7 0.252504 0.083431 0.315467
Si Si8 0.623158 0.165575 0.184595
O O1 0.374804 0.677505 0.500000
O O2 0.436460 0.625961 0.732610
O O3 0.310875 0.627236 0.730103
O O4 0.374742 0.751430 0.757255
O O5 0.498210 0.090785 0.500000
O O6 0.438287 0.124729 0.247250
O O7 0.562649 0.124603 0.253710
O O8 0.500000 0.000000 0.272518
O O9 0.186852 0.875434 0.233678
O O10 0.312596 0.876531 0.230054
O O11 0.249129 0.000708 0.256138
O O12 0.248719 0.926033 0.000000
O O13 0.624783 0.751193 0.232986
O O14 0.686152 0.876862 0.247605
O O15 0.624562 0.839265 0.000000
O O16 0.500000 0.500000 0.736180
O O17 0.496678 0.414791 0.500000
O O18 0.438362 0.373789 0.749081
O O19 0.620231 0.664627 0.000000
O O20 0.256423 0.083278 0.500000
O O21 0.618794 0.164913 0.000000
#
# Coordination Sequence:
#
# PCOD9428119 Si02
#       8
#     8   8   8   8   8   8   8   8
#     4  10  22  39  59  85 118 155 195 240 291 348
#     4  11  24  41  61  87 119 154 194 241 291 346
#     4  10  22  40  60  84 117 154 191 236 291 347
#     4  11  23  40  62  88 119 154 194 240 291 349
#     4  10  21  38  59  84 116 153 192 237 289 343
#     4  10  22  39  59  86 117 151 193 238 286 343
#     4  11  23  39  61  89 118 152 196 242 291 346
#     4  11  23  39  61  87 116 154 197 241 292 348
#
# _framework density 19.046686000000001
#
# number of rings (size 3 to 8) (size 9 to 14) (size 15 to 20)
#    0.000    1.500    0.000    4.500    0.000   11.250 
#    0.000    0.000    0.000    0.000    0.000    0.000 
#    0.000    0.000    0.000    0.000    0.000    0.000 
#
# Total GULP energy -357960.508736 kJ/mol
# GULP energy per Si atom -5593.132949 kJ/mol
# Density = 1.900334 g / cm^3
# Si number density = 19.046686 Si / 1000 Ang^3
#
#
#
# Elastic Constant Matrix: (Units=GPa)
#
#
# Indices 1 2 3 4 5 6 
#
# 1 232.8050 141.0006 54.7581 0.0000 0.0000 0.0000
# 2 141.0006 234.0704 57.6554 0.0000 0.0000 0.0000
# 3 54.7581 57.6554 30.6053 0.0000 0.0000 0.0000
# 4 0.0000 0.0000 0.0000 -39.5028 0.0000 0.0000
# 5 0.0000 0.0000 0.0000 0.0000 65.0285 0.0000
# 6 0.0000 0.0000 0.0000 0.0000 0.0000 45.9127
#
#
#
# Elastic Compliance Matrix: (Units=1/GPa)
#
#
# Indices 1 2 3 4 5 6 
#
# 1 0.008103 -0.002444 -0.009892 0.000000 0.000000 0.000000
# 2 -0.002444 0.008708 -0.012032 0.000000 0.000000 0.000000
# 3 -0.009892 -0.012032 0.073039 0.000000 0.000000 0.000000
# 4 0.000000 0.000000 0.000000 -0.025315 0.000000 0.000000
# 5 0.000000 0.000000 0.000000 0.000000 0.015378 0.000000
# 6 0.000000 0.000000 0.000000 0.000000 0.000000 0.021780
#
#
# Mechanical properties :
#
#
# Convention : Reuss Voigt Hill
#
# Bulk Modulus (GPa) = 24.32314 111.58988 67.95651
# Shear Modulus (GPa) = 30.46288 30.55879 30.51083
#
# Velocity S-wave (km/s) = 4.00356 4.00986 4.00671
# Velocity P-wave (km/s) = 5.84546 8.95284 7.56051
#
# Compressibility (1/GPa) = 0.04111312
#
# Stress axis : x y z
#
# Youngs Moduli (GPa) = 123.41713 114.83458 13.69135
#
# Poissons Ratio (x) = 0.28068 0.13544
# Poissons Ratio (y) = 0.30166 0.16473
# Poissons Ratio (z) = 1.22089 1.38165
#
# Static dielectric constant tensor:
#      x y z
#    x 1.623950 0.000000 0.000000 
#    y 0.000000 1.624230 0.000000 
#    z 0.000000 0.000000 1.646400 
# 
# From -- ./inp_files/9057.got.cif
#   From: 2010.05.17/outbox.cif.g08.bks.cpg/sg55_5_cif.got.tgz:9057.got - 2010.06.03 13:27:54.
