data_PCOD9428972
_publ_section_title
;
Structure prediction by ZEFSAII (Michael W. Deem and Ramdas Pophale) SiO2 
 PCOD9428972
Probable space group: P B A M
;
_chemical_formula_sum "Si O2"
_cell_formula_units_Z 64
_cell_length_a 19.314686
_cell_length_b 15.425918
_cell_length_c 13.790191
_cell_angle_alpha 90.000000
_cell_angle_beta 90.000000
_cell_angle_gamma 90.000000
_cell_volume 4108.742762
_symmetry_space_group_name_H-M "P B A M"
_symmetry_group_IT_number 55
_symmetry_cell_setting 'orthorhombic'
loop_
_space_group_symop_operation_xyz
x,y,z
-x,-y,z
1/2+x,1/2-y,-z
1/2-x,1/2+y,-z
-x,-y,-z
x,y,-z
1/2-x,1/2+y,z
1/2+x,1/2-y,z
loop_
_atom_site_type_symbol
_atom_site_label
_atom_site_fract_x
_atom_site_fract_y
_atom_site_fract_z
Si Si1 0.894710 0.562004 0.387419
Si Si2 0.424370 0.727460 0.882813
Si Si3 0.423876 0.528977 0.117304
Si Si4 0.076088 0.529560 0.115550
Si Si5 0.824767 0.129340 0.117605
Si Si6 0.923886 0.279444 0.805486
Si Si7 0.051031 0.631059 0.387139
Si Si8 0.829392 0.621204 0.801285
O O1 0.875598 0.572262 0.500000
O O2 0.907800 0.459344 0.369448
O O3 0.841365 0.603460 0.312498
O O4 0.969963 0.606842 0.373281
O O5 0.409018 0.627950 0.855208
O O6 0.501329 0.750826 0.846569
O O7 0.370771 0.793772 0.835554
O O8 0.422443 0.736075 0.000000
O O9 0.500000 0.500000 0.152383
O O10 0.366731 0.458198 0.143795
O O11 0.427025 0.528550 0.000000
O O12 0.091414 0.625768 0.151155
O O13 0.131911 0.460010 0.149008
O O14 0.000000 0.500000 0.152472
O O15 0.073269 0.529913 0.000000
O O16 0.868394 0.209756 0.159304
O O17 0.748842 0.126884 0.163140
O O18 0.821094 0.135539 0.000000
O O19 0.928208 0.296525 0.690287
O O20 0.060850 0.654545 0.500000
#
# Coordination Sequence:
#
# PCOD9428972 Si02
#       8
#     8   8   8   8   8   8   8   8
#     4   9  17  33  56  81 109 141 177 222 275 333
#     4  11  20  32  54  78 107 144 189 226 261 326
#     4   9  18  35  55  72  96 145 198 227 248 297
#     4  11  20  30  50  79 112 142 172 212 273 343
#     4  11  24  38  52  77 115 150 188 230 267 319
#     4  12  20  33  55  83 108 143 183 226 273 324
#     4   9  17  32  56  85 108 133 178 230 272 326
#     4  12  22  35  51  82 115 144 174 220 288 332
#
# _framework density 15.576541000000001
#
# number of rings (size 3 to 8) (size 9 to 14) (size 15 to 20)
#    0.000    1.500    5.000    3.000    0.000    1.000 
#    0.000    3.125    0.000    0.000    0.000    3.500 
#    0.000    0.000    0.000    0.000    0.000    0.000 
#
# Total GULP energy -357149.929896 kJ/mol
# GULP energy per Si atom -5580.467655 kJ/mol
# Density = 1.554109 g / cm^3
# Si number density = 15.576541 Si / 1000 Ang^3
#
#
#
# Elastic Constant Matrix: (Units=GPa)
#
#
# Indices 1 2 3 4 5 6 
#
# 1 132.2926 74.8394 48.7341 0.0000 0.0000 0.0000
# 2 74.8394 140.3639 48.3330 0.0000 0.0000 0.0000
# 3 48.7341 48.3330 107.8324 0.0000 0.0000 0.0000
# 4 0.0000 0.0000 0.0000 17.2300 0.0000 0.0000
# 5 0.0000 0.0000 0.0000 0.0000 20.8356 0.0000
# 6 0.0000 0.0000 0.0000 0.0000 0.0000 24.0229
#
#
#
# Elastic Compliance Matrix: (Units=1/GPa)
#
#
# Indices 1 2 3 4 5 6 
#
# 1 0.011546 -0.005155 -0.002908 0.000000 0.000000 0.000000
# 2 -0.005155 0.010726 -0.002478 0.000000 0.000000 0.000000
# 3 -0.002908 -0.002478 0.011698 0.000000 0.000000 0.000000
# 4 0.000000 0.000000 0.000000 0.058038 0.000000 0.000000
# 5 0.000000 0.000000 0.000000 0.000000 0.047995 0.000000
# 6 0.000000 0.000000 0.000000 0.000000 0.000000 0.041627
#
#
# Mechanical properties :
#
#
# Convention : Reuss Voigt Hill
#
# Bulk Modulus (GPa) = 77.58179 80.47799 79.02989
# Shear Modulus (GPa) = 24.15351 26.32319 25.23835
#
# Velocity S-wave (km/s) = 3.94208 4.11533 4.02964
# Velocity P-wave (km/s) = 8.40446 8.62320 8.51453
#
# Compressibility (1/GPa) = 0.01288962
#
# Stress axis : x y z
#
# Youngs Moduli (GPa) = 86.60683 93.22974 85.48164
#
# Poissons Ratio (x) = 0.48061 0.24855
# Poissons Ratio (y) = 0.44647 0.21182
# Poissons Ratio (z) = 0.25183 0.23102
#
# Static dielectric constant tensor:
#      x y z
#    x 1.500740 0.000000 0.000000 
#    y 0.000000 1.513350 0.000000 
#    z 0.000000 0.000000 1.533440 
# 
# From -- ./inp_files/19118.got.cif
#   From: 2010.05.17/outbox.cif.g08.bks.cpg/sg55_10_cif.got.tgz:19118.got - 2010.06.03 13:27:54.
