data_PCOD9428874
_publ_section_title
;
Structure prediction by ZEFSAII (Michael W. Deem and Ramdas Pophale) SiO2 
 PCOD9428874
Probable space group: P B A M
;
_chemical_formula_sum "Si O2"
_cell_formula_units_Z 20
_cell_length_a 16.278206
_cell_length_b 5.401092
_cell_length_c 10.095877
_cell_angle_alpha 90.000000
_cell_angle_beta 90.000000
_cell_angle_gamma 90.000000
_cell_volume 887.630396
_symmetry_space_group_name_H-M "P B A M"
_symmetry_group_IT_number 55
_symmetry_cell_setting 'orthorhombic'
loop_
_space_group_symop_operation_xyz
x,y,z
-x,-y,z
1/2+x,1/2-y,-z
1/2-x,1/2+y,-z
-x,-y,-z
x,y,-z
1/2-x,1/2+y,z
1/2+x,1/2-y,z
loop_
_atom_site_type_symbol
_atom_site_label
_atom_site_fract_x
_atom_site_fract_y
_atom_site_fract_z
Si Si1 0.198837 0.557895 0.500000
Si Si2 0.804011 0.732023 0.000000
Si Si3 0.946249 0.239591 0.000000
Si Si4 0.402061 0.004521 0.232102
O O1 0.235918 0.833656 0.500000
O O2 0.145968 0.523432 0.632652
O O3 0.860242 0.698492 0.866629
O O4 0.745311 0.488313 0.000000
O O5 0.896111 0.258847 0.134870
O O6 0.000000 0.500000 0.000000
O O7 0.000000 0.000000 0.000000
O O8 0.500000 0.000000 0.262932
#
# Coordination Sequence:
#
# PCOD9428874 Si02
#       4
#     4   4   4   8
#     4  12  27  46  65  94 134 176 218 270 333 390
#     4  11  23  41  65  96 132 170 210 267 333 391
#     4   9  20  37  62  94 124 154 203 263 315 367
#     4  10  23  43  68  96 129 172 222 270 320 389
#
# _framework density 22.531901999999999
#
# number of rings (size 3 to 8) (size 9 to 14) (size 15 to 20)
#    0.000    1.600    0.000    4.800    0.000   19.200 
#    0.000    3.000    0.000    0.000    0.000    0.000 
#    0.000    0.000    0.000    0.000    0.000    0.000 
#
# Total GULP energy -111524.702730 kJ/mol
# GULP energy per Si atom -5576.235136 kJ/mol
# Density = 2.248062 g / cm^3
# Si number density = 22.531902 Si / 1000 Ang^3
#
#
#
# Elastic Constant Matrix: (Units=GPa)
#
#
# Indices 1 2 3 4 5 6 
#
# 1 108.9823 34.6220 48.2502 0.0000 0.0000 0.0000
# 2 34.6220 132.0447 7.5722 0.0000 0.0000 0.0000
# 3 48.2502 7.5722 200.0253 0.0000 0.0000 0.0000
# 4 0.0000 0.0000 0.0000 4.4871 0.0000 0.0000
# 5 0.0000 0.0000 0.0000 0.0000 42.7484 0.0000
# 6 0.0000 0.0000 0.0000 0.0000 0.0000 59.9393
#
#
#
# Elastic Compliance Matrix: (Units=1/GPa)
#
#
# Indices 1 2 3 4 5 6 
#
# 1 0.011213 -0.002791 -0.002599 0.000000 0.000000 0.000000
# 2 -0.002791 0.008284 0.000360 0.000000 0.000000 0.000000
# 3 -0.002599 0.000360 0.005613 0.000000 0.000000 0.000000
# 4 0.000000 0.000000 0.000000 0.222862 0.000000 0.000000
# 5 0.000000 0.000000 0.000000 0.000000 0.023393 0.000000
# 6 0.000000 0.000000 0.000000 0.000000 0.000000 0.016684
#
#
# Mechanical properties :
#
#
# Convention : Reuss Voigt Hill
#
# Bulk Modulus (GPa) = 66.44904 69.10458 67.77681
# Shear Modulus (GPa) = 16.49481 44.80881 30.65181
#
# Velocity S-wave (km/s) = 2.70860 4.46430 3.69233
# Velocity P-wave (km/s) = 6.27193 7.57031 6.95150
#
# Compressibility (1/GPa) = 0.01504913
#
# Stress axis : x y z
#
# Youngs Moduli (GPa) = 89.18039 120.70906 178.16628
#
# Poissons Ratio (x) = 0.33690 0.46309
# Poissons Ratio (y) = 0.24891 -0.06408
# Poissons Ratio (z) = 0.23180 -0.04341
#
# Static dielectric constant tensor:
#      x y z
#    x 2.039290 0.000000 0.000000 
#    y 0.000000 1.891620 0.000000 
#    z 0.000000 0.000000 1.843280 
# 
# From -- ./inp_files/7006.got.cif
#   From: 2010.05.17/outbox.cif.g08.bks.cpg/sg55_4_cif.got.tgz:7006.got - 2010.06.03 13:27:54.
