data_PCOD9428136
_publ_section_title
;
Structure prediction by ZEFSAII (Michael W. Deem and Ramdas Pophale) SiO2 
 PCOD9428136
Probable space group: P B A M
;
_chemical_formula_sum "Si O2"
_cell_formula_units_Z 56
_cell_length_a 9.530401
_cell_length_b 19.688376
_cell_length_c 14.286821
_cell_angle_alpha 90.000000
_cell_angle_beta 90.000000
_cell_angle_gamma 90.000000
_cell_volume 2680.752209
_symmetry_space_group_name_H-M "P B A M"
_symmetry_group_IT_number 55
_symmetry_cell_setting 'orthorhombic'
loop_
_space_group_symop_operation_xyz
x,y,z
-x,-y,z
1/2+x,1/2-y,-z
1/2-x,1/2+y,-z
-x,-y,-z
x,y,-z
1/2-x,1/2+y,z
1/2+x,1/2-y,z
loop_
_atom_site_type_symbol
_atom_site_label
_atom_site_fract_x
_atom_site_fract_y
_atom_site_fract_z
Si Si1 0.643704 0.470842 0.270235
Si Si2 0.795524 0.168037 0.109763
Si Si3 0.319173 0.276862 0.611816
Si Si4 0.380777 0.663015 0.611730
Si Si5 0.302972 0.904904 0.287229
Si Si6 0.009874 0.717376 0.892063
Si Si7 0.569109 0.932167 0.817667
O O1 0.500000 0.500000 0.227740
O O2 0.606986 0.407007 0.334097
O O3 0.716299 0.532297 0.327767
O O4 0.769690 0.448327 0.202509
O O5 0.759742 0.108170 0.182071
O O6 0.657470 0.215669 0.115465
O O7 0.920830 0.214882 0.148986
O O8 0.811798 0.147089 0.000000
O O9 0.299659 0.279977 0.500000
O O10 0.482089 0.290965 0.630367
O O11 0.256581 0.204909 0.642992
O O12 0.228180 0.336640 0.657696
O O13 0.374425 0.651230 0.500000
O O14 0.465824 0.922848 0.272602
O O15 0.058141 0.642207 0.862790
O O16 0.050266 0.723649 0.000000
O O17 0.500000 0.000000 0.865090
#
# Coordination Sequence:
#
# PCOD9428136 Si02
#       7
#     8   8   8   8   8   8   8
#     4  11  22  39  58  86 115 154 202 241 294 353
#     4   9  19  34  55  85 119 153 198 246 294 350
#     4  10  22  39  60  90 119 153 196 242 292 351
#     4  10  23  40  61  87 120 155 195 245 294 354
#     4  10  21  38  60  86 119 160 192 244 297 352
#     4   9  18  34  56  84 114 151 194 242 294 353
#     4   9  21  37  54  80 117 153 196 240 290 357
#
# _framework density 20.889659000000002
#
# number of rings (size 3 to 8) (size 9 to 14) (size 15 to 20)
#    0.000    2.286    1.429    0.000    4.000    3.429 
#    0.000    2.143    0.000    3.429    0.000    0.000 
#    0.000    0.000    0.000    0.000    0.000    0.000 
#
# Total GULP energy -312195.959606 kJ/mol
# GULP energy per Si atom -5574.927850 kJ/mol
# Density = 2.084211 g / cm^3
# Si number density = 20.889659 Si / 1000 Ang^3
#
#
#
# Elastic Constant Matrix: (Units=GPa)
#
#
# Indices 1 2 3 4 5 6 
#
# 1 84.4031 17.6008 17.5626 0.0000 0.0000 0.0000
# 2 17.6008 58.2383 14.2085 0.0000 0.0000 0.0000
# 3 17.5626 14.2085 42.0139 0.0000 0.0000 0.0000
# 4 0.0000 0.0000 0.0000 2.5924 0.0000 0.0000
# 5 0.0000 0.0000 0.0000 0.0000 15.6326 0.0000
# 6 0.0000 0.0000 0.0000 0.0000 0.0000 46.3281
#
#
#
# Elastic Compliance Matrix: (Units=1/GPa)
#
#
# Indices 1 2 3 4 5 6 
#
# 1 0.013420 -0.002929 -0.004619 0.000000 0.000000 0.000000
# 2 -0.002929 0.019354 -0.005321 0.000000 0.000000 0.000000
# 3 -0.004619 -0.005321 0.027532 0.000000 0.000000 0.000000
# 4 0.000000 0.000000 0.000000 0.385748 0.000000 0.000000
# 5 0.000000 0.000000 0.000000 0.000000 0.063969 0.000000
# 6 0.000000 0.000000 0.000000 0.000000 0.000000 0.021585
#
#
# Mechanical properties :
#
#
# Convention : Reuss Voigt Hill
#
# Bulk Modulus (GPa) = 28.92854 31.48879 30.20866
# Shear Modulus (GPa) = 8.78937 21.92953 15.35945
#
# Velocity S-wave (km/s) = 2.05345 3.24354 2.71452
# Velocity P-wave (km/s) = 4.41594 5.39759 4.93126
#
# Compressibility (1/GPa) = 0.03456794
#
# Stress axis : x y z
#
# Youngs Moduli (GPa) = 74.51664 51.66859 36.32124
#
# Poissons Ratio (x) = 0.15132 0.16778
# Poissons Ratio (y) = 0.21824 0.19327
# Poissons Ratio (z) = 0.34421 0.27493
#
# Static dielectric constant tensor:
#      x y z
#    x 1.795310 0.000000 0.000000 
#    y 0.000000 1.764650 0.000000 
#    z 0.000000 0.000000 1.759580 
# 
# From -- ./inp_files/17635.got.cif
#   From: 2010.05.17/outbox.cif.g08.bks.cpg/sg55_9_cif.got.tgz:17635.got - 2010.06.03 13:27:54.
