data_PCOD9428343
_publ_section_title
;
Structure prediction by ZEFSAII (Michael W. Deem and Ramdas Pophale) SiO2 
 PCOD9428343
Probable space group: P B A M
;
_chemical_formula_sum "Si O2"
_cell_formula_units_Z 64
_cell_length_a 15.218249
_cell_length_b 11.064141
_cell_length_c 16.812524
_cell_angle_alpha 90.000000
_cell_angle_beta 90.000000
_cell_angle_gamma 90.000000
_cell_volume 2830.839877
_symmetry_space_group_name_H-M "P B A M"
_symmetry_group_IT_number 55
_symmetry_cell_setting 'orthorhombic'
loop_
_space_group_symop_operation_xyz
x,y,z
-x,-y,z
1/2+x,1/2-y,-z
1/2-x,1/2+y,-z
-x,-y,-z
x,y,-z
1/2-x,1/2+y,z
1/2+x,1/2-y,z
loop_
_atom_site_type_symbol
_atom_site_label
_atom_site_fract_x
_atom_site_fract_y
_atom_site_fract_z
Si Si1 0.082870 0.627936 0.406310
Si Si2 0.805318 0.107590 0.913076
Si Si3 0.603234 0.534979 0.412215
Si Si4 0.410460 0.866384 0.675080
Si Si5 0.719634 0.293071 0.587653
Si Si6 0.390466 0.905024 0.861406
Si Si7 0.568800 0.812703 0.872309
Si Si8 0.416294 0.410377 0.234434
O O1 0.064749 0.613579 0.500000
O O2 0.093138 0.498755 0.363780
O O3 0.177983 0.687225 0.398730
O O4 0.998074 0.689612 0.365709
O O5 0.704231 0.131644 0.892779
O O6 0.861190 0.231304 0.918131
O O7 0.848381 0.045321 0.834701
O O8 0.812404 0.046420 0.000000
O O9 0.500000 0.500000 0.412207
O O10 0.616217 0.596059 0.500000
O O11 0.667505 0.419537 0.412754
O O12 0.618509 0.588885 0.324343
O O13 0.326258 0.790802 0.650884
O O14 0.408958 0.878216 0.769036
O O15 0.705532 0.237871 0.500000
O O16 0.470380 0.834993 0.904125
O O17 0.397172 0.050714 0.865445
O O18 0.562621 0.726592 0.793853
O O19 0.500000 0.500000 0.230770
#
# Coordination Sequence:
#
# PCOD9428343 Si02
#       8
#     8   8   8   8   8   8   8   8
#     4  10  21  40  62  88 130 178 232 292 349 413
#     4  10  25  46  73 108 143 187 234 292 364 437
#     4   9  19  38  64  99 142 188 238 293 357 417
#     4  11  23  39  65  93 130 178 233 284 352 425
#     4  10  22  39  62  93 132 181 239 295 355 420
#     4  11  24  44  72 104 141 191 226 296 360 438
#     4   9  23  45  68 103 147 184 240 288 360 437
#     4   9  21  42  72 105 147 184 238 299 354 421
#
# _framework density 22.608132000000001
#
# number of rings (size 3 to 8) (size 9 to 14) (size 15 to 20)
#    0.750    1.375    0.000    3.000    5.250    4.250 
#    2.250    1.250    0.000    0.750    0.000    0.000 
#    0.000    0.000    0.000    0.000    0.000    0.000 
#
# Total GULP energy -357069.686740 kJ/mol
# GULP energy per Si atom -5579.213855 kJ/mol
# Density = 2.255667 g / cm^3
# Si number density = 22.608132 Si / 1000 Ang^3
#
#
#
# Elastic Constant Matrix: (Units=GPa)
#
#
# Indices 1 2 3 4 5 6 
#
# 1 149.7753 27.2796 59.2299 0.0000 0.0000 0.0000
# 2 27.2796 45.2912 28.1872 0.0000 0.0000 0.0000
# 3 59.2299 28.1872 171.0223 0.0000 0.0000 0.0000
# 4 0.0000 0.0000 0.0000 22.6009 0.0000 0.0000
# 5 0.0000 0.0000 0.0000 0.0000 26.4985 0.0000
# 6 0.0000 0.0000 0.0000 0.0000 0.0000 35.9716
#
#
#
# Elastic Compliance Matrix: (Units=1/GPa)
#
#
# Indices 1 2 3 4 5 6 
#
# 1 0.008216 -0.003541 -0.002262 0.000000 0.000000 0.000000
# 2 -0.003541 0.026129 -0.003080 0.000000 0.000000 0.000000
# 3 -0.002262 -0.003080 0.007138 0.000000 0.000000 0.000000
# 4 0.000000 0.000000 0.000000 0.044246 0.000000 0.000000
# 5 0.000000 0.000000 0.000000 0.000000 0.037738 0.000000
# 6 0.000000 0.000000 0.000000 0.000000 0.000000 0.027800
#
#
# Mechanical properties :
#
#
# Convention : Reuss Voigt Hill
#
# Bulk Modulus (GPa) = 42.16318 66.16469 54.16393
# Shear Modulus (GPa) = 28.25834 33.77368 31.01601
#
# Velocity S-wave (km/s) = 3.53926 3.86926 3.70793
# Velocity P-wave (km/s) = 5.94910 7.02075 6.50703
#
# Compressibility (1/GPa) = 0.02371738
#
# Stress axis : x y z
#
# Youngs Moduli (GPa) = 121.71248 38.27150 140.09157
#
# Poissons Ratio (x) = 0.13552 0.31687
# Poissons Ratio (y) = 0.43099 0.43150
# Poissons Ratio (z) = 0.27529 0.11788
#
# Static dielectric constant tensor:
#      x y z
#    x 1.838020 0.000000 0.000000 
#    y 0.000000 1.876720 0.000000 
#    z 0.000000 0.000000 1.834640 
# 
# From -- ./inp_files/21657.got.cif
#   From: 2010.05.17/outbox.cif.g08.bks.cpg/sg55_11_cif.got.tgz:21657.got - 2010.06.03 13:27:54.
