data_PCOD9428826
_publ_section_title
;
Structure prediction by ZEFSAII (Michael W. Deem and Ramdas Pophale) SiO2 
 PCOD9428826
Probable space group: P B A M
;
_chemical_formula_sum "Si O2"
_cell_formula_units_Z 48
_cell_length_a 18.981594
_cell_length_b 15.172988
_cell_length_c 8.871803
_cell_angle_alpha 90.000000
_cell_angle_beta 90.000000
_cell_angle_gamma 90.000000
_cell_volume 2555.145785
_symmetry_space_group_name_H-M "P B A M"
_symmetry_group_IT_number 55
_symmetry_cell_setting 'orthorhombic'
loop_
_space_group_symop_operation_xyz
x,y,z
-x,-y,z
1/2+x,1/2-y,-z
1/2-x,1/2+y,-z
-x,-y,-z
x,y,-z
1/2-x,1/2+y,z
1/2+x,1/2-y,z
loop_
_atom_site_type_symbol
_atom_site_label
_atom_site_fract_x
_atom_site_fract_y
_atom_site_fract_z
Si Si1 0.714143 0.001023 0.180182
Si Si2 0.017030 0.899309 0.681227
Si Si3 0.678884 0.641540 0.679682
Si Si4 0.933105 0.560491 0.680854
Si Si5 0.417154 0.748534 0.180513
Si Si6 0.256262 0.698931 0.180328
O O1 0.741434 0.902903 0.215042
O O2 0.769597 0.071764 0.241779
O O3 0.638539 0.019337 0.253704
O O4 0.708156 0.010516 0.000000
O O5 0.008207 0.891381 0.500000
O O6 0.097970 0.877970 0.718294
O O7 0.965787 0.830356 0.760887
O O8 0.000000 0.000000 0.723495
O O9 0.686873 0.634346 0.500000
O O10 0.702573 0.737474 0.734759
O O11 0.928637 0.564925 0.500000
O O12 0.939238 0.658939 0.746281
O O13 0.000000 0.500000 0.721557
O O14 0.335852 0.727124 0.220429
O O15 0.421589 0.755252 0.000000
O O16 0.248297 0.710874 0.000000
#
# Coordination Sequence:
#
# PCOD9428826 Si02
#       6
#     8   8   8   8   8   8
#     4  11  23  41  65  92 125 162 207 259 313 373
#     4  10  23  42  63  91 128 166 207 257 311 371
#     4  11  23  39  63  93 123 163 208 254 312 370
#     4  11  25  43  63  90 126 167 212 262 314 374
#     4  11  23  41  66  94 126 167 210 256 315 374
#     4  10  23  41  62  91 124 161 202 256 315 370
#
# _framework density 18.785620000000002
#
# number of rings (size 3 to 8) (size 9 to 14) (size 15 to 20)
#    0.000    1.333    1.667    3.000    2.333    5.000 
#    0.000    0.000    0.000    0.000    0.000    0.000 
#    0.000    0.000    0.000    0.000    0.000    0.000 
#
# Total GULP energy -268467.289747 kJ/mol
# GULP energy per Si atom -5593.068536 kJ/mol
# Density = 1.874286 g / cm^3
# Si number density = 18.785620 Si / 1000 Ang^3
#
#
#
# Elastic Constant Matrix: (Units=GPa)
#
#
# Indices 1 2 3 4 5 6 
#
# 1 87.9719 35.6723 31.9908 0.0000 0.0000 0.0000
# 2 35.6723 113.6518 35.8682 0.0000 0.0000 0.0000
# 3 31.9908 35.8682 34.3106 0.0000 0.0000 0.0000
# 4 0.0000 0.0000 0.0000 41.6052 0.0000 0.0000
# 5 0.0000 0.0000 0.0000 0.0000 23.7207 0.0000
# 6 0.0000 0.0000 0.0000 0.0000 0.0000 39.3695
#
#
#
# Elastic Compliance Matrix: (Units=1/GPa)
#
#
# Indices 1 2 3 4 5 6 
#
# 1 0.017218 -0.000504 -0.015527 0.000000 0.000000 0.000000
# 2 -0.000504 0.013146 -0.013273 0.000000 0.000000 0.000000
# 3 -0.015527 -0.013273 0.057498 0.000000 0.000000 0.000000
# 4 0.000000 0.000000 0.000000 0.024035 0.000000 0.000000
# 5 0.000000 0.000000 0.000000 0.000000 0.042157 0.000000
# 6 0.000000 0.000000 0.000000 0.000000 0.000000 0.025400
#
#
# Mechanical properties :
#
#
# Convention : Reuss Voigt Hill
#
# Bulk Modulus (GPa) = 34.18286 49.22189 41.70238
# Shear Modulus (GPa) = 20.17643 29.76594 24.97119
#
# Velocity S-wave (km/s) = 3.28080 3.98490 3.64987
# Velocity P-wave (km/s) = 5.70853 6.88705 6.32530
#
# Compressibility (1/GPa) = 0.02925442
#
# Stress axis : x y z
#
# Youngs Moduli (GPa) = 58.07879 76.06980 17.39191
#
# Poissons Ratio (x) = 0.03834 0.27004
# Poissons Ratio (y) = 0.02927 0.23084
# Poissons Ratio (z) = 0.90179 1.00965
#
# Static dielectric constant tensor:
#      x y z
#    x 1.617590 0.000000 0.000000 
#    y 0.000000 1.614330 0.000000 
#    z 0.000000 0.000000 1.630240 
# 
# From -- ./inp_files/7409.got.cif
#   From: 2010.05.17/outbox.cif.g08.bks.cpg/sg55_4_cif.got.tgz:7409.got - 2010.06.03 13:27:54.
