data_PCOD9428239
_publ_section_title
;
Structure prediction by ZEFSAII (Michael W. Deem and Ramdas Pophale) SiO2 
 PCOD9428239
Probable space group: P B A M
;
_chemical_formula_sum "Si O2"
_cell_formula_units_Z 48
_cell_length_a 16.827934
_cell_length_b 8.872981
_cell_length_c 14.686821
_cell_angle_alpha 90.000000
_cell_angle_beta 90.000000
_cell_angle_gamma 90.000000
_cell_volume 2192.947090
_symmetry_space_group_name_H-M "P B A M"
_symmetry_group_IT_number 55
_symmetry_cell_setting 'orthorhombic'
loop_
_space_group_symop_operation_xyz
x,y,z
-x,-y,z
1/2+x,1/2-y,-z
1/2-x,1/2+y,-z
-x,-y,-z
x,y,-z
1/2-x,1/2+y,z
1/2+x,1/2-y,z
loop_
_atom_site_type_symbol
_atom_site_label
_atom_site_fract_x
_atom_site_fract_y
_atom_site_fract_z
Si Si1 0.322526 0.295678 0.104507
Si Si2 0.833081 0.700524 0.773467
Si Si3 0.079580 0.597034 0.771558
Si Si4 0.575721 0.412167 0.895128
Si Si5 0.304993 0.599428 0.397959
Si Si6 0.637862 0.742195 0.602085
O O1 0.250337 0.277569 0.174625
O O2 0.394927 0.193075 0.140441
O O3 0.352379 0.467871 0.107143
O O4 0.300724 0.258567 0.000000
O O5 0.850722 0.526368 0.759229
O O6 0.899676 0.767651 0.839893
O O7 0.838212 0.795225 0.681152
O O8 0.081170 0.706143 0.683618
O O9 0.000000 0.500000 0.777671
O O10 0.500000 0.500000 0.856524
O O11 0.558394 0.374290 0.000000
O O12 0.335571 0.634670 0.500000
O O13 0.211843 0.641739 0.400067
O O14 0.325149 0.424222 0.380199
O O15 0.602326 0.740479 0.500000
#
# Coordination Sequence:
#
# PCOD9428239 Si02
#       6
#     8   8   8   8   8   8
#     4  11  24  42  64  91 124 164 215 267 317 377
#     4  12  23  38  65  95 126 164 215 266 315 379
#     4  12  26  41  62  96 135 173 211 263 328 383
#     4  10  22  41  63  87 122 168 212 258 317 379
#     4  10  21  38  66  97 126 164 214 269 319 377
#     4  10  21  40  63  92 128 166 213 264 319 380
#
# _framework density 21.888354
#
# number of rings (size 3 to 8) (size 9 to 14) (size 15 to 20)
#    0.000    1.167    1.667    4.500    0.000    5.333 
#    0.000    0.000    0.000    2.500    0.000    0.000 
#    0.000    0.000    0.000    0.000    0.000    0.000 
#
# Total GULP energy -268432.963179 kJ/mol
# GULP energy per Si atom -5592.353400 kJ/mol
# Density = 2.183853 g / cm^3
# Si number density = 21.888354 Si / 1000 Ang^3
#
#
#
# Elastic Constant Matrix: (Units=GPa)
#
#
# Indices 1 2 3 4 5 6 
#
# 1 41.5148 3.2461 13.8088 0.0000 0.0000 0.0000
# 2 3.2461 96.2568 55.0828 0.0000 0.0000 0.0000
# 3 13.8088 55.0828 124.7786 0.0000 0.0000 0.0000
# 4 0.0000 0.0000 0.0000 17.6008 0.0000 0.0000
# 5 0.0000 0.0000 0.0000 0.0000 19.8078 0.0000
# 6 0.0000 0.0000 0.0000 0.0000 0.0000 28.9950
#
#
#
# Elastic Compliance Matrix: (Units=1/GPa)
#
#
# Indices 1 2 3 4 5 6 
#
# 1 0.025079 0.000993 -0.003214 0.000000 0.000000 0.000000
# 2 0.000993 0.013940 -0.006264 0.000000 0.000000 0.000000
# 3 -0.003214 -0.006264 0.011135 0.000000 0.000000 0.000000
# 4 0.000000 0.000000 0.000000 0.056815 0.000000 0.000000
# 5 0.000000 0.000000 0.000000 0.000000 0.050485 0.000000
# 6 0.000000 0.000000 0.000000 0.000000 0.000000 0.034489
#
#
# Mechanical properties :
#
#
# Convention : Reuss Voigt Hill
#
# Bulk Modulus (GPa) = 30.13357 45.20286 37.66821
# Shear Modulus (GPa) = 22.73005 25.97489 24.35247
#
# Velocity S-wave (km/s) = 3.22600 3.44859 3.33915
# Velocity P-wave (km/s) = 5.26051 6.04594 5.66685
#
# Compressibility (1/GPa) = 0.03318558
#
# Stress axis : x y z
#
# Youngs Moduli (GPa) = 39.87374 71.73773 89.80791
#
# Poissons Ratio (x) = -0.07127 0.28864
# Poissons Ratio (y) = -0.03961 0.56251
# Poissons Ratio (z) = 0.12815 0.44933
#
# Static dielectric constant tensor:
#      x y z
#    x 1.826770 0.000000 0.000000 
#    y 0.000000 1.773100 0.000000 
#    z 0.000000 0.000000 1.799920 
# 
# From -- ./inp_files/17350.got.cif
#   From: 2010.05.17/outbox.cif.g08.bks.cpg/sg55_9_cif.got.tgz:17350.got - 2010.06.03 13:27:54.
