data_PCOD9428598
_publ_section_title
;
Structure prediction by ZEFSAII (Michael W. Deem and Ramdas Pophale) SiO2 
 PCOD9428598
Probable space group: P B A M
;
_chemical_formula_sum "Si O2"
_cell_formula_units_Z 32
_cell_length_a 5.490010
_cell_length_b 21.526038
_cell_length_c 11.749769
_cell_angle_alpha 90.000000
_cell_angle_beta 90.000000
_cell_angle_gamma 90.000000
_cell_volume 1388.566126
_symmetry_space_group_name_H-M "P B A M"
_symmetry_group_IT_number 55
_symmetry_cell_setting 'orthorhombic'
loop_
_space_group_symop_operation_xyz
x,y,z
-x,-y,z
1/2+x,1/2-y,-z
1/2-x,1/2+y,-z
-x,-y,-z
x,y,-z
1/2-x,1/2+y,z
1/2+x,1/2-y,z
loop_
_atom_site_type_symbol
_atom_site_label
_atom_site_fract_x
_atom_site_fract_y
_atom_site_fract_z
Si Si1 0.000000 0.500000 0.784847
Si Si2 0.608573 0.290173 0.000000
Si Si3 0.985625 0.288296 0.631330
Si Si4 0.750114 0.378653 0.204326
Si Si5 0.871876 0.066258 0.374239
O O1 0.166517 0.553076 0.843651
O O2 0.149029 0.455097 0.701914
O O3 0.636393 0.335159 0.108445
O O4 0.348148 0.254896 0.000000
O O5 0.965374 0.311021 0.500000
O O6 0.747580 0.244323 0.644306
O O7 0.956152 0.338725 0.730681
O O8 0.553150 0.391535 0.302900
O O9 0.818478 0.090904 0.500000
O O10 0.000000 0.000000 0.388756
#
# Coordination Sequence:
#
# PCOD9428598 Si02
#       5
#     4   4   8   8   8
#     4  10  23  39  68 104 144 191 225 288 352 440
#     4  12  30  51  79 103 133 188 246 310 364 416
#     4  10  22  39  63  95 132 177 228 289 352 415
#     4  11  24  43  68  99 139 182 240 294 361 424
#     4   9  19  37  62 100 141 179 221 272 343 423
#
# _framework density 23.045356000000002
#
# number of rings (size 3 to 8) (size 9 to 14) (size 15 to 20)
#    0.000    1.750    0.000    2.625    7.000    3.500 
#    0.000    5.625    0.000    0.000    0.000    0.000 
#    0.000    0.000    0.000    0.000    0.000    0.000 
#
# Total GULP energy -178654.794677 kJ/mol
# GULP energy per Si atom -5582.962334 kJ/mol
# Density = 2.299290 g / cm^3
# Si number density = 23.045356 Si / 1000 Ang^3
#
#
#
# Elastic Constant Matrix: (Units=GPa)
#
#
# Indices 1 2 3 4 5 6 
#
# 1 98.9577 42.6291 -0.1073 0.0000 0.0000 0.0000
# 2 42.6291 99.3935 56.9025 0.0000 0.0000 0.0000
# 3 -0.1073 56.9025 59.7399 0.0000 0.0000 0.0000
# 4 0.0000 0.0000 0.0000 45.7561 0.0000 0.0000
# 5 0.0000 0.0000 0.0000 0.0000 20.8070 0.0000
# 6 0.0000 0.0000 0.0000 0.0000 0.0000 58.1675
#
#
#
# Elastic Compliance Matrix: (Units=1/GPa)
#
#
# Indices 1 2 3 4 5 6 
#
# 1 0.017078 -0.016148 0.015411 0.000000 0.000000 0.000000
# 2 -0.016148 0.037395 -0.035648 0.000000 0.000000 0.000000
# 3 0.015411 -0.035648 0.050722 0.000000 0.000000 0.000000
# 4 0.000000 0.000000 0.000000 0.021855 0.000000 0.000000
# 5 0.000000 0.000000 0.000000 0.000000 0.048061 0.000000
# 6 0.000000 0.000000 0.000000 0.000000 0.000000 0.017192
#
#
# Mechanical properties :
#
#
# Convention : Reuss Voigt Hill
#
# Bulk Modulus (GPa) = 30.83898 50.77108 40.80503
# Shear Modulus (GPa) = 18.12389 35.52391 26.82390
#
# Velocity S-wave (km/s) = 2.80740 3.93043 3.41539
# Velocity P-wave (km/s) = 4.89077 6.53272 5.77044
#
# Compressibility (1/GPa) = 0.03242649
#
# Stress axis : x y z
#
# Youngs Moduli (GPa) = 58.55441 26.74164 19.71548
#
# Poissons Ratio (x) = 0.43181 -0.30384
# Poissons Ratio (y) = 0.94552 0.70281
# Poissons Ratio (z) = -0.90240 0.95328
#
# Static dielectric constant tensor:
#      x y z
#    x -3.656150 0.000000 0.000000 
#    y 0.000000 1.655070 0.000000 
#    z 0.000000 0.000000 2.015340 
# 
# From -- ./inp_files/11153.got.cif
#   From: 2010.05.17/outbox.cif.g08.bks.cpg/sg55_6_cif.got.tgz:11153.got - 2010.06.03 13:27:54.
