data_PCOD9428855
_publ_section_title
;
Structure prediction by ZEFSAII (Michael W. Deem and Ramdas Pophale) SiO2 
 PCOD9428855
Probable space group: P B A M
;
_chemical_formula_sum "Si O2"
_cell_formula_units_Z 52
_cell_length_a 10.434756
_cell_length_b 8.622400
_cell_length_c 24.766664
_cell_angle_alpha 90.000000
_cell_angle_beta 90.000000
_cell_angle_gamma 90.000000
_cell_volume 2228.322147
_symmetry_space_group_name_H-M "P B A M"
_symmetry_group_IT_number 55
_symmetry_cell_setting 'orthorhombic'
loop_
_space_group_symop_operation_xyz
x,y,z
-x,-y,z
1/2+x,1/2-y,-z
1/2-x,1/2+y,-z
-x,-y,-z
x,y,-z
1/2-x,1/2+y,z
1/2+x,1/2-y,z
loop_
_atom_site_type_symbol
_atom_site_label
_atom_site_fract_x
_atom_site_fract_y
_atom_site_fract_z
Si Si1 0.717375 0.126060 0.627798
Si Si2 0.344916 0.818291 0.124363
Si Si3 0.713956 0.456448 0.799859
Si Si4 0.431746 0.329796 0.063698
Si Si5 0.371794 0.271955 0.270415
Si Si6 0.868426 0.907342 0.560604
Si Si7 0.500000 0.000000 0.696078
O O1 0.828314 0.165397 0.671258
O O2 0.765432 0.037241 0.575358
O O3 0.645140 0.277770 0.606507
O O4 0.622282 0.011873 0.658457
O O5 0.328193 0.959775 0.166379
O O6 0.350858 0.661614 0.159530
O O7 0.469452 0.799396 0.086919
O O8 0.207764 0.822266 0.092484
O O9 0.769387 0.351667 0.752117
O O10 0.629584 0.590787 0.772910
O O11 0.500000 0.500000 0.069718
O O12 0.412598 0.305097 0.000000
O O13 0.496344 0.163330 0.273054
O O14 0.852571 0.845345 0.500000
O O15 0.000000 0.000000 0.563664
#
# Coordination Sequence:
#
# PCOD9428855 Si02
#       7
#     8   8   8   8   8   8   4
#     4  12  23  46  68 101 139 174 239 285 341 426
#     4  11  23  46  69 107 142 189 231 303 360 426
#     4  10  23  42  68  99 141 179 233 280 355 411
#     4  11  24  46  73 106 144 188 241 296 360 430
#     4  11  22  44  64 103 133 186 227 282 340 422
#     4  11  25  44  70 100 136 183 227 291 356 412
#     4  12  24  40  75  98 136 182 233 284 354 404
#
# _framework density 23.335941999999999
#
# number of rings (size 3 to 8) (size 9 to 14) (size 15 to 20)
#    0.000    0.923    4.615    1.846    0.000    3.077 
#    2.769    1.538    0.000    0.000    0.000    0.000 
#    0.000    0.000    0.000    0.000    0.000    0.000 
#
# Total GULP energy -290751.920408 kJ/mol
# GULP energy per Si atom -5591.383085 kJ/mol
# Density = 2.328283 g / cm^3
# Si number density = 23.335942 Si / 1000 Ang^3
#
#
#
# Elastic Constant Matrix: (Units=GPa)
#
#
# Indices 1 2 3 4 5 6 
#
# 1 73.1744 5.1263 19.6706 0.0000 0.0000 0.0000
# 2 5.1263 88.4192 22.5283 0.0000 0.0000 0.0000
# 3 19.6706 22.5283 106.2167 0.0000 0.0000 0.0000
# 4 0.0000 0.0000 0.0000 30.8259 0.0000 0.0000
# 5 0.0000 0.0000 0.0000 0.0000 -25.6014 0.0000
# 6 0.0000 0.0000 0.0000 0.0000 0.0000 38.0130
#
#
#
# Elastic Compliance Matrix: (Units=1/GPa)
#
#
# Indices 1 2 3 4 5 6 
#
# 1 0.014384 -0.000164 -0.002629 0.000000 0.000000 0.000000
# 2 -0.000164 0.011958 -0.002506 0.000000 0.000000 0.000000
# 3 -0.002629 -0.002506 0.010433 0.000000 0.000000 0.000000
# 4 0.000000 0.000000 0.000000 0.032440 0.000000 0.000000
# 5 0.000000 0.000000 0.000000 0.000000 -0.039060 0.000000
# 6 0.000000 0.000000 0.000000 0.000000 0.000000 0.026307
#
#
# Mechanical properties :
#
#
# Convention : Reuss Voigt Hill
#
# Bulk Modulus (GPa) = 38.20135 40.27340 39.23738
# Shear Modulus (GPa) = 65.97584 23.34651 44.66117
#
# Velocity S-wave (km/s) = 5.32293 3.16642 4.37949
# Velocity P-wave (km/s) = 7.36097 5.53750 6.51336
#
# Compressibility (1/GPa) = 0.02617709
#
# Stress axis : x y z
#
# Youngs Moduli (GPa) = 69.52061 83.62793 95.84897
#
# Poissons Ratio (x) = 0.01372 0.25199
# Poissons Ratio (y) = 0.01141 0.24018
# Poissons Ratio (z) = 0.18277 0.20956
#
# Static dielectric constant tensor:
#      x y z
#    x 1.986550 0.000000 0.000000 
#    y 0.000000 1.929380 0.000000 
#    z 0.000000 0.000000 1.865260 
# 
# From -- ./inp_files/23934.got.cif
#   From: 2010.05.17/outbox.cif.g08.bks.cpg/sg55_12_cif.got.tgz:23934.got - 2010.06.03 13:27:54.
