data_PCOD9428531
_publ_section_title
;
Structure prediction by ZEFSAII (Michael W. Deem and Ramdas Pophale) SiO2 
 PCOD9428531
Probable space group: P B A M
;
_chemical_formula_sum "Si O2"
_cell_formula_units_Z 48
_cell_length_a 14.665981
_cell_length_b 9.283402
_cell_length_c 18.018406
_cell_angle_alpha 90.000000
_cell_angle_beta 90.000000
_cell_angle_gamma 90.000000
_cell_volume 2453.209533
_symmetry_space_group_name_H-M "P B A M"
_symmetry_group_IT_number 55
_symmetry_cell_setting 'orthorhombic'
loop_
_space_group_symop_operation_xyz
x,y,z
-x,-y,z
1/2+x,1/2-y,-z
1/2-x,1/2+y,-z
-x,-y,-z
x,y,-z
1/2-x,1/2+y,z
1/2+x,1/2-y,z
loop_
_atom_site_type_symbol
_atom_site_label
_atom_site_fract_x
_atom_site_fract_y
_atom_site_fract_z
Si Si1 0.111096 0.828746 0.000000
Si Si2 0.596767 0.920092 0.500000
Si Si3 0.602733 0.322304 0.000000
Si Si4 0.748452 0.459904 0.776335
Si Si5 0.759354 0.708577 0.120306
Si Si6 0.902449 0.076822 0.500000
Si Si7 0.598787 0.575004 0.335938
Si Si8 0.097296 0.578246 0.661915
O O1 0.168080 0.773444 0.928892
O O2 0.004844 0.788601 0.000000
O O3 0.114117 0.004025 0.000000
O O4 0.582736 0.748479 0.500000
O O5 0.638642 0.954678 0.420062
O O6 0.500000 0.000000 0.500000
O O7 0.655407 0.256222 0.070541
O O8 0.739455 0.296413 0.803132
O O9 0.760600 0.544643 0.853207
O O10 0.662855 0.514680 0.728802
O O11 0.836152 0.476492 0.725081
O O12 0.861583 0.041722 0.581015
O O13 0.000000 0.000000 0.500000
O O14 0.500000 0.500000 0.330886
O O15 0.588375 0.748315 0.330679
O O16 0.000000 0.500000 0.666705
#
# Coordination Sequence:
#
# PCOD9428531 Si02
#       8
#     4   4   4   8   8   4   8   8
#     4  10  22  43  70  93 116 157 200 233 294 366
#     4   8  16  35  56  80 117 159 207 259 301 351
#     4  10  22  43  72  91 114 159 199 236 294 362
#     4  12  24  40  60  90 132 160 197 248 307 360
#     4  11  24  42  62  94 127 154 192 253 294 355
#     4   8  16  35  56  82 115 155 213 261 295 351
#     4  10  22  38  61  87 120 166 210 256 308 357
#     4  10  22  38  60  88 121 164 211 256 307 358
#
# _framework density 19.566205
#
# number of rings (size 3 to 8) (size 9 to 14) (size 15 to 20)
#    0.000    1.833    3.333    0.000    2.333    3.333 
#    0.000    0.833    0.000    0.000    0.000    0.000 
#    0.000    0.000    0.000    0.000    0.000    0.000 
#
# Total GULP energy -267637.427949 kJ/mol
# GULP energy per Si atom -5575.779749 kJ/mol
# Density = 1.952167 g / cm^3
# Si number density = 19.566205 Si / 1000 Ang^3
#
#
#
# Elastic Constant Matrix: (Units=GPa)
#
#
# Indices 1 2 3 4 5 6 
#
# 1 133.4699 28.9455 60.6939 0.0000 0.0000 0.0000
# 2 28.9455 26.4882 11.5001 0.0000 0.0000 0.0000
# 3 60.6939 11.5001 107.3072 0.0000 0.0000 0.0000
# 4 0.0000 0.0000 0.0000 121.1833 0.0000 0.0000
# 5 0.0000 0.0000 0.0000 0.0000 20.9709 0.0000
# 6 0.0000 0.0000 0.0000 0.0000 0.0000 23.3393
#
#
#
# Elastic Compliance Matrix: (Units=1/GPa)
#
#
# Indices 1 2 3 4 5 6 
#
# 1 0.012626 -0.011219 -0.005939 0.000000 0.000000 0.000000
# 2 -0.011219 0.049564 0.001034 0.000000 0.000000 0.000000
# 3 -0.005939 0.001034 0.012567 0.000000 0.000000 0.000000
# 4 0.000000 0.000000 0.000000 0.008252 0.000000 0.000000
# 5 0.000000 0.000000 0.000000 0.000000 0.047685 0.000000
# 6 0.000000 0.000000 0.000000 0.000000 0.000000 0.042846
#
#
# Mechanical properties :
#
#
# Convention : Reuss Voigt Hill
#
# Bulk Modulus (GPa) = 23.52463 52.17160 37.84811
# Shear Modulus (GPa) = 22.73159 44.17376 33.45267
#
# Velocity S-wave (km/s) = 3.41218 4.75663 4.13936
# Velocity P-wave (km/s) = 5.25102 7.54251 6.49856
#
# Compressibility (1/GPa) = 0.04250865
#
# Stress axis : x y z
#
# Youngs Moduli (GPa) = 79.20097 20.17613 79.57058
#
# Poissons Ratio (x) = 0.22635 0.47258
# Poissons Ratio (y) = 0.88855 -0.08226
# Poissons Ratio (z) = 0.47038 -0.02086
#
# Static dielectric constant tensor:
#      x y z
#    x 1.629540 0.000000 0.000000 
#    y 0.000000 1.656620 0.000000 
#    z 0.000000 0.000000 1.711250 
# 
# From -- ./inp_files/20867.got.cif
#   From: 2010.05.17/outbox.cif.g08.bks.cpg/sg55_11_cif.got.tgz:20867.got - 2010.06.03 13:27:54.
