data_PCOD9428528
_publ_section_title
;
Structure prediction by ZEFSAII (Michael W. Deem and Ramdas Pophale) SiO2 
 PCOD9428528
Probable space group: P B A M
;
_chemical_formula_sum "Si O2"
_cell_formula_units_Z 58
_cell_length_a 12.004670
_cell_length_b 29.296505
_cell_length_c 7.638777
_cell_angle_alpha 90.000000
_cell_angle_beta 90.000000
_cell_angle_gamma 90.000000
_cell_volume 2686.518720
_symmetry_space_group_name_H-M "P B A M"
_symmetry_group_IT_number 55
_symmetry_cell_setting 'orthorhombic'
loop_
_space_group_symop_operation_xyz
x,y,z
-x,-y,z
1/2+x,1/2-y,-z
1/2-x,1/2+y,-z
-x,-y,-z
x,y,-z
1/2-x,1/2+y,z
1/2+x,1/2-y,z
loop_
_atom_site_type_symbol
_atom_site_label
_atom_site_fract_x
_atom_site_fract_y
_atom_site_fract_z
Si Si1 0.500000 0.500000 0.500000
Si Si2 0.890873 0.158467 0.786697
Si Si3 0.866195 0.814932 0.204042
Si Si4 0.325791 0.787887 0.294376
Si Si5 0.273769 0.432991 0.797218
Si Si6 0.353811 0.531634 0.789904
Si Si7 0.187801 0.615634 0.791314
Si Si8 0.066054 0.380311 0.297010
O O1 0.456389 0.535195 0.657786
O O2 0.801731 0.196795 0.732749
O O3 0.841967 0.109994 0.722852
O O4 0.014755 0.169300 0.723010
O O5 0.890625 0.157814 0.000000
O O6 0.852214 0.760839 0.213690
O O7 0.759364 0.841489 0.277875
O O8 0.869626 0.828679 0.000000
O O9 0.348685 0.783108 0.500000
O O10 0.398495 0.830564 0.224114
O O11 0.300331 0.483141 0.728229
O O12 0.144585 0.418745 0.786023
O O13 0.305313 0.435764 0.000000
O O14 0.264351 0.571386 0.762875
O O15 0.381598 0.531763 0.000000
O O16 0.064515 0.611842 0.716664
O O17 0.170842 0.620501 0.000000
O O18 0.098754 0.380002 0.500000
#
# Coordination Sequence:
#
# PCOD9428528 Si02
#       8
#     2   8   8   8   8   8   8   8
#     4  12  26  40  68  96 132 176 218 252 326 374
#     4   9  19  37  61  87 113 150 203 252 302 367
#     4  10  22  38  60  86 116 157 207 257 308 374
#     4  10  22  39  56  85 119 159 199 252 319 375
#     4   9  19  39  66  91 120 163 209 261 311 368
#     4  10  24  44  66  97 133 171 220 267 319 385
#     4  10  23  42  62  90 126 165 207 259 320 378
#     4  10  22  39  62  88 127 162 207 263 317 383
#
# _framework density 21.589278
#
# number of rings (size 3 to 8) (size 9 to 14) (size 15 to 20)
#    0.000    2.207    0.000    1.034    5.793    3.310 
#    0.000    2.759    0.000    0.000    0.000    0.000 
#    0.000    0.000    0.000    0.000    0.000    0.000 
#
# Total GULP energy -323324.366133 kJ/mol
# GULP energy per Si atom -5574.558037 kJ/mol
# Density = 2.154014 g / cm^3
# Si number density = 21.589278 Si / 1000 Ang^3
#
#
#
# Elastic Constant Matrix: (Units=GPa)
#
#
# Indices 1 2 3 4 5 6 
#
# 1 89.5333 23.4159 6.5795 0.0000 0.0000 0.0000
# 2 23.4159 78.5890 10.5753 0.0000 0.0000 0.0000
# 3 6.5795 10.5753 56.3122 0.0000 0.0000 0.0000
# 4 0.0000 0.0000 0.0000 55.1235 0.0000 0.0000
# 5 0.0000 0.0000 0.0000 0.0000 89.6509 0.0000
# 6 0.0000 0.0000 0.0000 0.0000 0.0000 20.6798
#
#
#
# Elastic Compliance Matrix: (Units=1/GPa)
#
#
# Indices 1 2 3 4 5 6 
#
# 1 0.012144 -0.003516 -0.000759 0.000000 0.000000 0.000000
# 2 -0.003516 0.014072 -0.002232 0.000000 0.000000 0.000000
# 3 -0.000759 -0.002232 0.018266 0.000000 0.000000 0.000000
# 4 0.000000 0.000000 0.000000 0.018141 0.000000 0.000000
# 5 0.000000 0.000000 0.000000 0.000000 0.011154 0.000000
# 6 0.000000 0.000000 0.000000 0.000000 0.000000 0.048356
#
#
# Mechanical properties :
#
#
# Convention : Reuss Voigt Hill
#
# Bulk Modulus (GPa) = 31.77729 33.95289 32.86509
# Shear Modulus (GPa) = 34.33169 45.34845 39.84007
#
# Velocity S-wave (km/s) = 3.99208 4.58810 4.30043
# Velocity P-wave (km/s) = 5.99999 6.62031 6.31777
#
# Compressibility (1/GPa) = 0.03146901
#
# Stress axis : x y z
#
# Youngs Moduli (GPa) = 82.34229 71.06059 54.74678
#
# Poissons Ratio (x) = 0.24988 0.04153
# Poissons Ratio (y) = 0.28955 0.12219
# Poissons Ratio (z) = 0.06246 0.15860
#
# Static dielectric constant tensor:
#      x y z
#    x 1.789520 0.000000 0.000000 
#    y 0.000000 1.782730 0.000000 
#    z 0.000000 0.000000 1.848390 
# 
# From -- ./inp_files/4314.got.cif
#   From: 2010.05.17/outbox.cif.g08.bks.cpg/sg55_3_cif.got.tgz:4314.got - 2010.06.03 13:27:54.
