data_PCOD9428437
_publ_section_title
;
Structure prediction by ZEFSAII (Michael W. Deem and Ramdas Pophale) SiO2 
 PCOD9428437
Probable space group: P B A M
;
_chemical_formula_sum "Si O2"
_cell_formula_units_Z 56
_cell_length_a 21.182874
_cell_length_b 9.064348
_cell_length_c 14.321812
_cell_angle_alpha 90.000000
_cell_angle_beta 90.000000
_cell_angle_gamma 90.000000
_cell_volume 2749.915964
_symmetry_space_group_name_H-M "P B A M"
_symmetry_group_IT_number 55
_symmetry_cell_setting 'orthorhombic'
loop_
_space_group_symop_operation_xyz
x,y,z
-x,-y,z
1/2+x,1/2-y,-z
1/2-x,1/2+y,-z
-x,-y,-z
x,y,-z
1/2-x,1/2+y,z
1/2+x,1/2-y,z
loop_
_atom_site_type_symbol
_atom_site_label
_atom_site_fract_x
_atom_site_fract_y
_atom_site_fract_z
Si Si1 0.865694 0.744211 0.398234
Si Si2 0.301629 0.756985 0.109226
Si Si3 0.902714 0.903801 0.219083
Si Si4 0.015482 0.338605 0.700686
Si Si5 0.111672 0.788231 0.302013
Si Si6 0.234324 0.930158 0.605751
Si Si7 0.202209 0.564764 0.783727
O O1 0.880563 0.804020 0.500000
O O2 0.868691 0.863078 0.317229
O O3 0.924416 0.640713 0.368079
O O4 0.797495 0.670710 0.398623
O O5 0.359243 0.648488 0.134825
O O6 0.240477 0.672868 0.148266
O O7 0.309516 0.908093 0.167175
O O8 0.297258 0.786673 0.000000
O O9 0.960905 0.788802 0.227138
O O10 0.907200 0.078483 0.231430
O O11 0.000000 0.500000 0.739985
O O12 0.953590 0.267313 0.652492
O O13 0.170620 0.841611 0.366293
O O14 0.139562 0.649270 0.246246
O O15 0.228015 0.992538 0.500000
O O16 0.255851 0.034227 0.691374
#
# Coordination Sequence:
#
# PCOD9428437 Si02
#       7
#     8   8   8   8   8   8   8
#     4   9  20  39  63  92 135 180 221 271 324 388
#     4  12  23  41  69  95 128 171 218 277 339 395
#     4  10  21  42  62  94 129 166 218 271 322 396
#     4  10  22  41  66  92 131 182 219 271 327 394
#     4  12  23  40  68  94 135 176 219 269 330 392
#     4  11  23  39  64  98 136 178 220 267 327 393
#     4  12  22  43  62  99 137 170 221 276 328 399
#
# _framework density 20.364260000000002
#
# number of rings (size 3 to 8) (size 9 to 14) (size 15 to 20)
#    0.857    0.286    4.286    2.571    0.000    2.000 
#    0.000    1.429    0.000    6.429    0.000    0.000 
#    0.000    0.000    0.000    0.000    0.000    0.000 
#
# Total GULP energy -311945.454315 kJ/mol
# GULP energy per Si atom -5570.454541 kJ/mol
# Density = 2.031791 g / cm^3
# Si number density = 20.364260 Si / 1000 Ang^3
#
#
#
# Elastic Constant Matrix: (Units=GPa)
#
#
# Indices 1 2 3 4 5 6 
#
# 1 122.5273 35.9814 7.5430 0.0000 0.0000 0.0000
# 2 35.9814 106.1647 27.1163 0.0000 0.0000 0.0000
# 3 7.5430 27.1163 92.5417 0.0000 0.0000 0.0000
# 4 0.0000 0.0000 0.0000 -5.8188 0.0000 0.0000
# 5 0.0000 0.0000 0.0000 0.0000 13.6617 0.0000
# 6 0.0000 0.0000 0.0000 0.0000 0.0000 39.4185
#
#
#
# Elastic Compliance Matrix: (Units=1/GPa)
#
#
# Indices 1 2 3 4 5 6 
#
# 1 0.009066 -0.003117 0.000174 0.000000 0.000000 0.000000
# 2 -0.003117 0.011253 -0.003043 0.000000 0.000000 0.000000
# 3 0.000174 -0.003043 0.011683 0.000000 0.000000 0.000000
# 4 0.000000 0.000000 0.000000 -0.171856 0.000000 0.000000
# 5 0.000000 0.000000 0.000000 0.000000 0.073197 0.000000
# 6 0.000000 0.000000 0.000000 0.000000 0.000000 0.025369
#
#
# Mechanical properties :
#
#
# Convention : Reuss Voigt Hill
#
# Bulk Modulus (GPa) = 49.92381 51.39058 50.65719
# Shear Modulus (GPa) = -220.86426 26.15847 -97.35290
#
# Velocity S-wave (km/s) = -10.42556 3.58792 -6.92167
# Velocity P-wave (km/s) = 10.97061 6.51573 6.24098
#
# Compressibility (1/GPa) = 0.02003052
#
# Stress axis : x y z
#
# Youngs Moduli (GPa) = 110.30075 88.86416 85.59116
#
# Poissons Ratio (x) = 0.27701 -0.01493
# Poissons Ratio (y) = 0.34384 0.26048
# Poissons Ratio (z) = -0.01924 0.27044
#
# Static dielectric constant tensor:
#      x y z
#    x 1.787030 0.000000 0.000000 
#    y 0.000000 1.788260 0.000000 
#    z 0.000000 0.000000 1.690250 
# 
# From -- ./inp_files/19760.got.cif
#   From: 2010.05.17/outbox.cif.g08.bks.cpg/sg55_10_cif.got.tgz:19760.got - 2010.06.03 13:27:54.
