data_PCOD9428292
_publ_section_title
;
Structure prediction by ZEFSAII (Michael W. Deem and Ramdas Pophale) SiO2 
 PCOD9428292
Probable space group: P B A M
;
_chemical_formula_sum "Si O2"
_cell_formula_units_Z 56
_cell_length_a 20.178192
_cell_length_b 15.786107
_cell_length_c 8.905319
_cell_angle_alpha 90.000000
_cell_angle_beta 90.000000
_cell_angle_gamma 90.000000
_cell_volume 2836.656660
_symmetry_space_group_name_H-M "P B A M"
_symmetry_group_IT_number 55
_symmetry_cell_setting 'orthorhombic'
loop_
_space_group_symop_operation_xyz
x,y,z
-x,-y,z
1/2+x,1/2-y,-z
1/2-x,1/2+y,-z
-x,-y,-z
x,y,-z
1/2-x,1/2+y,z
1/2+x,1/2-y,z
loop_
_atom_site_type_symbol
_atom_site_label
_atom_site_fract_x
_atom_site_fract_y
_atom_site_fract_z
Si Si1 0.821879 0.999958 0.820993
Si Si2 0.537135 0.749628 0.176888
Si Si3 0.166067 0.680167 0.674481
Si Si4 0.050526 0.923875 0.322274
Si Si5 0.095513 0.336995 0.179219
Si Si6 0.182121 0.478887 0.323887
Si Si7 0.319089 0.686303 0.319802
O O1 0.831660 0.906934 0.747498
O O2 0.881481 0.058476 0.764796
O O3 0.751505 0.033954 0.761623
O O4 0.821379 0.993047 0.000000
O O5 0.609976 0.779416 0.223701
O O6 0.521017 0.664680 0.267778
O O7 0.481847 0.820272 0.211266
O O8 0.533898 0.731525 0.000000
O O9 0.152501 0.701497 0.500000
O O10 0.165082 0.578266 0.689692
O O11 0.241457 0.706923 0.708925
O O12 0.063223 0.922220 0.500000
O O13 0.000000 0.000000 0.290062
O O14 0.125848 0.419787 0.255414
O O15 0.135340 0.256566 0.244314
O O16 0.104345 0.341441 0.000000
O O17 0.191425 0.459846 0.500000
O O18 0.328525 0.683537 0.500000
#
# Coordination Sequence:
#
# PCOD9428292 Si02
#       7
#     8   8   8   8   8   8   8
#     4  11  22  38  62  91 123 158 199 252 309 369
#     4  11  25  41  60  89 125 164 204 253 312 370
#     4   9  21  41  63  88 119 158 205 255 306 364
#     4  11  24  41  63  89 122 164 208 253 305 370
#     4  11  24  40  60  90 125 162 205 253 310 369
#     4  10  22  41  64  90 120 158 206 255 305 365
#     4  10  21  39  63  90 122 161 204 254 307 364
#
# _framework density 19.74155
#
# number of rings (size 3 to 8) (size 9 to 14) (size 15 to 20)
#    0.000    1.571    0.000    5.143    2.000    9.714 
#    0.000    2.857    0.000    0.000    0.000    0.000 
#    0.000    0.000    0.000    0.000    0.000    0.000 
#
# Total GULP energy -313217.231348 kJ/mol
# GULP energy per Si atom -5593.164846 kJ/mol
# Density = 1.969662 g / cm^3
# Si number density = 19.741550 Si / 1000 Ang^3
#
#
#
# Elastic Constant Matrix: (Units=GPa)
#
#
# Indices 1 2 3 4 5 6 
#
# 1 46.1101 6.2728 29.0744 0.0000 0.0000 0.0000
# 2 6.2728 11.9944 12.4357 0.0000 0.0000 0.0000
# 3 29.0744 12.4357 78.3180 0.0000 0.0000 0.0000
# 4 0.0000 0.0000 0.0000 65.8215 0.0000 0.0000
# 5 0.0000 0.0000 0.0000 0.0000 47.6038 0.0000
# 6 0.0000 0.0000 0.0000 0.0000 0.0000 29.2683
#
#
#
# Elastic Compliance Matrix: (Units=1/GPa)
#
#
# Indices 1 2 3 4 5 6 
#
# 1 0.028536 -0.004717 -0.009845 0.000000 0.000000 0.000000
# 2 -0.004717 0.100582 -0.014220 0.000000 0.000000 0.000000
# 3 -0.009845 -0.014220 0.018681 0.000000 0.000000 0.000000
# 4 0.000000 0.000000 0.000000 0.015193 0.000000 0.000000
# 5 0.000000 0.000000 0.000000 0.000000 0.021007 0.000000
# 6 0.000000 0.000000 0.000000 0.000000 0.000000 0.034167
#
#
# Mechanical properties :
#
#
# Convention : Reuss Voigt Hill
#
# Bulk Modulus (GPa) = 11.08202 25.77650 18.42926
# Shear Modulus (GPa) = 16.35019 34.44803 25.39911
#
# Velocity S-wave (km/s) = 2.88099 4.18179 3.59079
# Velocity P-wave (km/s) = 4.08565 6.03339 5.15240
#
# Compressibility (1/GPa) = 0.09023626
#
# Stress axis : x y z
#
# Youngs Moduli (GPa) = 35.04288 9.94216 53.53020
#
# Poissons Ratio (x) = 0.04690 0.52699
# Poissons Ratio (y) = 0.16530 0.76118
# Poissons Ratio (z) = 0.34499 0.14137
#
# Static dielectric constant tensor:
#      x y z
#    x 1.679410 0.000000 0.000000 
#    y 0.000000 1.680640 0.000000 
#    z 0.000000 0.000000 1.654050 
# 
# From -- ./inp_files/8741.got.cif
#   From: 2010.05.17/outbox.cif.g08.bks.cpg/sg55_5_cif.got.tgz:8741.got - 2010.06.03 13:27:54.
