data_PCOD9428096
_publ_section_title
;
Structure prediction by ZEFSAII (Michael W. Deem and Ramdas Pophale) SiO2 
 PCOD9428096
Probable space group: P B A M
;
_chemical_formula_sum "Si O2"
_cell_formula_units_Z 64
_cell_length_a 13.692191
_cell_length_b 18.441181
_cell_length_c 14.320775
_cell_angle_alpha 90.000000
_cell_angle_beta 90.000000
_cell_angle_gamma 90.000000
_cell_volume 3615.998158
_symmetry_space_group_name_H-M "P B A M"
_symmetry_group_IT_number 55
_symmetry_cell_setting 'orthorhombic'
loop_
_space_group_symop_operation_xyz
x,y,z
-x,-y,z
1/2+x,1/2-y,-z
1/2-x,1/2+y,-z
-x,-y,-z
x,y,-z
1/2-x,1/2+y,z
1/2+x,1/2-y,z
loop_
_atom_site_type_symbol
_atom_site_label
_atom_site_fract_x
_atom_site_fract_y
_atom_site_fract_z
Si Si1 0.112948 0.990315 0.764304
Si Si2 0.676793 0.166038 0.892053
Si Si3 0.801140 0.751833 0.609235
Si Si4 0.845803 0.179162 0.249737
Si Si5 0.776373 0.924799 0.609000
Si Si6 0.521889 0.212381 0.258736
Si Si7 0.082836 0.560316 0.277571
Si Si8 0.204766 0.507040 0.107918
O O1 0.133853 0.906103 0.742906
O O2 0.187399 0.012902 0.846994
O O3 0.143125 0.037351 0.674130
O O4 0.000000 0.000000 0.788584
O O5 0.775687 0.190451 0.839904
O O6 0.586942 0.196602 0.832693
O O7 0.675899 0.078171 0.886642
O O8 0.674589 0.187180 0.000000
O O9 0.803280 0.734353 0.500000
O O10 0.716256 0.708482 0.662676
O O11 0.783266 0.837899 0.619684
O O12 0.902305 0.732147 0.659644
O O13 0.944954 0.223914 0.242741
O O14 0.787048 0.942749 0.500000
O O15 0.671264 0.948765 0.649452
O O16 0.464032 0.139378 0.284371
O O17 0.131380 0.549733 0.175420
O O18 0.000000 0.500000 0.290786
O O19 0.201845 0.529352 0.000000
#
# Coordination Sequence:
#
# PCOD9428096 Si02
#       8
#     8   8   8   8   8   8   8   8
#     4  10  21  38  61  84 115 152 194 240 281 335
#     4   9  19  36  57  83 115 150 191 235 282 338
#     4  10  22  39  59  83 112 149 192 236 287 348
#     4  10  21  38  58  82 117 154 184 234 290 336
#     4  10  22  40  60  85 117 149 190 243 289 340
#     4  11  21  36  60  83 113 153 192 233 286 344
#     4  11  21  36  58  87 117 150 191 238 289 340
#     4   9  19  36  58  85 116 150 191 238 284 339
#
# _framework density 17.699124000000001
#
# number of rings (size 3 to 8) (size 9 to 14) (size 15 to 20)
#    0.000    2.000    2.500    0.750    1.750    3.500 
#    0.000    0.000    0.000    0.000    0.000    0.000 
#    0.000    0.000    0.000    0.000    0.000    0.000 
#
# Total GULP energy -357315.489869 kJ/mol
# GULP energy per Si atom -5583.054529 kJ/mol
# Density = 1.765884 g / cm^3
# Si number density = 17.699124 Si / 1000 Ang^3
#
#
#
# Elastic Constant Matrix: (Units=GPa)
#
#
# Indices 1 2 3 4 5 6 
#
# 1 84.4332 6.0479 8.7018 0.0000 0.0000 0.0000
# 2 6.0479 31.5847 4.5665 0.0000 0.0000 0.0000
# 3 8.7018 4.5665 70.0895 0.0000 0.0000 0.0000
# 4 0.0000 0.0000 0.0000 24.5543 0.0000 0.0000
# 5 0.0000 0.0000 0.0000 0.0000 5.6803 0.0000
# 6 0.0000 0.0000 0.0000 0.0000 0.0000 29.1439
#
#
#
# Elastic Compliance Matrix: (Units=1/GPa)
#
#
# Indices 1 2 3 4 5 6 
#
# 1 0.012137 -0.002126 -0.001368 0.000000 0.000000 0.000000
# 2 -0.002126 0.032334 -0.001843 0.000000 0.000000 0.000000
# 3 -0.001368 -0.001843 0.014557 0.000000 0.000000 0.000000
# 4 0.000000 0.000000 0.000000 0.040726 0.000000 0.000000
# 5 0.000000 0.000000 0.000000 0.000000 0.176047 0.000000
# 6 0.000000 0.000000 0.000000 0.000000 0.000000 0.034312
#
#
# Mechanical properties :
#
#
# Convention : Reuss Voigt Hill
#
# Bulk Modulus (GPa) = 20.68059 24.97107 22.82583
# Shear Modulus (GPa) = 14.84090 22.99512 18.91801
#
# Velocity S-wave (km/s) = 2.89885 3.60838 3.27290
# Velocity P-wave (km/s) = 4.78689 5.61247 5.21604
#
# Compressibility (1/GPa) = 0.04835451
#
# Stress axis : x y z
#
# Youngs Moduli (GPa) = 82.39265 30.92675 68.69355
#
# Poissons Ratio (x) = 0.06576 0.09399
# Poissons Ratio (y) = 0.17518 0.12658
# Poissons Ratio (z) = 0.11274 0.05699
#
# Static dielectric constant tensor:
#      x y z
#    x 1.588820 0.000000 0.000000 
#    y 0.000000 1.592390 0.000000 
#    z 0.000000 0.000000 1.578550 
# 
# From -- ./inp_files/18560.got.cif
#   From: 2010.05.17/outbox.cif.g08.bks.cpg/sg55_10_cif.got.tgz:18560.got - 2010.06.03 13:27:54.
