data_PCOD9428791
_publ_section_title
;
Structure prediction by ZEFSAII (Michael W. Deem and Ramdas Pophale) SiO2 
 PCOD9428791
Probable space group: P B A M
;
_chemical_formula_sum "Si O2"
_cell_formula_units_Z 48
_cell_length_a 8.910067
_cell_length_b 13.960673
_cell_length_c 17.326938
_cell_angle_alpha 90.000000
_cell_angle_beta 90.000000
_cell_angle_gamma 90.000000
_cell_volume 2155.307032
_symmetry_space_group_name_H-M "P B A M"
_symmetry_group_IT_number 55
_symmetry_cell_setting 'orthorhombic'
loop_
_space_group_symop_operation_xyz
x,y,z
-x,-y,z
1/2+x,1/2-y,-z
1/2-x,1/2+y,-z
-x,-y,-z
x,y,-z
1/2-x,1/2+y,z
1/2+x,1/2-y,z
loop_
_atom_site_type_symbol
_atom_site_label
_atom_site_fract_x
_atom_site_fract_y
_atom_site_fract_z
Si Si1 0.907918 0.864527 0.354999
Si Si2 0.876694 0.703630 0.763969
Si Si3 0.730008 0.448302 0.000000
Si Si4 0.371537 0.889284 0.500000
Si Si5 0.770999 0.052732 0.346914
Si Si6 0.646861 0.814103 0.871427
Si Si7 0.209368 0.694473 0.500000
Si Si8 0.904542 0.152416 0.000000
O O1 0.937451 0.771587 0.304053
O O2 0.801149 0.841391 0.426147
O O3 0.070011 0.905380 0.376425
O O4 0.814596 0.949072 0.313701
O O5 0.787923 0.620395 0.720557
O O6 0.776173 0.773220 0.816384
O O7 0.006247 0.663537 0.817791
O O8 0.809245 0.403632 0.075263
O O9 0.565842 0.398503 0.000000
O O10 0.712029 0.563237 0.000000
O O11 0.340073 0.946945 0.420762
O O12 0.244319 0.807035 0.500000
O O13 0.536265 0.839406 0.500000
O O14 0.611203 0.723577 0.927529
#
# Coordination Sequence:
#
# PCOD9428791 Si02
#       8
#     8   8   4   4   8   8   4   4
#     4  11  25  45  69  99 137 185 238 289 356 425
#     4  12  24  44  68 102 145 182 224 287 356 414
#     4  10  22  45  76 107 132 188 228 280 335 419
#     4  12  25  42  69  96 134 186 243 299 358 413
#     4  11  25  45  69 100 136 185 237 292 354 425
#     4  11  24  44  72 104 143 181 225 286 343 414
#     4  12  25  42  69  96 134 186 243 301 356 417
#     4  10  22  45  76 103 138 179 238 270 344 415
#
# _framework density 22.270610000000001
#
# number of rings (size 3 to 8) (size 9 to 14) (size 15 to 20)
#    0.000    0.833    5.000    2.000    2.333    4.000 
#    0.000    3.333    0.000    0.000    0.000    0.000 
#    0.000    0.000    0.000    0.000    0.000    0.000 
#
# Total GULP energy -268476.407025 kJ/mol
# GULP energy per Si atom -5593.258480 kJ/mol
# Density = 2.221992 g / cm^3
# Si number density = 22.270610 Si / 1000 Ang^3
#
#
#
# Elastic Constant Matrix: (Units=GPa)
#
#
# Indices 1 2 3 4 5 6 
#
# 1 111.5226 26.0950 50.9818 0.0000 0.0000 0.0000
# 2 26.0950 108.2450 28.3756 0.0000 0.0000 0.0000
# 3 50.9818 28.3756 94.5381 0.0000 0.0000 0.0000
# 4 0.0000 0.0000 0.0000 6.1921 0.0000 0.0000
# 5 0.0000 0.0000 0.0000 0.0000 58.7458 0.0000
# 6 0.0000 0.0000 0.0000 0.0000 0.0000 38.2878
#
#
#
# Elastic Compliance Matrix: (Units=1/GPa)
#
#
# Indices 1 2 3 4 5 6 
#
# 1 0.012068 -0.001306 -0.006116 0.000000 0.000000 0.000000
# 2 -0.001306 0.010169 -0.002348 0.000000 0.000000 0.000000
# 3 -0.006116 -0.002348 0.014581 0.000000 0.000000 0.000000
# 4 0.000000 0.000000 0.000000 0.161497 0.000000 0.000000
# 5 0.000000 0.000000 0.000000 0.000000 0.017022 0.000000
# 6 0.000000 0.000000 0.000000 0.000000 0.000000 0.026118
#
#
# Mechanical properties :
#
#
# Convention : Reuss Voigt Hill
#
# Bulk Modulus (GPa) = 57.87800 58.35672 58.11736
# Shear Modulus (GPa) = 18.74384 34.56869 26.65626
#
# Velocity S-wave (km/s) = 2.90425 3.94409 3.46341
# Velocity P-wave (km/s) = 6.10665 6.85576 6.49202
#
# Compressibility (1/GPa) = 0.01727772
#
# Stress axis : x y z
#
# Youngs Moduli (GPa) = 82.86156 98.34183 68.58401
#
# Poissons Ratio (x) = 0.12844 0.41947
# Poissons Ratio (y) = 0.10822 0.16102
# Poissons Ratio (z) = 0.50679 0.23088
#
# Static dielectric constant tensor:
#      x y z
#    x 1.816980 0.000000 0.000000 
#    y 0.000000 1.844560 0.000000 
#    z 0.000000 0.000000 1.803660 
# 
# From -- ./inp_files/20879.got.cif
#   From: 2010.05.17/outbox.cif.g08.bks.cpg/sg55_11_cif.got.tgz:20879.got - 2010.06.03 13:27:54.
