data_PCOD9428979
_publ_section_title
;
Structure prediction by ZEFSAII (Michael W. Deem and Ramdas Pophale) SiO2 
 PCOD9428979
Probable space group: P B A M
;
_chemical_formula_sum "Si O2"
_cell_formula_units_Z 48
_cell_length_a 13.573286
_cell_length_b 18.077874
_cell_length_c 10.260034
_cell_angle_alpha 90.000000
_cell_angle_beta 90.000000
_cell_angle_gamma 90.000000
_cell_volume 2517.567684
_symmetry_space_group_name_H-M "P B A M"
_symmetry_group_IT_number 55
_symmetry_cell_setting 'orthorhombic'
loop_
_space_group_symop_operation_xyz
x,y,z
-x,-y,z
1/2+x,1/2-y,-z
1/2-x,1/2+y,-z
-x,-y,-z
x,y,-z
1/2-x,1/2+y,z
1/2+x,1/2-y,z
loop_
_atom_site_type_symbol
_atom_site_label
_atom_site_fract_x
_atom_site_fract_y
_atom_site_fract_z
Si Si1 0.552067 0.880179 0.000000
Si Si2 0.861680 0.299990 0.252947
Si Si3 0.156617 0.458675 0.000000
Si Si4 0.174397 0.133417 0.656965
Si Si5 0.558149 0.643842 0.342937
Si Si6 0.148819 0.441769 0.500000
Si Si7 0.216733 0.965180 0.260738
Si Si8 0.935155 0.391197 0.500000
O O1 0.588757 0.834075 0.875160
O O2 0.435458 0.901077 0.000000
O O3 0.607396 0.959601 0.000000
O O4 0.743829 0.310476 0.263631
O O5 0.893702 0.216955 0.282530
O O6 0.899560 0.349861 0.372341
O O7 0.226233 0.453138 0.873777
O O8 0.191466 0.139057 0.500000
O O9 0.058764 0.144769 0.678773
O O10 0.203685 0.051501 0.705202
O O11 0.573879 0.641149 0.500000
O O12 0.611793 0.574474 0.276144
O O13 0.214539 0.431204 0.626600
O O14 0.107587 0.525910 0.500000
O O15 0.052780 0.392030 0.500000
#
# Coordination Sequence:
#
# PCOD9428979 Si02
#       8
#     4   8   4   8   8   4   8   4
#     4  11  24  43  66  95 137 175 215 267 339 396
#     4  12  22  43  63  93 132 177 216 270 340 391
#     4  11  24  41  69 100 131 174 216 275 331 383
#     4  11  21  41  68  94 129 174 220 279 334 382
#     4  11  25  41  66 100 131 173 225 276 332 394
#     4  11  20  33  65  94 121 162 222 281 317 375
#     4  12  21  42  64  98 129 174 220 271 324 391
#     4  11  20  35  60  95 123 159 225 273 325 384
#
# _framework density 19.066022
#
# number of rings (size 3 to 8) (size 9 to 14) (size 15 to 20)
#    0.000    0.667    6.667    1.500    0.000    7.333 
#    0.000    4.167    0.000    0.000    0.000    0.000 
#    0.000    0.000    0.000    0.000    0.000    0.000 
#
# Total GULP energy -268280.539087 kJ/mol
# GULP energy per Si atom -5589.177898 kJ/mol
# Density = 1.902263 g / cm^3
# Si number density = 19.066022 Si / 1000 Ang^3
#
#
#
# Elastic Constant Matrix: (Units=GPa)
#
#
# Indices 1 2 3 4 5 6 
#
# 1 143.1941 31.8414 47.2953 0.0000 0.0000 0.0000
# 2 31.8414 36.4072 17.4419 0.0000 0.0000 0.0000
# 3 47.2953 17.4419 128.3650 0.0000 0.0000 0.0000
# 4 0.0000 0.0000 0.0000 17.7349 0.0000 0.0000
# 5 0.0000 0.0000 0.0000 0.0000 27.5722 0.0000
# 6 0.0000 0.0000 0.0000 0.0000 0.0000 22.3224
#
#
#
# Elastic Compliance Matrix: (Units=1/GPa)
#
#
# Indices 1 2 3 4 5 6 
#
# 1 0.009364 -0.006992 -0.002500 0.000000 0.000000 0.000000
# 2 -0.006992 0.034600 -0.002125 0.000000 0.000000 0.000000
# 3 -0.002500 -0.002125 0.009000 0.000000 0.000000 0.000000
# 4 0.000000 0.000000 0.000000 0.056386 0.000000 0.000000
# 5 0.000000 0.000000 0.000000 0.000000 0.036268 0.000000
# 6 0.000000 0.000000 0.000000 0.000000 0.000000 0.044798
#
#
# Mechanical properties :
#
#
# Convention : Reuss Voigt Hill
#
# Bulk Modulus (GPa) = 33.63606 55.68040 44.65823
# Shear Modulus (GPa) = 22.36521 27.61843 24.99182
#
# Velocity S-wave (km/s) = 3.42868 3.81013 3.62443
# Velocity P-wave (km/s) = 5.77535 6.97306 6.40227
#
# Compressibility (1/GPa) = 0.02973000
#
# Stress axis : x y z
#
# Youngs Moduli (GPa) = 106.79141 28.90143 111.10866
#
# Poissons Ratio (x) = 0.20208 0.27778
# Poissons Ratio (y) = 0.74668 0.23613
# Poissons Ratio (z) = 0.26699 0.06142
#
# Static dielectric constant tensor:
#      x y z
#    x 1.696110 0.000000 0.000000 
#    y 0.000000 1.671970 0.000000 
#    z 0.000000 0.000000 1.633110 
# 
# From -- ./inp_files/5747.got.cif
#   From: 2010.05.17/outbox.cif.g08.bks.cpg/sg55_3_cif.got.tgz:5747.got - 2010.06.03 13:27:54.
