data_PCOD9428689
_publ_section_title
;
Structure prediction by ZEFSAII (Michael W. Deem and Ramdas Pophale) SiO2 
 PCOD9428689
Probable space group: P B A M
;
_chemical_formula_sum "Si O2"
_cell_formula_units_Z 34
_cell_length_a 11.458000
_cell_length_b 4.760175
_cell_length_c 25.496610
_cell_angle_alpha 90.000000
_cell_angle_beta 90.000000
_cell_angle_gamma 90.000000
_cell_volume 1390.638274
_symmetry_space_group_name_H-M "P B A M"
_symmetry_group_IT_number 55
_symmetry_cell_setting 'orthorhombic'
loop_
_space_group_symop_operation_xyz
x,y,z
-x,-y,z
1/2+x,1/2-y,-z
1/2-x,1/2+y,-z
-x,-y,-z
x,y,-z
1/2-x,1/2+y,z
1/2+x,1/2-y,z
loop_
_atom_site_type_symbol
_atom_site_label
_atom_site_fract_x
_atom_site_fract_y
_atom_site_fract_z
Si Si1 0.832584 0.692747 0.081319
Si Si2 0.328978 0.588855 0.442290
Si Si3 0.000000 0.000000 0.000000
Si Si4 0.500000 0.500000 0.353412
Si Si5 0.325899 0.716085 0.798399
Si Si6 0.500000 0.000000 0.717797
O O1 0.784694 0.380641 0.071390
O O2 0.866469 0.725437 0.142239
O O3 0.933212 0.808385 0.045057
O O4 0.380862 0.649171 0.500000
O O5 0.210330 0.766468 0.439810
O O6 0.408476 0.644071 0.392711
O O7 0.447976 0.248904 0.318332
O O8 0.295315 0.389847 0.793597
O O9 0.410079 0.834651 0.754646
#
# Coordination Sequence:
#
# PCOD9428689 Si02
#       6
#     8   8   2   4   8   4
#     4  10  24  43  64  95 128 165 211 254 312 380
#     4  10  22  41  64  90 126 172 213 256 324 397
#     4  12  24  40  72 100 134 166 200 274 326 376
#     4  12  25  39  62  98 131 159 212 282 322 374
#     4  10  23  44  65  87 126 171 212 261 311 378
#     4  12  26  40  65  97 124 170 224 264 328 384
#
# _framework density 24.449207999999999
#
# number of rings (size 3 to 8) (size 9 to 14) (size 15 to 20)
#    0.000    1.412    0.000    3.882    0.000   14.118 
#    0.000    4.706    0.000    0.000    0.000    0.000 
#    0.000    0.000    0.000    0.000    0.000    0.000 
#
# Total GULP energy -189824.297386 kJ/mol
# GULP energy per Si atom -5583.067570 kJ/mol
# Density = 2.439356 g / cm^3
# Si number density = 24.449208 Si / 1000 Ang^3
#
#
#
# Elastic Constant Matrix: (Units=GPa)
#
#
# Indices 1 2 3 4 5 6 
#
# 1 36.1920 -0.2131 45.3200 0.0000 0.0000 0.0000
# 2 -0.2131 86.4588 30.9564 0.0000 0.0000 0.0000
# 3 45.3200 30.9564 179.2892 0.0000 0.0000 0.0000
# 4 0.0000 0.0000 0.0000 34.0280 0.0000 0.0000
# 5 0.0000 0.0000 0.0000 0.0000 44.3721 0.0000
# 6 0.0000 0.0000 0.0000 0.0000 0.0000 43.2003
#
#
#
# Elastic Compliance Matrix: (Units=1/GPa)
#
#
# Indices 1 2 3 4 5 6 
#
# 1 0.041772 0.004139 -0.011274 0.000000 0.000000 0.000000
# 2 0.004139 0.012739 -0.003246 0.000000 0.000000 0.000000
# 3 -0.011274 -0.003246 0.008988 0.000000 0.000000 0.000000
# 4 0.000000 0.000000 0.000000 0.029388 0.000000 0.000000
# 5 0.000000 0.000000 0.000000 0.000000 0.022537 0.000000
# 6 0.000000 0.000000 0.000000 0.000000 0.000000 0.023148
#
#
# Mechanical properties :
#
#
# Convention : Reuss Voigt Hill
#
# Bulk Modulus (GPa) = 23.39838 50.45185 36.92511
# Shear Modulus (GPa) = 28.80580 39.37854 34.09217
#
# Velocity S-wave (km/s) = 3.43620 4.01761 3.73823
# Velocity P-wave (km/s) = 5.03332 6.49629 5.81103
#
# Compressibility (1/GPa) = 0.04273801
#
# Stress axis : x y z
#
# Youngs Moduli (GPa) = 23.93965 78.50184 111.26315
#
# Poissons Ratio (x) = -0.32495 1.25434
# Poissons Ratio (y) = -0.09910 0.36114
# Poissons Ratio (z) = 0.26989 0.25480
#
# Static dielectric constant tensor:
#      x y z
#    x 1.959100 0.000000 0.000000 
#    y 0.000000 1.888980 0.000000 
#    z 0.000000 0.000000 1.888520 
# 
# From -- ./inp_files/23532.got.cif
#   From: 2010.05.17/outbox.cif.g08.bks.cpg/sg55_12_cif.got.tgz:23532.got - 2010.06.03 13:27:54.
