data_PCOD9428384
_publ_section_title
;
Structure prediction by ZEFSAII (Michael W. Deem and Ramdas Pophale) SiO2 
 PCOD9428384
Probable space group: P B A M
;
_chemical_formula_sum "Si O2"
_cell_formula_units_Z 48
_cell_length_a 7.487356
_cell_length_b 14.940099
_cell_length_c 19.593692
_cell_angle_alpha 90.000000
_cell_angle_beta 90.000000
_cell_angle_gamma 90.000000
_cell_volume 2191.786437
_symmetry_space_group_name_H-M "P B A M"
_symmetry_group_IT_number 55
_symmetry_cell_setting 'orthorhombic'
loop_
_space_group_symop_operation_xyz
x,y,z
-x,-y,z
1/2+x,1/2-y,-z
1/2-x,1/2+y,-z
-x,-y,-z
x,y,-z
1/2-x,1/2+y,z
1/2+x,1/2-y,z
loop_
_atom_site_type_symbol
_atom_site_label
_atom_site_fract_x
_atom_site_fract_y
_atom_site_fract_z
Si Si1 0.333940 0.888350 0.681926
Si Si2 0.610390 0.122975 0.831455
Si Si3 0.231072 0.689096 0.669308
Si Si4 0.697976 0.329752 0.819040
Si Si5 0.087586 0.904366 0.925311
Si Si6 0.798809 0.965228 0.576217
O O1 0.325444 0.921740 0.760386
O O2 0.223496 0.796872 0.667697
O O3 0.532283 0.848744 0.676395
O O4 0.296072 0.967435 0.629350
O O5 0.691425 0.222857 0.826560
O O6 0.395766 0.131689 0.835678
O O7 0.713244 0.083581 0.895823
O O8 0.332839 0.657194 0.738107
O O9 0.303665 0.636026 0.604424
O O10 0.541987 0.361447 0.868667
O O11 0.089111 0.858365 0.000000
O O12 0.000000 0.000000 0.933508
O O13 0.720909 0.968742 0.500000
O O14 0.000000 0.000000 0.573381
#
# Coordination Sequence:
#
# PCOD9428384 Si02
#       6
#     8   8   8   8   8   8
#     4  10  22  39  64  93 122 162 210 260 310 366
#     4  10  21  40  65  94 121 161 216 260 307 372
#     4  10  22  39  64  93 122 162 210 260 310 366
#     4  10  21  40  65  94 121 161 216 260 307 372
#     4  11  26  42  60  92 129 169 204 255 328 374
#     4  11  25  41  61  93 127 166 207 250 316 378
#
# _framework density 21.899946
#
# number of rings (size 3 to 8) (size 9 to 14) (size 15 to 20)
#    0.000    1.667    1.667    1.500    7.000    4.000 
#    0.000    1.667    0.000    0.000    0.000    0.000 
#    0.000    0.000    0.000    0.000    0.000    0.000 
#
# Total GULP energy -267983.907549 kJ/mol
# GULP energy per Si atom -5582.998074 kJ/mol
# Density = 2.185010 g / cm^3
# Si number density = 21.899946 Si / 1000 Ang^3
#
#
#
# Elastic Constant Matrix: (Units=GPa)
#
#
# Indices 1 2 3 4 5 6 
#
# 1 86.2544 9.9279 47.5986 0.0000 0.0000 0.0000
# 2 9.9279 61.7563 28.8150 0.0000 0.0000 0.0000
# 3 47.5986 28.8150 118.3854 0.0000 0.0000 0.0000
# 4 0.0000 0.0000 0.0000 548.0357 0.0000 0.0000
# 5 0.0000 0.0000 0.0000 0.0000 46.9903 0.0000
# 6 0.0000 0.0000 0.0000 0.0000 0.0000 31.3089
#
#
#
# Elastic Compliance Matrix: (Units=1/GPa)
#
#
# Indices 1 2 3 4 5 6 
#
# 1 0.014911 0.000451 -0.006105 0.000000 0.000000 0.000000
# 2 0.000451 0.018281 -0.004631 0.000000 0.000000 0.000000
# 3 -0.006105 -0.004631 0.012029 0.000000 0.000000 0.000000
# 4 0.000000 0.000000 0.000000 0.001825 0.000000 0.000000
# 5 0.000000 0.000000 0.000000 0.000000 0.021281 0.000000
# 6 0.000000 0.000000 0.000000 0.000000 0.000000 0.031940
#
#
# Mechanical properties :
#
#
# Convention : Reuss Voigt Hill
#
# Bulk Modulus (GPa) = 40.56593 48.78655 44.67624
# Shear Modulus (GPa) = 38.74411 137.27063 88.00737
#
# Velocity S-wave (km/s) = 4.21068 7.92571 6.34613
# Velocity P-wave (km/s) = 6.49641 10.29957 8.61059
#
# Compressibility (1/GPa) = 0.02465123
#
# Stress axis : x y z
#
# Youngs Moduli (GPa) = 67.06652 54.70181 83.13407
#
# Poissons Ratio (x) = -0.02470 0.50753
# Poissons Ratio (y) = -0.03028 0.38500
# Poissons Ratio (z) = 0.40943 0.25333
#
# Static dielectric constant tensor:
#      x y z
#    x 1.834820 0.000000 0.000000 
#    y 0.000000 1.863810 0.000000 
#    z 0.000000 0.000000 1.903920 
# 
# From -- ./inp_files/20755.got.cif
#   From: 2010.05.17/outbox.cif.g08.bks.cpg/sg55_11_cif.got.tgz:20755.got - 2010.06.03 13:27:54.
