data_PCOD9428729
_publ_section_title
;
Structure prediction by ZEFSAII (Michael W. Deem and Ramdas Pophale) SiO2 
 PCOD9428729
Probable space group: P B A M
;
_chemical_formula_sum "Si O2"
_cell_formula_units_Z 40
_cell_length_a 10.309642
_cell_length_b 17.317245
_cell_length_c 11.728889
_cell_angle_alpha 90.000000
_cell_angle_beta 90.000000
_cell_angle_gamma 90.000000
_cell_volume 2094.012464
_symmetry_space_group_name_H-M "P B A M"
_symmetry_group_IT_number 55
_symmetry_cell_setting 'orthorhombic'
loop_
_space_group_symop_operation_xyz
x,y,z
-x,-y,z
1/2+x,1/2-y,-z
1/2-x,1/2+y,-z
-x,-y,-z
x,y,-z
1/2-x,1/2+y,z
1/2+x,1/2-y,z
loop_
_atom_site_type_symbol
_atom_site_label
_atom_site_fract_x
_atom_site_fract_y
_atom_site_fract_z
Si Si1 0.222092 0.041721 0.500000
Si Si2 0.605491 0.194904 0.635834
Si Si3 0.116237 0.941375 0.136026
Si Si4 0.543875 0.611879 0.500000
Si Si5 0.120537 0.791293 0.280118
Si Si6 0.358558 0.979552 0.289953
O O1 0.310110 0.038096 0.387999
O O2 0.111493 0.105743 0.500000
O O3 0.127981 0.966364 0.500000
O O4 0.596634 0.211987 0.500000
O O5 0.479696 0.221669 0.706303
O O6 0.731020 0.232716 0.697202
O O7 0.626691 0.103554 0.649432
O O8 0.100940 0.852122 0.177147
O O9 0.247034 0.971239 0.196243
O O10 0.124672 0.944186 0.000000
O O11 0.000000 0.000000 0.172558
O O12 0.586272 0.656303 0.611220
O O13 0.500000 0.000000 0.244110
#
# Coordination Sequence:
#
# PCOD9428729 Si02
#       6
#     4   8   8   4   8   8
#     4  11  19  31  55  87 116 153 189 231 283 349
#     4  11  20  36  53  82 122 154 186 225 290 355
#     4  10  22  42  64  82 108 151 205 249 285 339
#     4  11  18  31  57  81 115 153 198 229 278 341
#     4  11  21  36  54  84 116 154 188 236 286 342
#     4  11  22  37  58  88 124 152 188 244 299 351
#
# _framework density 19.102081999999999
#
# number of rings (size 3 to 8) (size 9 to 14) (size 15 to 20)
#    0.000    1.200    7.000    1.500    0.000    3.600 
#    0.000    4.000    0.000    0.000    0.000    0.000 
#    0.000    0.000    0.000    0.000    0.000    0.000 
#
# Total GULP energy -223216.304732 kJ/mol
# GULP energy per Si atom -5580.407618 kJ/mol
# Density = 1.905860 g / cm^3
# Si number density = 19.102082 Si / 1000 Ang^3
#
#
#
# Elastic Constant Matrix: (Units=GPa)
#
#
# Indices 1 2 3 4 5 6 
#
# 1 139.0331 18.9726 27.1541 0.0000 0.0000 0.0000
# 2 18.9726 22.4072 10.1203 0.0000 0.0000 0.0000
# 3 27.1541 10.1203 74.8454 0.0000 0.0000 0.0000
# 4 0.0000 0.0000 0.0000 11.4022 0.0000 0.0000
# 5 0.0000 0.0000 0.0000 0.0000 9.1371 0.0000
# 6 0.0000 0.0000 0.0000 0.0000 0.0000 38.4238
#
#
#
# Elastic Compliance Matrix: (Units=1/GPa)
#
#
# Indices 1 2 3 4 5 6 
#
# 1 0.008471 -0.006161 -0.002240 0.000000 0.000000 0.000000
# 2 -0.006161 0.052012 -0.004798 0.000000 0.000000 0.000000
# 3 -0.002240 -0.004798 0.014822 0.000000 0.000000 0.000000
# 4 0.000000 0.000000 0.000000 0.087702 0.000000 0.000000
# 5 0.000000 0.000000 0.000000 0.000000 0.109444 0.000000
# 6 0.000000 0.000000 0.000000 0.000000 0.000000 0.026026
#
#
# Mechanical properties :
#
#
# Convention : Reuss Voigt Hill
#
# Bulk Modulus (GPa) = 20.44667 38.75331 29.59999
# Shear Modulus (GPa) = 14.65521 23.79520 19.22520
#
# Velocity S-wave (km/s) = 2.77285 3.53326 3.17589
# Velocity P-wave (km/s) = 4.58025 6.08085 5.38310
#
# Compressibility (1/GPa) = 0.04890773
#
# Stress axis : x y z
#
# Youngs Moduli (GPa) = 118.05347 19.22650 67.46564
#
# Poissons Ratio (x) = 0.11845 0.15114
# Poissons Ratio (y) = 0.72727 0.32368
# Poissons Ratio (z) = 0.26446 0.09224
#
# Static dielectric constant tensor:
#      x y z
#    x 1.755810 0.000000 0.000000 
#    y 0.000000 1.720600 0.000000 
#    z 0.000000 0.000000 1.604530 
# 
# From -- ./inp_files/11892.got.cif
#   From: 2010.05.17/outbox.cif.g08.bks.cpg/sg55_6_cif.got.tgz:11892.got - 2010.06.03 13:27:54.
