data_PCOD9428222
_publ_section_title
;
Structure prediction by ZEFSAII (Michael W. Deem and Ramdas Pophale) SiO2 
 PCOD9428222
Probable space group: P B A M
;
_chemical_formula_sum "Si O2"
_cell_formula_units_Z 48
_cell_length_a 7.585857
_cell_length_b 28.887652
_cell_length_c 10.984937
_cell_angle_alpha 90.000000
_cell_angle_beta 90.000000
_cell_angle_gamma 90.000000
_cell_volume 2407.212699
_symmetry_space_group_name_H-M "P B A M"
_symmetry_group_IT_number 55
_symmetry_cell_setting 'orthorhombic'
loop_
_space_group_symop_operation_xyz
x,y,z
-x,-y,z
1/2+x,1/2-y,-z
1/2-x,1/2+y,-z
-x,-y,-z
x,y,-z
1/2-x,1/2+y,z
1/2+x,1/2-y,z
loop_
_atom_site_type_symbol
_atom_site_label
_atom_site_fract_x
_atom_site_fract_y
_atom_site_fract_z
Si Si1 0.602702 0.103849 0.352099
Si Si2 0.340813 0.673515 0.000000
Si Si3 0.437656 0.449560 0.645829
Si Si4 0.177575 0.304243 0.249857
Si Si5 0.486944 0.769307 0.000000
Si Si6 0.176494 0.720257 0.364058
Si Si7 0.210050 0.126432 0.741569
O O1 0.587643 0.110647 0.500000
O O2 0.717712 0.143247 0.281246
O O3 0.406931 0.106464 0.292091
O O4 0.729095 0.059571 0.333029
O O5 0.493588 0.712921 0.000000
O O6 0.322003 0.641771 0.118940
O O7 0.181415 0.710051 0.000000
O O8 0.500000 0.500000 0.688146
O O9 0.462179 0.447001 0.500000
O O10 0.565660 0.410400 0.700494
O O11 0.315233 0.264680 0.278424
O O12 0.021515 0.296496 0.347674
O O13 0.101534 0.292152 0.118682
O O14 0.216856 0.733985 0.500000
O O15 0.294861 0.676427 0.326584
#
# Coordination Sequence:
#
# PCOD9428222 Si02
#       7
#     8   4   8   8   4   8   8
#     4  10  21  38  63  95 127 161 205 260 323 385
#     4  12  24  40  59  88 127 174 228 257 309 368
#     4  10  23  43  69  98 123 157 210 267 331 397
#     4  11  21  34  53  82 119 162 207 245 302 364
#     4  12  20  40  56  83 126 172 225 253 284 368
#     4  11  21  33  51  81 119 157 198 249 308 370
#     4  11  22  41  61  90 126 170 207 263 318 377
#
# _framework density 19.940075
#
# number of rings (size 3 to 8) (size 9 to 14) (size 15 to 20)
#    0.000    1.167    5.000    4.000    2.333    2.000 
#    0.000    2.917    0.000    1.000    0.000    0.000 
#    0.000    0.000    0.000    0.000    0.000    0.000 
#
# Total GULP energy -267663.947653 kJ/mol
# GULP energy per Si atom -5576.332243 kJ/mol
# Density = 1.989469 g / cm^3
# Si number density = 19.940075 Si / 1000 Ang^3
#
#
#
# Elastic Constant Matrix: (Units=GPa)
#
#
# Indices 1 2 3 4 5 6 
#
# 1 76.0354 39.4400 15.2853 0.0000 0.0000 0.0000
# 2 39.4400 46.0185 13.0378 0.0000 0.0000 0.0000
# 3 15.2853 13.0378 89.0595 0.0000 0.0000 0.0000
# 4 0.0000 0.0000 0.0000 11.5789 0.0000 0.0000
# 5 0.0000 0.0000 0.0000 0.0000 23.3257 0.0000
# 6 0.0000 0.0000 0.0000 0.0000 0.0000 33.5123
#
#
#
# Elastic Compliance Matrix: (Units=1/GPa)
#
#
# Indices 1 2 3 4 5 6 
#
# 1 0.023789 -0.020064 -0.001146 0.000000 0.000000 0.000000
# 2 -0.020064 0.039593 -0.002353 0.000000 0.000000 0.000000
# 3 -0.001146 -0.002353 0.011769 0.000000 0.000000 0.000000
# 4 0.000000 0.000000 0.000000 0.086364 0.000000 0.000000
# 5 0.000000 0.000000 0.000000 0.000000 0.042871 0.000000
# 6 0.000000 0.000000 0.000000 0.000000 0.000000 0.029840
#
#
# Mechanical properties :
#
#
# Convention : Reuss Voigt Hill
#
# Bulk Modulus (GPa) = 35.67987 38.51551 37.09769
# Shear Modulus (GPa) = 17.20025 23.24006 20.22016
#
# Velocity S-wave (km/s) = 2.94019 3.41764 3.18786
# Velocity P-wave (km/s) = 5.42758 5.91027 5.67406
#
# Compressibility (1/GPa) = 0.02802701
#
# Stress axis : x y z
#
# Youngs Moduli (GPa) = 42.03548 25.25715 84.96541
#
# Poissons Ratio (x) = 0.50676 0.09735
# Poissons Ratio (y) = 0.84340 0.19989
# Poissons Ratio (z) = 0.04816 0.05942
#
# Static dielectric constant tensor:
#      x y z
#    x 1.802290 0.000000 0.000000 
#    y 0.000000 1.802170 0.000000 
#    z 0.000000 0.000000 1.685680 
# 
# From -- ./inp_files/12326.got.cif
#   From: 2010.05.17/outbox.cif.g08.bks.cpg/sg55_7_cif.got.tgz:12326.got - 2010.06.03 13:27:54.
