data_PCOD9428800
_publ_section_title
;
Structure prediction by ZEFSAII (Michael W. Deem and Ramdas Pophale) SiO2 
 PCOD9428800
Probable space group: P B A M
;
_chemical_formula_sum "Si O2"
_cell_formula_units_Z 38
_cell_length_a 9.630456
_cell_length_b 25.729112
_cell_length_c 9.181744
_cell_angle_alpha 90.000000
_cell_angle_beta 90.000000
_cell_angle_gamma 90.000000
_cell_volume 2275.080818
_symmetry_space_group_name_H-M "P B A M"
_symmetry_group_IT_number 55
_symmetry_cell_setting 'orthorhombic'
loop_
_space_group_symop_operation_xyz
x,y,z
-x,-y,z
1/2+x,1/2-y,-z
1/2-x,1/2+y,-z
-x,-y,-z
x,y,-z
1/2-x,1/2+y,z
1/2+x,1/2-y,z
loop_
_atom_site_type_symbol
_atom_site_label
_atom_site_fract_x
_atom_site_fract_y
_atom_site_fract_z
Si Si1 0.513200 0.915023 0.758381
Si Si2 0.000000 0.500000 0.500000
Si Si3 0.267126 0.049730 0.000000
Si Si4 0.587487 0.797928 0.672503
Si Si5 0.123042 0.221760 0.834123
Si Si6 0.986579 0.871711 0.000000
Si Si7 0.780894 0.573398 0.000000
O O1 0.496666 0.954773 0.627238
O O2 0.639946 0.934059 0.861161
O O3 0.545500 0.857326 0.703244
O O4 0.376791 0.915131 0.860063
O O5 0.124969 0.081941 0.000000
O O6 0.246364 0.987986 0.000000
O O7 0.596040 0.788669 0.500000
O O8 0.734288 0.787187 0.750152
O O9 0.474811 0.760584 0.747282
O O10 0.046535 0.166584 0.864085
O O11 0.650948 0.258525 0.000000
O O12 0.141020 0.893360 0.000000
#
# Coordination Sequence:
#
# PCOD9428800 Si02
#       7
#     8   2   4   8   8   4   4
#     4  11  22  37  66  91 121 160 202 258 298 369
#     4  12  20  42  60  94 124 162 204 246 318 354
#     4  11  19  42  62  92 116 161 212 250 300 358
#     4  12  24  40  63  92 126 159 203 257 315 365
#     4  10  24  41  62  90 120 166 206 252 301 374
#     4  10  23  38  66  87 124 154 205 260 303 353
#     4  11  23  36  64  95 118 154 213 258 293 366
#
# _framework density 16.702704000000001
#
# number of rings (size 3 to 8) (size 9 to 14) (size 15 to 20)
#    0.632    0.421    5.263    2.211    7.368    0.000 
#    0.000    0.000    2.316    1.263    0.000    0.000 
#    0.000    0.000    0.000    0.000    0.000    0.000 
#
# Total GULP energy -211583.753042 kJ/mol
# GULP energy per Si atom -5567.993501 kJ/mol
# Density = 1.666469 g / cm^3
# Si number density = 16.702704 Si / 1000 Ang^3
#
#
#
# Elastic Constant Matrix: (Units=GPa)
#
#
# Indices 1 2 3 4 5 6 
#
# 1 135.8380 102.0348 88.5186 0.0000 0.0000 0.0000
# 2 102.0348 132.5597 75.0755 0.0000 0.0000 0.0000
# 3 88.5186 75.0755 177.4876 0.0000 0.0000 0.0000
# 4 0.0000 0.0000 0.0000 39.0079 0.0000 0.0000
# 5 0.0000 0.0000 0.0000 0.0000 13.7197 0.0000
# 6 0.0000 0.0000 0.0000 0.0000 0.0000 27.2130
#
#
#
# Elastic Compliance Matrix: (Units=1/GPa)
#
#
# Indices 1 2 3 4 5 6 
#
# 1 0.019880 -0.012739 -0.004526 0.000000 0.000000 0.000000
# 2 -0.012739 0.018083 -0.001296 0.000000 0.000000 0.000000
# 3 -0.004526 -0.001296 0.008440 0.000000 0.000000 0.000000
# 4 0.000000 0.000000 0.000000 0.025636 0.000000 0.000000
# 5 0.000000 0.000000 0.000000 0.000000 0.072888 0.000000
# 6 0.000000 0.000000 0.000000 0.000000 0.000000 0.036747
#
#
# Mechanical properties :
#
#
# Convention : Reuss Voigt Hill
#
# Bulk Modulus (GPa) = 107.74677 108.57142 108.15910
# Shear Modulus (GPa) = 22.53382 28.00523 25.26952
#
# Velocity S-wave (km/s) = 3.67701 4.09918 3.89382
# Velocity P-wave (km/s) = 9.09263 9.35670 9.22561
#
# Compressibility (1/GPa) = 0.00928102
#
# Stress axis : x y z
#
# Youngs Moduli (GPa) = 50.30199 55.30108 118.48667
#
# Poissons Ratio (x) = 0.70446 0.53632
# Poissons Ratio (y) = 0.64077 0.15353
# Poissons Ratio (z) = 0.22769 0.07166
#
# Static dielectric constant tensor:
#      x y z
#    x 1.532830 0.000000 0.000000 
#    y 0.000000 1.556290 0.000000 
#    z 0.000000 0.000000 1.536300 
# 
# From -- ./inp_files/2414.got.cif
#   From: 2010.05.17/outbox.cif.g08.bks.cpg/sg55_2_cif.got.tgz:2414.got - 2010.06.03 13:27:54.
