data_PCOD9428287
_publ_section_title
;
Structure prediction by ZEFSAII (Michael W. Deem and Ramdas Pophale) SiO2 
 PCOD9428287
Probable space group: P B A M
;
_chemical_formula_sum "Si O2"
_cell_formula_units_Z 48
_cell_length_a 19.440590
_cell_length_b 15.947786
_cell_length_c 7.288704
_cell_angle_alpha 90.000000
_cell_angle_beta 90.000000
_cell_angle_gamma 90.000000
_cell_volume 2259.748746
_symmetry_space_group_name_H-M "P B A M"
_symmetry_group_IT_number 55
_symmetry_cell_setting 'orthorhombic'
loop_
_space_group_symop_operation_xyz
x,y,z
-x,-y,z
1/2+x,1/2-y,-z
1/2-x,1/2+y,-z
-x,-y,-z
x,y,-z
1/2-x,1/2+y,z
1/2+x,1/2-y,z
loop_
_atom_site_type_symbol
_atom_site_label
_atom_site_fract_x
_atom_site_fract_y
_atom_site_fract_z
Si Si1 0.883877 0.017495 0.500000
Si Si2 0.229518 0.274753 0.777194
Si Si3 0.763981 0.033920 0.779163
Si Si4 0.926170 0.747475 0.780479
Si Si5 0.670934 0.874496 0.222941
Si Si6 0.992430 0.866927 0.500000
Si Si7 0.483084 0.092906 0.222750
O O1 0.834578 0.013749 0.675948
O O2 0.929976 0.100946 0.500000
O O3 0.938691 0.943261 0.500000
O O4 0.242498 0.371429 0.724725
O O5 0.153128 0.246207 0.722393
O O6 0.285807 0.206742 0.715906
O O7 0.230209 0.274526 0.000000
O O8 0.709222 0.961535 0.728802
O O9 0.771784 0.031894 0.000000
O O10 0.974029 0.813017 0.677979
O O11 0.956417 0.656708 0.731195
O O12 0.929745 0.757743 0.000000
O O13 0.591941 0.876401 0.284134
O O14 0.670468 0.871750 0.000000
O O15 0.500000 0.000000 0.286825
O O16 0.480414 0.090268 0.000000
#
# Coordination Sequence:
#
# PCOD9428287 Si02
#       7
#     4   8   8   8   8   4   8
#     4  11  26  43  59  85 118 158 212 268 309 358
#     4   9  18  33  58  90 117 153 205 245 295 372
#     4  10  21  39  63  88 122 157 198 255 313 368
#     4  10  21  39  64  89 124 167 200 247 316 371
#     4   9  17  31  55  86 117 152 197 246 294 362
#     4  11  26  43  58  85 121 156 217 268 296 365
#     4   9  17  31  56  90 126 159 196 245 307 373
#
# _framework density 21.241298
#
# number of rings (size 3 to 8) (size 9 to 14) (size 15 to 20)
#    0.000    2.333    0.000    2.000    2.333    7.333 
#    0.000    3.750    0.000    0.000    0.000    0.000 
#    0.000    0.000    0.000    0.000    0.000    0.000 
#
# Total GULP energy -268280.315127 kJ/mol
# GULP energy per Si atom -5589.173232 kJ/mol
# Density = 2.119295 g / cm^3
# Si number density = 21.241298 Si / 1000 Ang^3
#
#
#
# Elastic Constant Matrix: (Units=GPa)
#
#
# Indices 1 2 3 4 5 6 
#
# 1 94.1275 10.3222 2.5843 0.0000 0.0000 0.0000
# 2 10.3222 86.6161 1.5679 0.0000 0.0000 0.0000
# 3 2.5843 1.5679 85.6035 0.0000 0.0000 0.0000
# 4 0.0000 0.0000 0.0000 -3.2649 0.0000 0.0000
# 5 0.0000 0.0000 0.0000 0.0000 13.1591 0.0000
# 6 0.0000 0.0000 0.0000 0.0000 0.0000 35.0760
#
#
#
# Elastic Compliance Matrix: (Units=1/GPa)
#
#
# Indices 1 2 3 4 5 6 
#
# 1 0.010772 -0.001278 -0.000302 0.000000 0.000000 0.000000
# 2 -0.001278 0.011701 -0.000176 0.000000 0.000000 0.000000
# 3 -0.000302 -0.000176 0.011694 0.000000 0.000000 0.000000
# 4 0.000000 0.000000 0.000000 -0.306289 0.000000 0.000000
# 5 0.000000 0.000000 0.000000 0.000000 0.075993 0.000000
# 6 0.000000 0.000000 0.000000 0.000000 0.000000 0.028510
#
#
# Mechanical properties :
#
#
# Convention : Reuss Voigt Hill
#
# Bulk Modulus (GPa) = 32.62054 32.81067 32.71560
# Shear Modulus (GPa) = -32.49087 25.78555 -3.35266
#
# Velocity S-wave (km/s) = -3.91526 3.48794 -1.25769
# Velocity P-wave (km/s) = 2.24691 5.63037 3.65052
#
# Compressibility (1/GPa) = 0.03065553
#
# Stress axis : x y z
#
# Youngs Moduli (GPa) = 92.83020 85.46481 85.51323
#
# Poissons Ratio (x) = 0.10925 0.02581
# Poissons Ratio (y) = 0.11867 0.01503
# Poissons Ratio (z) = 0.02802 0.01502
#
# Static dielectric constant tensor:
#      x y z
#    x 1.710920 0.000000 0.000000 
#    y 0.000000 1.767000 0.000000 
#    z 0.000000 0.000000 1.608930 
# 
# From -- ./inp_files/7450.got.cif
#   From: 2010.05.17/outbox.cif.g08.bks.cpg/sg55_4_cif.got.tgz:7450.got - 2010.06.03 13:27:54.
