data_PCOD9428106
_publ_section_title
;
Structure prediction by ZEFSAII (Michael W. Deem and Ramdas Pophale) SiO2 
 PCOD9428106
Probable space group: P B A M
;
_chemical_formula_sum "Si O2"
_cell_formula_units_Z 56
_cell_length_a 21.800756
_cell_length_b 15.240874
_cell_length_c 8.588005
_cell_angle_alpha 90.000000
_cell_angle_beta 90.000000
_cell_angle_gamma 90.000000
_cell_volume 2853.472658
_symmetry_space_group_name_H-M "P B A M"
_symmetry_group_IT_number 55
_symmetry_cell_setting 'orthorhombic'
loop_
_space_group_symop_operation_xyz
x,y,z
-x,-y,z
1/2+x,1/2-y,-z
1/2-x,1/2+y,-z
-x,-y,-z
x,y,-z
1/2-x,1/2+y,z
1/2+x,1/2-y,z
loop_
_atom_site_type_symbol
_atom_site_label
_atom_site_fract_x
_atom_site_fract_y
_atom_site_fract_z
Si Si1 0.099335 0.286630 0.314666
Si Si2 0.690833 0.935272 0.188121
Si Si3 0.730784 0.267048 0.185212
Si Si4 0.016230 0.137620 0.816579
Si Si5 0.411969 0.476357 0.683268
Si Si6 0.430913 0.978887 0.188238
Si Si7 0.275274 0.412124 0.684592
O O1 0.096898 0.286995 0.500000
O O2 0.164005 0.244076 0.262078
O O3 0.045055 0.226790 0.246423
O O4 0.091995 0.385352 0.251860
O O5 0.728340 0.849421 0.239886
O O6 0.619310 0.946908 0.231262
O O7 0.725252 0.019312 0.256368
O O8 0.693998 0.937610 0.000000
O O9 0.766840 0.178501 0.225860
O O10 0.721741 0.274677 0.000000
O O11 0.955063 0.105083 0.730103
O O12 0.005146 0.142995 0.000000
O O13 0.064649 0.059653 0.780111
O O14 0.420104 0.495972 0.500000
O O15 0.341849 0.453434 0.712760
O O16 0.500000 0.000000 0.241279
O O17 0.431789 0.973027 0.000000
O O18 0.267908 0.396767 0.500000
#
# Coordination Sequence:
#
# PCOD9428106 Si02
#       7
#     8   8   8   8   8   8   8
#     4  12  24  40  62  90 123 164 210 259 318 379
#     4  10  22  40  63  90 123 163 208 262 315 373
#     4  11  23  39  62  91 122 162 211 260 315 377
#     4  11  22  37  60  88 119 161 209 254 306 369
#     4  10  21  38  58  87 126 161 200 254 314 373
#     4  10  22  42  66  92 124 163 208 261 318 381
#     4  11  23  38  60  90 123 161 198 250 312 371
#
# _framework density 19.625209999999999
#
# number of rings (size 3 to 8) (size 9 to 14) (size 15 to 20)
#    0.000    1.286    1.429    5.571    0.000    7.143 
#    0.000    1.429    0.000    0.000    0.000    0.000 
#    0.000    0.000    0.000    0.000    0.000    0.000 
#
# Total GULP energy -313052.201713 kJ/mol
# GULP energy per Si atom -5590.217888 kJ/mol
# Density = 1.958054 g / cm^3
# Si number density = 19.625210 Si / 1000 Ang^3
#
#
#
# Elastic Constant Matrix: (Units=GPa)
#
#
# Indices 1 2 3 4 5 6 
#
# 1 110.7640 33.9125 15.8956 0.0000 0.0000 0.0000
# 2 33.9125 84.9798 7.0454 0.0000 0.0000 0.0000
# 3 15.8956 7.0454 29.3666 0.0000 0.0000 0.0000
# 4 0.0000 0.0000 0.0000 22.3677 0.0000 0.0000
# 5 0.0000 0.0000 0.0000 0.0000 23.2543 0.0000
# 6 0.0000 0.0000 0.0000 0.0000 0.0000 32.2776
#
#
#
# Elastic Compliance Matrix: (Units=1/GPa)
#
#
# Indices 1 2 3 4 5 6 
#
# 1 0.010955 -0.003959 -0.004980 0.000000 0.000000 0.000000
# 2 -0.003959 0.013437 -0.001081 0.000000 0.000000 0.000000
# 3 -0.004980 -0.001081 0.037007 0.000000 0.000000 0.000000
# 4 0.000000 0.000000 0.000000 0.044707 0.000000 0.000000
# 5 0.000000 0.000000 0.000000 0.000000 0.043003 0.000000
# 6 0.000000 0.000000 0.000000 0.000000 0.000000 0.030981
#
#
# Mechanical properties :
#
#
# Convention : Reuss Voigt Hill
#
# Bulk Modulus (GPa) = 24.17805 37.64637 30.91221
# Shear Modulus (GPa) = 23.37364 26.79705 25.08535
#
# Velocity S-wave (km/s) = 3.45483 3.69920 3.57910
# Velocity P-wave (km/s) = 5.31612 6.12125 5.73284
#
# Compressibility (1/GPa) = 0.04135982
#
# Stress axis : x y z
#
# Youngs Moduli (GPa) = 91.28292 74.42156 27.02180
#
# Poissons Ratio (x) = 0.29463 0.13457
# Poissons Ratio (y) = 0.36138 0.02921
# Poissons Ratio (z) = 0.45458 0.08044
#
# Static dielectric constant tensor:
#      x y z
#    x 1.700060 0.000000 0.000000 
#    y 0.000000 1.667530 0.000000 
#    z 0.000000 0.000000 1.656810 
# 
# From -- ./inp_files/8804.got.cif
#   From: 2010.05.17/outbox.cif.g08.bks.cpg/sg55_5_cif.got.tgz:8804.got - 2010.06.03 13:27:54.
