data_PCOD9428440
_publ_section_title
;
Structure prediction by ZEFSAII (Michael W. Deem and Ramdas Pophale) SiO2 
 PCOD9428440
Probable space group: P B A M
;
_chemical_formula_sum "Si O2"
_cell_formula_units_Z 58
_cell_length_a 23.839402
_cell_length_b 15.667713
_cell_length_c 8.820600
_cell_angle_alpha 90.000000
_cell_angle_beta 90.000000
_cell_angle_gamma 90.000000
_cell_volume 3294.572679
_symmetry_space_group_name_H-M "P B A M"
_symmetry_group_IT_number 55
_symmetry_cell_setting 'orthorhombic'
loop_
_space_group_symop_operation_xyz
x,y,z
-x,-y,z
1/2+x,1/2-y,-z
1/2-x,1/2+y,-z
-x,-y,-z
x,y,-z
1/2-x,1/2+y,z
1/2+x,1/2-y,z
loop_
_atom_site_type_symbol
_atom_site_label
_atom_site_fract_x
_atom_site_fract_y
_atom_site_fract_z
Si Si1 0.000000 0.000000 0.000000
Si Si2 0.787123 0.039553 0.318300
Si Si3 0.206902 0.606008 0.182356
Si Si4 0.035363 0.371521 0.816711
Si Si5 0.388200 0.544954 0.832703
Si Si6 0.760263 0.724569 0.317389
Si Si7 0.082463 0.555089 0.816039
Si Si8 0.613080 0.270325 0.680996
O O1 0.950452 0.987274 0.129608
O O2 0.786139 0.032963 0.500000
O O3 0.747071 0.966756 0.249826
O O4 0.849208 0.020481 0.256994
O O5 0.764918 0.132997 0.274273
O O6 0.228175 0.697308 0.239964
O O7 0.143008 0.587334 0.233718
O O8 0.208446 0.603108 0.000000
O O9 0.068977 0.457535 0.771182
O O10 0.064633 0.289396 0.747568
O O11 0.970830 0.387546 0.769711
O O12 0.036863 0.365584 0.000000
O O13 0.389812 0.634836 0.747458
O O14 0.361520 0.559312 0.000000
O O15 0.755783 0.733685 0.500000
O O16 0.826069 0.731357 0.277951
O O17 0.082198 0.555351 0.000000
O O18 0.609176 0.273171 0.500000
#
# Coordination Sequence:
#
# PCOD9428440 Si02
#       8
#     2   8   8   8   8   8   8   8
#     4   8  24  44  66  84 112 142 206 254 304 340
#     4  11  22  39  62  88 123 160 194 244 310 369
#     4  11  21  35  58  89 118 153 197 245 295 356
#     4   9  17  34  58  81 113 155 196 243 292 349
#     4  10  21  42  64  85 109 153 197 251 300 349
#     4  10  23  39  56  84 121 159 195 239 302 368
#     4   8  17  34  54  82 117 154 195 240 297 351
#     4  11  21  36  59  88 118 153 201 246 294 363
#
# _framework density 17.604710000000001
#
# number of rings (size 3 to 8) (size 9 to 14) (size 15 to 20)
#    0.414    1.655    1.379    3.310    0.000    1.655 
#    2.483    4.828    0.000    0.000    0.000    0.000 
#    0.000    0.000    0.000    0.000    0.000    0.000 
#
# Total GULP energy -323013.552678 kJ/mol
# GULP energy per Si atom -5569.199184 kJ/mol
# Density = 1.756464 g / cm^3
# Si number density = 17.604710 Si / 1000 Ang^3
#
#
#
# Elastic Constant Matrix: (Units=GPa)
#
#
# Indices 1 2 3 4 5 6 
#
# 1 138.8457 72.1180 35.8195 0.0000 0.0000 0.0000
# 2 72.1180 113.0408 39.2418 0.0000 0.0000 0.0000
# 3 35.8195 39.2418 41.7909 0.0000 0.0000 0.0000
# 4 0.0000 0.0000 0.0000 18.8843 0.0000 0.0000
# 5 0.0000 0.0000 0.0000 0.0000 13.6620 0.0000
# 6 0.0000 0.0000 0.0000 0.0000 0.0000 28.9353
#
#
#
# Elastic Compliance Matrix: (Units=1/GPa)
#
#
# Indices 1 2 3 4 5 6 
#
# 1 0.011273 -0.005694 -0.004316 0.000000 0.000000 0.000000
# 2 -0.005694 0.016000 -0.010144 0.000000 0.000000 0.000000
# 3 -0.004316 -0.010144 0.037153 0.000000 0.000000 0.000000
# 4 0.000000 0.000000 0.000000 0.052954 0.000000 0.000000
# 5 0.000000 0.000000 0.000000 0.000000 0.073196 0.000000
# 6 0.000000 0.000000 0.000000 0.000000 0.000000 0.034560
#
#
# Mechanical properties :
#
#
# Convention : Reuss Voigt Hill
#
# Bulk Modulus (GPa) = 41.46088 65.33733 53.39911
# Shear Modulus (GPa) = 18.28261 22.06286 20.17274
#
# Velocity S-wave (km/s) = 3.22608 3.54395 3.38874
# Velocity P-wave (km/s) = 6.12201 7.34440 6.76089
#
# Compressibility (1/GPa) = 0.02411912
#
# Stress axis : x y z
#
# Youngs Moduli (GPa) = 88.70718 62.49815 26.91551
#
# Poissons Ratio (x) = 0.35585 0.11616
# Poissons Ratio (y) = 0.50508 0.27304
# Poissons Ratio (z) = 0.38284 0.63400
#
# Static dielectric constant tensor:
#      x y z
#    x 1.596460 0.000000 0.000000 
#    y 0.000000 1.573380 0.000000 
#    z 0.000000 0.000000 1.599540 
# 
# From -- ./inp_files/9617.got.cif
#   From: 2010.05.17/outbox.cif.g08.bks.cpg/sg55_5_cif.got.tgz:9617.got - 2010.06.03 13:27:54.
