data_PCOD9428447
_publ_section_title
;
Structure prediction by ZEFSAII (Michael W. Deem and Ramdas Pophale) SiO2 
 PCOD9428447
Probable space group: P B A M
;
_chemical_formula_sum "Si O2"
_cell_formula_units_Z 40
_cell_length_a 10.373978
_cell_length_b 11.176347
_cell_length_c 15.267453
_cell_angle_alpha 90.000000
_cell_angle_beta 90.000000
_cell_angle_gamma 90.000000
_cell_volume 1770.157019
_symmetry_space_group_name_H-M "P B A M"
_symmetry_group_IT_number 55
_symmetry_cell_setting 'orthorhombic'
loop_
_space_group_symop_operation_xyz
x,y,z
-x,-y,z
1/2+x,1/2-y,-z
1/2-x,1/2+y,-z
-x,-y,-z
x,y,-z
1/2-x,1/2+y,z
1/2+x,1/2-y,z
loop_
_atom_site_type_symbol
_atom_site_label
_atom_site_fract_x
_atom_site_fract_y
_atom_site_fract_z
Si Si1 0.204184 0.981841 0.401225
Si Si2 0.612693 0.079542 0.257581
Si Si3 0.241670 0.800253 0.096724
Si Si4 0.033928 0.130457 0.868470
Si Si5 0.481751 0.674107 0.333990
O O1 0.250202 0.965112 0.500000
O O2 0.311047 0.998441 0.327883
O O3 0.121407 0.865171 0.370016
O O4 0.113789 0.098639 0.395240
O O5 0.705291 0.125193 0.179863
O O6 0.554526 0.189001 0.315489
O O7 0.500000 0.000000 0.217816
O O8 0.330435 0.682310 0.100851
O O9 0.088130 0.785163 0.108463
O O10 0.262361 0.854397 0.000000
O O11 0.036248 0.123026 0.763740
O O12 0.000000 0.000000 0.902973
#
# Coordination Sequence:
#
# PCOD9428447 Si02
#       5
#     8   8   8   8   8
#     4  11  23  43  69  98 132 178 225 278 347 416
#     4  11  26  43  68 100 138 179 227 288 349 416
#     4  11  25  43  68 104 139 186 242 293 350 424
#     4  11  22  44  72  97 142 185 235 291 362 423
#     4  10  21  42  68  95 130 176 223 276 345 411
#
# _framework density 22.596865000000001
#
# number of rings (size 3 to 8) (size 9 to 14) (size 15 to 20)
#    0.000    1.200    4.000    1.800    2.800    8.800 
#    0.000    0.000    0.000    0.000    0.000    0.000 
#    0.000    0.000    0.000    0.000    0.000    0.000 
#
# Total GULP energy -223395.405841 kJ/mol
# GULP energy per Si atom -5584.885146 kJ/mol
# Density = 2.254543 g / cm^3
# Si number density = 22.596865 Si / 1000 Ang^3
#
#
#
# Elastic Constant Matrix: (Units=GPa)
#
#
# Indices 1 2 3 4 5 6 
#
# 1 52.8020 29.4636 -14.4696 0.0000 0.0000 0.0000
# 2 29.4636 51.2726 -9.1725 0.0000 0.0000 0.0000
# 3 -14.4696 -9.1725 137.8691 0.0000 0.0000 0.0000
# 4 0.0000 0.0000 0.0000 -59.3675 0.0000 0.0000
# 5 0.0000 0.0000 0.0000 0.0000 -52.8801 0.0000
# 6 0.0000 0.0000 0.0000 0.0000 0.0000 25.1820
#
#
#
# Elastic Compliance Matrix: (Units=1/GPa)
#
#
# Indices 1 2 3 4 5 6 
#
# 1 0.028369 -0.015959 0.001916 0.000000 0.000000 0.000000
# 2 -0.015959 0.028717 0.000236 0.000000 0.000000 0.000000
# 3 0.001916 0.000236 0.007470 0.000000 0.000000 0.000000
# 4 0.000000 0.000000 0.000000 -0.016844 0.000000 0.000000
# 5 0.000000 0.000000 0.000000 0.000000 -0.018911 0.000000
# 6 0.000000 0.000000 0.000000 0.000000 0.000000 0.039711
#
#
# Mechanical properties :
#
#
# Convention : Reuss Voigt Hill
#
# Bulk Modulus (GPa) = 27.07153 28.17630 27.62392
# Shear Modulus (GPa) = 46.10787 -1.67164 22.21811
#
# Velocity S-wave (km/s) = 4.52204 -0.86103 3.13907
# Velocity P-wave (km/s) = 6.26669 3.39230 5.03880
#
# Compressibility (1/GPa) = 0.03693917
#
# Stress axis : x y z
#
# Youngs Moduli (GPa) = 35.24974 34.82288 133.86927
#
# Poissons Ratio (x) = 0.55575 -0.25644
# Poissons Ratio (y) = 0.56257 -0.03154
# Poissons Ratio (z) = -0.06752 -0.00820
#
# Static dielectric constant tensor:
#      x y z
#    x 1.889680 0.000000 0.000000 
#    y 0.000000 1.895230 0.000000 
#    z 0.000000 0.000000 1.800530 
# 
# From -- ./inp_files/20608.got.cif
#   From: 2010.05.17/outbox.cif.g08.bks.cpg/sg55_11_cif.got.tgz:20608.got - 2010.06.03 13:27:54.
