data_PCOD9428556
_publ_section_title
;
Structure prediction by ZEFSAII (Michael W. Deem and Ramdas Pophale) SiO2 
 PCOD9428556
Probable space group: P B A M
;
_chemical_formula_sum "Si O2"
_cell_formula_units_Z 40
_cell_length_a 10.381205
_cell_length_b 21.476652
_cell_length_c 7.861384
_cell_angle_alpha 90.000000
_cell_angle_beta 90.000000
_cell_angle_gamma 90.000000
_cell_volume 1752.723291
_symmetry_space_group_name_H-M "P B A M"
_symmetry_group_IT_number 55
_symmetry_cell_setting 'orthorhombic'
loop_
_space_group_symop_operation_xyz
x,y,z
-x,-y,z
1/2+x,1/2-y,-z
1/2-x,1/2+y,-z
-x,-y,-z
x,y,-z
1/2-x,1/2+y,z
1/2+x,1/2-y,z
loop_
_atom_site_type_symbol
_atom_site_label
_atom_site_fract_x
_atom_site_fract_y
_atom_site_fract_z
Si Si1 0.314661 0.546422 0.705748
Si Si2 0.323128 0.275898 0.301611
Si Si3 0.966867 0.432169 0.201556
Si Si4 0.942426 0.696476 0.802549
Si Si5 0.401847 0.412169 0.706927
O O1 0.309126 0.547581 0.500000
O O2 0.185571 0.576779 0.774508
O O3 0.325376 0.474005 0.762419
O O4 0.448840 0.578492 0.756724
O O5 0.357356 0.273866 0.500000
O O6 0.419599 0.229025 0.212342
O O7 0.347771 0.346197 0.235897
O O8 0.171424 0.264541 0.282743
O O9 0.042991 0.373013 0.273597
O O10 0.000000 0.500000 0.275449
O O11 0.994448 0.433790 0.000000
O O12 0.908112 0.691955 0.000000
O O13 0.398201 0.413018 0.500000
#
# Coordination Sequence:
#
# PCOD9428556 Si02
#       5
#     8   8   8   8   8
#     4   9  17  33  59  88 117 150 193 243 301 356
#     4  11  23  41  64  90 121 161 210 255 299 362
#     4  10  22  39  58  83 119 157 200 249 300 359
#     4  11  25  43  62  89 126 166 204 251 312 367
#     4   8  17  34  57  87 120 151 189 247 303 351
#
# _framework density 22.821626999999999
#
# number of rings (size 3 to 8) (size 9 to 14) (size 15 to 20)
#    0.000    2.200    0.000    3.600    2.800    2.000 
#    0.000    4.000    0.000    0.000    0.000    0.000 
#    0.000    0.000    0.000    0.000    0.000    0.000 
#
# Total GULP energy -223580.785740 kJ/mol
# GULP energy per Si atom -5589.519644 kJ/mol
# Density = 2.276968 g / cm^3
# Si number density = 22.821627 Si / 1000 Ang^3
#
#
#
# Elastic Constant Matrix: (Units=GPa)
#
#
# Indices 1 2 3 4 5 6 
#
# 1 89.7939 26.8714 -7.7383 0.0000 0.0000 0.0000
# 2 26.8714 58.1891 6.4918 0.0000 0.0000 0.0000
# 3 -7.7383 6.4918 36.4044 0.0000 0.0000 0.0000
# 4 0.0000 0.0000 0.0000 11.3237 0.0000 0.0000
# 5 0.0000 0.0000 0.0000 0.0000 31.0638 0.0000
# 6 0.0000 0.0000 0.0000 0.0000 0.0000 33.4882
#
#
#
# Elastic Compliance Matrix: (Units=1/GPa)
#
#
# Indices 1 2 3 4 5 6 
#
# 1 0.013485 -0.006680 0.004058 0.000000 0.000000 0.000000
# 2 -0.006680 0.020843 -0.005137 0.000000 0.000000 0.000000
# 3 0.004058 -0.005137 0.029248 0.000000 0.000000 0.000000
# 4 0.000000 0.000000 0.000000 0.088310 0.000000 0.000000
# 5 0.000000 0.000000 0.000000 0.000000 0.032192 0.000000
# 6 0.000000 0.000000 0.000000 0.000000 0.000000 0.029861
#
#
# Mechanical properties :
#
#
# Convention : Reuss Voigt Hill
#
# Bulk Modulus (GPa) = 20.80823 26.18192 23.49508
# Shear Modulus (GPa) = 20.36845 25.75930 23.06388
#
# Velocity S-wave (km/s) = 2.99073 3.36329 3.18247
# Velocity P-wave (km/s) = 4.58950 5.15554 4.88073
#
# Compressibility (1/GPa) = 0.04805790
#
# Stress axis : x y z
#
# Youngs Moduli (GPa) = 74.15435 47.97707 34.19066
#
# Poissons Ratio (x) = 0.32049 -0.13874
# Poissons Ratio (y) = 0.49536 0.17563
# Poissons Ratio (z) = -0.30090 0.24645
#
# Static dielectric constant tensor:
#      x y z
#    x 1.839960 0.000000 0.000000 
#    y 0.000000 1.875470 0.000000 
#    z 0.000000 0.000000 1.822570 
# 
# From -- ./inp_files/2337.got.cif
#   From: 2010.05.17/outbox.cif.g08.bks.cpg/sg55_2_cif.got.tgz:2337.got - 2010.06.03 13:27:54.
