data_PCOD9428071
_publ_section_title
;
Structure prediction by ZEFSAII (Michael W. Deem and Ramdas Pophale) SiO2 
 PCOD9428071
Probable space group: P B A M
;
_chemical_formula_sum "Si O2"
_cell_formula_units_Z 64
_cell_length_a 15.344815
_cell_length_b 11.610823
_cell_length_c 17.366580
_cell_angle_alpha 90.000000
_cell_angle_beta 90.000000
_cell_angle_gamma 90.000000
_cell_volume 3094.132893
_symmetry_space_group_name_H-M "P B A M"
_symmetry_group_IT_number 55
_symmetry_cell_setting 'orthorhombic'
loop_
_space_group_symop_operation_xyz
x,y,z
-x,-y,z
1/2+x,1/2-y,-z
1/2-x,1/2+y,-z
-x,-y,-z
x,y,-z
1/2-x,1/2+y,z
1/2+x,1/2-y,z
loop_
_atom_site_type_symbol
_atom_site_label
_atom_site_fract_x
_atom_site_fract_y
_atom_site_fract_z
Si Si1 0.818878 0.753440 0.668560
Si Si2 0.098421 0.040800 0.414996
Si Si3 0.339085 0.264597 0.910382
Si Si4 0.868912 0.185133 0.645087
Si Si5 0.985624 0.630257 0.647388
Si Si6 0.489667 0.131762 0.166744
Si Si7 0.398780 0.464194 0.196759
Si Si8 0.656843 0.279150 0.840153
O O1 0.865173 0.873657 0.648420
O O2 0.719031 0.757866 0.645845
O O3 0.818615 0.722325 0.758424
O O4 0.885782 0.663558 0.630984
O O5 0.102334 0.093610 0.500000
O O6 0.147718 0.920298 0.412151
O O7 0.000000 0.000000 0.398575
O O8 0.396141 0.174169 0.861663
O O9 0.369710 0.385377 0.874495
O O10 0.236604 0.244063 0.896669
O O11 0.359940 0.256127 0.000000
O O12 0.948979 0.267685 0.621465
O O13 0.883283 0.116551 0.727035
O O14 0.002714 0.633445 0.740217
O O15 0.000000 0.500000 0.620447
O O16 0.565249 0.219136 0.137131
O O17 0.500000 0.000000 0.141445
O O18 0.500000 0.500000 0.197675
O O19 0.351536 0.586415 0.182234
#
# Coordination Sequence:
#
# PCOD9428071 Si02
#       8
#     8   8   8   8   8   8   8   8
#     4  11  22  38  69  97 125 172 217 268 324 395
#     4  11  24  43  68  98 134 175 219 273 331 392
#     4  12  27  43  61  94 131 172 220 277 344 406
#     4  12  22  39  71  99 132 169 221 277 329 393
#     4  10  21  37  62  99 128 160 218 271 324 383
#     4  10  22  42  64  87 126 167 212 270 335 400
#     4  12  22  43  71  96 128 169 229 283 334 403
#     4  11  23  41  67  97 125 169 223 278 330 396
#
# _framework density 20.684308999999999
#
# number of rings (size 3 to 8) (size 9 to 14) (size 15 to 20)
#    0.000    0.875    6.250    1.125    3.500    3.000 
#    0.000    0.000    0.000    0.750    0.000    0.000 
#    0.000    0.000    0.000    0.000    0.000    0.000 
#
# Total GULP energy -357020.827168 kJ/mol
# GULP energy per Si atom -5578.450424 kJ/mol
# Density = 2.063723 g / cm^3
# Si number density = 20.684309 Si / 1000 Ang^3
#
#
#
# Elastic Constant Matrix: (Units=GPa)
#
#
# Indices 1 2 3 4 5 6 
#
# 1 67.9377 0.9450 -4.5700 0.0000 0.0000 0.0000
# 2 0.9450 98.3421 -7.9983 0.0000 0.0000 0.0000
# 3 -4.5700 -7.9983 47.4562 0.0000 0.0000 0.0000
# 4 0.0000 0.0000 0.0000 12.2100 0.0000 0.0000
# 5 0.0000 0.0000 0.0000 0.0000 6.5196 0.0000
# 6 0.0000 0.0000 0.0000 0.0000 0.0000 25.0191
#
#
#
# Elastic Compliance Matrix: (Units=1/GPa)
#
#
# Indices 1 2 3 4 5 6 
#
# 1 0.014815 -0.000027 0.001422 0.000000 0.000000 0.000000
# 2 -0.000027 0.010310 0.001735 0.000000 0.000000 0.000000
# 3 0.001422 0.001735 0.021501 0.000000 0.000000 0.000000
# 4 0.000000 0.000000 0.000000 0.081900 0.000000 0.000000
# 5 0.000000 0.000000 0.000000 0.000000 0.153384 0.000000
# 6 0.000000 0.000000 0.000000 0.000000 0.000000 0.039969
#
#
# Mechanical properties :
#
#
# Convention : Reuss Voigt Hill
#
# Bulk Modulus (GPa) = 18.90785 21.16546 20.03665
# Shear Modulus (GPa) = 15.00382 23.77368 19.38875
#
# Velocity S-wave (km/s) = 2.69619 3.39390 3.06496
# Velocity P-wave (km/s) = 4.34208 5.06092 4.71521
#
# Compressibility (1/GPa) = 0.05288810
#
# Stress axis : x y z
#
# Youngs Moduli (GPa) = 67.49725 96.99356 46.50843
#
# Poissons Ratio (x) = 0.00259 -0.06615
# Poissons Ratio (y) = 0.00180 -0.08070
# Poissons Ratio (z) = -0.09600 -0.16829
#
# Static dielectric constant tensor:
#      x y z
#    x 1.768200 0.000000 0.000000 
#    y 0.000000 1.779190 0.000000 
#    z 0.000000 0.000000 1.750000 
# 
# From -- ./inp_files/21327.got.cif
#   From: 2010.05.17/outbox.cif.g08.bks.cpg/sg55_11_cif.got.tgz:21327.got - 2010.06.03 13:27:54.
