data_PCOD9428015
_publ_section_title
;
Structure prediction by ZEFSAII (Michael W. Deem and Ramdas Pophale) SiO2 
 PCOD9428015
Probable space group: P B A M
;
_chemical_formula_sum "Si O2"
_cell_formula_units_Z 56
_cell_length_a 9.203044
_cell_length_b 22.907136
_cell_length_c 14.272204
_cell_angle_alpha 90.000000
_cell_angle_beta 90.000000
_cell_angle_gamma 90.000000
_cell_volume 3008.800117
_symmetry_space_group_name_H-M "P B A M"
_symmetry_group_IT_number 55
_symmetry_cell_setting 'orthorhombic'
loop_
_space_group_symop_operation_xyz
x,y,z
-x,-y,z
1/2+x,1/2-y,-z
1/2-x,1/2+y,-z
-x,-y,-z
x,y,-z
1/2-x,1/2+y,z
1/2+x,1/2-y,z
loop_
_atom_site_type_symbol
_atom_site_label
_atom_site_fract_x
_atom_site_fract_y
_atom_site_fract_z
Si Si1 0.827092 0.009718 0.607444
Si Si2 0.175233 0.710484 0.106439
Si Si3 0.951118 0.795576 0.388683
Si Si4 0.967827 0.675840 0.728271
Si Si5 0.995210 0.170117 0.893605
Si Si6 0.160362 0.875635 0.276189
Si Si7 0.307754 0.114079 0.611293
O O1 0.779276 0.023375 0.500000
O O2 0.804378 0.062217 0.678900
O O3 0.755589 0.948808 0.638320
O O4 0.000000 0.000000 0.603243
O O5 0.074100 0.680809 0.183338
O O6 0.345781 0.698732 0.124743
O O7 0.122965 0.777652 0.109151
O O8 0.146327 0.689981 0.000000
O O9 0.956872 0.783227 0.500000
O O10 0.957296 0.737137 0.327407
O O11 0.084450 0.836237 0.356482
O O12 0.807100 0.833852 0.368301
O O13 0.042510 0.629556 0.659553
O O14 0.808813 0.654826 0.754100
O O15 0.949732 0.125831 0.811893
O O16 0.997153 0.146527 0.000000
O O17 0.324134 0.113177 0.500000
#
# Coordination Sequence:
#
# PCOD9428015 Si02
#       7
#     8   8   8   8   8   8   8
#     4  10  21  40  63  84 112 160 212 251 287 342
#     4  10  21  37  58  86 121 158 195 239 298 368
#     4  11  22  37  56  83 121 160 195 237 293 354
#     4  12  24  35  56  91 125 155 191 240 308 360
#     4  10  21  38  60  87 119 155 198 246 299 359
#     4  12  23  36  60  88 116 156 202 248 293 354
#     4  10  22  40  60  83 120 163 201 243 291 347
#
# _framework density 18.612071
#
# number of rings (size 3 to 8) (size 9 to 14) (size 15 to 20)
#    0.000    1.286    2.857    3.429    0.000    5.714 
#    0.000    1.429    0.000    1.286    0.000    2.000 
#    0.000    0.000    0.000    0.000    0.000    0.000 
#
# Total GULP energy -312813.904926 kJ/mol
# GULP energy per Si atom -5585.962588 kJ/mol
# Density = 1.856971 g / cm^3
# Si number density = 18.612071 Si / 1000 Ang^3
#
#
#
# Elastic Constant Matrix: (Units=GPa)
#
#
# Indices 1 2 3 4 5 6 
#
# 1 93.0332 17.5621 49.0107 0.0000 0.0000 0.0000
# 2 17.5621 60.9371 50.0550 0.0000 0.0000 0.0000
# 3 49.0107 50.0550 98.1047 0.0000 0.0000 0.0000
# 4 0.0000 0.0000 0.0000 18.0849 0.0000 0.0000
# 5 0.0000 0.0000 0.0000 0.0000 29.6392 0.0000
# 6 0.0000 0.0000 0.0000 0.0000 0.0000 8.0026
#
#
#
# Elastic Compliance Matrix: (Units=1/GPa)
#
#
# Indices 1 2 3 4 5 6 
#
# 1 0.014929 0.003140 -0.009060 0.000000 0.000000 0.000000
# 2 0.003140 0.028910 -0.016319 0.000000 0.000000 0.000000
# 3 -0.009060 -0.016319 0.023046 0.000000 0.000000 0.000000
# 4 0.000000 0.000000 0.000000 0.055295 0.000000 0.000000
# 5 0.000000 0.000000 0.000000 0.000000 0.033739 0.000000
# 6 0.000000 0.000000 0.000000 0.000000 0.000000 0.124960
#
#
# Mechanical properties :
#
#
# Convention : Reuss Voigt Hill
#
# Bulk Modulus (GPa) = 44.63100 53.92562 49.27831
# Shear Modulus (GPa) = 15.02283 20.17515 17.59899
#
# Velocity S-wave (km/s) = 2.84413 3.29596 3.07835
# Velocity P-wave (km/s) = 5.90060 6.59703 6.25851
#
# Compressibility (1/GPa) = 0.02240595
#
# Stress axis : x y z
#
# Youngs Moduli (GPa) = 66.98324 34.58970 43.39208
#
# Poissons Ratio (x) = -0.10860 0.39314
# Poissons Ratio (y) = -0.21030 0.70812
# Poissons Ratio (z) = 0.60687 0.56447
#
# Static dielectric constant tensor:
#      x y z
#    x 4.303400 0.000000 0.000000 
#    y 0.000000 1.629600 0.000000 
#    z 0.000000 0.000000 1.663260 
# 
# From -- ./inp_files/17632.got.cif
#   From: 2010.05.17/outbox.cif.g08.bks.cpg/sg55_9_cif.got.tgz:17632.got - 2010.06.03 13:27:54.
