data_PCOD9428370
_publ_section_title
;
Structure prediction by ZEFSAII (Michael W. Deem and Ramdas Pophale) SiO2 
 PCOD9428370
Probable space group: P B A M
;
_chemical_formula_sum "Si O2"
_cell_formula_units_Z 64
_cell_length_a 16.393531
_cell_length_b 9.785592
_cell_length_c 18.416010
_cell_angle_alpha 90.000000
_cell_angle_beta 90.000000
_cell_angle_gamma 90.000000
_cell_volume 2954.303798
_symmetry_space_group_name_H-M "P B A M"
_symmetry_group_IT_number 55
_symmetry_cell_setting 'orthorhombic'
loop_
_space_group_symop_operation_xyz
x,y,z
-x,-y,z
1/2+x,1/2-y,-z
1/2-x,1/2+y,-z
-x,-y,-z
x,y,-z
1/2-x,1/2+y,z
1/2+x,1/2-y,z
loop_
_atom_site_type_symbol
_atom_site_label
_atom_site_fract_x
_atom_site_fract_y
_atom_site_fract_z
Si Si1 0.926616 0.098010 0.585234
Si Si2 0.756409 0.935870 0.914621
Si Si3 0.820718 0.675906 0.165634
Si Si4 0.679282 0.175906 0.665634
Si Si5 0.243591 0.064129 0.414621
Si Si6 0.508956 0.846963 0.834318
Si Si7 0.073384 0.901990 0.914766
Si Si8 0.991044 0.346963 0.334318
O O1 0.940546 0.123945 0.500000
O O2 0.841780 0.018836 0.592648
O O3 0.932622 0.241811 0.625671
O O4 0.000000 0.000000 0.611407
O O5 0.771505 0.788923 0.879265
O O6 0.693235 0.028607 0.870641
O O7 0.841780 0.018835 0.907351
O O8 0.736417 0.924241 0.000000
O O9 0.795870 0.673054 0.250000
O O10 0.916630 0.710592 0.162632
O O11 0.728495 0.288924 0.620735
O O12 0.693235 0.028608 0.629359
O O13 0.583370 0.210593 0.662632
O O14 0.263583 0.075759 0.500000
O O15 0.567378 0.741811 0.874329
O O16 0.533979 0.859209 0.750000
O O17 0.500000 0.000000 0.864734
O O18 0.059454 0.876056 0.000000
O O19 0.000000 0.000000 0.888593
O O20 0.000000 0.500000 0.364734
#
# Coordination Sequence:
#
# PCOD9428370 Si02
#       8
#     8   8   8   8   8   8   8   8
#     4  10  21  40  64  90 120 158 203 252 304 363
#     4  11  24  42  64  91 125 165 208 256 311 369
#     4  11  24  42  63  91 126 166 208 254 309 369
#     4  11  24  42  63  91 126 166 208 254 309 369
#     4  11  24  42  64  91 125 165 208 256 311 369
#     4  10  23  41  62  91 125 161 203 254 308 364
#     4  10  21  40  64  90 120 158 203 252 304 363
#     4  10  23  41  62  91 125 161 203 254 308 364
#
# _framework density 21.663309000000002
#
# number of rings (size 3 to 8) (size 9 to 14) (size 15 to 20)
#    0.000    1.500    2.500    1.500    3.500    4.000 
#    0.000    0.000    0.000    0.000    0.000    0.000 
#    0.000    0.000    0.000    0.000    0.000    0.000 
#
# Total GULP energy -358048.017386 kJ/mol
# GULP energy per Si atom -5594.500272 kJ/mol
# Density = 2.161400 g / cm^3
# Si number density = 21.663309 Si / 1000 Ang^3
#
#
#
# Elastic Constant Matrix: (Units=GPa)
#
#
# Indices 1 2 3 4 5 6 
#
# 1 32.1588 -5.3361 15.1833 0.0000 0.0000 0.0000
# 2 -5.3361 120.0531 37.6131 0.0000 0.0000 0.0000
# 3 15.1833 37.6131 82.6835 0.0000 0.0000 0.0000
# 4 0.0000 0.0000 0.0000 44.7826 0.0000 0.0000
# 5 0.0000 0.0000 0.0000 0.0000 10.0109 0.0000
# 6 0.0000 0.0000 0.0000 0.0000 0.0000 39.5447
#
#
#
# Elastic Compliance Matrix: (Units=1/GPa)
#
#
# Indices 1 2 3 4 5 6 
#
# 1 0.035824 0.004261 -0.008516 0.000000 0.000000 0.000000
# 2 0.004261 0.010221 -0.005432 0.000000 0.000000 0.000000
# 3 -0.008516 -0.005432 0.016129 0.000000 0.000000 0.000000
# 4 0.000000 0.000000 0.000000 0.022330 0.000000 0.000000
# 5 0.000000 0.000000 0.000000 0.000000 0.099891 0.000000
# 6 0.000000 0.000000 0.000000 0.000000 0.000000 0.025288
#
#
# Mechanical properties :
#
#
# Convention : Reuss Voigt Hill
#
# Bulk Modulus (GPa) = 23.36560 36.64622 30.00591
# Shear Modulus (GPa) = 20.54867 31.36331 25.95599
#
# Velocity S-wave (km/s) = 3.08319 3.80907 3.46519
# Velocity P-wave (km/s) = 4.84603 6.02481 5.46728
#
# Compressibility (1/GPa) = 0.04279796
#
# Stress axis : x y z
#
# Youngs Moduli (GPa) = 27.91457 97.83920 61.99933
#
# Poissons Ratio (x) = -0.41685 0.52802
# Poissons Ratio (y) = -0.11893 0.33677
# Poissons Ratio (z) = 0.23773 0.53145
#
# Static dielectric constant tensor:
#      x y z
#    x 1.833990 0.000000 0.000000 
#    y 0.000000 1.774970 0.000000 
#    z 0.000000 0.000000 1.735830 
# 
# From -- ./inp_files/23073.got.cif
#   From: 2010.05.17/outbox.cif.g08.bks.cpg/sg55_12_cif.got.tgz:23073.got - 2010.06.03 13:27:54.
