data_PCOD9428923
_publ_section_title
;
Structure prediction by ZEFSAII (Michael W. Deem and Ramdas Pophale) SiO2 
 PCOD9428923
Probable space group: P B A M
;
_chemical_formula_sum "Si O2"
_cell_formula_units_Z 56
_cell_length_a 21.782642
_cell_length_b 14.962240
_cell_length_c 8.749745
_cell_angle_alpha 90.000000
_cell_angle_beta 90.000000
_cell_angle_gamma 90.000000
_cell_volume 2851.691669
_symmetry_space_group_name_H-M "P B A M"
_symmetry_group_IT_number 55
_symmetry_cell_setting 'orthorhombic'
loop_
_space_group_symop_operation_xyz
x,y,z
-x,-y,z
1/2+x,1/2-y,-z
1/2-x,1/2+y,-z
-x,-y,-z
x,y,-z
1/2-x,1/2+y,z
1/2+x,1/2-y,z
loop_
_atom_site_type_symbol
_atom_site_label
_atom_site_fract_x
_atom_site_fract_y
_atom_site_fract_z
Si Si1 0.075415 0.590157 0.185348
Si Si2 0.298627 0.587269 0.683971
Si Si3 0.528237 0.597806 0.818019
Si Si4 0.690055 0.795284 0.817019
Si Si5 0.664360 0.609195 0.682833
Si Si6 0.417284 0.705161 0.681979
Si Si7 0.066750 0.389976 0.184584
O O1 0.125552 0.661166 0.237153
O O2 0.090827 0.488050 0.230499
O O3 0.005494 0.610891 0.229868
O O4 0.075448 0.590770 0.000000
O O5 0.290875 0.591283 0.500000
O O6 0.243795 0.639539 0.763448
O O7 0.304396 0.483981 0.730865
O O8 0.362423 0.637293 0.721082
O O9 0.500000 0.500000 0.783371
O O10 0.594151 0.607924 0.740552
O O11 0.479403 0.670260 0.760192
O O12 0.535630 0.606280 0.000000
O O13 0.696447 0.696802 0.748950
O O14 0.688832 0.789751 0.000000
O O15 0.664556 0.612446 0.500000
O O16 0.425202 0.704940 0.500000
O O17 0.402426 0.804523 0.739932
O O18 0.070255 0.383001 0.000000
#
# Coordination Sequence:
#
# PCOD9428923 Si02
#       7
#     8   8   8   8   8   8   8
#     4   8  17  35  57  83 115 150 187 235 294 354
#     4  10  24  43  59  80 116 161 203 242 293 360
#     4  11  22  36  60  92 123 154 196 251 308 362
#     4  11  23  39  62  90 120 155 204 256 302 356
#     4  11  23  42  65  88 122 164 203 246 304 370
#     4  11  22  37  57  85 120 156 197 244 302 364
#     4   9  17  34  60  85 114 150 188 235 296 356
#
# _framework density 19.637468999999999
#
# number of rings (size 3 to 8) (size 9 to 14) (size 15 to 20)
#    0.000    1.857    1.429    3.429    0.000    5.143 
#    0.000    6.429    0.000    0.000    0.000    0.000 
#    0.000    0.000    0.000    0.000    0.000    0.000 
#
# Total GULP energy -312939.535640 kJ/mol
# GULP energy per Si atom -5588.205994 kJ/mol
# Density = 1.959277 g / cm^3
# Si number density = 19.637469 Si / 1000 Ang^3
#
#
#
# Elastic Constant Matrix: (Units=GPa)
#
#
# Indices 1 2 3 4 5 6 
#
# 1 48.3697 37.5481 22.7356 0.0000 0.0000 0.0000
# 2 37.5481 167.2054 39.7264 0.0000 0.0000 0.0000
# 3 22.7356 39.7264 26.3075 0.0000 0.0000 0.0000
# 4 0.0000 0.0000 0.0000 28.2393 0.0000 0.0000
# 5 0.0000 0.0000 0.0000 0.0000 24.5467 0.0000
# 6 0.0000 0.0000 0.0000 0.0000 0.0000 22.5737
#
#
#
# Elastic Compliance Matrix: (Units=1/GPa)
#
#
# Indices 1 2 3 4 5 6 
#
# 1 0.034935 -0.001048 -0.028609 0.000000 0.000000 0.000000
# 2 -0.001048 0.009358 -0.013226 0.000000 0.000000 0.000000
# 3 -0.028609 -0.013226 0.082710 0.000000 0.000000 0.000000
# 4 0.000000 0.000000 0.000000 0.035412 0.000000 0.000000
# 5 0.000000 0.000000 0.000000 0.000000 0.040739 0.000000
# 6 0.000000 0.000000 0.000000 0.000000 0.000000 0.044299
#
#
# Mechanical properties :
#
#
# Convention : Reuss Voigt Hill
#
# Bulk Modulus (GPa) = 24.25066 49.10029 36.67548
# Shear Modulus (GPa) = 14.41065 24.53012 19.47039
#
# Velocity S-wave (km/s) = 2.71188 3.53816 3.15221
# Velocity P-wave (km/s) = 4.70974 6.46136 5.65380
#
# Compressibility (1/GPa) = 0.04123599
#
# Stress axis : x y z
#
# Youngs Moduli (GPa) = 28.62459 106.85554 12.09045
#
# Poissons Ratio (x) = 0.11196 0.34590
# Poissons Ratio (y) = 0.02999 0.15991
# Poissons Ratio (z) = 0.81893 1.41332
#
# Static dielectric constant tensor:
#      x y z
#    x 1.666000 0.000000 0.000000 
#    y 0.000000 1.698090 0.000000 
#    z 0.000000 0.000000 1.658150 
# 
# From -- ./inp_files/6194.got.cif
#   From: 2010.05.17/outbox.cif.g08.bks.cpg/sg55_4_cif.got.tgz:6194.got - 2010.06.03 13:27:54.
