data_PCOD9428608
_publ_section_title
;
Structure prediction by ZEFSAII (Michael W. Deem and Ramdas Pophale) SiO2 
 PCOD9428608
Probable space group: P B A M
;
_chemical_formula_sum "Si O2"
_cell_formula_units_Z 56
_cell_length_a 9.140972
_cell_length_b 20.242476
_cell_length_c 13.919291
_cell_angle_alpha 90.000000
_cell_angle_beta 90.000000
_cell_angle_gamma 90.000000
_cell_volume 2575.568626
_symmetry_space_group_name_H-M "P B A M"
_symmetry_group_IT_number 55
_symmetry_cell_setting 'orthorhombic'
loop_
_space_group_symop_operation_xyz
x,y,z
-x,-y,z
1/2+x,1/2-y,-z
1/2-x,1/2+y,-z
-x,-y,-z
x,y,-z
1/2-x,1/2+y,z
1/2+x,1/2-y,z
loop_
_atom_site_type_symbol
_atom_site_label
_atom_site_fract_x
_atom_site_fract_y
_atom_site_fract_z
Si Si1 0.393275 0.321963 0.108060
Si Si2 0.953088 0.679620 0.110603
Si Si3 0.937256 0.932242 0.779869
Si Si4 0.415221 0.165895 0.313354
Si Si5 0.144578 0.915858 0.612232
Si Si6 0.710214 0.227194 0.612918
Si Si7 0.650709 0.970769 0.701480
O O1 0.220979 0.317104 0.132008
O O2 0.472008 0.251532 0.109212
O O3 0.488663 0.370655 0.170992
O O4 0.398116 0.348096 0.000000
O O5 0.029247 0.649758 0.205126
O O6 0.971051 0.653200 0.000000
O O7 0.765145 0.941148 0.777737
O O8 0.996124 0.927107 0.670703
O O9 0.000000 0.000000 0.822348
O O10 0.274260 0.212995 0.323702
O O11 0.544328 0.208237 0.361862
O O12 0.388731 0.094291 0.360910
O O13 0.123752 0.924899 0.500000
O O14 0.201315 0.841171 0.629306
O O15 0.262780 0.969100 0.650848
O O16 0.722391 0.244689 0.500000
O O17 0.500000 0.000000 0.739774
#
# Coordination Sequence:
#
# PCOD9428608 Si02
#       7
#     8   8   8   8   8   8   8
#     4  10  22  41  66  99 130 166 215 266 327 402
#     4  10  22  39  66  98 132 171 222 275 332 398
#     4  10  23  41  64  91 125 169 216 265 330 391
#     4  12  24  42  69  94 136 176 219 282 340 388
#     4  10  22  44  67  93 132 173 223 273 328 399
#     4  11  25  42  64  98 134 174 221 277 334 397
#     4  11  25  43  65  95 126 181 226 269 329 402
#
# _framework density 21.742771000000001
#
# number of rings (size 3 to 8) (size 9 to 14) (size 15 to 20)
#    0.000    1.429    1.429    3.000    8.000    4.286 
#    0.000    0.000    0.000    1.714    0.000    0.000 
#    0.000    0.000    0.000    0.000    0.000    0.000 
#
# Total GULP energy -312734.248200 kJ/mol
# GULP energy per Si atom -5584.540146 kJ/mol
# Density = 2.169328 g / cm^3
# Si number density = 21.742771 Si / 1000 Ang^3
#
#
#
# Elastic Constant Matrix: (Units=GPa)
#
#
# Indices 1 2 3 4 5 6 
#
# 1 141.3398 45.4652 31.0594 0.0000 0.0000 0.0000
# 2 45.4652 77.3530 25.7049 0.0000 0.0000 0.0000
# 3 31.0594 25.7049 85.3674 0.0000 0.0000 0.0000
# 4 0.0000 0.0000 0.0000 15.9619 0.0000 0.0000
# 5 0.0000 0.0000 0.0000 0.0000 4.5419 0.0000
# 6 0.0000 0.0000 0.0000 0.0000 0.0000 41.6600
#
#
#
# Elastic Compliance Matrix: (Units=1/GPa)
#
#
# Indices 1 2 3 4 5 6 
#
# 1 0.008984 -0.004661 -0.001865 0.000000 0.000000 0.000000
# 2 -0.004661 0.016783 -0.003358 0.000000 0.000000 0.000000
# 3 -0.001865 -0.003358 0.013404 0.000000 0.000000 0.000000
# 4 0.000000 0.000000 0.000000 0.062649 0.000000 0.000000
# 5 0.000000 0.000000 0.000000 0.000000 0.220173 0.000000
# 6 0.000000 0.000000 0.000000 0.000000 0.000000 0.024004
#
#
# Mechanical properties :
#
#
# Convention : Reuss Voigt Hill
#
# Bulk Modulus (GPa) = 51.53772 56.50215 54.01993
# Shear Modulus (GPa) = 13.43245 25.88814 19.66029
#
# Velocity S-wave (km/s) = 2.48823 3.45433 3.01029
# Velocity P-wave (km/s) = 5.65773 6.47711 6.08123
#
# Compressibility (1/GPa) = 0.01940326
#
# Stress axis : x y z
#
# Youngs Moduli (GPa) = 111.30522 59.58422 74.60565
#
# Poissons Ratio (x) = 0.27771 0.13917
# Poissons Ratio (y) = 0.51877 0.25051
# Poissons Ratio (z) = 0.20763 0.20007
#
# Static dielectric constant tensor:
#      x y z
#    x 1.812930 0.000000 0.000000 
#    y 0.000000 1.823660 0.000000 
#    z 0.000000 0.000000 1.833230 
# 
# From -- ./inp_files/17633.got.cif
#   From: 2010.05.17/outbox.cif.g08.bks.cpg/sg55_9_cif.got.tgz:17633.got - 2010.06.03 13:27:54.
