data_PCOD9428504
_publ_section_title
;
Structure prediction by ZEFSAII (Michael W. Deem and Ramdas Pophale) SiO2 
 PCOD9428504
Probable space group: P B A M
;
_chemical_formula_sum "Si O2"
_cell_formula_units_Z 48
_cell_length_a 7.056130
_cell_length_b 35.087038
_cell_length_c 8.080222
_cell_angle_alpha 90.000000
_cell_angle_beta 90.000000
_cell_angle_gamma 90.000000
_cell_volume 2000.490870
_symmetry_space_group_name_H-M "P B A M"
_symmetry_group_IT_number 55
_symmetry_cell_setting 'orthorhombic'
loop_
_space_group_symop_operation_xyz
x,y,z
-x,-y,z
1/2+x,1/2-y,-z
1/2-x,1/2+y,-z
-x,-y,-z
x,y,-z
1/2-x,1/2+y,z
1/2+x,1/2-y,z
loop_
_atom_site_type_symbol
_atom_site_label
_atom_site_fract_x
_atom_site_fract_y
_atom_site_fract_z
Si Si1 0.643516 0.849638 0.185893
Si Si2 0.290240 0.488509 0.305340
Si Si3 0.220631 0.824537 0.188502
Si Si4 0.298411 0.067176 0.197313
Si Si5 0.215111 0.280120 0.500000
Si Si6 0.127300 0.909640 0.197227
Si Si7 0.778667 0.306970 0.500000
O O1 0.448451 0.826970 0.171371
O O2 0.593547 0.893439 0.231870
O O3 0.761731 0.830487 0.332377
O O4 0.730903 0.850941 0.000000
O O5 0.500000 0.500000 0.234328
O O6 0.308267 0.483784 0.500000
O O7 0.164450 0.525896 0.273373
O O8 0.245040 0.446531 0.238233
O O9 0.182918 0.794047 0.331679
O O10 0.168686 0.866899 0.253625
O O11 0.147577 0.817473 0.000000
O O12 0.084596 0.078960 0.251442
O O13 0.302802 0.061477 0.000000
O O14 0.193763 0.234957 0.500000
O O15 0.007254 0.299648 0.500000
O O16 0.131559 0.906713 0.000000
#
# Coordination Sequence:
#
# PCOD9428504 Si02
#       7
#     8   8   8   8   4   8   4
#     4   9  19  36  55  75 103 136 166 202 251 301
#     4   9  17  27  42  69 102 134 167 208 254 291
#     4   9  19  36  55  75 103 136 166 202 251 301
#     4   9  17  30  49  72  98 132 173 212 248 290
#     4  10  22  38  56  79 104 131 163 202 251 304
#     4   9  17  30  49  72  98 132 173 212 248 290
#     4  10  22  38  56  79 104 131 163 202 251 304
#
# _framework density 23.994109999999999
#
# number of rings (size 3 to 8) (size 9 to 14) (size 15 to 20)
#    0.000    2.833    0.000    0.500    2.333    4.000 
#    0.000    0.833    0.000    5.000    0.000    0.000 
#    0.000    0.000    0.000    0.000    0.000    0.000 
#
# Total GULP energy -267930.583789 kJ/mol
# GULP energy per Si atom -5581.887162 kJ/mol
# Density = 2.393950 g / cm^3
# Si number density = 23.994110 Si / 1000 Ang^3
#
#
#
# Elastic Constant Matrix: (Units=GPa)
#
#
# Indices 1 2 3 4 5 6 
#
# 1 41.8700 12.1952 13.5514 0.0000 0.0000 0.0000
# 2 12.1952 163.3186 89.6164 0.0000 0.0000 0.0000
# 3 13.5514 89.6164 99.7210 0.0000 0.0000 0.0000
# 4 0.0000 0.0000 0.0000 45.3372 0.0000 0.0000
# 5 0.0000 0.0000 0.0000 0.0000 -1.1071 0.0000
# 6 0.0000 0.0000 0.0000 0.0000 0.0000 34.1207
#
#
#
# Elastic Compliance Matrix: (Units=1/GPa)
#
#
# Indices 1 2 3 4 5 6 
#
# 1 0.024982 -0.000005 -0.003390 0.000000 0.000000 0.000000
# 2 -0.000005 0.012080 -0.010855 0.000000 0.000000 0.000000
# 3 -0.003390 -0.010855 0.020244 0.000000 0.000000 0.000000
# 4 0.000000 0.000000 0.000000 0.022057 0.000000 0.000000
# 5 0.000000 0.000000 0.000000 0.000000 -0.903222 0.000000
# 6 0.000000 0.000000 0.000000 0.000000 0.000000 0.029308
#
#
# Mechanical properties :
#
#
# Convention : Reuss Voigt Hill
#
# Bulk Modulus (GPa) = 34.71632 59.51506 47.11569
# Shear Modulus (GPa) = -6.60983 28.30660 10.84839
#
# Velocity S-wave (km/s) = -1.66155 3.43845 2.12863
# Velocity P-wave (km/s) = 3.28924 6.37352 5.07153
#
# Compressibility (1/GPa) = 0.02880489
#
# Stress axis : x y z
#
# Youngs Moduli (GPa) = 40.02841 82.78286 49.39771
#
# Poissons Ratio (x) = 0.00042 0.16747
# Poissons Ratio (y) = 0.00020 0.53622
# Poissons Ratio (z) = 0.13571 0.89861
#
# Static dielectric constant tensor:
#      x y z
#    x 2.043290 0.000000 0.000000 
#    y 0.000000 1.893390 0.000000 
#    z 0.000000 0.000000 1.883250 
# 
# From -- ./inp_files/2919.got.cif
#   From: 2010.05.17/outbox.cif.g08.bks.cpg/sg55_2_cif.got.tgz:2919.got - 2010.06.03 13:27:54.
