data_PCOD9428793
_publ_section_title
;
Structure prediction by ZEFSAII (Michael W. Deem and Ramdas Pophale) SiO2 
 PCOD9428793
Probable space group: P B A M
;
_chemical_formula_sum "Si O2"
_cell_formula_units_Z 32
_cell_length_a 10.333737
_cell_length_b 14.214903
_cell_length_c 8.481251
_cell_angle_alpha 90.000000
_cell_angle_beta 90.000000
_cell_angle_gamma 90.000000
_cell_volume 1245.836989
_symmetry_space_group_name_H-M "P B A M"
_symmetry_group_IT_number 55
_symmetry_cell_setting 'orthorhombic'
loop_
_space_group_symop_operation_xyz
x,y,z
-x,-y,z
1/2+x,1/2-y,-z
1/2-x,1/2+y,-z
-x,-y,-z
x,y,-z
1/2-x,1/2+y,z
1/2+x,1/2-y,z
loop_
_atom_site_type_symbol
_atom_site_label
_atom_site_fract_x
_atom_site_fract_y
_atom_site_fract_z
Si Si1 0.838815 0.531961 0.174576
Si Si2 0.440484 0.408284 0.740350
Si Si3 0.627987 0.848672 0.000000
Si Si4 0.589590 0.307278 0.000000
Si Si5 0.074770 0.365560 0.500000
Si Si6 0.665222 0.741073 0.500000
O O1 0.687770 0.554392 0.175287
O O2 0.891410 0.576421 0.338558
O O3 0.137122 0.579837 0.149867
O O4 0.886347 0.566432 0.000000
O O5 0.500000 0.500000 0.658707
O O6 0.552026 0.369382 0.850830
O O7 0.388331 0.320241 0.644311
O O8 0.512815 0.776002 0.000000
O O9 0.759497 0.786846 0.000000
O O10 0.177952 0.275758 0.500000
O O11 0.924126 0.334172 0.500000
#
# Coordination Sequence:
#
# PCOD9428793 Si02
#       6
#     8   8   4   4   4   4
#     4   9  19  42  72 104 139 202 250 285 374 463
#     4  11  19  41  71 101 138 191 251 295 353 451
#     4  10  23  42  71 107 137 199 246 306 371 441
#     4  12  22  39  74 106 145 179 259 316 354 438
#     4  10  22  46  75 107 150 193 248 310 364 450
#     4  10  25  40  71 111 143 187 251 312 366 430
#
# _framework density 25.685544
#
# number of rings (size 3 to 8) (size 9 to 14) (size 15 to 20)
#    0.750    1.000    3.750    0.750    0.000    4.000 
#    2.250    1.250    5.500    7.500    0.000    0.000 
#    0.000    0.000    0.000    0.000    0.000    0.000 
#
# Total GULP energy -178652.040059 kJ/mol
# GULP energy per Si atom -5582.876252 kJ/mol
# Density = 2.562708 g / cm^3
# Si number density = 25.685544 Si / 1000 Ang^3
#
#
#
# Elastic Constant Matrix: (Units=GPa)
#
#
# Indices 1 2 3 4 5 6 
#
# 1 151.8174 70.5427 44.9476 0.0000 0.0000 0.0000
# 2 70.5427 134.4067 48.2714 0.0000 0.0000 0.0000
# 3 44.9476 48.2714 143.8051 0.0000 0.0000 0.0000
# 4 0.0000 0.0000 0.0000 36.2323 0.0000 0.0000
# 5 0.0000 0.0000 0.0000 0.0000 -344.1227 0.0000
# 6 0.0000 0.0000 0.0000 0.0000 0.0000 60.1275
#
#
#
# Elastic Compliance Matrix: (Units=1/GPa)
#
#
# Indices 1 2 3 4 5 6 
#
# 1 0.008948 -0.004198 -0.001388 0.000000 0.000000 0.000000
# 2 -0.004198 0.010430 -0.002189 0.000000 0.000000 0.000000
# 3 -0.001388 -0.002189 0.008122 0.000000 0.000000 0.000000
# 4 0.000000 0.000000 0.000000 0.027600 0.000000 0.000000
# 5 0.000000 0.000000 0.000000 0.000000 -0.002906 0.000000
# 6 0.000000 0.000000 0.000000 0.000000 0.000000 0.016631
#
#
# Mechanical properties :
#
#
# Convention : Reuss Voigt Hill
#
# Bulk Modulus (GPa) = 83.67452 84.17252 83.92352
# Shear Modulus (GPa) = 56.58785 -31.80141 12.39322
#
# Velocity S-wave (km/s) = 4.69881 -3.52249 2.19897
# Velocity P-wave (km/s) = 7.87945 4.03703 6.26032
#
# Compressibility (1/GPa) = 0.01195107
#
# Stress axis : x y z
#
# Youngs Moduli (GPa) = 111.75195 95.88145 123.11777
#
# Poissons Ratio (x) = 0.40252 0.17085
# Poissons Ratio (y) = 0.46915 0.26947
# Poissons Ratio (z) = 0.15508 0.20986
#
# Static dielectric constant tensor:
#      x y z
#    x 2.037870 0.000000 0.000000 
#    y 0.000000 2.026680 0.000000 
#    z 0.000000 0.000000 2.259220 
# 
# From -- ./inp_files/2259.got.cif
#   From: 2010.05.17/outbox.cif.g08.bks.cpg/sg55_2_cif.got.tgz:2259.got - 2010.06.03 13:27:54.
