data_PCOD9428927
_publ_section_title
;
Structure prediction by ZEFSAII (Michael W. Deem and Ramdas Pophale) SiO2 
 PCOD9428927
Probable space group: P B A M
;
_chemical_formula_sum "Si O2"
_cell_formula_units_Z 64
_cell_length_a 11.543790
_cell_length_b 28.969566
_cell_length_c 9.448093
_cell_angle_alpha 90.000000
_cell_angle_beta 90.000000
_cell_angle_gamma 90.000000
_cell_volume 3159.617904
_symmetry_space_group_name_H-M "P B A M"
_symmetry_group_IT_number 55
_symmetry_cell_setting 'orthorhombic'
loop_
_space_group_symop_operation_xyz
x,y,z
-x,-y,z
1/2+x,1/2-y,-z
1/2-x,1/2+y,-z
-x,-y,-z
x,y,-z
1/2-x,1/2+y,z
1/2+x,1/2-y,z
loop_
_atom_site_type_symbol
_atom_site_label
_atom_site_fract_x
_atom_site_fract_y
_atom_site_fract_z
Si Si1 0.027073 0.229624 0.334143
Si Si2 0.405530 0.103885 0.828585
Si Si3 0.705200 0.670430 0.339543
Si Si4 0.048872 0.065000 0.841049
Si Si5 0.674828 0.560595 0.337081
Si Si6 0.204112 0.512220 0.835877
Si Si7 0.572321 0.182328 0.168534
Si Si8 0.176640 0.160391 0.166140
O O1 0.048690 0.237803 0.500000
O O2 0.914973 0.197037 0.322008
O O3 0.006704 0.276771 0.249465
O O4 0.133057 0.202211 0.261263
O O5 0.384764 0.051330 0.780273
O O6 0.519283 0.132429 0.790911
O O7 0.297078 0.136659 0.788205
O O8 0.399480 0.100645 0.000000
O O9 0.747874 0.680160 0.500000
O O10 0.689220 0.615556 0.328110
O O11 0.797315 0.685365 0.223421
O O12 0.170470 0.038095 0.831635
O O13 0.083575 0.118646 0.824863
O O14 0.950276 0.050985 0.732566
O O15 0.002104 0.057875 0.000000
O O16 0.675457 0.546220 0.500000
O O17 0.774748 0.533406 0.253710
O O18 0.177657 0.501225 0.000000
O O19 0.562488 0.187601 0.000000
O O20 0.185825 0.173698 0.000000
#
# Coordination Sequence:
#
# PCOD9428927 Si02
#       8
#     8   8   8   8   8   8   8   8
#     4  11  23  40  60  85 119 155 190 234 295 359
#     4   8  18  38  60  85 117 148 188 244 295 341
#     4  10  24  44  60  82 122 162 195 238 293 352
#     4   9  17  30  51  80 116 153 189 233 288 345
#     4  11  21  34  53  81 117 155 197 243 287 342
#     4   9  18  34  56  82 115 154 192 235 294 355
#     4  11  24  41  64  89 113 148 199 251 293 345
#     4   9  17  33  58  86 114 148 190 235 285 343
#
# _framework density 20.255613
#
# number of rings (size 3 to 8) (size 9 to 14) (size 15 to 20)
#    0.000    2.250    1.250    3.000    1.750    4.000 
#    0.000    4.375    0.000    3.750    0.000    0.000 
#    0.000    0.000    0.000    0.000    0.000    0.000 
#
# Total GULP energy -357319.184626 kJ/mol
# GULP energy per Si atom -5583.112260 kJ/mol
# Density = 2.020951 g / cm^3
# Si number density = 20.255613 Si / 1000 Ang^3
#
#
#
# Elastic Constant Matrix: (Units=GPa)
#
#
# Indices 1 2 3 4 5 6 
#
# 1 23.0101 -1.6391 10.6915 0.0000 0.0000 0.0000
# 2 -1.6391 57.2062 25.4811 0.0000 0.0000 0.0000
# 3 10.6915 25.4811 77.9697 0.0000 0.0000 0.0000
# 4 0.0000 0.0000 0.0000 5.3215 0.0000 0.0000
# 5 0.0000 0.0000 0.0000 0.0000 21.4690 0.0000
# 6 0.0000 0.0000 0.0000 0.0000 0.0000 19.1096
#
#
#
# Elastic Compliance Matrix: (Units=1/GPa)
#
#
# Indices 1 2 3 4 5 6 
#
# 1 0.047608 0.005000 -0.008162 0.000000 0.000000 0.000000
# 2 0.005000 0.020984 -0.007543 0.000000 0.000000 0.000000
# 3 -0.008162 -0.007543 0.016410 0.000000 0.000000 0.000000
# 4 0.000000 0.000000 0.000000 0.187916 0.000000 0.000000
# 5 0.000000 0.000000 0.000000 0.000000 0.046579 0.000000
# 6 0.000000 0.000000 0.000000 0.000000 0.000000 0.052330
#
#
# Mechanical properties :
#
#
# Convention : Reuss Voigt Hill
#
# Bulk Modulus (GPa) = 15.72571 25.25033 20.48802
# Shear Modulus (GPa) = 12.06466 17.42353 14.74409
#
# Velocity S-wave (km/s) = 2.44318 2.93607 2.70089
# Velocity P-wave (km/s) = 3.96728 4.89764 4.45681
#
# Compressibility (1/GPa) = 0.06359013
#
# Stress axis : x y z
#
# Youngs Moduli (GPa) = 21.00502 47.65579 60.93893
#
# Poissons Ratio (x) = -0.23826 0.49739
# Poissons Ratio (y) = -0.10502 0.45968
# Poissons Ratio (z) = 0.17144 0.35948
#
# Static dielectric constant tensor:
#      x y z
#    x 1.715540 0.000000 0.000000 
#    y 0.000000 1.749290 0.000000 
#    z 0.000000 0.000000 1.685190 
# 
# From -- ./inp_files/4616.got.cif
#   From: 2010.05.17/outbox.cif.g08.bks.cpg/sg55_3_cif.got.tgz:4616.got - 2010.06.03 13:27:54.
