data_PCOD9428009
_publ_section_title
;
Structure prediction by ZEFSAII (Michael W. Deem and Ramdas Pophale) SiO2 
 PCOD9428009
Probable space group: P B A M
;
_chemical_formula_sum "Si O2"
_cell_formula_units_Z 56
_cell_length_a 8.635151
_cell_length_b 21.099355
_cell_length_c 14.801606
_cell_angle_alpha 90.000000
_cell_angle_beta 90.000000
_cell_angle_gamma 90.000000
_cell_volume 2696.795130
_symmetry_space_group_name_H-M "P B A M"
_symmetry_group_IT_number 55
_symmetry_cell_setting 'orthorhombic'
loop_
_space_group_symop_operation_xyz
x,y,z
-x,-y,z
1/2+x,1/2-y,-z
1/2-x,1/2+y,-z
-x,-y,-z
x,y,-z
1/2-x,1/2+y,z
1/2+x,1/2-y,z
loop_
_atom_site_type_symbol
_atom_site_label
_atom_site_fract_x
_atom_site_fract_y
_atom_site_fract_z
Si Si1 0.136047 0.958962 0.839138
Si Si2 0.794628 0.739497 0.106651
Si Si3 0.050147 0.395098 0.900660
Si Si4 0.108836 0.657133 0.602949
Si Si5 0.486459 0.323830 0.212404
Si Si6 0.088741 0.234884 0.395044
Si Si7 0.136584 0.545371 0.263421
O O1 0.284115 0.931598 0.893531
O O2 0.054385 0.896856 0.799144
O O3 0.216360 0.003681 0.763985
O O4 0.000000 0.000000 0.885238
O O5 0.912730 0.679381 0.111667
O O6 0.650337 0.715762 0.164851
O O7 0.865031 0.801054 0.154610
O O8 0.759567 0.748926 0.000000
O O9 0.937298 0.423071 0.826051
O O10 0.984492 0.405157 0.000000
O O11 0.101634 0.634543 0.500000
O O12 0.233593 0.713762 0.608121
O O13 0.162648 0.601680 0.667325
O O14 0.947545 0.691620 0.627097
O O15 0.508702 0.305365 0.316335
O O16 0.038783 0.224713 0.500000
O O17 0.000000 0.500000 0.299887
#
# Coordination Sequence:
#
# PCOD9428009 Si02
#       7
#     8   8   8   8   8   8   8
#     4  10  22  37  56  84 117 155 196 238 287 347
#     4  10  21  37  58  85 113 145 189 239 293 349
#     4   9  20  39  60  81 109 148 193 239 287 343
#     4  10  21  38  60  89 120 150 192 245 298 353
#     4  11  21  37  60  84 118 153 187 240 296 342
#     4  10  21  37  61  90 116 146 189 241 299 357
#     4  10  21  38  59  82 115 159 202 234 277 350
#
# _framework density 20.76539
#
# number of rings (size 3 to 8) (size 9 to 14) (size 15 to 20)
#    0.000    2.000    0.000    3.000    0.000    7.143 
#    0.000    0.714    0.000    5.143    0.000    0.000 
#    0.000    0.000    0.000    0.000    0.000    0.000 
#
# Total GULP energy -312741.089282 kJ/mol
# GULP energy per Si atom -5584.662309 kJ/mol
# Density = 2.071813 g / cm^3
# Si number density = 20.765390 Si / 1000 Ang^3
#
#
#
# Elastic Constant Matrix: (Units=GPa)
#
#
# Indices 1 2 3 4 5 6 
#
# 1 60.1379 41.6721 19.0043 0.0000 0.0000 0.0000
# 2 41.6721 76.0625 36.3505 0.0000 0.0000 0.0000
# 3 19.0043 36.3505 89.0145 0.0000 0.0000 0.0000
# 4 0.0000 0.0000 0.0000 13.6083 0.0000 0.0000
# 5 0.0000 0.0000 0.0000 0.0000 15.7882 0.0000
# 6 0.0000 0.0000 0.0000 0.0000 0.0000 44.4364
#
#
#
# Elastic Compliance Matrix: (Units=1/GPa)
#
#
# Indices 1 2 3 4 5 6 
#
# 1 0.026813 -0.014853 0.000341 0.000000 0.000000 0.000000
# 2 -0.014853 0.024563 -0.006860 0.000000 0.000000 0.000000
# 3 0.000341 -0.006860 0.013963 0.000000 0.000000 0.000000
# 4 0.000000 0.000000 0.000000 0.073484 0.000000 0.000000
# 5 0.000000 0.000000 0.000000 0.000000 0.063338 0.000000
# 6 0.000000 0.000000 0.000000 0.000000 0.000000 0.022504
#
#
# Mechanical properties :
#
#
# Convention : Reuss Voigt Hill
#
# Bulk Modulus (GPa) = 44.25716 46.58542 45.42129
# Shear Modulus (GPa) = 18.18583 23.31245 20.74914
#
# Velocity S-wave (km/s) = 2.96256 3.35425 3.16447
# Velocity P-wave (km/s) = 5.74992 6.12243 5.93910
#
# Compressibility (1/GPa) = 0.02259521
#
# Stress axis : x y z
#
# Youngs Moduli (GPa) = 37.29556 40.71226 71.62018
#
# Poissons Ratio (x) = 0.60469 -0.02442
# Poissons Ratio (y) = 0.55394 0.49128
# Poissons Ratio (z) = -0.01271 0.27927
#
# Static dielectric constant tensor:
#      x y z
#    x 1.800070 0.000000 0.000000 
#    y 0.000000 1.748340 0.000000 
#    z 0.000000 0.000000 1.711330 
# 
# From -- ./inp_files/17671.got.cif
#   From: 2010.05.17/outbox.cif.g08.bks.cpg/sg55_9_cif.got.tgz:17671.got - 2010.06.03 13:27:54.
