data_PCOD9428062
_publ_section_title
;
Structure prediction by ZEFSAII (Michael W. Deem and Ramdas Pophale) SiO2 
 PCOD9428062
Probable space group: P B A M
;
_chemical_formula_sum "Si O2"
_cell_formula_units_Z 28
_cell_length_a 5.255324
_cell_length_b 27.771260
_cell_length_c 10.299998
_cell_angle_alpha 90.000000
_cell_angle_beta 90.000000
_cell_angle_gamma 90.000000
_cell_volume 1503.253491
_symmetry_space_group_name_H-M "P B A M"
_symmetry_group_IT_number 55
_symmetry_cell_setting 'orthorhombic'
loop_
_space_group_symop_operation_xyz
x,y,z
-x,-y,z
1/2+x,1/2-y,-z
1/2-x,1/2+y,-z
-x,-y,-z
x,y,-z
1/2-x,1/2+y,z
1/2+x,1/2-y,z
loop_
_atom_site_type_symbol
_atom_site_label
_atom_site_fract_x
_atom_site_fract_y
_atom_site_fract_z
Si Si1 0.916257 0.108437 0.849870
Si Si2 0.358146 0.218595 0.500000
Si Si3 0.573190 0.857617 0.272907
Si Si4 0.835634 0.546812 0.354242
O O1 0.680415 0.143743 0.815003
O O2 0.867536 0.062644 0.754647
O O3 0.177380 0.133975 0.812010
O O4 0.910291 0.094738 0.000000
O O5 0.576870 0.259020 0.500000
O O6 0.396975 0.185536 0.373133
O O7 0.523585 0.907117 0.351921
O O8 0.729205 0.541766 0.500000
O O9 0.000000 0.500000 0.321790
#
# Coordination Sequence:
#
# PCOD9428062 Si02
#       4
#     8   4   8   8
#     4  10  21  37  62  86 127 168 196 240 296 361
#     4  12  24  40  69  95 117 151 202 262 310 360
#     4  10  21  39  60  89 121 153 204 248 298 363
#     4   9  20  37  61  91 125 162 204 252 298 350
#
# _framework density 18.626266000000001
#
# number of rings (size 3 to 8) (size 9 to 14) (size 15 to 20)
#    1.714    0.286    1.429    2.571    2.000    1.714 
#    0.000    4.286    0.000   17.143    0.000    0.000 
#    0.000    0.000    0.000    0.000    0.000    0.000 
#
# Total GULP energy -155922.746607 kJ/mol
# GULP energy per Si atom -5568.669522 kJ/mol
# Density = 1.858387 g / cm^3
# Si number density = 18.626266 Si / 1000 Ang^3
#
#
#
# Elastic Constant Matrix: (Units=GPa)
#
#
# Indices 1 2 3 4 5 6 
#
# 1 90.9522 -11.8230 31.1557 0.0000 0.0000 0.0000
# 2 -11.8230 40.0536 10.3409 0.0000 0.0000 0.0000
# 3 31.1557 10.3409 103.8626 0.0000 0.0000 0.0000
# 4 0.0000 0.0000 0.0000 -10.4247 0.0000 0.0000
# 5 0.0000 0.0000 0.0000 0.0000 17.8874 0.0000
# 6 0.0000 0.0000 0.0000 0.0000 0.0000 13.4005
#
#
#
# Elastic Compliance Matrix: (Units=1/GPa)
#
#
# Indices 1 2 3 4 5 6 
#
# 1 0.013176 0.005039 -0.004454 0.000000 0.000000 0.000000
# 2 0.005039 0.027552 -0.004255 0.000000 0.000000 0.000000
# 3 -0.004454 -0.004255 0.011388 0.000000 0.000000 0.000000
# 4 0.000000 0.000000 0.000000 -0.095926 0.000000 0.000000
# 5 0.000000 0.000000 0.000000 0.000000 0.055905 0.000000
# 6 0.000000 0.000000 0.000000 0.000000 0.000000 0.074624
#
#
# Mechanical properties :
#
#
# Convention : Reuss Voigt Hill
#
# Bulk Modulus (GPa) = 22.33322 32.69062 27.51192
# Shear Modulus (GPa) = 45.87834 17.85229 31.86532
#
# Velocity S-wave (km/s) = 4.96835 3.09924 4.14064
# Velocity P-wave (km/s) = 6.70290 5.51325 6.13697
#
# Compressibility (1/GPa) = 0.04477634
#
# Stress axis : x y z
#
# Youngs Moduli (GPa) = 75.89834 36.29442 87.81339
#
# Poissons Ratio (x) = -0.18289 0.39112
# Poissons Ratio (y) = -0.38245 0.37363
# Poissons Ratio (z) = 0.33805 0.15442
#
# Static dielectric constant tensor:
#      x y z
#    x 1.652340 0.000000 0.000000 
#    y 0.000000 1.623000 0.000000 
#    z 0.000000 0.000000 1.631300 
# 
# From -- ./inp_files/1258.got.cif
#   From: 2010.05.17/outbox.cif.g08.bks.cpg/sg55_1_cif.got.tgz:1258.got - 2010.06.03 13:27:54.
