data_PCOD9428690
_publ_section_title
;
Structure prediction by ZEFSAII (Michael W. Deem and Ramdas Pophale) SiO2 
 PCOD9428690
Probable space group: P B A M
;
_chemical_formula_sum "Si O2"
_cell_formula_units_Z 56
_cell_length_a 21.602948
_cell_length_b 14.841248
_cell_length_c 8.891699
_cell_angle_alpha 90.000000
_cell_angle_beta 90.000000
_cell_angle_gamma 90.000000
_cell_volume 2850.809486
_symmetry_space_group_name_H-M "P B A M"
_symmetry_group_IT_number 55
_symmetry_cell_setting 'orthorhombic'
loop_
_space_group_symop_operation_xyz
x,y,z
-x,-y,z
1/2+x,1/2-y,-z
1/2-x,1/2+y,-z
-x,-y,-z
x,y,-z
1/2-x,1/2+y,z
1/2+x,1/2-y,z
loop_
_atom_site_type_symbol
_atom_site_label
_atom_site_fract_x
_atom_site_fract_y
_atom_site_fract_z
Si Si1 0.323853 0.069286 0.680486
Si Si2 0.041016 0.584909 0.819490
Si Si3 0.874774 0.102867 0.679511
Si Si4 0.715743 0.293909 0.321568
Si Si5 0.481080 0.285739 0.821934
Si Si6 0.088614 0.098869 0.322597
Si Si7 0.238701 0.393245 0.821110
O O1 0.323932 0.063691 0.500000
O O2 0.392284 0.084755 0.742263
O O3 0.276934 0.150166 0.722637
O O4 0.296905 0.976952 0.747611
O O5 0.008323 0.680399 0.788437
O O6 0.000000 0.500000 0.770467
O O7 0.049825 0.578000 0.000000
O O8 0.865465 0.107819 0.500000
O O9 0.920135 0.180469 0.735916
O O10 0.808893 0.106362 0.760173
O O11 0.906747 0.006671 0.714180
O O12 0.720165 0.273318 0.500000
O O13 0.656125 0.357253 0.299794
O O14 0.710245 0.201721 0.231096
O O15 0.537928 0.347033 0.769898
O O16 0.471141 0.295269 0.000000
O O17 0.073120 0.106424 0.500000
O O18 0.237564 0.401430 0.000000
#
# Coordination Sequence:
#
# PCOD9428690 Si02
#       7
#     8   8   8   8   8   8   8
#     4  11  23  43  68  95 125 164 213 263 312 372
#     4  10  24  45  64  88 128 170 210 261 318 376
#     4  11  22  42  66  92 126 168 214 258 314 378
#     4  10  22  42  65  92 127 167 213 262 313 376
#     4  11  24  40  62  94 129 166 211 262 321 378
#     4  10  22  41  64  91 125 165 210 260 314 373
#     4  12  25  39  63  96 130 166 205 257 323 380
#
# _framework density 19.643543000000001
#
# number of rings (size 3 to 8) (size 9 to 14) (size 15 to 20)
#    0.000    1.286    1.429    3.857    2.000    8.286 
#    0.000    0.000    0.000    0.000    0.000    0.000 
#    0.000    0.000    0.000    0.000    0.000    0.000 
#
# Total GULP energy -313295.906245 kJ/mol
# GULP energy per Si atom -5594.569754 kJ/mol
# Density = 1.959883 g / cm^3
# Si number density = 19.643543 Si / 1000 Ang^3
#
#
#
# Elastic Constant Matrix: (Units=GPa)
#
#
# Indices 1 2 3 4 5 6 
#
# 1 35.2596 -9.8655 5.7019 0.0000 0.0000 0.0000
# 2 -9.8655 81.7374 22.9403 0.0000 0.0000 0.0000
# 3 5.7019 22.9403 37.0079 0.0000 0.0000 0.0000
# 4 0.0000 0.0000 0.0000 23.5690 0.0000 0.0000
# 5 0.0000 0.0000 0.0000 0.0000 44.1088 0.0000
# 6 0.0000 0.0000 0.0000 0.0000 0.0000 23.3223
#
#
#
# Elastic Compliance Matrix: (Units=1/GPa)
#
#
# Indices 1 2 3 4 5 6 
#
# 1 0.031524 0.006257 -0.008735 0.000000 0.000000 0.000000
# 2 0.006257 0.016053 -0.010915 0.000000 0.000000 0.000000
# 3 -0.008735 -0.010915 0.035133 0.000000 0.000000 0.000000
# 4 0.000000 0.000000 0.000000 0.042429 0.000000 0.000000
# 5 0.000000 0.000000 0.000000 0.000000 0.022671 0.000000
# 6 0.000000 0.000000 0.000000 0.000000 0.000000 0.042877
#
#
# Mechanical properties :
#
#
# Convention : Reuss Voigt Hill
#
# Bulk Modulus (GPa) = 17.88172 21.28424 19.58298
# Shear Modulus (GPa) = 21.17612 27.21524 24.19568
#
# Velocity S-wave (km/s) = 3.28688 3.72621 3.51342
# Velocity P-wave (km/s) = 4.85053 5.41956 5.14292
#
# Compressibility (1/GPa) = 0.05592303
#
# Stress axis : x y z
#
# Youngs Moduli (GPa) = 31.72160 62.29465 28.46335
#
# Poissons Ratio (x) = -0.38975 0.24864
# Poissons Ratio (y) = -0.19847 0.31067
# Poissons Ratio (z) = 0.27710 0.67993
#
# Static dielectric constant tensor:
#      x y z
#    x 1.659580 0.000000 0.000000 
#    y 0.000000 1.682140 0.000000 
#    z 0.000000 0.000000 1.656760 
# 
# From -- ./inp_files/8721.got.cif
#   From: 2010.05.17/outbox.cif.g08.bks.cpg/sg55_5_cif.got.tgz:8721.got - 2010.06.03 13:27:54.
