data_PCOD9428079
_publ_section_title
;
Structure prediction by ZEFSAII (Michael W. Deem and Ramdas Pophale) SiO2 
 PCOD9428079
Probable space group: P B A M
;
_chemical_formula_sum "Si O2"
_cell_formula_units_Z 48
_cell_length_a 18.078832
_cell_length_b 7.740444
_cell_length_c 13.678709
_cell_angle_alpha 90.000000
_cell_angle_beta 90.000000
_cell_angle_gamma 90.000000
_cell_volume 1914.173734
_symmetry_space_group_name_H-M "P B A M"
_symmetry_group_IT_number 55
_symmetry_cell_setting 'orthorhombic'
loop_
_space_group_symop_operation_xyz
x,y,z
-x,-y,z
1/2+x,1/2-y,-z
1/2-x,1/2+y,-z
-x,-y,-z
x,y,-z
1/2-x,1/2+y,z
1/2+x,1/2-y,z
loop_
_atom_site_type_symbol
_atom_site_label
_atom_site_fract_x
_atom_site_fract_y
_atom_site_fract_z
Si Si1 0.923254 0.417004 0.310156
Si Si2 0.936167 0.882161 0.888070
Si Si3 0.671508 0.231382 0.610569
Si Si4 0.387474 0.993999 0.111615
Si Si5 0.674687 0.621924 0.326551
Si Si6 0.215949 0.904607 0.109368
O O1 0.864252 0.565801 0.336699
O O2 0.920895 0.383160 0.192971
O O3 0.896638 0.235534 0.352708
O O4 0.000000 0.500000 0.340820
O O5 0.918617 0.690882 0.853850
O O6 0.855831 0.972199 0.892666
O O7 0.961057 0.855048 0.000000
O O8 0.000000 0.000000 0.840253
O O9 0.642544 0.246046 0.500000
O O10 0.758033 0.185534 0.607534
O O11 0.661993 0.416931 0.663456
O O12 0.298291 0.983781 0.113609
O O13 0.409281 0.031161 0.000000
O O14 0.704487 0.672967 0.217393
O O15 0.214626 0.817703 0.000000
#
# Coordination Sequence:
#
# PCOD9428079 Si02
#       6
#     8   8   8   8   8   8
#     4  12  29  48  71 115 160 193 246 316 375 447
#     4   9  19  35  57  90 134 189 250 300 346 409
#     4  12  26  50  84 112 141 189 249 312 385 454
#     4  10  21  39  64  97 146 202 250 293 355 437
#     4  12  25  47  77 112 150 192 250 306 371 455
#     4  10  21  37  65 101 142 193 245 297 351 428
#
# _framework density 25.076094999999999
#
# number of rings (size 3 to 8) (size 9 to 14) (size 15 to 20)
#    0.000    1.167    3.333    1.500    4.667    2.667 
#    0.000    0.833    0.000    0.000    0.000    0.000 
#    0.000    0.000    0.000    0.000    0.000    0.000 
#
# Total GULP energy -268252.745108 kJ/mol
# GULP energy per Si atom -5588.598856 kJ/mol
# Density = 2.501902 g / cm^3
# Si number density = 25.076095 Si / 1000 Ang^3
#
#
#
# Elastic Constant Matrix: (Units=GPa)
#
#
# Indices 1 2 3 4 5 6 
#
# 1 109.7412 21.1238 -1.2584 0.0000 0.0000 0.0000
# 2 21.1238 111.2351 19.0238 0.0000 0.0000 0.0000
# 3 -1.2584 19.0238 119.7365 0.0000 0.0000 0.0000
# 4 0.0000 0.0000 0.0000 -0.3454 0.0000 0.0000
# 5 0.0000 0.0000 0.0000 0.0000 2.3837 0.0000
# 6 0.0000 0.0000 0.0000 0.0000 0.0000 42.2228
#
#
#
# Elastic Compliance Matrix: (Units=1/GPa)
#
#
# Indices 1 2 3 4 5 6 
#
# 1 0.009476 -0.001867 0.000396 0.000000 0.000000 0.000000
# 2 -0.001867 0.009609 -0.001546 0.000000 0.000000 0.000000
# 3 0.000396 -0.001546 0.008602 0.000000 0.000000 0.000000
# 4 0.000000 0.000000 0.000000 -2.895406 0.000000 0.000000
# 5 0.000000 0.000000 0.000000 0.000000 0.419519 0.000000
# 6 0.000000 0.000000 0.000000 0.000000 0.000000 0.023684
#
#
# Mechanical properties :
#
#
# Convention : Reuss Voigt Hill
#
# Bulk Modulus (GPa) = 46.18487 46.49904 46.34196
# Shear Modulus (GPa) = -2.07360 28.97380 13.45010
#
# Velocity S-wave (km/s) = -0.91034 3.40286 2.31848
# Velocity P-wave (km/s) = 4.16568 5.83290 5.06831
#
# Compressibility (1/GPa) = 0.02165211
#
# Stress axis : x y z
#
# Youngs Moduli (GPa) = 105.52606 104.06873 116.25861
#
# Poissons Ratio (x) = 0.19433 -0.04607
# Poissons Ratio (y) = 0.19705 0.17977
# Poissons Ratio (z) = -0.04182 0.16092
#
# Static dielectric constant tensor:
#      x y z
#    x 1.992990 0.000000 0.000000 
#    y 0.000000 2.010700 0.000000 
#    z 0.000000 0.000000 2.009750 
# 
# From -- ./inp_files/19350.got.cif
#   From: 2010.05.17/outbox.cif.g08.bks.cpg/sg55_10_cif.got.tgz:19350.got - 2010.06.03 13:27:54.
