data_PCOD9428363
_publ_section_title
;
Structure prediction by ZEFSAII (Michael W. Deem and Ramdas Pophale) SiO2 
 PCOD9428363
Probable space group: P B A M
;
_chemical_formula_sum "Si O2"
_cell_formula_units_Z 64
_cell_length_a 11.373696
_cell_length_b 26.118925
_cell_length_c 10.106145
_cell_angle_alpha 90.000000
_cell_angle_beta 90.000000
_cell_angle_gamma 90.000000
_cell_volume 3002.219486
_symmetry_space_group_name_H-M "P B A M"
_symmetry_group_IT_number 55
_symmetry_cell_setting 'orthorhombic'
loop_
_space_group_symop_operation_xyz
x,y,z
-x,-y,z
1/2+x,1/2-y,-z
1/2-x,1/2+y,-z
-x,-y,-z
x,y,-z
1/2-x,1/2+y,z
1/2+x,1/2-y,z
loop_
_atom_site_type_symbol
_atom_site_label
_atom_site_fract_x
_atom_site_fract_y
_atom_site_fract_z
Si Si1 0.134476 0.330302 0.753567
Si Si2 0.447976 0.718265 0.155289
Si Si3 0.564090 0.907656 0.349284
Si Si4 0.232330 0.173358 0.644732
Si Si5 0.044087 0.059120 0.149296
Si Si6 0.647857 0.718720 0.358834
Si Si7 0.699587 0.975387 0.160991
Si Si8 0.701478 0.583521 0.153382
O O1 0.085533 0.278499 0.821300
O O2 0.227735 0.309730 0.647115
O O3 0.217833 0.366929 0.840038
O O4 0.035015 0.367229 0.695625
O O5 0.353753 0.683197 0.232775
O O6 0.568954 0.708441 0.231896
O O7 0.453257 0.708143 0.000000
O O8 0.540776 0.925623 0.500000
O O9 0.684526 0.875193 0.350496
O O10 0.591682 0.951028 0.240755
O O11 0.172152 0.174107 0.500000
O O12 0.320086 0.221673 0.646331
O O13 0.177673 0.053930 0.197577
O O14 0.930692 0.086919 0.214407
O O15 0.057706 0.079484 0.000000
O O16 0.000000 0.000000 0.144735
O O17 0.589294 0.707940 0.500000
O O18 0.726034 0.034101 0.202611
O O19 0.683637 0.972452 0.000000
O O20 0.678798 0.571362 0.000000
#
# Coordination Sequence:
#
# PCOD9428363 Si02
#       8
#     8   8   8   8   8   8   8   8
#     4  11  23  39  58  88 119 162 206 252 300 367
#     4  11  23  38  60  91 123 150 191 255 315 366
#     4  11  23  41  61  84 118 162 207 253 301 356
#     4   9  20  39  61  81 109 154 201 241 294 365
#     4   7  12  28  55  82 109 146 193 241 287 340
#     4  10  21  40  64  84 110 153 200 246 301 369
#     4   9  19  36  61  92 123 162 207 252 301 360
#     4   9  18  35  59  89 128 166 202 245 304 365
#
# _framework density 21.317561999999999
#
# number of rings (size 3 to 8) (size 9 to 14) (size 15 to 20)
#    0.000    2.375    1.250    2.625    0.000    6.500 
#    0.000    4.375    0.000    4.125    0.000    0.000 
#    0.000    0.000    0.000    0.000    0.000    0.000 
#
# Total GULP energy -356673.857463 kJ/mol
# GULP energy per Si atom -5573.029023 kJ/mol
# Density = 2.126904 g / cm^3
# Si number density = 21.317562 Si / 1000 Ang^3
#
#
#
# Elastic Constant Matrix: (Units=GPa)
#
#
# Indices 1 2 3 4 5 6 
#
# 1 80.2990 25.1305 44.1760 0.0000 0.0000 0.0000
# 2 25.1305 75.1764 14.3857 0.0000 0.0000 0.0000
# 3 44.1760 14.3857 123.0846 0.0000 0.0000 0.0000
# 4 0.0000 0.0000 0.0000 -47.9414 0.0000 0.0000
# 5 0.0000 0.0000 0.0000 0.0000 19.2317 0.0000
# 6 0.0000 0.0000 0.0000 0.0000 0.0000 35.3476
#
#
#
# Elastic Compliance Matrix: (Units=1/GPa)
#
#
# Indices 1 2 3 4 5 6 
#
# 1 0.016944 -0.004603 -0.005543 0.000000 0.000000 0.000000
# 2 -0.004603 0.014857 -0.000084 0.000000 0.000000 0.000000
# 3 -0.005543 -0.000084 0.010124 0.000000 0.000000 0.000000
# 4 0.000000 0.000000 0.000000 -0.020859 0.000000 0.000000
# 5 0.000000 0.000000 0.000000 0.000000 0.051997 0.000000
# 6 0.000000 0.000000 0.000000 0.000000 0.000000 0.028290
#
#
# Mechanical properties :
#
#
# Convention : Reuss Voigt Hill
#
# Bulk Modulus (GPa) = 46.59188 49.54936 48.07062
# Shear Modulus (GPa) = 38.76885 14.31876 26.54381
#
# Velocity S-wave (km/s) = 4.26917 2.59451 3.53251
# Velocity P-wave (km/s) = 6.79740 5.68060 6.26394
#
# Compressibility (1/GPa) = 0.02146297
#
# Stress axis : x y z
#
# Youngs Moduli (GPa) = 59.01909 67.30840 98.77678
#
# Poissons Ratio (x) = 0.30984 0.54754
# Poissons Ratio (y) = 0.27168 0.00832
# Poissons Ratio (z) = 0.32715 0.00567
#
# Static dielectric constant tensor:
#      x y z
#    x 1.818220 0.000000 0.000000 
#    y 0.000000 1.811120 0.000000 
#    z 0.000000 0.000000 1.769950 
# 
# From -- ./inp_files/4546.got.cif
#   From: 2010.05.17/outbox.cif.g08.bks.cpg/sg55_3_cif.got.tgz:4546.got - 2010.06.03 13:27:54.
