data_PCOD9428457
_publ_section_title
;
Structure prediction by ZEFSAII (Michael W. Deem and Ramdas Pophale) SiO2 
 PCOD9428457
Probable space group: P B A M
;
_chemical_formula_sum "Si O2"
_cell_formula_units_Z 52
_cell_length_a 15.793538
_cell_length_b 9.575157
_cell_length_c 15.568042
_cell_angle_alpha 90.000000
_cell_angle_beta 90.000000
_cell_angle_gamma 90.000000
_cell_volume 2354.286585
_symmetry_space_group_name_H-M "P B A M"
_symmetry_group_IT_number 55
_symmetry_cell_setting 'orthorhombic'
loop_
_space_group_symop_operation_xyz
x,y,z
-x,-y,z
1/2+x,1/2-y,-z
1/2-x,1/2+y,-z
-x,-y,-z
x,y,-z
1/2-x,1/2+y,z
1/2+x,1/2-y,z
loop_
_atom_site_type_symbol
_atom_site_label
_atom_site_fract_x
_atom_site_fract_y
_atom_site_fract_z
Si Si1 0.298482 0.714078 0.000000
Si Si2 0.374142 0.727195 0.184703
Si Si3 0.632898 0.602668 0.000000
Si Si4 0.183663 0.366162 0.406120
Si Si5 0.732533 0.399658 0.329747
Si Si6 0.000000 0.000000 0.133589
Si Si7 0.917620 0.098029 0.600373
Si Si8 0.017834 0.341264 0.672059
O O1 0.344382 0.762653 0.088444
O O2 0.314221 0.545076 0.000000
O O3 0.202521 0.774437 0.000000
O O4 0.294109 0.673717 0.240617
O O5 0.436791 0.595787 0.184185
O O6 0.433654 0.833583 0.236363
O O7 0.565282 0.594254 0.077805
O O8 0.195066 0.427034 0.500000
O O9 0.192679 0.489326 0.336588
O O10 0.244087 0.234035 0.390632
O O11 0.091647 0.298120 0.394664
O O12 0.657765 0.502466 0.362611
O O13 0.902833 0.133604 0.500000
O O14 0.941250 0.234288 0.657253
O O15 0.000000 0.000000 0.604105
O O16 0.000000 0.500000 0.651085
#
# Coordination Sequence:
#
# PCOD9428457 Si02
#       8
#     4   8   4   8   8   4   8   8
#     4  10  22  40  69  93 130 164 212 262 322 390
#     4  10  21  43  64  92 132 168 216 265 319 387
#     4   9  20  40  64 101 120 160 208 265 316 384
#     4  11  23  41  60  88 128 168 212 258 315 384
#     4  11  24  39  63  91 128 167 213 268 316 377
#     4   9  18  38  70  88 121 164 218 252 313 394
#     4  11  20  38  65  87 117 170 220 262 313 375
#     4  11  25  41  59  92 130 165 211 273 322 377
#
# _framework density 22.087372999999999
#
# number of rings (size 3 to 8) (size 9 to 14) (size 15 to 20)
#    0.000    1.538    3.077    3.231    2.154    6.154 
#    5.538    0.385    0.000    0.000    0.000    0.000 
#    0.000    0.000    0.000    0.000    0.000    0.000 
#
# Total GULP energy -289936.266737 kJ/mol
# GULP energy per Si atom -5575.697437 kJ/mol
# Density = 2.203710 g / cm^3
# Si number density = 22.087373 Si / 1000 Ang^3
#
#
#
# Elastic Constant Matrix: (Units=GPa)
#
#
# Indices 1 2 3 4 5 6 
#
# 1 60.5812 -1.7960 15.3254 0.0000 0.0000 0.0000
# 2 -1.7960 87.1914 9.7457 0.0000 0.0000 0.0000
# 3 15.3254 9.7457 99.9641 0.0000 0.0000 0.0000
# 4 0.0000 0.0000 0.0000 -45.5792 0.0000 0.0000
# 5 0.0000 0.0000 0.0000 0.0000 9.9946 0.0000
# 6 0.0000 0.0000 0.0000 0.0000 0.0000 45.1392
#
#
#
# Elastic Compliance Matrix: (Units=1/GPa)
#
#
# Indices 1 2 3 4 5 6 
#
# 1 0.017210 0.000657 -0.002702 0.000000 0.000000 0.000000
# 2 0.000657 0.011620 -0.001234 0.000000 0.000000 0.000000
# 3 -0.002702 -0.001234 0.010538 0.000000 0.000000 0.000000
# 4 0.000000 0.000000 0.000000 -0.021940 0.000000 0.000000
# 5 0.000000 0.000000 0.000000 0.000000 0.100054 0.000000
# 6 0.000000 0.000000 0.000000 0.000000 0.000000 0.022154
#
#
# Mechanical properties :
#
#
# Convention : Reuss Voigt Hill
#
# Bulk Modulus (GPa) = 30.47888 32.69853 31.58871
# Shear Modulus (GPa) = 31.82034 16.87502 24.34768
#
# Velocity S-wave (km/s) = 3.79972 2.76708 3.32374
# Velocity P-wave (km/s) = 5.75149 5.00452 5.39096
#
# Compressibility (1/GPa) = 0.03280960
#
# Stress axis : x y z
#
# Youngs Moduli (GPa) = 58.10614 86.05541 94.89324
#
# Poissons Ratio (x) = -0.05650 0.25644
# Poissons Ratio (y) = -0.03815 0.11706
# Poissons Ratio (z) = 0.15703 0.10615
#
# Static dielectric constant tensor:
#      x y z
#    x 1.874010 0.000000 0.000000 
#    y 0.000000 1.780480 0.000000 
#    z 0.000000 0.000000 1.904510 
# 
# From -- ./inp_files/21786.got.cif
#   From: 2010.05.17/outbox.cif.g08.bks.cpg/sg55_11_cif.got.tgz:21786.got - 2010.06.03 13:27:54.
