data_PCOD9428256
_publ_section_title
;
Structure prediction by ZEFSAII (Michael W. Deem and Ramdas Pophale) SiO2 
 PCOD9428256
Probable space group: P B A M
;
_chemical_formula_sum "Si O2"
_cell_formula_units_Z 48
_cell_length_a 9.621418
_cell_length_b 27.940388
_cell_length_c 8.050668
_cell_angle_alpha 90.000000
_cell_angle_beta 90.000000
_cell_angle_gamma 90.000000
_cell_volume 2164.230100
_symmetry_space_group_name_H-M "P B A M"
_symmetry_group_IT_number 55
_symmetry_cell_setting 'orthorhombic'
loop_
_space_group_symop_operation_xyz
x,y,z
-x,-y,z
1/2+x,1/2-y,-z
1/2-x,1/2+y,-z
-x,-y,-z
x,y,-z
1/2-x,1/2+y,z
1/2+x,1/2-y,z
loop_
_atom_site_type_symbol
_atom_site_label
_atom_site_fract_x
_atom_site_fract_y
_atom_site_fract_z
Si Si1 0.422608 0.811558 0.000000
Si Si2 0.049626 0.614649 0.743660
Si Si3 0.984297 0.110000 0.697426
Si Si4 0.790578 0.812250 0.683598
Si Si5 0.289589 0.932973 0.807017
Si Si6 0.735516 0.459748 0.299825
Si Si7 0.186005 0.746920 0.000000
O O1 0.471953 0.844854 0.850461
O O2 0.521513 0.764185 0.000000
O O3 0.262096 0.797738 0.000000
O O4 0.169513 0.647772 0.665112
O O5 0.148720 0.570778 0.798679
O O6 0.914173 0.585084 0.689100
O O7 0.956394 0.109377 0.500000
O O8 0.841767 0.101823 0.790688
O O9 0.070725 0.158355 0.730963
O O10 0.088728 0.065881 0.732693
O O11 0.809128 0.789712 0.500000
O O12 0.744228 0.778295 0.832519
O O13 0.241666 0.985518 0.752310
O O14 0.337197 0.934076 0.000000
O O15 0.763085 0.455405 0.500000
#
# Coordination Sequence:
#
# PCOD9428256 Si02
#       7
#     4   8   8   8   8   8   4
#     4  10  22  42  63  91 118 158 193 245 320 372
#     4  10  21  39  61  83 121 158 204 249 299 369
#     4   9  20  38  57  82 121 167 211 255 303 358
#     4   9  20  41  67  92 120 162 208 249 308 378
#     4  12  24  33  53  90 125 161 208 262 303 354
#     4  10  22  39  58  80 117 170 217 254 302 358
#     4  10  22  40  68  93 123 158 194 253 311 384
#
# _framework density 22.178787
#
# number of rings (size 3 to 8) (size 9 to 14) (size 15 to 20)
#    0.000    2.000    0.833    3.000    2.333    8.000 
#    0.000    4.167    0.000    0.000    0.000    0.000 
#    0.000    0.000    0.000    0.000    0.000    0.000 
#
# Total GULP energy -267330.466485 kJ/mol
# GULP energy per Si atom -5569.384718 kJ/mol
# Density = 2.212831 g / cm^3
# Si number density = 22.178787 Si / 1000 Ang^3
#
#
#
# Elastic Constant Matrix: (Units=GPa)
#
#
# Indices 1 2 3 4 5 6 
#
# 1 83.4308 8.0984 9.1951 0.0000 0.0000 0.0000
# 2 8.0984 33.4580 10.7608 0.0000 0.0000 0.0000
# 3 9.1951 10.7608 57.5298 0.0000 0.0000 0.0000
# 4 0.0000 0.0000 0.0000 4.9228 0.0000 0.0000
# 5 0.0000 0.0000 0.0000 0.0000 -6.4831 0.0000
# 6 0.0000 0.0000 0.0000 0.0000 0.0000 36.6901
#
#
#
# Elastic Compliance Matrix: (Units=1/GPa)
#
#
# Indices 1 2 3 4 5 6 
#
# 1 0.012397 -0.002515 -0.001511 0.000000 0.000000 0.000000
# 2 -0.002515 0.032311 -0.005642 0.000000 0.000000 0.000000
# 3 -0.001511 -0.005642 0.018679 0.000000 0.000000 0.000000
# 4 0.000000 0.000000 0.000000 0.203138 0.000000 0.000000
# 5 0.000000 0.000000 0.000000 0.000000 -0.154248 0.000000
# 6 0.000000 0.000000 0.000000 0.000000 0.000000 0.027255
#
#
# Mechanical properties :
#
#
# Convention : Reuss Voigt Hill
#
# Bulk Modulus (GPa) = 22.70036 25.61412 24.15724
# Shear Modulus (GPa) = 28.80995 16.78358 22.79676
#
# Velocity S-wave (km/s) = 3.60806 2.75388 3.20951
# Velocity P-wave (km/s) = 5.25498 4.65680 4.96491
#
# Compressibility (1/GPa) = 0.04405217
#
# Stress axis : x y z
#
# Youngs Moduli (GPa) = 80.66727 30.94885 53.53574
#
# Poissons Ratio (x) = 0.07782 0.08089
# Poissons Ratio (y) = 0.20284 0.30204
# Poissons Ratio (z) = 0.12189 0.17461
#
# Static dielectric constant tensor:
#      x y z
#    x 1.792310 0.000000 0.000000 
#    y 0.000000 1.796000 0.000000 
#    z 0.000000 0.000000 1.906680 
# 
# From -- ./inp_files/2962.got.cif
#   From: 2010.05.17/outbox.cif.g08.bks.cpg/sg55_2_cif.got.tgz:2962.got - 2010.06.03 13:27:54.
