data_PCOD9428615
_publ_section_title
;
Structure prediction by ZEFSAII (Michael W. Deem and Ramdas Pophale) SiO2 
 PCOD9428615
Probable space group: P B A M
;
_chemical_formula_sum "Si O2"
_cell_formula_units_Z 64
_cell_length_a 25.732215
_cell_length_b 14.821398
_cell_length_c 8.033510
_cell_angle_alpha 90.000000
_cell_angle_beta 90.000000
_cell_angle_gamma 90.000000
_cell_volume 3063.879491
_symmetry_space_group_name_H-M "P B A M"
_symmetry_group_IT_number 55
_symmetry_cell_setting 'orthorhombic'
loop_
_space_group_symop_operation_xyz
x,y,z
-x,-y,z
1/2+x,1/2-y,-z
1/2-x,1/2+y,-z
-x,-y,-z
x,y,-z
1/2-x,1/2+y,z
1/2+x,1/2-y,z
loop_
_atom_site_type_symbol
_atom_site_label
_atom_site_fract_x
_atom_site_fract_y
_atom_site_fract_z
Si Si1 0.202926 0.725673 0.806039
Si Si2 0.084852 0.751003 0.696757
Si Si3 0.135343 0.413221 0.687665
Si Si4 0.654700 0.455355 0.796958
Si Si5 0.730348 0.987801 0.194022
Si Si6 0.684030 0.258809 0.803472
Si Si7 0.448168 0.053759 0.703745
Si Si8 0.448790 0.447009 0.199874
O O1 0.147283 0.749170 0.728130
O O2 0.214325 0.617811 0.797042
O O3 0.257885 0.763919 0.737032
O O4 0.197760 0.752187 0.000000
O O5 0.076905 0.752159 0.500000
O O6 0.060946 0.656174 0.762658
O O7 0.057385 0.840741 0.765068
O O8 0.117850 0.394608 0.500000
O O9 0.191736 0.457797 0.692380
O O10 0.142739 0.319499 0.779028
O O11 0.098143 0.488876 0.762387
O O12 0.709805 0.500946 0.758450
O O13 0.661631 0.352706 0.736505
O O14 0.603672 0.505092 0.734937
O O15 0.651925 0.453656 0.000000
O O16 0.723810 0.015766 0.000000
O O17 0.692623 0.272804 0.000000
O O18 0.446409 0.057728 0.500000
O O19 0.500000 0.000000 0.750254
O O20 0.500000 0.500000 0.262261
O O21 0.449021 0.456781 0.000000
#
# Coordination Sequence:
#
# PCOD9428615 Si02
#       8
#     8   8   8   8   8   8   8   8
#     4   9  18  34  56  80 110 148 189 231 280 342
#     4  11  22  37  59  85 112 145 187 239 285 340
#     4  11  21  33  52  83 118 149 186 234 281 331
#     4   8  17  36  58  79 106 147 192 229 278 336
#     4   9  17  32  55  79 108 146 188 230 276 341
#     4   9  19  35  55  80 112 153 192 228 277 344
#     4   9  20  39  58  78 112 158 194 224 278 343
#     4  10  22  40  61  84 113 150 193 241 287 336
#
# _framework density 20.888549000000001
#
# number of rings (size 3 to 8) (size 9 to 14) (size 15 to 20)
#    0.000    2.500    1.250    2.250    1.750    1.750 
#    0.000    2.500    0.000    5.250    0.000    0.000 
#    0.000    0.000    0.000    0.000    0.000    0.000 
#
# Total GULP energy -356901.426200 kJ/mol
# GULP energy per Si atom -5576.584784 kJ/mol
# Density = 2.084101 g / cm^3
# Si number density = 20.888549 Si / 1000 Ang^3
#
#
#
# Elastic Constant Matrix: (Units=GPa)
#
#
# Indices 1 2 3 4 5 6 
#
# 1 134.9112 81.4121 3.3221 0.0000 0.0000 0.0000
# 2 81.4121 121.9018 0.1743 0.0000 0.0000 0.0000
# 3 3.3221 0.1743 9.4708 0.0000 0.0000 0.0000
# 4 0.0000 0.0000 0.0000 16.7930 0.0000 0.0000
# 5 0.0000 0.0000 0.0000 0.0000 13.0080 0.0000
# 6 0.0000 0.0000 0.0000 0.0000 0.0000 24.8251
#
#
#
# Elastic Compliance Matrix: (Units=1/GPa)
#
#
# Indices 1 2 3 4 5 6 
#
# 1 0.012586 -0.008399 -0.004260 0.000000 0.000000 0.000000
# 2 -0.008399 0.013809 0.002692 0.000000 0.000000 0.000000
# 3 -0.004260 0.002692 0.107032 0.000000 0.000000 0.000000
# 4 0.000000 0.000000 0.000000 0.059549 0.000000 0.000000
# 5 0.000000 0.000000 0.000000 0.000000 0.076876 0.000000
# 6 0.000000 0.000000 0.000000 0.000000 0.000000 0.040282
#
#
# Mechanical properties :
#
#
# Convention : Reuss Voigt Hill
#
# Bulk Modulus (GPa) = 8.81119 48.45566 28.63343
# Shear Modulus (GPa) = 13.59071 23.01692 18.30382
#
# Velocity S-wave (km/s) = 2.55351 3.32308 2.96338
# Velocity P-wave (km/s) = 3.59461 6.16209 5.04443
#
# Compressibility (1/GPa) = 0.11349208
#
# Stress axis : x y z
#
# Youngs Moduli (GPa) = 79.45507 72.41690 9.34299
#
# Poissons Ratio (x) = 0.60825 0.03980
# Poissons Ratio (y) = 0.66737 -0.02515
# Poissons Ratio (z) = 0.33849 -0.19495
#
# Static dielectric constant tensor:
#      x y z
#    x 1.758020 0.000000 0.000000 
#    y 0.000000 1.774690 0.000000 
#    z 0.000000 0.000000 1.754560 
# 
# From -- ./inp_files/9628.got.cif
#   From: 2010.05.17/outbox.cif.g08.bks.cpg/sg55_5_cif.got.tgz:9628.got - 2010.06.03 13:27:54.
