data_PCOD9428811
_publ_section_title
;
Structure prediction by ZEFSAII (Michael W. Deem and Ramdas Pophale) SiO2 
 PCOD9428811
Probable space group: P B A M
;
_chemical_formula_sum "Si O2"
_cell_formula_units_Z 64
_cell_length_a 20.828305
_cell_length_b 9.575860
_cell_length_c 16.383705
_cell_angle_alpha 90.000000
_cell_angle_beta 90.000000
_cell_angle_gamma 90.000000
_cell_volume 3267.712476
_symmetry_space_group_name_H-M "P B A M"
_symmetry_group_IT_number 55
_symmetry_cell_setting 'orthorhombic'
loop_
_space_group_symop_operation_xyz
x,y,z
-x,-y,z
1/2+x,1/2-y,-z
1/2-x,1/2+y,-z
-x,-y,-z
x,y,-z
1/2-x,1/2+y,z
1/2+x,1/2-y,z
loop_
_atom_site_type_symbol
_atom_site_label
_atom_site_fract_x
_atom_site_fract_y
_atom_site_fract_z
Si Si1 0.013311 0.165759 0.753003
Si Si2 0.871897 0.239749 0.777076
Si Si3 0.750829 0.279981 0.318182
Si Si4 0.294270 0.474062 0.408346
Si Si5 0.933013 0.915411 0.408382
Si Si6 0.807899 0.946772 0.171699
Si Si7 0.669521 0.960428 0.094697
Si Si8 0.405365 0.748963 0.091519
O O1 0.943700 0.233905 0.744840
O O2 0.056791 0.180326 0.671461
O O3 0.046306 0.223135 0.834253
O O4 0.000000 0.000000 0.764180
O O5 0.823172 0.305998 0.711934
O O6 0.864119 0.334305 0.857309
O O7 0.845456 0.084061 0.797838
O O8 0.730744 0.370092 0.395418
O O9 0.754515 0.119472 0.344750
O O10 0.705973 0.335673 0.244879
O O11 0.284831 0.423823 0.500000
O O12 0.371169 0.485309 0.393534
O O13 0.923489 0.854084 0.500000
O O14 0.000000 0.000000 0.411593
O O15 0.738847 0.987317 0.135584
O O16 0.850102 0.866526 0.105213
O O17 0.627094 0.099632 0.099517
O O18 0.678889 0.924486 0.000000
O O19 0.432878 0.736267 0.000000
#
# Coordination Sequence:
#
# PCOD9428811 Si02
#       8
#     8   8   8   8   8   8   8   8
#     4  11  21  40  63  88 122 163 215 262 313 369
#     4  11  23  39  61  90 118 163 206 257 313 372
#     4  11  21  37  58  90 121 160 205 249 310 384
#     4  11  22  37  60  92 127 160 198 258 323 376
#     4   9  19  36  62  92 121 158 210 262 307 365
#     4  11  21  38  62  90 119 162 207 258 310 370
#     4  10  23  40  60  88 124 161 204 256 316 380
#     4  11  24  40  61  92 125 164 209 258 314 377
#
# _framework density 19.585567000000001
#
# number of rings (size 3 to 8) (size 9 to 14) (size 15 to 20)
#    0.000    1.375    2.500    4.500    1.750    3.250 
#    0.000    1.875    0.000    0.000    0.000    0.875 
#    0.000    0.500    0.000    0.000    0.000    0.000 
#
# Total GULP energy -357086.910550 kJ/mol
# GULP energy per Si atom -5579.482977 kJ/mol
# Density = 1.954099 g / cm^3
# Si number density = 19.585567 Si / 1000 Ang^3
#
#
#
# Elastic Constant Matrix: (Units=GPa)
#
#
# Indices 1 2 3 4 5 6 
#
# 1 61.0485 20.7637 32.4006 0.0000 0.0000 0.0000
# 2 20.7637 52.8212 18.6864 0.0000 0.0000 0.0000
# 3 32.4006 18.6864 122.7890 0.0000 0.0000 0.0000
# 4 0.0000 0.0000 0.0000 25.3037 0.0000 0.0000
# 5 0.0000 0.0000 0.0000 0.0000 27.5386 0.0000
# 6 0.0000 0.0000 0.0000 0.0000 0.0000 17.7525
#
#
#
# Elastic Compliance Matrix: (Units=1/GPa)
#
#
# Indices 1 2 3 4 5 6 
#
# 1 0.021060 -0.006672 -0.004542 0.000000 0.000000 0.000000
# 2 -0.006672 0.022123 -0.001606 0.000000 0.000000 0.000000
# 3 -0.004542 -0.001606 0.009587 0.000000 0.000000 0.000000
# 4 0.000000 0.000000 0.000000 0.039520 0.000000 0.000000
# 5 0.000000 0.000000 0.000000 0.000000 0.036313 0.000000
# 6 0.000000 0.000000 0.000000 0.000000 0.000000 0.056330
#
#
# Mechanical properties :
#
#
# Convention : Reuss Voigt Hill
#
# Bulk Modulus (GPa) = 36.85956 42.26223 39.56089
# Shear Modulus (GPa) = 22.76706 25.10616 23.93661
#
# Velocity S-wave (km/s) = 3.41316 3.58421 3.49973
# Velocity P-wave (km/s) = 5.86459 6.22526 6.04761
#
# Compressibility (1/GPa) = 0.02713001
#
# Stress axis : x y z
#
# Youngs Moduli (GPa) = 47.48301 45.20250 104.30842
#
# Poissons Ratio (x) = 0.30159 0.47375
# Poissons Ratio (y) = 0.31680 0.16754
# Poissons Ratio (z) = 0.21566 0.07260
#
# Static dielectric constant tensor:
#      x y z
#    x 1.688780 0.000000 0.000000 
#    y 0.000000 1.661900 0.000000 
#    z 0.000000 0.000000 1.746140 
# 
# From -- ./inp_files/21949.got.cif
#   From: 2010.05.17/outbox.cif.g08.bks.cpg/sg55_11_cif.got.tgz:21949.got - 2010.06.03 13:27:54.
