data_PCOD9428835
_publ_section_title
;
Structure prediction by ZEFSAII (Michael W. Deem and Ramdas Pophale) SiO2 
 PCOD9428835
Probable space group: P B A M
;
_chemical_formula_sum "Si O2"
_cell_formula_units_Z 56
_cell_length_a 14.697506
_cell_length_b 21.290598
_cell_length_c 8.561704
_cell_angle_alpha 90.000000
_cell_angle_beta 90.000000
_cell_angle_gamma 90.000000
_cell_volume 2679.117216
_symmetry_space_group_name_H-M "P B A M"
_symmetry_group_IT_number 55
_symmetry_cell_setting 'orthorhombic'
loop_
_space_group_symop_operation_xyz
x,y,z
-x,-y,z
1/2+x,1/2-y,-z
1/2-x,1/2+y,-z
-x,-y,-z
x,y,-z
1/2-x,1/2+y,z
1/2+x,1/2-y,z
loop_
_atom_site_type_symbol
_atom_site_label
_atom_site_fract_x
_atom_site_fract_y
_atom_site_fract_z
Si Si1 0.920080 0.092668 0.184719
Si Si2 0.103992 0.267728 0.312306
Si Si3 0.582574 0.821686 0.183223
Si Si4 0.773658 0.987682 0.815761
Si Si5 0.809517 0.207936 0.314925
Si Si6 0.612884 0.379524 0.315900
Si Si7 0.411922 0.039306 0.685022
O O1 0.869109 0.157759 0.221530
O O2 0.014307 0.091920 0.276838
O O3 0.851424 0.037199 0.230270
O O4 0.939737 0.087253 0.000000
O O5 0.089902 0.272480 0.500000
O O6 0.202800 0.296251 0.275530
O O7 0.108457 0.193787 0.272848
O O8 0.019237 0.299518 0.228097
O O9 0.652154 0.776882 0.275921
O O10 0.592488 0.893940 0.230057
O O11 0.598153 0.813197 0.000000
O O12 0.812482 0.918935 0.776661
O O13 0.680233 0.997490 0.724720
O O14 0.757486 0.994087 0.000000
O O15 0.820589 0.196554 0.500000
O O16 0.632525 0.383946 0.500000
O O17 0.418281 0.050482 0.500000
O O18 0.500000 0.000000 0.734807
#
# Coordination Sequence:
#
# PCOD9428835 Si02
#       7
#     8   8   8   8   8   8   8
#     4  11  24  41  62  95 134 171 215 270 330 387
#     4  10  23  41  64  94 128 168 214 266 319 381
#     4  12  25  42  68  98 132 170 210 266 328 388
#     4  11  25  43  65  94 133 174 215 271 329 387
#     4  11  23  41  66  95 131 172 220 271 321 387
#     4  11  22  40  67  97 130 174 220 266 320 387
#     4  11  26  47  70  95 128 172 223 272 320 386
#
# _framework density 20.902408000000001
#
# number of rings (size 3 to 8) (size 9 to 14) (size 15 to 20)
#    0.000    1.000    1.429    4.714    2.000    8.000 
#    0.000    0.000    0.000    0.000    0.000    0.000 
#    0.000    0.000    0.000    0.000    0.000    0.000 
#
# Total GULP energy -313537.619668 kJ/mol
# GULP energy per Si atom -5598.886066 kJ/mol
# Density = 2.085483 g / cm^3
# Si number density = 20.902408 Si / 1000 Ang^3
#
#
#
# Elastic Constant Matrix: (Units=GPa)
#
#
# Indices 1 2 3 4 5 6 
#
# 1 76.7906 -5.3159 -0.5254 0.0000 0.0000 0.0000
# 2 -5.3159 44.3875 -4.3376 0.0000 0.0000 0.0000
# 3 -0.5254 -4.3376 14.2402 0.0000 0.0000 0.0000
# 4 0.0000 0.0000 0.0000 24.5907 0.0000 0.0000
# 5 0.0000 0.0000 0.0000 0.0000 30.1054 0.0000
# 6 0.0000 0.0000 0.0000 0.0000 0.0000 21.2816
#
#
#
# Elastic Compliance Matrix: (Units=1/GPa)
#
#
# Indices 1 2 3 4 5 6 
#
# 1 0.013145 0.001671 0.000994 0.000000 0.000000 0.000000
# 2 0.001671 0.023433 0.007199 0.000000 0.000000 0.000000
# 3 0.000994 0.007199 0.072453 0.000000 0.000000 0.000000
# 4 0.000000 0.000000 0.000000 0.040666 0.000000 0.000000
# 5 0.000000 0.000000 0.000000 0.000000 0.033217 0.000000
# 6 0.000000 0.000000 0.000000 0.000000 0.000000 0.046989
#
#
# Mechanical properties :
#
#
# Convention : Reuss Voigt Hill
#
# Bulk Modulus (GPa) = 7.76636 12.78449 10.27542
# Shear Modulus (GPa) = 19.75561 24.90202 22.32881
#
# Velocity S-wave (km/s) = 3.07764 3.45533 3.27194
# Velocity P-wave (km/s) = 4.04386 4.69560 4.38186
#
# Compressibility (1/GPa) = 0.12876042
#
# Stress axis : x y z
#
# Youngs Moduli (GPa) = 76.07489 42.67563 13.80200
#
# Poissons Ratio (x) = -0.07133 -0.01372
# Poissons Ratio (y) = -0.12715 -0.09936
# Poissons Ratio (z) = -0.07563 -0.30723
#
# Static dielectric constant tensor:
#      x y z
#    x 1.735400 0.000000 0.000000 
#    y 0.000000 1.737370 0.000000 
#    z 0.000000 0.000000 1.695110 
# 
# From -- ./inp_files/6020.got.cif
#   From: 2010.05.17/outbox.cif.g08.bks.cpg/sg55_4_cif.got.tgz:6020.got - 2010.06.03 13:27:54.
