data_PCOD9428322
_publ_section_title
;
Structure prediction by ZEFSAII (Michael W. Deem and Ramdas Pophale) SiO2 
 PCOD9428322
Probable space group: P B A M
;
_chemical_formula_sum "Si O2"
_cell_formula_units_Z 56
_cell_length_a 19.024657
_cell_length_b 17.434195
_cell_length_c 8.861347
_cell_angle_alpha 90.000000
_cell_angle_beta 90.000000
_cell_angle_gamma 90.000000
_cell_volume 2939.127851
_symmetry_space_group_name_H-M "P B A M"
_symmetry_group_IT_number 55
_symmetry_cell_setting 'orthorhombic'
loop_
_space_group_symop_operation_xyz
x,y,z
-x,-y,z
1/2+x,1/2-y,-z
1/2-x,1/2+y,-z
-x,-y,-z
x,y,-z
1/2-x,1/2+y,z
1/2+x,1/2-y,z
loop_
_atom_site_type_symbol
_atom_site_label
_atom_site_fract_x
_atom_site_fract_y
_atom_site_fract_z
Si Si1 0.079859 0.518245 0.181574
Si Si2 0.374814 0.179082 0.679596
Si Si3 0.149265 0.954832 0.679365
Si Si4 0.052912 0.822594 0.180568
Si Si5 0.293486 0.908194 0.180865
Si Si6 0.101492 0.113168 0.180489
Si Si7 0.727357 0.269694 0.180857
O O1 0.107100 0.595202 0.258990
O O2 0.133015 0.448876 0.217137
O O3 0.000000 0.500000 0.225964
O O4 0.081168 0.529346 0.000000
O O5 0.377406 0.180933 0.500000
O O6 0.428762 0.240970 0.748021
O O7 0.297661 0.203966 0.736184
O O8 0.146166 0.947743 0.500000
O O9 0.107493 0.884707 0.755350
O O10 0.229369 0.950012 0.736381
O O11 0.115171 0.034260 0.733465
O O12 0.974355 0.851058 0.215589
O O13 0.060588 0.817983 0.000000
O O14 0.291264 0.818151 0.219114
O O15 0.282531 0.914962 0.000000
O O16 0.162977 0.173701 0.215463
O O17 0.103425 0.097792 0.000000
O O18 0.739819 0.273027 0.000000
#
# Coordination Sequence:
#
# PCOD9428322 Si02
#       7
#     8   8   8   8   8   8   8
#     4  10  23  42  68  96 125 165 215 264 312 368
#     4  12  25  41  62  92 129 167 206 251 314 376
#     4  12  24  39  61  91 128 165 201 246 307 372
#     4  11  23  41  66  92 122 161 206 257 306 363
#     4  10  21  39  65  92 121 162 211 259 305 361
#     4  10  23  40  64  93 121 156 205 254 305 363
#     4  10  21  40  66  93 121 161 210 259 304 361
#
# _framework density 19.053270000000001
#
# number of rings (size 3 to 8) (size 9 to 14) (size 15 to 20)
#    0.000    1.286    1.429    4.286    2.000    7.714 
#    0.000    0.000    0.000    0.000    0.000    0.000 
#    0.000    0.000    0.000    0.000    0.000    0.000 
#
# Total GULP energy -313257.160032 kJ/mol
# GULP energy per Si atom -5593.877858 kJ/mol
# Density = 1.900990 g / cm^3
# Si number density = 19.053270 Si / 1000 Ang^3
#
#
#
# Elastic Constant Matrix: (Units=GPa)
#
#
# Indices 1 2 3 4 5 6 
#
# 1 78.6815 59.4150 42.0718 0.0000 0.0000 0.0000
# 2 59.4150 128.9181 53.5568 0.0000 0.0000 0.0000
# 3 42.0718 53.5568 48.2042 0.0000 0.0000 0.0000
# 4 0.0000 0.0000 0.0000 -10.4229 0.0000 0.0000
# 5 0.0000 0.0000 0.0000 0.0000 -17.6283 0.0000
# 6 0.0000 0.0000 0.0000 0.0000 0.0000 -8.1688
#
#
#
# Elastic Compliance Matrix: (Units=1/GPa)
#
#
# Indices 1 2 3 4 5 6 
#
# 1 0.025221 -0.004604 -0.016897 0.000000 0.000000 0.000000
# 2 -0.004604 0.015247 -0.012921 0.000000 0.000000 0.000000
# 3 -0.016897 -0.012921 0.049849 0.000000 0.000000 0.000000
# 4 0.000000 0.000000 0.000000 -0.095942 0.000000 0.000000
# 5 0.000000 0.000000 0.000000 0.000000 -0.056727 0.000000
# 6 0.000000 0.000000 0.000000 0.000000 0.000000 -0.122418
#
#
# Mechanical properties :
#
#
# Convention : Reuss Voigt Hill
#
# Bulk Modulus (GPa) = 46.57373 62.87678 54.72525
# Shear Modulus (GPa) = -45.96974 -0.52665 -23.24819
#
# Velocity S-wave (km/s) = -4.91725 -0.52632 -3.49688
# Velocity P-wave (km/s) = 2.78246 5.71864 3.53276
#
# Compressibility (1/GPa) = 0.02147133
#
# Stress axis : x y z
#
# Youngs Moduli (GPa) = 39.64888 65.58785 20.06064
#
# Poissons Ratio (x) = 0.30198 0.33897
# Poissons Ratio (y) = 0.18255 0.25921
# Poissons Ratio (z) = 0.66996 0.84748
#
# Static dielectric constant tensor:
#      x y z
#    x 1.641420 0.000000 0.000000 
#    y 0.000000 1.634510 0.000000 
#    z 0.000000 0.000000 1.634690 
# 
# From -- ./inp_files/8763.got.cif
#   From: 2010.05.17/outbox.cif.g08.bks.cpg/sg55_5_cif.got.tgz:8763.got - 2010.06.03 13:27:54.
