data_PCOD9428077
_publ_section_title
;
Structure prediction by ZEFSAII (Michael W. Deem and Ramdas Pophale) SiO2 
 PCOD9428077
Probable space group: P B A M
;
_chemical_formula_sum "Si O2"
_cell_formula_units_Z 64
_cell_length_a 23.989194
_cell_length_b 15.411726
_cell_length_c 7.660689
_cell_angle_alpha 90.000000
_cell_angle_beta 90.000000
_cell_angle_gamma 90.000000
_cell_volume 2832.270752
_symmetry_space_group_name_H-M "P B A M"
_symmetry_group_IT_number 55
_symmetry_cell_setting 'orthorhombic'
loop_
_space_group_symop_operation_xyz
x,y,z
-x,-y,z
1/2+x,1/2-y,-z
1/2-x,1/2+y,-z
-x,-y,-z
x,y,-z
1/2-x,1/2+y,z
1/2+x,1/2-y,z
loop_
_atom_site_type_symbol
_atom_site_label
_atom_site_fract_x
_atom_site_fract_y
_atom_site_fract_z
Si Si1 0.679449 0.311077 0.796445
Si Si2 0.612263 0.145320 0.295995
Si Si3 0.802988 0.310953 0.711602
Si Si4 0.793427 0.511995 0.713642
Si Si5 0.492823 0.095080 0.197932
Si Si6 0.328856 0.491895 0.700028
Si Si7 0.918789 0.246420 0.295940
Si Si8 0.450640 0.436695 0.714077
O O1 0.637751 0.240320 0.722791
O O2 0.742861 0.278732 0.772063
O O3 0.674244 0.403601 0.703244
O O4 0.668675 0.324934 0.000000
O O5 0.601985 0.126873 0.500000
O O6 0.658423 0.077155 0.229770
O O7 0.553986 0.136035 0.200778
O O8 0.802885 0.308761 0.500000
O O9 0.806617 0.412648 0.763579
O O10 0.856623 0.258819 0.777854
O O11 0.791791 0.514281 0.500000
O O12 0.731023 0.535881 0.776658
O O13 0.450833 0.162996 0.281351
O O14 0.500000 0.000000 0.280557
O O15 0.472752 0.082020 0.000000
O O16 0.329046 0.460111 0.500000
O O17 0.388676 0.465224 0.773526
O O18 0.910872 0.228408 0.500000
O O19 0.954048 0.164196 0.230087
O O20 0.500000 0.500000 0.775527
O O21 0.452223 0.442076 0.500000
#
# Coordination Sequence:
#
# PCOD9428077 Si02
#       8
#     8   8   8   8   8   8   8   8
#     4  11  23  37  55  85 122 157 193 238 299 368
#     4  11  22  37  62  88 114 151 202 255 299 351
#     4   9  18  36  60  86 115 149 196 247 296 349
#     4   8  16  31  55  85 110 142 189 245 299 345
#     4  11  25  43  61  87 127 166 197 242 307 371
#     4   9  18  36  60  84 116 154 194 242 297 354
#     4  10  21  37  64  94 120 157 209 258 295 354
#     4   9  19  34  57  90 121 150 196 255 307 347
#
# _framework density 22.596710000000002
#
# number of rings (size 3 to 8) (size 9 to 14) (size 15 to 20)
#    0.000    2.250    0.000    3.375    3.500    2.500 
#    0.000    6.875    0.000    0.750    0.000    0.000 
#    0.000    0.000    0.000    0.000    0.000    0.000 
#
# Total GULP energy -357488.395678 kJ/mol
# GULP energy per Si atom -5585.756182 kJ/mol
# Density = 2.254528 g / cm^3
# Si number density = 22.596710 Si / 1000 Ang^3
#
#
#
# Elastic Constant Matrix: (Units=GPa)
#
#
# Indices 1 2 3 4 5 6 
#
# 1 87.3024 22.8533 -3.4645 0.0000 0.0000 0.0000
# 2 22.8533 67.1827 -5.1448 0.0000 0.0000 0.0000
# 3 -3.4645 -5.1448 50.8625 0.0000 0.0000 0.0000
# 4 0.0000 0.0000 0.0000 -15.3343 0.0000 0.0000
# 5 0.0000 0.0000 0.0000 0.0000 13.8981 0.0000
# 6 0.0000 0.0000 0.0000 0.0000 0.0000 36.6158
#
#
#
# Elastic Compliance Matrix: (Units=1/GPa)
#
#
# Indices 1 2 3 4 5 6 
#
# 1 0.012583 -0.004248 0.000427 0.000000 0.000000 0.000000
# 2 -0.004248 0.016435 0.001373 0.000000 0.000000 0.000000
# 3 0.000427 0.001373 0.019829 0.000000 0.000000 0.000000
# 4 0.000000 0.000000 0.000000 -0.065213 0.000000 0.000000
# 5 0.000000 0.000000 0.000000 0.000000 0.071952 0.000000
# 6 0.000000 0.000000 0.000000 0.000000 0.000000 0.027311
#
#
# Mechanical properties :
#
#
# Convention : Reuss Voigt Hill
#
# Bulk Modulus (GPa) = 22.75174 25.98174 24.36674
# Shear Modulus (GPa) = 48.80820 19.77615 34.29218
#
# Velocity S-wave (km/s) = 4.65259 2.96155 3.89983
# Velocity P-wave (km/s) = 6.24120 4.81844 5.57539
#
# Compressibility (1/GPa) = 0.04395269
#
# Stress axis : x y z
#
# Youngs Moduli (GPa) = 79.47020 60.84629 50.43157
#
# Poissons Ratio (x) = 0.25846 -0.02156
# Poissons Ratio (y) = 0.33757 -0.06925
# Poissons Ratio (z) = -0.03397 -0.08355
#
# Static dielectric constant tensor:
#      x y z
#    x 1.814410 0.000000 0.000000 
#    y 0.000000 1.826410 0.000000 
#    z 0.000000 0.000000 1.864450 
# 
# From -- ./inp_files/9748.got.cif
#   From: 2010.05.17/outbox.cif.g08.bks.cpg/sg55_5_cif.got.tgz:9748.got - 2010.06.03 13:27:54.
