data_PCOD9428098
_publ_section_title
;
Structure prediction by ZEFSAII (Michael W. Deem and Ramdas Pophale) SiO2 
 PCOD9428098
Probable space group: P B A M
;
_chemical_formula_sum "Si O2"
_cell_formula_units_Z 64
_cell_length_a 28.745024
_cell_length_b 13.191035
_cell_length_c 7.742265
_cell_angle_alpha 90.000000
_cell_angle_beta 90.000000
_cell_angle_gamma 90.000000
_cell_volume 2935.685856
_symmetry_space_group_name_H-M "P B A M"
_symmetry_group_IT_number 55
_symmetry_cell_setting 'orthorhombic'
loop_
_space_group_symop_operation_xyz
x,y,z
-x,-y,z
1/2+x,1/2-y,-z
1/2-x,1/2+y,-z
-x,-y,-z
x,y,-z
1/2-x,1/2+y,z
1/2+x,1/2-y,z
loop_
_atom_site_type_symbol
_atom_site_label
_atom_site_fract_x
_atom_site_fract_y
_atom_site_fract_z
Si Si1 0.957394 0.561717 0.707886
Si Si2 0.676791 0.176451 0.196888
Si Si3 0.216245 0.119857 0.201836
Si Si4 0.858512 0.471927 0.203116
Si Si5 0.346028 0.424353 0.705836
Si Si6 0.809759 0.290671 0.698094
Si Si7 0.945634 0.990579 0.289757
Si Si8 0.579916 0.262781 0.707240
O O1 0.955875 0.551544 0.500000
O O2 0.909921 0.515335 0.775580
O O3 0.959993 0.681301 0.743666
O O4 0.000000 0.500000 0.778962
O O5 0.702230 0.271015 0.283115
O O6 0.674081 0.064117 0.274634
O O7 0.624612 0.219617 0.196936
O O8 0.694503 0.164745 0.000000
O O9 0.271573 0.133759 0.217625
O O10 0.188018 0.022345 0.269687
O O11 0.203788 0.121921 0.000000
O O12 0.854293 0.363634 0.291679
O O13 0.849277 0.461186 0.000000
O O14 0.350359 0.410134 0.500000
O O15 0.321578 0.320545 0.773750
O O16 0.399510 0.445098 0.768692
O O17 0.795978 0.276323 0.500000
O O18 0.946851 0.001158 0.500000
O O19 0.931604 0.875978 0.245136
O O20 0.000000 0.000000 0.232311
O O21 0.589560 0.260749 0.500000
#
# Coordination Sequence:
#
# PCOD9428098 Si02
#       8
#     8   8   8   8   8   8   8   8
#     4   9  18  32  53  83 116 153 199 249 301 352
#     4   9  19  35  56  81 109 144 185 238 291 341
#     4  11  23  39  62  87 115 152 195 242 297 359
#     4  10  21  38  58  83 117 154 196 241 296 358
#     4  10  22  41  62  89 123 158 201 253 301 357
#     4  11  25  41  59  87 121 158 197 245 304 361
#     4   9  17  31  55  86 117 153 197 241 292 351
#     4   9  16  29  52  79 108 147 192 240 288 343
#
# _framework density 21.800698000000001
#
# number of rings (size 3 to 8) (size 9 to 14) (size 15 to 20)
#    0.000    2.250    1.250    1.125    1.750    3.250 
#    0.000    3.750    0.000    1.500    0.000    0.000 
#    0.000    0.000    0.000    0.000    0.000    0.000 
#
# Total GULP energy -356302.244078 kJ/mol
# GULP energy per Si atom -5567.222564 kJ/mol
# Density = 2.175108 g / cm^3
# Si number density = 21.800698 Si / 1000 Ang^3
#
#
#
# Elastic Constant Matrix: (Units=GPa)
#
#
# Indices 1 2 3 4 5 6 
#
# 1 82.7598 48.7615 -2.4715 0.0000 0.0000 0.0000
# 2 48.7615 138.4837 13.4664 0.0000 0.0000 0.0000
# 3 -2.4715 13.4664 28.6933 0.0000 0.0000 0.0000
# 4 0.0000 0.0000 0.0000 17.9837 0.0000 0.0000
# 5 0.0000 0.0000 0.0000 0.0000 21.8944 0.0000
# 6 0.0000 0.0000 0.0000 0.0000 0.0000 29.3510
#
#
#
# Elastic Compliance Matrix: (Units=1/GPa)
#
#
# Indices 1 2 3 4 5 6 
#
# 1 0.015701 -0.005931 0.004136 0.000000 0.000000 0.000000
# 2 -0.005931 0.009807 -0.005113 0.000000 0.000000 0.000000
# 3 0.004136 -0.005113 0.037607 0.000000 0.000000 0.000000
# 4 0.000000 0.000000 0.000000 0.055606 0.000000 0.000000
# 5 0.000000 0.000000 0.000000 0.000000 0.045674 0.000000
# 6 0.000000 0.000000 0.000000 0.000000 0.000000 0.034070
#
#
# Mechanical properties :
#
#
# Convention : Reuss Voigt Hill
#
# Bulk Modulus (GPa) = 20.28455 41.04995 30.66725
# Shear Modulus (GPa) = 21.86138 26.52452 24.19295
#
# Velocity S-wave (km/s) = 3.17011 3.49188 3.33488
# Velocity P-wave (km/s) = 4.76699 5.92690 5.37831
#
# Compressibility (1/GPa) = 0.04929861
#
# Stress axis : x y z
#
# Youngs Moduli (GPa) = 63.69038 101.97299 26.59054
#
# Poissons Ratio (x) = 0.60476 -0.10997
# Poissons Ratio (y) = 0.37772 0.13596
# Poissons Ratio (z) = -0.26341 0.52141
#
# Static dielectric constant tensor:
#      x y z
#    x 1.902850 0.000000 0.000000 
#    y 0.000000 1.864790 0.000000 
#    z 0.000000 0.000000 1.820160 
# 
# From -- ./inp_files/10819.got.cif
#   From: 2010.05.17/outbox.cif.g08.bks.cpg/sg55_6_cif.got.tgz:10819.got - 2010.06.03 13:27:54.
