data_PCOD9428212
_publ_section_title
;
Structure prediction by ZEFSAII (Michael W. Deem and Ramdas Pophale) SiO2 
 PCOD9428212
Probable space group: P B A M
;
_chemical_formula_sum "Si O2"
_cell_formula_units_Z 60
_cell_length_a 13.682439
_cell_length_b 13.977056
_cell_length_c 14.559373
_cell_angle_alpha 90.000000
_cell_angle_beta 90.000000
_cell_angle_gamma 90.000000
_cell_volume 2784.337639
_symmetry_space_group_name_H-M "P B A M"
_symmetry_group_IT_number 55
_symmetry_cell_setting 'orthorhombic'
loop_
_space_group_symop_operation_xyz
x,y,z
-x,-y,z
1/2+x,1/2-y,-z
1/2-x,1/2+y,-z
-x,-y,-z
x,y,-z
1/2-x,1/2+y,z
1/2+x,1/2-y,z
loop_
_atom_site_type_symbol
_atom_site_label
_atom_site_fract_x
_atom_site_fract_y
_atom_site_fract_z
Si Si1 0.387055 0.015511 0.641085
Si Si2 0.222214 0.865986 0.600000
Si Si3 0.797946 0.328665 0.500000
Si Si4 0.503393 0.758188 0.894875
Si Si5 0.186543 0.048788 0.898112
Si Si6 0.900024 0.449178 0.142054
Si Si7 0.620011 0.617493 0.216428
Si Si8 0.710411 0.224877 0.892546
O O1 0.321095 0.919922 0.630140
O O2 0.500000 0.000000 0.612836
O O3 0.336952 0.097001 0.579993
O O4 0.390025 0.044425 0.747993
O O5 0.193682 0.908229 0.500000
O O6 0.232621 0.753427 0.578788
O O7 0.139062 0.881919 0.675636
O O8 0.585200 0.839453 0.887692
O O9 0.528488 0.675214 0.823390
O O10 0.400381 0.808603 0.874448
O O11 0.499755 0.722219 0.000000
O O12 0.298853 0.012541 0.897497
O O13 0.197123 0.161043 0.878606
O O14 0.127373 0.988304 0.824586
O O15 0.145333 0.034821 0.000000
O O16 0.000000 0.500000 0.112933
O O17 0.712143 0.674927 0.172377
O O18 0.736040 0.209271 0.000000
#
# Coordination Sequence:
#
# PCOD9428212 Si02
#       8
#     8   8   4   8   8   8   8   8
#     4  11  22  41  66  98 130 161 214 270 323 390
#     4  10  24  40  60  95 121 161 213 260 331 391
#     4  10  21  38  63  88 120 160 200 266 321 380
#     4  11  23  39  62  92 130 174 215 259 316 381
#     4  11  22  36  60  88 124 173 210 255 315 372
#     4  11  22  36  60  93 130 165 208 263 316 370
#     4  12  22  41  62  88 127 165 212 267 321 381
#     4  10  23  40  59  93 132 167 217 263 307 383
#
# _framework density 21.549109999999999
#
# number of rings (size 3 to 8) (size 9 to 14) (size 15 to 20)
#    0.400    0.800    3.333    3.400    1.867    2.667 
#    0.000    2.000    0.000    0.000    0.000    4.667 
#    0.000    0.000    0.000    0.000    0.000    0.000 
#
# Total GULP energy -334230.396691 kJ/mol
# GULP energy per Si atom -5570.506612 kJ/mol
# Density = 2.150006 g / cm^3
# Si number density = 21.549110 Si / 1000 Ang^3
#
#
#
# Elastic Constant Matrix: (Units=GPa)
#
#
# Indices 1 2 3 4 5 6 
#
# 1 60.5655 21.6927 14.0852 0.0000 0.0000 0.0000
# 2 21.6927 92.1712 12.3264 0.0000 0.0000 0.0000
# 3 14.0852 12.3264 117.5213 0.0000 0.0000 0.0000
# 4 0.0000 0.0000 0.0000 55.9837 0.0000 0.0000
# 5 0.0000 0.0000 0.0000 0.0000 19.2090 0.0000
# 6 0.0000 0.0000 0.0000 0.0000 0.0000 39.8611
#
#
#
# Elastic Compliance Matrix: (Units=1/GPa)
#
#
# Indices 1 2 3 4 5 6 
#
# 1 0.018389 -0.004091 -0.001775 0.000000 0.000000 0.000000
# 2 -0.004091 0.011914 -0.000759 0.000000 0.000000 0.000000
# 3 -0.001775 -0.000759 0.008801 0.000000 0.000000 0.000000
# 4 0.000000 0.000000 0.000000 0.017862 0.000000 0.000000
# 5 0.000000 0.000000 0.000000 0.000000 0.052059 0.000000
# 6 0.000000 0.000000 0.000000 0.000000 0.000000 0.025087
#
#
# Mechanical properties :
#
#
# Convention : Reuss Voigt Hill
#
# Bulk Modulus (GPa) = 38.67795 40.71852 39.69823
# Shear Modulus (GPa) = 32.05539 37.82100 34.93820
#
# Velocity S-wave (km/s) = 3.86106 4.19395 4.03094
# Velocity P-wave (km/s) = 6.15344 6.51068 6.33458
#
# Compressibility (1/GPa) = 0.02585453
#
# Stress axis : x y z
#
# Youngs Moduli (GPa) = 54.38056 83.93741 113.61743
#
# Poissons Ratio (x) = 0.34335 0.20166
# Poissons Ratio (y) = 0.22244 0.08627
# Poissons Ratio (z) = 0.09652 0.06374
#
# Static dielectric constant tensor:
#      x y z
#    x 1.814270 0.000000 0.000000 
#    y 0.000000 1.825960 0.000000 
#    z 0.000000 0.000000 1.772930 
# 
# From -- ./inp_files/19081.got.cif
#   From: 2010.05.17/outbox.cif.g08.bks.cpg/sg55_10_cif.got.tgz:19081.got - 2010.06.03 13:27:54.
