data_PCOD9428324
_publ_section_title
;
Structure prediction by ZEFSAII (Michael W. Deem and Ramdas Pophale) SiO2 
 PCOD9428324
Probable space group: P B A M
;
_chemical_formula_sum "Si O2"
_cell_formula_units_Z 56
_cell_length_a 14.506870
_cell_length_b 20.936385
_cell_length_c 9.118342
_cell_angle_alpha 90.000000
_cell_angle_beta 90.000000
_cell_angle_gamma 90.000000
_cell_volume 2769.435739
_symmetry_space_group_name_H-M "P B A M"
_symmetry_group_IT_number 55
_symmetry_cell_setting 'orthorhombic'
loop_
_space_group_symop_operation_xyz
x,y,z
-x,-y,z
1/2+x,1/2-y,-z
1/2-x,1/2+y,-z
-x,-y,-z
x,y,-z
1/2-x,1/2+y,z
1/2+x,1/2-y,z
loop_
_atom_site_type_symbol
_atom_site_label
_atom_site_fract_x
_atom_site_fract_y
_atom_site_fract_z
Si Si1 0.594593 0.904445 0.172728
Si Si2 0.884563 0.772542 0.172371
Si Si3 0.619569 0.119914 0.831390
Si Si4 0.697666 0.788531 0.674326
Si Si5 0.089949 0.820606 0.172782
Si Si6 0.599816 0.527324 0.172857
Si Si7 0.284975 0.988686 0.673081
O O1 0.484296 0.905933 0.186198
O O2 0.632753 0.841285 0.250973
O O3 0.644101 0.964070 0.247214
O O4 0.616365 0.902240 0.000000
O O5 0.884488 0.695831 0.189602
O O6 0.801454 0.799052 0.268835
O O7 0.985424 0.799421 0.208974
O O8 0.867427 0.786608 0.000000
O O9 0.685515 0.082370 0.722415
O O10 0.649880 0.107701 0.000000
O O11 0.692671 0.792274 0.500000
O O12 0.660966 0.720453 0.732728
O O13 0.099197 0.896189 0.191345
O O14 0.105450 0.805420 0.000000
O O15 0.500000 0.500000 0.213198
O O16 0.682824 0.498842 0.266415
O O17 0.614952 0.513394 0.000000
O O18 0.289740 0.996554 0.500000
#
# Coordination Sequence:
#
# PCOD9428324 Si02
#       7
#     8   8   8   8   8   8   8
#     4  11  23  43  68  92 122 165 219 265 309 370
#     4  10  21  39  65  93 122 164 216 263 307 369
#     4  10  21  41  67  94 122 163 217 264 310 371
#     4  12  25  39  60  96 134 167 205 258 330 385
#     4  10  21  42  67  93 123 165 219 265 308 366
#     4  10  23  43  68  95 123 167 224 270 308 366
#     4  12  26  41  61  94 133 169 204 256 328 384
#
# _framework density 20.220724000000001
#
# number of rings (size 3 to 8) (size 9 to 14) (size 15 to 20)
#    0.000    1.286    1.429    4.286    2.000    8.286 
#    0.000    0.000    0.000    0.000    0.000    0.000 
#    0.000    0.000    0.000    0.000    0.000    0.000 
#
# Total GULP energy -313404.849021 kJ/mol
# GULP energy per Si atom -5596.515161 kJ/mol
# Density = 2.017470 g / cm^3
# Si number density = 20.220724 Si / 1000 Ang^3
#
#
#
# Elastic Constant Matrix: (Units=GPa)
#
#
# Indices 1 2 3 4 5 6 
#
# 1 83.2201 3.8417 56.3723 0.0000 0.0000 0.0000
# 2 3.8417 30.5423 21.6517 0.0000 0.0000 0.0000
# 3 56.3723 21.6517 100.0366 0.0000 0.0000 0.0000
# 4 0.0000 0.0000 0.0000 -7.8104 0.0000 0.0000
# 5 0.0000 0.0000 0.0000 0.0000 -78.8356 0.0000
# 6 0.0000 0.0000 0.0000 0.0000 0.0000 21.3215
#
#
#
# Elastic Compliance Matrix: (Units=1/GPa)
#
#
# Indices 1 2 3 4 5 6 
#
# 1 0.020513 0.006632 -0.012995 0.000000 0.000000 0.000000
# 2 0.006632 0.040820 -0.012572 0.000000 0.000000 0.000000
# 3 -0.012995 -0.012572 0.020040 0.000000 0.000000 0.000000
# 4 0.000000 0.000000 0.000000 -0.128034 0.000000 0.000000
# 5 0.000000 0.000000 0.000000 0.000000 -0.012685 0.000000
# 6 0.000000 0.000000 0.000000 0.000000 0.000000 0.046901
#
#
# Mechanical properties :
#
#
# Convention : Reuss Voigt Hill
#
# Bulk Modulus (GPa) = 22.98708 41.94784 32.46746
# Shear Modulus (GPa) = 125.23471 -4.26935 60.48268
#
# Velocity S-wave (km/s) = 7.87834 -1.45463 5.47505
# Velocity P-wave (km/s) = 9.70312 4.23895 7.48730
#
# Compressibility (1/GPa) = 0.04350270
#
# Stress axis : x y z
#
# Youngs Moduli (GPa) = 48.75074 24.49797 49.90014
#
# Poissons Ratio (x) = -0.16246 0.64843
# Poissons Ratio (y) = -0.32330 0.62735
# Poissons Ratio (z) = 0.63349 0.30799
#
# Static dielectric constant tensor:
#      x y z
#    x 1.706200 0.000000 0.000000 
#    y 0.000000 1.731350 0.000000 
#    z 0.000000 0.000000 1.672190 
# 
# From -- ./inp_files/6008.got.cif
#   From: 2010.05.17/outbox.cif.g08.bks.cpg/sg55_4_cif.got.tgz:6008.got - 2010.06.03 13:27:54.
