data_PCOD9428189
_publ_section_title
;
Structure prediction by ZEFSAII (Michael W. Deem and Ramdas Pophale) SiO2 
 PCOD9428189
Probable space group: P B A M
;
_chemical_formula_sum "Si O2"
_cell_formula_units_Z 56
_cell_length_a 11.679650
_cell_length_b 13.893348
_cell_length_c 14.288871
_cell_angle_alpha 90.000000
_cell_angle_beta 90.000000
_cell_angle_gamma 90.000000
_cell_volume 2318.647124
_symmetry_space_group_name_H-M "P B A M"
_symmetry_group_IT_number 55
_symmetry_cell_setting 'orthorhombic'
loop_
_space_group_symop_operation_xyz
x,y,z
-x,-y,z
1/2+x,1/2-y,-z
1/2-x,1/2+y,-z
-x,-y,-z
x,y,-z
1/2-x,1/2+y,z
1/2+x,1/2-y,z
loop_
_atom_site_type_symbol
_atom_site_label
_atom_site_fract_x
_atom_site_fract_y
_atom_site_fract_z
Si Si1 0.155911 0.112644 0.399005
Si Si2 0.627619 0.023092 0.607971
Si Si3 0.921007 0.697746 0.895179
Si Si4 0.888362 0.285104 0.768039
Si Si5 0.175847 0.895684 0.105838
Si Si6 0.155756 0.103862 0.805761
Si Si7 0.222755 0.807366 0.604877
O O1 0.103969 0.084068 0.500000
O O2 0.100128 0.093071 0.298160
O O3 0.180321 0.225829 0.400231
O O4 0.283729 0.065187 0.398156
O O5 0.607338 0.056962 0.500000
O O6 0.710900 0.103828 0.652413
O O7 0.500000 0.000000 0.644620
O O8 0.810164 0.630357 0.896198
O O9 0.888068 0.808425 0.870204
O O10 0.999328 0.666784 0.808532
O O11 0.972815 0.692470 0.000000
O O12 0.873159 0.191371 0.833451
O O13 0.784270 0.358304 0.784425
O O14 0.878060 0.239753 0.665287
O O15 0.152831 0.000981 0.146039
O O16 0.131973 0.891289 0.000000
O O17 0.184035 0.832394 0.500000
#
# Coordination Sequence:
#
# PCOD9428189 Si02
#       7
#     8   8   8   8   8   8   8
#     4   9  18  35  54  82 123 164 199 245 305 356
#     4   9  17  32  57  88 116 156 212 254 290 346
#     4  10  22  40  63  89 116 153 206 257 312 376
#     4  10  21  39  59  86 126 161 198 252 307 369
#     4  10  21  38  62  88 116 152 199 255 315 365
#     4  10  21  39  58  87 123 160 197 256 310 368
#     4   9  18  35  56  84 127 166 199 253 307 355
#
# _framework density 24.152014000000001
#
# number of rings (size 3 to 8) (size 9 to 14) (size 15 to 20)
#    0.000    2.429    0.000    1.714    0.000    2.857 
#   20.571    3.571    0.000    0.000    0.000    5.000 
#    0.000    0.000    0.000    0.000    0.000    0.000 
#
# Total GULP energy -312575.934722 kJ/mol
# GULP energy per Si atom -5581.713120 kJ/mol
# Density = 2.409704 g / cm^3
# Si number density = 24.152014 Si / 1000 Ang^3
#
#
#
# Elastic Constant Matrix: (Units=GPa)
#
#
# Indices 1 2 3 4 5 6 
#
# 1 53.9014 -9.0482 6.5063 0.0000 0.0000 0.0000
# 2 -9.0482 81.4725 17.3994 0.0000 0.0000 0.0000
# 3 6.5063 17.3994 143.0292 0.0000 0.0000 0.0000
# 4 0.0000 0.0000 0.0000 7.2798 0.0000 0.0000
# 5 0.0000 0.0000 0.0000 0.0000 23.6425 0.0000
# 6 0.0000 0.0000 0.0000 0.0000 0.0000 -4.2008
#
#
#
# Elastic Compliance Matrix: (Units=1/GPa)
#
#
# Indices 1 2 3 4 5 6 
#
# 1 0.019089 0.002367 -0.001156 0.000000 0.000000 0.000000
# 2 0.002367 0.012895 -0.001676 0.000000 0.000000 0.000000
# 3 -0.001156 -0.001676 0.007248 0.000000 0.000000 0.000000
# 4 0.000000 0.000000 0.000000 0.137366 0.000000 0.000000
# 5 0.000000 0.000000 0.000000 0.000000 0.042297 0.000000
# 6 0.000000 0.000000 0.000000 0.000000 0.000000 -0.238050
#
#
# Mechanical properties :
#
#
# Convention : Reuss Voigt Hill
#
# Bulk Modulus (GPa) = 26.10896 34.23535 30.17215
# Shear Modulus (GPa) = -916.40073 22.91402 -446.74335
#
# Velocity S-wave (km/s) = -19.50010 3.08351 -13.61518
# Velocity P-wave (km/s) = 22.27491 5.18489 15.31810
#
# Compressibility (1/GPa) = 0.03830103
#
# Stress axis : x y z
#
# Youngs Moduli (GPa) = 52.38536 77.54976 137.96717
#
# Poissons Ratio (x) = -0.18356 0.15953
# Poissons Ratio (y) = -0.12399 0.23128
# Poissons Ratio (z) = 0.06057 0.13000
#
# Static dielectric constant tensor:
#      x y z
#    x 1.992620 0.000000 0.000000 
#    y 0.000000 1.881150 0.000000 
#    z 0.000000 0.000000 2.030900 
# 
# From -- ./inp_files/18349.got.cif
#   From: 2010.05.17/outbox.cif.g08.bks.cpg/sg55_10_cif.got.tgz:18349.got - 2010.06.03 13:27:54.
