data_PCOD9428784
_publ_section_title
;
Structure prediction by ZEFSAII (Michael W. Deem and Ramdas Pophale) SiO2 
 PCOD9428784
Probable space group: P B A M
;
_chemical_formula_sum "Si O2"
_cell_formula_units_Z 32
_cell_length_a 5.545801
_cell_length_b 17.463416
_cell_length_c 12.702739
_cell_angle_alpha 90.000000
_cell_angle_beta 90.000000
_cell_angle_gamma 90.000000
_cell_volume 1230.242868
_symmetry_space_group_name_H-M "P B A M"
_symmetry_group_IT_number 55
_symmetry_cell_setting 'orthorhombic'
loop_
_space_group_symop_operation_xyz
x,y,z
-x,-y,z
1/2+x,1/2-y,-z
1/2-x,1/2+y,-z
-x,-y,-z
x,y,-z
1/2-x,1/2+y,z
1/2+x,1/2-y,z
loop_
_atom_site_type_symbol
_atom_site_label
_atom_site_fract_x
_atom_site_fract_y
_atom_site_fract_z
Si Si1 0.527426 0.724032 0.123405
Si Si2 0.210412 0.059434 0.113344
Si Si3 0.287418 0.796748 0.627615
Si Si4 0.261956 0.975330 0.333025
O O1 0.803337 0.724255 0.163226
O O2 0.406817 0.641501 0.130076
O O3 0.560484 0.744233 0.000000
O O4 0.291793 0.027594 0.225950
O O5 0.351025 0.064998 0.000000
O O6 0.000000 0.000000 0.095161
O O7 0.287638 0.806473 0.500000
O O8 0.541949 0.752498 0.651039
O O9 0.265623 0.883205 0.673191
O O10 0.500000 0.000000 0.393620
O O11 0.000000 0.000000 0.374337
#
# Coordination Sequence:
#
# PCOD9428784 Si02
#       4
#     8   8   8   8
#     4   9  18  34  56  80 107 147 204 264 313 362
#     4   9  20  40  62  87 126 174 223 271 323 382
#     4  10  22  44  74 103 133 173 218 270 336 406
#     4  11  24  42  65  99 136 173 220 273 334 394
#
# _framework density 26.011126000000001
#
# number of rings (size 3 to 8) (size 9 to 14) (size 15 to 20)
#    0.000    2.250    0.000    1.500    0.000    5.500 
#    0.000   25.000    0.000    4.500    0.000    0.000 
#    0.000    0.000    0.000    0.000    0.000    0.000 
#
# Total GULP energy -178355.377400 kJ/mol
# GULP energy per Si atom -5573.605544 kJ/mol
# Density = 2.595192 g / cm^3
# Si number density = 26.011126 Si / 1000 Ang^3
#
#
#
# Elastic Constant Matrix: (Units=GPa)
#
#
# Indices 1 2 3 4 5 6 
#
# 1 174.0973 33.2213 40.6564 0.0000 0.0000 0.0000
# 2 33.2213 177.9056 12.7386 0.0000 0.0000 0.0000
# 3 40.6564 12.7386 134.5590 0.0000 0.0000 0.0000
# 4 0.0000 0.0000 0.0000 5.4432 0.0000 0.0000
# 5 0.0000 0.0000 0.0000 0.0000 10.0932 0.0000
# 6 0.0000 0.0000 0.0000 0.0000 0.0000 48.9653
#
#
#
# Elastic Compliance Matrix: (Units=1/GPa)
#
#
# Indices 1 2 3 4 5 6 
#
# 1 0.006372 -0.001059 -0.001825 0.000000 0.000000 0.000000
# 2 -0.001059 0.005835 -0.000232 0.000000 0.000000 0.000000
# 3 -0.001825 -0.000232 0.008005 0.000000 0.000000 0.000000
# 4 0.000000 0.000000 0.000000 0.183715 0.000000 0.000000
# 5 0.000000 0.000000 0.000000 0.000000 0.099076 0.000000
# 6 0.000000 0.000000 0.000000 0.000000 0.000000 0.020423
#
#
# Mechanical properties :
#
#
# Convention : Reuss Voigt Hill
#
# Bulk Modulus (GPa) = 71.53401 73.31050 72.42225
# Shear Modulus (GPa) = 14.95571 39.56339 27.25955
#
# Velocity S-wave (km/s) = 2.40046 3.90425 3.24079
# Velocity P-wave (km/s) = 5.93666 6.96920 6.47355
#
# Compressibility (1/GPa) = 0.01397936
#
# Stress axis : x y z
#
# Youngs Moduli (GPa) = 156.93066 171.36799 124.92003
#
# Poissons Ratio (x) = 0.18152 0.22799
# Poissons Ratio (y) = 0.16623 0.02903
# Poissons Ratio (z) = 0.28641 0.03982
#
# Static dielectric constant tensor:
#      x y z
#    x 2.031860 0.000000 0.000000 
#    y 0.000000 1.938920 0.000000 
#    z 0.000000 0.000000 4.496200 
# 
# From -- ./inp_files/16433.got.cif
#   From: 2010.05.17/outbox.cif.g08.bks.cpg/sg55_9_cif.got.tgz:16433.got - 2010.06.03 13:27:54.
