data_PCOD9428328
_publ_section_title
;
Structure prediction by ZEFSAII (Michael W. Deem and Ramdas Pophale) SiO2 
 PCOD9428328
Probable space group: P B A M
;
_chemical_formula_sum "Si O2"
_cell_formula_units_Z 56
_cell_length_a 9.104270
_cell_length_b 15.211067
_cell_length_c 19.635314
_cell_angle_alpha 90.000000
_cell_angle_beta 90.000000
_cell_angle_gamma 90.000000
_cell_volume 2719.209437
_symmetry_space_group_name_H-M "P B A M"
_symmetry_group_IT_number 55
_symmetry_cell_setting 'orthorhombic'
loop_
_space_group_symop_operation_xyz
x,y,z
-x,-y,z
1/2+x,1/2-y,-z
1/2-x,1/2+y,-z
-x,-y,-z
x,y,-z
1/2-x,1/2+y,z
1/2+x,1/2-y,z
loop_
_atom_site_type_symbol
_atom_site_label
_atom_site_fract_x
_atom_site_fract_y
_atom_site_fract_z
Si Si1 0.919481 0.083755 0.792937
Si Si2 0.048722 0.747848 0.299187
Si Si3 0.198399 0.231711 0.606366
Si Si4 0.427939 0.654433 0.076804
Si Si5 0.921757 0.346293 0.077442
Si Si6 0.570802 0.086639 0.787759
Si Si7 0.832297 0.615548 0.500000
Si Si8 0.812935 0.407680 0.500000
O O1 0.954842 0.169706 0.749936
O O2 0.744484 0.075284 0.795853
O O3 0.990081 0.097994 0.867016
O O4 0.000000 0.000000 0.761381
O O5 0.213645 0.728956 0.322734
O O6 0.969576 0.768810 0.370393
O O7 0.973838 0.667459 0.260106
O O8 0.216017 0.322746 0.563826
O O9 0.246025 0.146971 0.563278
O O10 0.253214 0.661280 0.090313
O O11 0.502264 0.750584 0.079198
O O12 0.446407 0.620217 0.000000
O O13 0.997250 0.398932 0.138227
O O14 0.941760 0.380894 0.000000
O O15 0.500000 0.000000 0.756232
O O16 0.781502 0.513027 0.500000
O O17 0.010557 0.607345 0.500000
#
# Coordination Sequence:
#
# PCOD9428328 Si02
#       8
#     8   8   8   8   8   8   4   4
#     4  12  27  43  66  98 134 176 229 284 339 406
#     4  12  26  45  67  96 140 181 223 268 328 399
#     4  11  24  44  70 101 137 178 215 270 327 383
#     4  10  21  39  65  94 129 173 224 283 346 406
#     4  10  21  39  65  94 128 173 226 283 345 406
#     4  12  27  43  67  97 132 179 229 283 340 404
#     4  10  22  43  72 107 134 171 222 265 322 384
#     4  10  22  43  74 103 136 173 219 270 314 390
#
# _framework density 20.594221000000001
#
# number of rings (size 3 to 8) (size 9 to 14) (size 15 to 20)
#    0.000    1.000    4.286    1.714    4.000    4.571 
#    0.000    0.714    0.000    0.000    0.000    0.000 
#    0.000    0.000    0.000    0.000    0.000    0.000 
#
# Total GULP energy -312875.398312 kJ/mol
# GULP energy per Si atom -5587.060684 kJ/mol
# Density = 2.054735 g / cm^3
# Si number density = 20.594221 Si / 1000 Ang^3
#
#
#
# Elastic Constant Matrix: (Units=GPa)
#
#
# Indices 1 2 3 4 5 6 
#
# 1 109.6980 70.7516 37.9485 0.0000 0.0000 0.0000
# 2 70.7516 126.7700 49.1233 0.0000 0.0000 0.0000
# 3 37.9485 49.1233 76.7605 0.0000 0.0000 0.0000
# 4 0.0000 0.0000 0.0000 -94.7994 0.0000 0.0000
# 5 0.0000 0.0000 0.0000 0.0000 19.7022 0.0000
# 6 0.0000 0.0000 0.0000 0.0000 0.0000 30.5898
#
#
#
# Elastic Compliance Matrix: (Units=1/GPa)
#
#
# Indices 1 2 3 4 5 6 
#
# 1 0.014644 -0.007137 -0.002672 0.000000 0.000000 0.000000
# 2 -0.007137 0.013968 -0.005411 0.000000 0.000000 0.000000
# 3 -0.002672 -0.005411 0.017811 0.000000 0.000000 0.000000
# 4 0.000000 0.000000 0.000000 -0.010549 0.000000 0.000000
# 5 0.000000 0.000000 0.000000 0.000000 0.050756 0.000000
# 6 0.000000 0.000000 0.000000 0.000000 0.000000 0.032691
#
#
# Mechanical properties :
#
#
# Convention : Reuss Voigt Hill
#
# Bulk Modulus (GPa) = 62.56525 69.87504 66.22015
# Shear Modulus (GPa) = 32.23974 1.45885 16.84929
#
# Velocity S-wave (km/s) = 3.96090 0.84256 2.86345
# Velocity P-wave (km/s) = 7.16689 5.91182 6.56940
#
# Compressibility (1/GPa) = 0.01598331
#
# Stress axis : x y z
#
# Youngs Moduli (GPa) = 68.28908 71.59037 56.14530
#
# Poissons Ratio (x) = 0.51097 0.15001
# Poissons Ratio (y) = 0.48741 0.30378
# Poissons Ratio (z) = 0.18246 0.38734
#
# Static dielectric constant tensor:
#      x y z
#    x 1.691300 0.000000 0.000000 
#    y 0.000000 1.774340 0.000000 
#    z 0.000000 0.000000 1.744510 
# 
# From -- ./inp_files/22664.got.cif
#   From: 2010.05.17/outbox.cif.g08.bks.cpg/sg55_12_cif.got.tgz:22664.got - 2010.06.03 13:27:54.
