data_PCOD9428772
_publ_section_title
;
Structure prediction by ZEFSAII (Michael W. Deem and Ramdas Pophale) SiO2 
 PCOD9428772
Probable space group: P B A M
;
_chemical_formula_sum "Si O2"
_cell_formula_units_Z 48
_cell_length_a 24.028598
_cell_length_b 8.290130
_cell_length_c 11.177451
_cell_angle_alpha 90.000000
_cell_angle_beta 90.000000
_cell_angle_gamma 90.000000
_cell_volume 2226.550487
_symmetry_space_group_name_H-M "P B A M"
_symmetry_group_IT_number 55
_symmetry_cell_setting 'orthorhombic'
loop_
_space_group_symop_operation_xyz
x,y,z
-x,-y,z
1/2+x,1/2-y,-z
1/2-x,1/2+y,-z
-x,-y,-z
x,y,-z
1/2-x,1/2+y,z
1/2+x,1/2-y,z
loop_
_atom_site_type_symbol
_atom_site_label
_atom_site_fract_x
_atom_site_fract_y
_atom_site_fract_z
Si Si1 0.923764 0.856348 0.138164
Si Si2 0.868384 0.163204 0.248804
Si Si3 0.729236 0.832235 0.139438
Si Si4 0.532741 0.836342 0.858862
Si Si5 0.185943 0.289700 0.500000
Si Si6 0.830488 0.650985 0.236327
Si Si7 0.185708 0.901131 0.500000
O O1 0.987272 0.805193 0.157918
O O2 0.885014 0.701027 0.163644
O O3 0.899708 0.996975 0.220205
O O4 0.917814 0.905812 0.000000
O O5 0.815746 0.190867 0.161985
O O6 0.844401 0.163398 0.381617
O O7 0.913463 0.300881 0.219630
O O8 0.784464 0.790714 0.212980
O O9 0.698919 0.991277 0.187558
O O10 0.742662 0.846220 0.000000
O O11 0.500000 0.000000 0.831645
O O12 0.548389 0.839431 0.000000
O O13 0.159263 0.355011 0.377725
O O14 0.250317 0.345111 0.500000
O O15 0.183330 0.095581 0.500000
#
# Coordination Sequence:
#
# PCOD9428772 Si02
#       7
#     8   8   8   8   4   8   4
#     4  11  22  40  66  96 133 175 219 275 338 401
#     4  12  24  42  66  98 130 176 226 276 330 401
#     4  12  24  39  62  96 134 166 212 284 342 399
#     4  10  22  43  69  98 135 176 220 274 342 409
#     4  12  24  48  65  92 132 183 225 268 324 400
#     4  12  24  41  64  93 131 173 225 267 336 401
#     4  12  26  46  69  95 133 181 233 273 328 395
#
# _framework density 21.558011
#
# number of rings (size 3 to 8) (size 9 to 14) (size 15 to 20)
#    0.000    0.500    3.333    6.500    0.000    2.667 
#    0.000    2.917    0.000    0.000    0.000    0.000 
#    0.000    0.000    0.000    0.000    0.000    0.000 
#
# Total GULP energy -268927.360570 kJ/mol
# GULP energy per Si atom -5602.653345 kJ/mol
# Density = 2.150894 g / cm^3
# Si number density = 21.558011 Si / 1000 Ang^3
#
#
#
# Elastic Constant Matrix: (Units=GPa)
#
#
# Indices 1 2 3 4 5 6 
#
# 1 64.7673 -15.1553 -0.7702 0.0000 0.0000 0.0000
# 2 -15.1553 55.9319 -8.6757 0.0000 0.0000 0.0000
# 3 -0.7702 -8.6757 77.8926 0.0000 0.0000 0.0000
# 4 0.0000 0.0000 0.0000 73.2849 0.0000 0.0000
# 5 0.0000 0.0000 0.0000 0.0000 25.9823 0.0000
# 6 0.0000 0.0000 0.0000 0.0000 0.0000 35.2545
#
#
#
# Elastic Compliance Matrix: (Units=1/GPa)
#
#
# Indices 1 2 3 4 5 6 
#
# 1 0.016520 0.004581 0.000674 0.000000 0.000000 0.000000
# 2 0.004581 0.019463 0.002213 0.000000 0.000000 0.000000
# 3 0.000674 0.002213 0.013091 0.000000 0.000000 0.000000
# 4 0.000000 0.000000 0.000000 0.013645 0.000000 0.000000
# 5 0.000000 0.000000 0.000000 0.000000 0.038488 0.000000
# 6 0.000000 0.000000 0.000000 0.000000 0.000000 0.028365
#
#
# Mechanical properties :
#
#
# Convention : Reuss Voigt Hill
#
# Bulk Modulus (GPa) = 15.62278 16.59883 16.11081
# Shear Modulus (GPa) = 36.77161 41.78388 39.27774
#
# Velocity S-wave (km/s) = 4.13450 4.40728 4.27307
# Velocity P-wave (km/s) = 5.48222 5.79786 5.64225
#
# Compressibility (1/GPa) = 0.06400910
#
# Stress axis : x y z
#
# Youngs Moduli (GPa) = 60.53360 51.37861 76.38639
#
# Poissons Ratio (x) = -0.23535 -0.05145
# Poissons Ratio (y) = -0.27728 -0.16905
# Poissons Ratio (z) = -0.04077 -0.11371
#
# Static dielectric constant tensor:
#      x y z
#    x 1.758030 0.000000 0.000000 
#    y 0.000000 1.878710 0.000000 
#    z 0.000000 0.000000 1.713520 
# 
# From -- ./inp_files/15628.got.cif
#   From: 2010.05.17/outbox.cif.g08.bks.cpg/sg55_8_cif.got.tgz:15628.got - 2010.06.03 13:27:54.
