data_PCOD9428148
_publ_section_title
;
Structure prediction by ZEFSAII (Michael W. Deem and Ramdas Pophale) SiO2 
 PCOD9428148
Probable space group: P B A M
;
_chemical_formula_sum "Si O2"
_cell_formula_units_Z 24
_cell_length_a 17.423684
_cell_length_b 8.004554
_cell_length_c 7.929371
_cell_angle_alpha 90.000000
_cell_angle_beta 90.000000
_cell_angle_gamma 90.000000
_cell_volume 1105.900012
_symmetry_space_group_name_H-M "P B A M"
_symmetry_group_IT_number 55
_symmetry_cell_setting 'orthorhombic'
loop_
_space_group_symop_operation_xyz
x,y,z
-x,-y,z
1/2+x,1/2-y,-z
1/2-x,1/2+y,-z
-x,-y,-z
x,y,-z
1/2-x,1/2+y,z
1/2+x,1/2-y,z
loop_
_atom_site_type_symbol
_atom_site_label
_atom_site_fract_x
_atom_site_fract_y
_atom_site_fract_z
Si Si1 0.793544 0.737801 0.191391
Si Si2 0.539835 0.730863 0.500000
Si Si3 0.630594 0.603210 0.809060
Si Si4 0.118836 0.407413 0.500000
O O1 0.701802 0.731301 0.212068
O O2 0.831074 0.625559 0.334665
O O3 0.829503 0.921914 0.207258
O O4 0.809071 0.677433 0.000000
O O5 0.568492 0.636159 0.666387
O O6 0.450429 0.773347 0.500000
O O7 0.582317 0.910179 0.500000
O O8 0.600058 0.618875 0.000000
#
# Coordination Sequence:
#
# PCOD9428148 Si02
#       4
#     8   4   8   4
#     4  10  21  38  61  86 112 145 186 232 279 329
#     4  11  24  39  56  81 115 153 188 227 278 333
#     4  10  21  38  61  86 112 145 186 232 279 329
#     4  11  24  39  56  81 115 153 188 227 278 333
#
# _framework density 21.701782999999999
#
# number of rings (size 3 to 8) (size 9 to 14) (size 15 to 20)
#    0.000    1.667    0.000    4.000    0.000    8.000 
#    0.000    6.667    0.000    0.000    0.000    0.000 
#    0.000    0.000    0.000    0.000    0.000    0.000 
#
# Total GULP energy -134335.934654 kJ/mol
# GULP energy per Si atom -5597.330611 kJ/mol
# Density = 2.165239 g / cm^3
# Si number density = 21.701783 Si / 1000 Ang^3
#
#
#
# Elastic Constant Matrix: (Units=GPa)
#
#
# Indices 1 2 3 4 5 6 
#
# 1 57.5872 9.1754 68.9066 0.0000 0.0000 0.0000
# 2 9.1754 63.7968 39.1204 0.0000 0.0000 0.0000
# 3 68.9066 39.1204 152.9697 0.0000 0.0000 0.0000
# 4 0.0000 0.0000 0.0000 150.6677 0.0000 0.0000
# 5 0.0000 0.0000 0.0000 0.0000 -14.4736 0.0000
# 6 0.0000 0.0000 0.0000 0.0000 0.0000 40.6869
#
#
#
# Elastic Compliance Matrix: (Units=1/GPa)
#
#
# Indices 1 2 3 4 5 6 
#
# 1 0.039649 0.006226 -0.019453 0.000000 0.000000 0.000000
# 2 0.006226 0.019568 -0.007809 0.000000 0.000000 0.000000
# 3 -0.019453 -0.007809 0.017297 0.000000 0.000000 0.000000
# 4 0.000000 0.000000 0.000000 0.006637 0.000000 0.000000
# 5 0.000000 0.000000 0.000000 0.000000 -0.069091 0.000000
# 6 0.000000 0.000000 0.000000 0.000000 0.000000 0.024578
#
#
# Mechanical properties :
#
#
# Convention : Reuss Voigt Hill
#
# Bulk Modulus (GPa) = 29.03357 56.52873 42.78115
# Shear Modulus (GPa) = 54.23653 45.85296 50.04474
#
# Velocity S-wave (km/s) = 5.00460 4.60158 4.80731
# Velocity P-wave (km/s) = 6.84121 7.37138 7.11124
#
# Compressibility (1/GPa) = 0.03444289
#
# Stress axis : x y z
#
# Youngs Moduli (GPa) = 25.22126 51.10464 57.81416
#
# Poissons Ratio (x) = -0.31817 1.12463
# Poissons Ratio (y) = -0.15703 0.45146
# Poissons Ratio (z) = 0.49062 0.39906
#
# Static dielectric constant tensor:
#      x y z
#    x 1.739910 0.000000 0.000000 
#    y 0.000000 1.816880 0.000000 
#    z 0.000000 0.000000 1.749610 
# 
# From -- ./inp_files/1685.got.cif
#   From: 2010.05.17/outbox.cif.g08.bks.cpg/sg55_1_cif.got.tgz:1685.got - 2010.06.03 13:27:54.
