data_PCOD9428210
_publ_section_title
;
Structure prediction by ZEFSAII (Michael W. Deem and Ramdas Pophale) SiO2 
 PCOD9428210
Probable space group: P B A M
;
_chemical_formula_sum "Si O2"
_cell_formula_units_Z 58
_cell_length_a 25.270025
_cell_length_b 7.765242
_cell_length_c 14.775068
_cell_angle_alpha 90.000000
_cell_angle_beta 90.000000
_cell_angle_gamma 90.000000
_cell_volume 2899.279967
_symmetry_space_group_name_H-M "P B A M"
_symmetry_group_IT_number 55
_symmetry_cell_setting 'orthorhombic'
loop_
_space_group_symop_operation_xyz
x,y,z
-x,-y,z
1/2+x,1/2-y,-z
1/2-x,1/2+y,-z
-x,-y,-z
x,y,-z
1/2-x,1/2+y,z
1/2+x,1/2-y,z
loop_
_atom_site_type_symbol
_atom_site_label
_atom_site_fract_x
_atom_site_fract_y
_atom_site_fract_z
Si Si1 0.691823 0.706864 0.897807
Si Si2 0.892191 0.795440 0.245028
Si Si3 0.690640 0.794688 0.396721
Si Si4 0.892191 0.204558 0.245028
Si Si5 0.000000 0.304759 0.840738
Si Si6 0.808178 0.793129 0.102193
Si Si7 0.500000 0.500000 0.000000
Si Si8 0.190641 0.294690 0.396721
O O1 0.646472 0.773427 0.833648
O O2 0.687361 0.499997 0.901088
O O3 0.750000 0.749995 0.863237
O O4 0.687386 0.773868 0.000000
O O5 0.853529 0.726569 0.166353
O O6 0.858175 0.767260 0.335821
O O7 0.948925 0.716403 0.224300
O O8 0.898636 0.999999 0.234311
O O9 0.687198 0.727544 0.500000
O O10 0.641824 0.732740 0.335820
O O11 0.750000 0.749998 0.362405
O O12 0.687676 0.999999 0.398899
O O13 0.948925 0.283596 0.224298
O O14 0.000000 0.500000 0.878707
O O15 0.000000 0.154983 0.918861
O O16 0.812615 0.726125 0.000000
O O17 0.187199 0.227545 0.500000
#
# Coordination Sequence:
#
# PCOD9428210 Si02
#       8
#     8   8   8   8   8   8   2   8
#     4   9  19  33  52  78 114 154 193 245 308 372
#     4  11  22  39  63  88 126 165 212 273 324 388
#     4  10  21  38  62  94 129 168 217 271 331 400
#     4  11  22  39  63  88 126 165 212 273 324 388
#     4  12  27  45  70  97 128 175 225 274 334 386
#     4   9  19  33  52  78 114 154 193 245 308 372
#     4  12  26  52  68  94 134 168 234 288 312 392
#     4  10  21  38  62  94 129 168 217 271 331 400
#
# _framework density 20.004966
#
# number of rings (size 3 to 8) (size 9 to 14) (size 15 to 20)
#    0.000    1.655    1.379    2.690    1.931    6.069 
#    0.000    0.690    0.000    4.138    0.000    0.000 
#    0.000    0.000    0.000    0.000    0.000    0.000 
#
# Total GULP energy -323135.216740 kJ/mol
# GULP energy per Si atom -5571.296840 kJ/mol
# Density = 1.995943 g / cm^3
# Si number density = 20.004966 Si / 1000 Ang^3
#
#
#
# Elastic Constant Matrix: (Units=GPa)
#
#
# Indices 1 2 3 4 5 6 
#
# 1 187.7421 22.5643 82.3917 0.0000 0.0000 0.0000
# 2 22.5643 95.1533 18.2496 0.0000 0.0000 0.0000
# 3 82.3917 18.2496 102.2250 0.0000 0.0000 0.0000
# 4 0.0000 0.0000 0.0000 27.3153 0.0000 0.0000
# 5 0.0000 0.0000 0.0000 0.0000 18.2897 0.0000
# 6 0.0000 0.0000 0.0000 0.0000 0.0000 26.3323
#
#
#
# Elastic Compliance Matrix: (Units=1/GPa)
#
#
# Indices 1 2 3 4 5 6 
#
# 1 0.008287 -0.000708 -0.006553 0.000000 0.000000 0.000000
# 2 -0.000708 0.010943 -0.001383 0.000000 0.000000 0.000000
# 3 -0.006553 -0.001383 0.015311 0.000000 0.000000 0.000000
# 4 0.000000 0.000000 0.000000 0.036610 0.000000 0.000000
# 5 0.000000 0.000000 0.000000 0.000000 0.054675 0.000000
# 6 0.000000 0.000000 0.000000 0.000000 0.000000 0.037976
#
#
# Mechanical properties :
#
#
# Convention : Reuss Voigt Hill
#
# Bulk Modulus (GPa) = 57.96179 70.17017 64.06598
# Shear Modulus (GPa) = 26.76073 31.84846 29.30459
#
# Velocity S-wave (km/s) = 3.66143 3.99435 3.83151
# Velocity P-wave (km/s) = 6.84919 7.51170 7.18808
#
# Compressibility (1/GPa) = 0.01725274
#
# Stress axis : x y z
#
# Youngs Moduli (GPa) = 120.66426 91.38672 65.31327
#
# Poissons Ratio (x) = 0.06474 0.42800
# Poissons Ratio (y) = 0.08548 0.09030
# Poissons Ratio (z) = 0.79072 0.12634
#
# Static dielectric constant tensor:
#      x y z
#    x 1.785190 0.000000 0.000000 
#    y 0.000000 1.733920 0.000000 
#    z 0.000000 0.000000 1.739770 
# 
# From -- ./inp_files/17763.got.cif
#   From: 2010.05.17/outbox.cif.g08.bks.cpg/sg55_9_cif.got.tgz:17763.got - 2010.06.03 13:27:54.
