data_PCOD9428550
_publ_section_title
;
Structure prediction by ZEFSAII (Michael W. Deem and Ramdas Pophale) SiO2 
 PCOD9428550
Probable space group: P B A M
;
_chemical_formula_sum "Si O2"
_cell_formula_units_Z 40
_cell_length_a 7.396168
_cell_length_b 12.651597
_cell_length_c 14.617504
_cell_angle_alpha 90.000000
_cell_angle_beta 90.000000
_cell_angle_gamma 90.000000
_cell_volume 1367.808626
_symmetry_space_group_name_H-M "P B A M"
_symmetry_group_IT_number 55
_symmetry_cell_setting 'orthorhombic'
loop_
_space_group_symop_operation_xyz
x,y,z
-x,-y,z
1/2+x,1/2-y,-z
1/2-x,1/2+y,-z
-x,-y,-z
x,y,-z
1/2-x,1/2+y,z
1/2+x,1/2-y,z
loop_
_atom_site_type_symbol
_atom_site_label
_atom_site_fract_x
_atom_site_fract_y
_atom_site_fract_z
Si Si1 0.194937 0.365081 0.598672
Si Si2 0.783847 0.616426 0.000000
Si Si3 0.046866 0.644856 0.851255
Si Si4 0.324797 0.102388 0.653159
Si Si5 0.473224 0.371483 0.754167
Si Si6 0.359251 0.642491 0.000000
O O1 0.267271 0.330380 0.500000
O O2 0.200141 0.493073 0.601563
O O3 0.293922 0.347798 0.695700
O O4 0.983364 0.336703 0.602806
O O5 0.875947 0.590339 0.097551
O O6 0.431976 0.397636 0.000000
O O7 0.870139 0.732710 0.000000
O O8 0.024768 0.773215 0.827709
O O9 0.092250 0.595125 0.754713
O O10 0.222837 0.623665 0.915151
O O11 0.128922 0.144519 0.678158
O O12 0.500000 0.500000 0.779942
#
# Coordination Sequence:
#
# PCOD9428550 Si02
#       6
#     8   4   8   8   8   4
#     4  10  23  45  68  96 136 178 217 279 354 402
#     4  11  23  38  61  97 136 176 213 283 339 391
#     4  11  24  40  69  99 129 173 236 269 328 402
#     4  10  22  38  69  97 127 175 226 277 326 414
#     4  10  24  41  66 100 132 179 221 278 342 408
#     4  11  23  38  61  97 137 180 211 282 336 391
#
# _framework density 29.243856999999998
#
# number of rings (size 3 to 8) (size 9 to 14) (size 15 to 20)
#    0.000    1.600    2.000    2.400    5.600    4.400 
#    0.000    4.000    0.000   25.200    0.000    5.600 
#    0.000    0.000    0.000    0.000    0.000    0.000 
#
# Total GULP energy -223317.183022 kJ/mol
# GULP energy per Si atom -5582.929576 kJ/mol
# Density = 2.917730 g / cm^3
# Si number density = 29.243857 Si / 1000 Ang^3
#
#
#
# Elastic Constant Matrix: (Units=GPa)
#
#
# Indices 1 2 3 4 5 6 
#
# 1 194.1866 43.1705 41.6391 0.0000 0.0000 0.0000
# 2 43.1705 150.2526 31.6379 0.0000 0.0000 0.0000
# 3 41.6391 31.6379 204.1035 0.0000 0.0000 0.0000
# 4 0.0000 0.0000 0.0000 70.3452 0.0000 0.0000
# 5 0.0000 0.0000 0.0000 0.0000 47.5138 0.0000
# 6 0.0000 0.0000 0.0000 0.0000 0.0000 27.1210
#
#
#
# Elastic Compliance Matrix: (Units=1/GPa)
#
#
# Indices 1 2 3 4 5 6 
#
# 1 0.005668 -0.001432 -0.000934 0.000000 0.000000 0.000000
# 2 -0.001432 0.007242 -0.000830 0.000000 0.000000 0.000000
# 3 -0.000934 -0.000830 0.005219 0.000000 0.000000 0.000000
# 4 0.000000 0.000000 0.000000 0.014216 0.000000 0.000000
# 5 0.000000 0.000000 0.000000 0.000000 0.021047 0.000000
# 6 0.000000 0.000000 0.000000 0.000000 0.000000 0.036872
#
#
# Mechanical properties :
#
#
# Convention : Reuss Voigt Hill
#
# Bulk Modulus (GPa) = 85.21189 86.82642 86.01915
# Shear Modulus (GPa) = 49.71753 57.80234 53.75994
#
# Velocity S-wave (km/s) = 4.12770 4.45068 4.29223
# Velocity P-wave (km/s) = 7.20548 7.49442 7.35137
#
# Compressibility (1/GPa) = 0.01173545
#
# Stress axis : x y z
#
# Youngs Moduli (GPa) = 176.41706 138.08875 191.61368
#
# Poissons Ratio (x) = 0.19773 0.17905
# Poissons Ratio (y) = 0.25261 0.15912
# Poissons Ratio (z) = 0.16485 0.11467
#
# Static dielectric constant tensor:
#      x y z
#    x 2.293250 0.000000 0.000000 
#    y 0.000000 2.545380 0.000000 
#    z 0.000000 0.000000 2.228530 
# 
# From -- ./inp_files/17213.got.cif
#   From: 2010.05.17/outbox.cif.g08.bks.cpg/sg55_9_cif.got.tgz:17213.got - 2010.06.03 13:27:54.
