data_PCOD9428187
_publ_section_title
;
Structure prediction by ZEFSAII (Michael W. Deem and Ramdas Pophale) SiO2 
 PCOD9428187
Probable space group: P B A M
;
_chemical_formula_sum "Si O2"
_cell_formula_units_Z 64
_cell_length_a 24.891853
_cell_length_b 15.183785
_cell_length_c 7.907034
_cell_angle_alpha 90.000000
_cell_angle_beta 90.000000
_cell_angle_gamma 90.000000
_cell_volume 2988.483617
_symmetry_space_group_name_H-M "P B A M"
_symmetry_group_IT_number 55
_symmetry_cell_setting 'orthorhombic'
loop_
_space_group_symop_operation_xyz
x,y,z
-x,-y,z
1/2+x,1/2-y,-z
1/2-x,1/2+y,-z
-x,-y,-z
x,y,-z
1/2-x,1/2+y,z
1/2+x,1/2-y,z
loop_
_atom_site_type_symbol
_atom_site_label
_atom_site_fract_x
_atom_site_fract_y
_atom_site_fract_z
Si Si1 0.683596 0.762656 0.201910
Si Si2 0.385302 0.601342 0.197417
Si Si3 0.599279 0.905589 0.794450
Si Si4 0.001940 0.289648 0.302896
Si Si5 0.502156 0.600261 0.758402
Si Si6 0.195358 0.255808 0.793773
Si Si7 0.891085 0.607629 0.205264
Si Si8 0.625874 0.585734 0.312047
O O1 0.648803 0.845067 0.265482
O O2 0.744072 0.754150 0.269562
O O3 0.650792 0.673577 0.235985
O O4 0.687764 0.773754 0.000000
O O5 0.440288 0.604358 0.304914
O O6 0.342355 0.673325 0.252131
O O7 0.362714 0.502863 0.209168
O O8 0.400558 0.618558 0.000000
O O9 0.544829 0.859423 0.733612
O O10 0.604291 0.006622 0.739237
O O11 0.598475 0.905010 0.000000
O O12 0.998137 0.261537 0.500000
O O13 0.994752 0.203016 0.186561
O O14 0.058806 0.335407 0.269713
O O15 0.500000 0.500000 0.834419
O O16 0.561250 0.594676 0.678445
O O17 0.163782 0.343870 0.742132
O O18 0.197373 0.256532 0.000000
O O19 0.893381 0.608919 0.000000
O O20 0.647373 0.574134 0.500000
#
# Coordination Sequence:
#
# PCOD9428187 Si02
#       8
#     8   8   8   8   8   8   8   8
#     4  10  21  38  62  88 113 151 201 247 289 344
#     4  10  21  38  62  91 119 151 193 244 294 352
#     4  10  22  38  59  86 116 153 195 241 292 345
#     4  12  23  37  60  88 119 156 192 237 292 355
#     4  10  22  37  58  87 119 156 188 234 293 358
#     4   9  19  38  62  88 115 148 193 246 295 339
#     4  10  21  40  61  85 118 155 192 242 299 350
#     4  11  23  39  58  85 123 160 191 234 294 357
#
# _framework density 21.415543
#
# number of rings (size 3 to 8) (size 9 to 14) (size 15 to 20)
#    0.000    1.750    2.500    1.500    0.000   10.750 
#    0.000    5.000    0.000    1.500    0.000    0.000 
#    0.000    0.000    0.000    0.000    0.000    0.000 
#
# Total GULP energy -356591.557639 kJ/mol
# GULP energy per Si atom -5571.743088 kJ/mol
# Density = 2.136680 g / cm^3
# Si number density = 21.415543 Si / 1000 Ang^3
#
#
#
# Elastic Constant Matrix: (Units=GPa)
#
#
# Indices 1 2 3 4 5 6 
#
# 1 129.8393 47.7687 7.9896 0.0000 0.0000 0.0000
# 2 47.7687 159.5541 11.7028 0.0000 0.0000 0.0000
# 3 7.9896 11.7028 39.7232 0.0000 0.0000 0.0000
# 4 0.0000 0.0000 0.0000 43.5662 0.0000 0.0000
# 5 0.0000 0.0000 0.0000 0.0000 2.1814 0.0000
# 6 0.0000 0.0000 0.0000 0.0000 0.0000 12.2498
#
#
#
# Elastic Compliance Matrix: (Units=1/GPa)
#
#
# Indices 1 2 3 4 5 6 
#
# 1 0.008694 -0.002529 -0.001004 0.000000 0.000000 0.000000
# 2 -0.002529 0.007142 -0.001595 0.000000 0.000000 0.000000
# 3 -0.001004 -0.001595 0.025846 0.000000 0.000000 0.000000
# 4 0.000000 0.000000 0.000000 0.022954 0.000000 0.000000
# 5 0.000000 0.000000 0.000000 0.000000 0.458428 0.000000
# 6 0.000000 0.000000 0.000000 0.000000 0.000000 0.081634
#
#
# Mechanical properties :
#
#
# Convention : Reuss Voigt Hill
#
# Bulk Modulus (GPa) = 31.82111 51.55986 41.69049
# Shear Modulus (GPa) = 7.99452 29.04318 18.51885
#
# Velocity S-wave (km/s) = 1.93421 3.68662 2.94383
# Velocity P-wave (km/s) = 4.45863 6.49998 5.57356
#
# Compressibility (1/GPa) = 0.03142568
#
# Stress axis : x y z
#
# Youngs Moduli (GPa) = 115.02014 140.02217 38.69064
#
# Poissons Ratio (x) = 0.35416 0.03883
# Poissons Ratio (y) = 0.29092 0.06172
# Poissons Ratio (z) = 0.11542 0.22338
#
# Static dielectric constant tensor:
#      x y z
#    x 1.737810 0.000000 0.000000 
#    y 0.000000 1.757780 0.000000 
#    z 0.000000 0.000000 1.844820 
# 
# From -- ./inp_files/9660.got.cif
#   From: 2010.05.17/outbox.cif.g08.bks.cpg/sg55_5_cif.got.tgz:9660.got - 2010.06.03 13:27:54.
