data_PCOD9428172
_publ_section_title
;
Structure prediction by ZEFSAII (Michael W. Deem and Ramdas Pophale) SiO2 
 PCOD9428172
Probable space group: P B A M
;
_chemical_formula_sum "Si O2"
_cell_formula_units_Z 40
_cell_length_a 11.958618
_cell_length_b 8.072509
_cell_length_c 16.170442
_cell_angle_alpha 90.000000
_cell_angle_beta 90.000000
_cell_angle_gamma 90.000000
_cell_volume 1561.030621
_symmetry_space_group_name_H-M "P B A M"
_symmetry_group_IT_number 55
_symmetry_cell_setting 'orthorhombic'
loop_
_space_group_symop_operation_xyz
x,y,z
-x,-y,z
1/2+x,1/2-y,-z
1/2-x,1/2+y,-z
-x,-y,-z
x,y,-z
1/2-x,1/2+y,z
1/2+x,1/2-y,z
loop_
_atom_site_type_symbol
_atom_site_label
_atom_site_fract_x
_atom_site_fract_y
_atom_site_fract_z
Si Si1 0.619781 0.909712 0.402773
Si Si2 0.260340 0.384084 0.093434
Si Si3 0.877826 0.841337 0.807116
Si Si4 0.129150 0.961314 0.638302
Si Si5 0.536673 0.811470 0.910787
O O1 0.606014 0.867285 0.500000
O O2 0.628322 0.737192 0.353435
O O3 0.500000 0.000000 0.379490
O O4 0.743413 0.999731 0.397715
O O5 0.340423 0.529195 0.122943
O O6 0.182526 0.332656 0.170310
O O7 0.333407 0.216670 0.087133
O O8 0.216807 0.408148 0.000000
O O9 0.001251 0.787813 0.830387
O O10 0.867932 0.924101 0.719527
O O11 0.000000 0.000000 0.602508
O O12 0.500000 0.000000 0.906908
O O13 0.495770 0.742804 0.000000
#
# Coordination Sequence:
#
# PCOD9428172 Si02
#       5
#     8   8   8   8   8
#     4  11  26  50  81 116 154 197 247 307 376 460
#     4  11  22  37  60  87 123 178 238 292 349 417
#     4  12  24  41  62  94 139 181 233 302 372 436
#     4  12  26  46  75 114 157 203 251 306 382 463
#     4  10  21  38  61  89 124 173 235 298 357 419
#
# _framework density 25.624098
#
# number of rings (size 3 to 8) (size 9 to 14) (size 15 to 20)
#    0.000    0.800    0.000    7.800    0.000    6.400 
#    0.000    7.000    0.000    0.000    0.000    0.000 
#    0.000    0.000    0.000    0.000    0.000    0.000 
#
# Total GULP energy -222722.912152 kJ/mol
# GULP energy per Si atom -5568.072804 kJ/mol
# Density = 2.556578 g / cm^3
# Si number density = 25.624098 Si / 1000 Ang^3
#
#
#
# Elastic Constant Matrix: (Units=GPa)
#
#
# Indices 1 2 3 4 5 6 
#
# 1 162.2521 39.4099 17.9276 0.0000 0.0000 0.0000
# 2 39.4099 84.8682 20.5160 0.0000 0.0000 0.0000
# 3 17.9276 20.5160 114.1551 0.0000 0.0000 0.0000
# 4 0.0000 0.0000 0.0000 22.4165 0.0000 0.0000
# 5 0.0000 0.0000 0.0000 0.0000 31.9121 0.0000
# 6 0.0000 0.0000 0.0000 0.0000 0.0000 65.7264
#
#
#
# Elastic Compliance Matrix: (Units=1/GPa)
#
#
# Indices 1 2 3 4 5 6 
#
# 1 0.006978 -0.003111 -0.000537 0.000000 0.000000 0.000000
# 2 -0.003111 0.013705 -0.001975 0.000000 0.000000 0.000000
# 3 -0.000537 -0.001975 0.009199 0.000000 0.000000 0.000000
# 4 0.000000 0.000000 0.000000 0.044610 0.000000 0.000000
# 5 0.000000 0.000000 0.000000 0.000000 0.031336 0.000000
# 6 0.000000 0.000000 0.000000 0.000000 0.000000 0.015215
#
#
# Mechanical properties :
#
#
# Convention : Reuss Voigt Hill
#
# Bulk Modulus (GPa) = 53.65354 57.44248 55.54801
# Shear Modulus (GPa) = 36.10124 42.90580 39.50352
#
# Velocity S-wave (km/s) = 3.75757 4.09642 3.93065
# Velocity P-wave (km/s) = 6.30952 6.69629 6.50578
#
# Compressibility (1/GPa) = 0.01863810
#
# Stress axis : x y z
#
# Youngs Moduli (GPa) = 143.30523 72.96736 108.70538
#
# Poissons Ratio (x) = 0.22697 0.05836
# Poissons Ratio (y) = 0.44577 0.21464
# Poissons Ratio (z) = 0.07693 0.14407
#
# Static dielectric constant tensor:
#      x y z
#    x 2.273500 0.000000 0.000000 
#    y 0.000000 2.027650 0.000000 
#    z 0.000000 0.000000 1.982230 
# 
# From -- ./inp_files/21178.got.cif
#   From: 2010.05.17/outbox.cif.g08.bks.cpg/sg55_11_cif.got.tgz:21178.got - 2010.06.03 13:27:54.
