data_PCOD9428669
_publ_section_title
;
Structure prediction by ZEFSAII (Michael W. Deem and Ramdas Pophale) SiO2 
 PCOD9428669
Probable space group: P B A M
;
_chemical_formula_sum "Si O2"
_cell_formula_units_Z 30
_cell_length_a 20.729061
_cell_length_b 5.233326
_cell_length_c 11.644905
_cell_angle_alpha 90.000000
_cell_angle_beta 90.000000
_cell_angle_gamma 90.000000
_cell_volume 1263.261814
_symmetry_space_group_name_H-M "P B A M"
_symmetry_group_IT_number 55
_symmetry_cell_setting 'orthorhombic'
loop_
_space_group_symop_operation_xyz
x,y,z
-x,-y,z
1/2+x,1/2-y,-z
1/2-x,1/2+y,-z
-x,-y,-z
x,y,-z
1/2-x,1/2+y,z
1/2+x,1/2-y,z
loop_
_atom_site_type_symbol
_atom_site_label
_atom_site_fract_x
_atom_site_fract_y
_atom_site_fract_z
Si Si1 0.205427 0.231325 0.635115
Si Si2 0.000000 0.500000 0.000000
Si Si3 0.955846 0.246228 0.622329
Si Si4 0.110765 0.476511 0.809105
Si Si5 0.791324 0.404476 0.000000
O O1 0.184912 0.241498 0.500000
O O2 0.244974 0.969116 0.653201
O O3 0.145210 0.275513 0.722234
O O4 0.052059 0.405724 0.103415
O O5 0.920559 0.231076 0.500000
O O6 0.911649 0.293142 0.728899
O O7 0.000000 0.500000 0.620103
O O8 0.000000 0.000000 0.633287
O O9 0.164672 0.591654 0.889715
O O10 0.753623 0.665623 0.000000
#
# Coordination Sequence:
#
# PCOD9428669 Si02
#       5
#     8   2   8   8   4
#     4  10  22  41  70 103 131 169 223 284 352 406
#     4  10  24  44  64 100 134 188 242 256 336 396
#     4  10  22  40  65  97 132 171 214 264 334 402
#     4  11  22  44  68  95 139 180 223 288 323 408
#     4  11  26  45  67  96 126 178 232 278 336 385
#
# _framework density 23.748045000000001
#
# number of rings (size 3 to 8) (size 9 to 14) (size 15 to 20)
#    0.000    1.600    1.333    2.400    0.000    4.267 
#    0.000    9.333    0.000    0.000    0.000    0.000 
#    0.000    0.000    0.000    0.000    0.000    0.000 
#
# Total GULP energy -167316.411383 kJ/mol
# GULP energy per Si atom -5577.213713 kJ/mol
# Density = 2.369399 g / cm^3
# Si number density = 23.748045 Si / 1000 Ang^3
#
#
#
# Elastic Constant Matrix: (Units=GPa)
#
#
# Indices 1 2 3 4 5 6 
#
# 1 114.0812 43.5921 74.1470 0.0000 0.0000 0.0000
# 2 43.5921 145.7308 28.9586 0.0000 0.0000 0.0000
# 3 74.1470 28.9586 183.5817 0.0000 0.0000 0.0000
# 4 0.0000 0.0000 0.0000 -2.3442 0.0000 0.0000
# 5 0.0000 0.0000 0.0000 0.0000 79.3158 0.0000
# 6 0.0000 0.0000 0.0000 0.0000 0.0000 29.4756
#
#
#
# Elastic Compliance Matrix: (Units=1/GPa)
#
#
# Indices 1 2 3 4 5 6 
#
# 1 0.012999 -0.002937 -0.004787 0.000000 0.000000 0.000000
# 2 -0.002937 0.007748 -0.000036 0.000000 0.000000 0.000000
# 3 -0.004787 -0.000036 0.007386 0.000000 0.000000 0.000000
# 4 0.000000 0.000000 0.000000 -0.426580 0.000000 0.000000
# 5 0.000000 0.000000 0.000000 0.000000 0.012608 0.000000
# 6 0.000000 0.000000 0.000000 0.000000 0.000000 0.033926
#
#
# Mechanical properties :
#
#
# Convention : Reuss Voigt Hill
#
# Bulk Modulus (GPa) = 79.28201 81.86543 80.57372
# Shear Modulus (GPa) = -15.05172 41.06917 13.00873
#
# Velocity S-wave (km/s) = -2.52029 4.16308 2.34301
# Velocity P-wave (km/s) = 4.99880 7.59313 6.42821
#
# Compressibility (1/GPa) = 0.01261320
#
# Stress axis : x y z
#
# Youngs Moduli (GPa) = 76.92694 129.07068 135.38693
#
# Poissons Ratio (x) = 0.37911 0.64810
# Poissons Ratio (y) = 0.22595 0.00485
# Poissons Ratio (z) = 0.36825 0.00462
#
# Static dielectric constant tensor:
#      x y z
#    x 1.880180 0.000000 0.000000 
#    y 0.000000 1.378890 0.000000 
#    z 0.000000 0.000000 1.928360 
# 
# From -- ./inp_files/11151.got.cif
#   From: 2010.05.17/outbox.cif.g08.bks.cpg/sg55_6_cif.got.tgz:11151.got - 2010.06.03 13:27:54.
