data_PCOD9428317
_publ_section_title
;
Structure prediction by ZEFSAII (Michael W. Deem and Ramdas Pophale) SiO2 
 PCOD9428317
Probable space group: P B A M
;
_chemical_formula_sum "Si O2"
_cell_formula_units_Z 40
_cell_length_a 9.105937
_cell_length_b 11.470546
_cell_length_c 15.780956
_cell_angle_alpha 90.000000
_cell_angle_beta 90.000000
_cell_angle_gamma 90.000000
_cell_volume 1648.321947
_symmetry_space_group_name_H-M "P B A M"
_symmetry_group_IT_number 55
_symmetry_cell_setting 'orthorhombic'
loop_
_space_group_symop_operation_xyz
x,y,z
-x,-y,z
1/2+x,1/2-y,-z
1/2-x,1/2+y,-z
-x,-y,-z
x,y,-z
1/2-x,1/2+y,z
1/2+x,1/2-y,z
loop_
_atom_site_type_symbol
_atom_site_label
_atom_site_fract_x
_atom_site_fract_y
_atom_site_fract_z
Si Si1 0.807150 0.592834 0.268509
Si Si2 0.174207 0.351634 0.905019
Si Si3 0.941440 0.240801 0.660216
Si Si4 0.988246 0.874124 0.904586
Si Si5 0.207156 0.094188 0.406044
O O1 0.838847 0.556778 0.171492
O O2 0.665393 0.679175 0.271658
O O3 0.948927 0.661338 0.303313
O O4 0.761536 0.492221 0.332928
O O5 0.105106 0.231811 0.870077
O O6 0.346637 0.332259 0.914768
O O7 0.115467 0.377813 0.000000
O O8 0.048414 0.146521 0.617232
O O9 0.825804 0.301116 0.597394
O O10 0.923961 0.896279 0.000000
O O11 0.000000 0.000000 0.860794
O O12 0.206773 0.041582 0.500000
#
# Coordination Sequence:
#
# PCOD9428317 Si02
#       5
#     8   8   8   8   8
#     4  11  23  40  64  96 133 172 213 263 322 384
#     4  10  21  39  64  94 130 174 224 271 318 379
#     4  10  24  42  64  96 132 165 211 267 323 389
#     4   9  19  37  62  91 125 167 215 269 325 376
#     4  11  24  44  70  97 128 167 211 264 328 395
#
# _framework density 24.267104
#
# number of rings (size 3 to 8) (size 9 to 14) (size 15 to 20)
#    0.000    1.800    0.000    3.000    0.000   11.200 
#    0.000    3.000    0.000   10.800    0.000    0.000 
#    0.000    0.000    0.000    0.000    0.000    0.000 
#
# Total GULP energy -223516.402347 kJ/mol
# GULP energy per Si atom -5587.910059 kJ/mol
# Density = 2.421187 g / cm^3
# Si number density = 24.267104 Si / 1000 Ang^3
#
#
#
# Elastic Constant Matrix: (Units=GPa)
#
#
# Indices 1 2 3 4 5 6 
#
# 1 133.1271 26.2307 17.0588 0.0000 0.0000 0.0000
# 2 26.2307 44.3307 40.0539 0.0000 0.0000 0.0000
# 3 17.0588 40.0539 171.3424 0.0000 0.0000 0.0000
# 4 0.0000 0.0000 0.0000 64.5906 0.0000 0.0000
# 5 0.0000 0.0000 0.0000 0.0000 7.1887 0.0000
# 6 0.0000 0.0000 0.0000 0.0000 0.0000 44.3743
#
#
#
# Elastic Compliance Matrix: (Units=1/GPa)
#
#
# Indices 1 2 3 4 5 6 
#
# 1 0.008527 -0.005424 0.000419 0.000000 0.000000 0.000000
# 2 -0.005424 0.032048 -0.006952 0.000000 0.000000 0.000000
# 3 0.000419 -0.006952 0.007420 0.000000 0.000000 0.000000
# 4 0.000000 0.000000 0.000000 0.015482 0.000000 0.000000
# 5 0.000000 0.000000 0.000000 0.000000 0.139107 0.000000
# 6 0.000000 0.000000 0.000000 0.000000 0.000000 0.022536
#
#
# Mechanical properties :
#
#
# Convention : Reuss Voigt Hill
#
# Bulk Modulus (GPa) = 41.52610 57.27631 49.40120
# Shear Modulus (GPa) = 19.45077 40.92786 30.18932
#
# Velocity S-wave (km/s) = 2.83420 4.11123 3.53093
# Velocity P-wave (km/s) = 5.27821 6.79632 6.08479
#
# Compressibility (1/GPa) = 0.02408124
#
# Stress axis : x y z
#
# Youngs Moduli (GPa) = 117.27997 31.20311 134.77774
#
# Poissons Ratio (x) = 0.16924 -0.05647
# Poissons Ratio (y) = 0.63610 0.93694
# Poissons Ratio (z) = -0.04914 0.21692
#
# Static dielectric constant tensor:
#      x y z
#    x 1.888080 0.000000 0.000000 
#    y 0.000000 1.984110 0.000000 
#    z 0.000000 0.000000 2.015730 
# 
# From -- ./inp_files/20614.got.cif
#   From: 2010.05.17/outbox.cif.g08.bks.cpg/sg55_11_cif.got.tgz:20614.got - 2010.06.03 13:27:54.
