data_PCOD9428570
_publ_section_title
;
Structure prediction by ZEFSAII (Michael W. Deem and Ramdas Pophale) SiO2 
 PCOD9428570
Probable space group: P B A M
;
_chemical_formula_sum "Si O2"
_cell_formula_units_Z 32
_cell_length_a 5.122900
_cell_length_b 18.174856
_cell_length_c 13.829135
_cell_angle_alpha 90.000000
_cell_angle_beta 90.000000
_cell_angle_gamma 90.000000
_cell_volume 1287.602684
_symmetry_space_group_name_H-M "P B A M"
_symmetry_group_IT_number 55
_symmetry_cell_setting 'orthorhombic'
loop_
_space_group_symop_operation_xyz
x,y,z
-x,-y,z
1/2+x,1/2-y,-z
1/2-x,1/2+y,-z
-x,-y,-z
x,y,-z
1/2-x,1/2+y,z
1/2+x,1/2-y,z
loop_
_atom_site_type_symbol
_atom_site_label
_atom_site_fract_x
_atom_site_fract_y
_atom_site_fract_z
Si Si1 0.567835 0.586609 0.302340
Si Si2 0.746427 0.801825 0.000000
Si Si3 0.248556 0.446346 0.500000
Si Si4 0.752164 0.552740 0.895409
Si Si5 0.226101 0.697177 0.785850
O O1 0.500000 0.500000 0.301984
O O2 0.723347 0.599724 0.401186
O O3 0.727216 0.598563 0.202779
O O4 0.306736 0.634499 0.290253
O O5 0.734950 0.838742 0.894379
O O6 0.010194 0.755318 0.000000
O O7 0.500000 0.500000 0.500000
O O8 0.000000 0.500000 0.500000
O O9 0.500000 0.500000 0.899176
O O10 0.000000 0.500000 0.888594
O O11 0.762620 0.592375 0.000000
O O12 0.963837 0.744052 0.776690
#
# Coordination Sequence:
#
# PCOD9428570 Si02
#       5
#     8   4   4   8   8
#     4  10  22  40  65  90 122 161 211 256 309 369
#     4   8  16  34  55  78 115 162 198 234 298 378
#     4  10  22  40  62  90 122 160 201 252 309 366
#     4   9  18  32  51  81 116 146 183 240 298 346
#     4  10  22  39  60  87 123 162 204 251 310 371
#
# _framework density 24.852388999999999
#
# number of rings (size 3 to 8) (size 9 to 14) (size 15 to 20)
#    0.000    2.500    0.000    0.750    1.750    8.000 
#    0.000    1.250    0.000    0.000    0.000    0.000 
#    0.000    0.000    0.000    0.000    0.000    0.000 
#
# Total GULP energy -179111.439992 kJ/mol
# GULP energy per Si atom -5597.232500 kJ/mol
# Density = 2.479582 g / cm^3
# Si number density = 24.852389 Si / 1000 Ang^3
#
#
#
# Elastic Constant Matrix: (Units=GPa)
#
#
# Indices 1 2 3 4 5 6 
#
# 1 155.9352 31.5279 16.0756 0.0000 0.0000 0.0000
# 2 31.5279 109.4617 11.2275 0.0000 0.0000 0.0000
# 3 16.0756 11.2275 195.0312 0.0000 0.0000 0.0000
# 4 0.0000 0.0000 0.0000 8.1276 0.0000 0.0000
# 5 0.0000 0.0000 0.0000 0.0000 28.8494 0.0000
# 6 0.0000 0.0000 0.0000 0.0000 0.0000 42.3872
#
#
#
# Elastic Compliance Matrix: (Units=1/GPa)
#
#
# Indices 1 2 3 4 5 6 
#
# 1 0.006849 -0.001926 -0.000454 0.000000 0.000000 0.000000
# 2 -0.001926 0.009732 -0.000401 0.000000 0.000000 0.000000
# 3 -0.000454 -0.000401 0.005188 0.000000 0.000000 0.000000
# 4 0.000000 0.000000 0.000000 0.123038 0.000000 0.000000
# 5 0.000000 0.000000 0.000000 0.000000 0.034663 0.000000
# 6 0.000000 0.000000 0.000000 0.000000 0.000000 0.023592
#
#
# Mechanical properties :
#
#
# Convention : Reuss Voigt Hill
#
# Bulk Modulus (GPa) = 61.70563 64.23224 62.96893
# Shear Modulus (GPa) = 23.36169 42.64598 33.00383
#
# Velocity S-wave (km/s) = 3.06930 4.14692 3.64812
# Velocity P-wave (km/s) = 6.11911 6.98791 6.56789
#
# Compressibility (1/GPa) = 0.01620598
#
# Stress axis : x y z
#
# Youngs Moduli (GPa) = 146.00366 102.75814 192.75665
#
# Poissons Ratio (x) = 0.19793 0.08745
# Poissons Ratio (y) = 0.28123 0.07738
# Poissons Ratio (z) = 0.06624 0.04125
#
# Static dielectric constant tensor:
#      x y z
#    x 2.032270 0.000000 0.000000 
#    y 0.000000 1.918160 0.000000 
#    z 0.000000 0.000000 2.082210 
# 
# From -- ./inp_files/16446.got.cif
#   From: 2010.05.17/outbox.cif.g08.bks.cpg/sg55_9_cif.got.tgz:16446.got - 2010.06.03 13:27:54.
