data_PCOD9428957
_publ_section_title
;
Structure prediction by ZEFSAII (Michael W. Deem and Ramdas Pophale) SiO2 
 PCOD9428957
Probable space group: P B A M
;
_chemical_formula_sum "Si O2"
_cell_formula_units_Z 40
_cell_length_a 18.104976
_cell_length_b 12.509968
_cell_length_c 8.939414
_cell_angle_alpha 90.000000
_cell_angle_beta 90.000000
_cell_angle_gamma 90.000000
_cell_volume 2024.711749
_symmetry_space_group_name_H-M "P B A M"
_symmetry_group_IT_number 55
_symmetry_cell_setting 'orthorhombic'
loop_
_space_group_symop_operation_xyz
x,y,z
-x,-y,z
1/2+x,1/2-y,-z
1/2-x,1/2+y,-z
-x,-y,-z
x,y,-z
1/2-x,1/2+y,z
1/2+x,1/2-y,z
loop_
_atom_site_type_symbol
_atom_site_label
_atom_site_fract_x
_atom_site_fract_y
_atom_site_fract_z
Si Si1 0.882168 0.694871 0.822473
Si Si2 0.137024 0.532482 0.324278
Si Si3 0.582480 0.546421 0.177986
Si Si4 0.539111 0.761351 0.321196
Si Si5 0.802681 0.881941 0.323309
O O1 0.873653 0.572483 0.773626
O O2 0.818173 0.768164 0.752764
O O3 0.958852 0.737280 0.753545
O O4 0.883487 0.706422 0.000000
O O5 0.127656 0.503259 0.500000
O O6 0.079034 0.626145 0.289775
O O7 0.218895 0.579514 0.304373
O O8 0.500000 0.500000 0.203788
O O9 0.584426 0.662516 0.253805
O O10 0.642059 0.467226 0.249270
O O11 0.593767 0.554025 0.000000
O O12 0.532931 0.749403 0.500000
O O13 0.818162 0.874082 0.500000
#
# Coordination Sequence:
#
# PCOD9428957 Si02
#       5
#     8   8   8   8   8
#     4  12  25  42  65  96 131 168 210 262 323 382
#     4  10  25  45  66  94 127 167 216 264 315 380
#     4  11  23  40  63  95 131 166 210 265 320 380
#     4  11  23  42  69  96 125 169 218 265 315 376
#     4  11  24  43  67  93 126 169 216 265 317 379
#
# _framework density 19.755897999999998
#
# number of rings (size 3 to 8) (size 9 to 14) (size 15 to 20)
#    0.000    1.000    2.000    4.200    2.800    6.400 
#    0.000    0.000    0.000    0.000    0.000    0.000 
#    0.000    0.000    0.000    0.000    0.000    0.000 
#
# Total GULP energy -223894.756132 kJ/mol
# GULP energy per Si atom -5597.368903 kJ/mol
# Density = 1.971093 g / cm^3
# Si number density = 19.755898 Si / 1000 Ang^3
#
#
#
# Elastic Constant Matrix: (Units=GPa)
#
#
# Indices 1 2 3 4 5 6 
#
# 1 25.8265 -5.9482 19.6559 0.0000 0.0000 0.0000
# 2 -5.9482 99.4344 47.3478 0.0000 0.0000 0.0000
# 3 19.6559 47.3478 87.0966 0.0000 0.0000 0.0000
# 4 0.0000 0.0000 0.0000 130.7162 0.0000 0.0000
# 5 0.0000 0.0000 0.0000 0.0000 239.9279 0.0000
# 6 0.0000 0.0000 0.0000 0.0000 0.0000 6.2678
#
#
#
# Elastic Compliance Matrix: (Units=1/GPa)
#
#
# Indices 1 2 3 4 5 6 
#
# 1 0.056702 0.012798 -0.019754 0.000000 0.000000 0.000000
# 2 0.012798 0.016458 -0.011835 0.000000 0.000000 0.000000
# 3 -0.019754 -0.011835 0.022373 0.000000 0.000000 0.000000
# 4 0.000000 0.000000 0.000000 0.007650 0.000000 0.000000
# 5 0.000000 0.000000 0.000000 0.000000 0.004168 0.000000
# 6 0.000000 0.000000 0.000000 0.000000 0.000000 0.159545
#
#
# Mechanical properties :
#
#
# Convention : Reuss Voigt Hill
#
# Bulk Modulus (GPa) = 17.25586 37.16317 27.20952
# Shear Modulus (GPa) = 15.44185 85.46917 50.45551
#
# Velocity S-wave (km/s) = 2.79880 6.58457 5.05914
# Velocity P-wave (km/s) = 4.38154 8.75561 6.92310
#
# Compressibility (1/GPa) = 0.05795133
#
# Stress axis : x y z
#
# Youngs Moduli (GPa) = 17.63617 60.76038 44.69580
#
# Poissons Ratio (x) = -0.77762 0.88291
# Poissons Ratio (y) = -0.22571 0.52899
# Poissons Ratio (z) = 0.34838 0.71912
#
# Static dielectric constant tensor:
#      x y z
#    x 1.669350 0.000000 0.000000 
#    y 0.000000 1.677370 0.000000 
#    z 0.000000 0.000000 1.654790 
# 
# From -- ./inp_files/3597.got.cif
#   From: 2010.05.17/outbox.cif.g08.bks.cpg/sg55_2_cif.got.tgz:3597.got - 2010.06.03 13:27:54.
