data_PCOD9428387
_publ_section_title
;
Structure prediction by ZEFSAII (Michael W. Deem and Ramdas Pophale) SiO2 
 PCOD9428387
Probable space group: P B A M
;
_chemical_formula_sum "Si O2"
_cell_formula_units_Z 44
_cell_length_a 15.179601
_cell_length_b 12.873670
_cell_length_c 11.132234
_cell_angle_alpha 90.000000
_cell_angle_beta 90.000000
_cell_angle_gamma 90.000000
_cell_volume 2175.429709
_symmetry_space_group_name_H-M "P B A M"
_symmetry_group_IT_number 55
_symmetry_cell_setting 'orthorhombic'
loop_
_space_group_symop_operation_xyz
x,y,z
-x,-y,z
1/2+x,1/2-y,-z
1/2-x,1/2+y,-z
-x,-y,-z
x,y,-z
1/2-x,1/2+y,z
1/2+x,1/2-y,z
loop_
_atom_site_type_symbol
_atom_site_label
_atom_site_fract_x
_atom_site_fract_y
_atom_site_fract_z
Si Si1 0.593164 0.557496 0.500000
Si Si2 0.063223 0.777697 0.702116
Si Si3 0.746454 0.390459 0.500000
Si Si4 0.054551 0.603955 0.500000
Si Si5 0.397841 0.975034 0.143417
Si Si6 0.721489 0.843943 0.764433
Si Si7 0.398744 0.731129 0.862270
O O1 0.500000 0.500000 0.500000
O O2 0.595465 0.630810 0.383745
O O3 0.670904 0.475053 0.500000
O O4 0.041795 0.679698 0.614317
O O5 0.143769 0.739433 0.784703
O O6 0.976597 0.806181 0.775629
O O7 0.844944 0.434362 0.500000
O O8 0.745287 0.330036 0.373577
O O9 0.000000 0.500000 0.500000
O O10 0.382896 0.853224 0.164390
O O11 0.500000 0.000000 0.175632
O O12 0.327655 0.046777 0.212154
O O13 0.389274 0.995987 0.000000
O O14 0.807478 0.828471 0.843571
O O15 0.428094 0.723906 0.000000
#
# Coordination Sequence:
#
# PCOD9428387 Si02
#       7
#     4   8   4   4   8   8   8
#     4  11  23  43  62  85 124 170 202 251 311 376
#     4  10  23  39  62  93 124 159 209 251 314 374
#     4  10  24  38  64  91 121 163 206 244 323 372
#     4   9  21  37  64  96 120 157 198 256 311 359
#     4  10  21  40  66  91 121 167 211 258 317 372
#     4  11  23  41  63  95 127 161 208 267 313 377
#     4  11  24  40  65  93 123 168 212 260 317 373
#
# _framework density 20.22589
#
# number of rings (size 3 to 8) (size 9 to 14) (size 15 to 20)
#    0.000    1.636    1.818    2.182    7.636    1.455 
#    0.000    1.818    0.000    1.636    0.000    0.000 
#    0.000    0.000    0.000    0.000    0.000    0.000 
#
# Total GULP energy -245779.272056 kJ/mol
# GULP energy per Si atom -5585.892547 kJ/mol
# Density = 2.017986 g / cm^3
# Si number density = 20.225890 Si / 1000 Ang^3
#
#
#
# Elastic Constant Matrix: (Units=GPa)
#
#
# Indices 1 2 3 4 5 6 
#
# 1 107.9708 17.2033 21.7850 0.0000 0.0000 0.0000
# 2 17.2033 24.2084 -5.7878 0.0000 0.0000 0.0000
# 3 21.7850 -5.7878 51.3083 0.0000 0.0000 0.0000
# 4 0.0000 0.0000 0.0000 18.9212 0.0000 0.0000
# 5 0.0000 0.0000 0.0000 0.0000 22.7299 0.0000
# 6 0.0000 0.0000 0.0000 0.0000 0.0000 35.1141
#
#
#
# Elastic Compliance Matrix: (Units=1/GPa)
#
#
# Indices 1 2 3 4 5 6 
#
# 1 0.012149 -0.010140 -0.006302 0.000000 0.000000 0.000000
# 2 -0.010140 0.050916 0.010049 0.000000 0.000000 0.000000
# 3 -0.006302 0.010049 0.023299 0.000000 0.000000 0.000000
# 4 0.000000 0.000000 0.000000 0.052851 0.000000 0.000000
# 5 0.000000 0.000000 0.000000 0.000000 0.043995 0.000000
# 6 0.000000 0.000000 0.000000 0.000000 0.000000 0.028479
#
#
# Mechanical properties :
#
#
# Convention : Reuss Voigt Hill
#
# Bulk Modulus (GPa) = 13.59098 27.76538 20.67818
# Shear Modulus (GPa) = 20.08015 25.37217 22.72616
#
# Velocity S-wave (km/s) = 3.15428 3.54565 3.35568
# Velocity P-wave (km/s) = 4.47216 5.52446 5.02592
#
# Compressibility (1/GPa) = 0.07357820
#
# Stress axis : x y z
#
# Youngs Moduli (GPa) = 82.31124 19.64002 42.91942
#
# Poissons Ratio (x) = 0.19915 0.27049
# Poissons Ratio (y) = 0.83465 -0.43130
# Poissons Ratio (z) = 0.51874 -0.19736
#
# Static dielectric constant tensor:
#      x y z
#    x 1.694570 0.000000 0.000000 
#    y 0.000000 1.718310 0.000000 
#    z 0.000000 0.000000 1.754040 
# 
# From -- ./inp_files/14080.got.cif
#   From: 2010.05.17/outbox.cif.g08.bks.cpg/sg55_8_cif.got.tgz:14080.got - 2010.06.03 13:27:54.
