data_PCOD9428662
_publ_section_title
;
Structure prediction by ZEFSAII (Michael W. Deem and Ramdas Pophale) SiO2 
 PCOD9428662
Probable space group: P B A M
;
_chemical_formula_sum "Si O2"
_cell_formula_units_Z 38
_cell_length_a 18.406356
_cell_length_b 5.123892
_cell_length_c 15.115785
_cell_angle_alpha 90.000000
_cell_angle_beta 90.000000
_cell_angle_gamma 90.000000
_cell_volume 1425.602640
_symmetry_space_group_name_H-M "P B A M"
_symmetry_group_IT_number 55
_symmetry_cell_setting 'orthorhombic'
loop_
_space_group_symop_operation_xyz
x,y,z
-x,-y,z
1/2+x,1/2-y,-z
1/2-x,1/2+y,-z
-x,-y,-z
x,y,-z
1/2-x,1/2+y,z
1/2+x,1/2-y,z
loop_
_atom_site_type_symbol
_atom_site_label
_atom_site_fract_x
_atom_site_fract_y
_atom_site_fract_z
Si Si1 0.428610 0.353895 0.657292
Si Si2 0.700861 0.311582 0.105520
Si Si3 0.500000 0.000000 0.500000
Si Si4 0.413581 0.039634 0.823106
Si Si5 0.551998 0.747971 0.000000
Si Si6 0.291757 0.674928 0.606486
O O1 0.500000 0.500000 0.692430
O O2 0.456189 0.170800 0.577306
O O3 0.393205 0.185014 0.734266
O O4 0.372035 0.573651 0.626380
O O5 0.743171 0.575416 0.124959
O O6 0.629524 0.226725 0.159346
O O7 0.683502 0.304893 0.000000
O O8 0.402390 0.217246 0.910878
O O9 0.500000 0.000000 0.815975
O O10 0.500000 0.500000 0.000000
O O11 0.500000 0.000000 0.000000
O O12 0.287630 0.689499 0.500000
O O13 0.263992 0.952930 0.638419
#
# Coordination Sequence:
#
# PCOD9428662 Si02
#       6
#     8   8   2   8   4   8
#     4  12  27  44  75 105 144 190 248 300 378 443
#     4  10  23  44  70 103 146 195 237 289 362 430
#     4  12  26  48  68 100 152 188 236 314 382 436
#     4  11  24  45  71 107 140 186 243 297 349 435
#     4  10  22  40  64  96 140 174 215 286 343 392
#     4  10  24  43  69  99 135 182 236 294 359 432
#
# _framework density 26.655397000000001
#
# number of rings (size 3 to 8) (size 9 to 14) (size 15 to 20)
#    0.000    1.263    3.158    0.947    2.947    6.737 
#    0.000    0.000    0.000    0.000    0.000    0.000 
#    0.000    0.000    0.000    0.000    0.000    0.000 
#
# Total GULP energy -212900.985967 kJ/mol
# GULP energy per Si atom -5602.657525 kJ/mol
# Density = 2.659473 g / cm^3
# Si number density = 26.655397 Si / 1000 Ang^3
#
#
#
# Elastic Constant Matrix: (Units=GPa)
#
#
# Indices 1 2 3 4 5 6 
#
# 1 148.6305 35.6467 9.3231 0.0000 0.0000 0.0000
# 2 35.6467 100.9179 43.3527 0.0000 0.0000 0.0000
# 3 9.3231 43.3527 127.6213 0.0000 0.0000 0.0000
# 4 0.0000 0.0000 0.0000 17.6550 0.0000 0.0000
# 5 0.0000 0.0000 0.0000 0.0000 16.7869 0.0000
# 6 0.0000 0.0000 0.0000 0.0000 0.0000 54.9342
#
#
#
# Elastic Compliance Matrix: (Units=1/GPa)
#
#
# Indices 1 2 3 4 5 6 
#
# 1 0.007369 -0.002777 0.000405 0.000000 0.000000 0.000000
# 2 -0.002777 0.012648 -0.004094 0.000000 0.000000 0.000000
# 3 0.000405 -0.004094 0.009197 0.000000 0.000000 0.000000
# 4 0.000000 0.000000 0.000000 0.056641 0.000000 0.000000
# 5 0.000000 0.000000 0.000000 0.000000 0.059570 0.000000
# 6 0.000000 0.000000 0.000000 0.000000 0.000000 0.018204
#
#
# Mechanical properties :
#
#
# Convention : Reuss Voigt Hill
#
# Bulk Modulus (GPa) = 61.41497 61.53499 61.47498
# Shear Modulus (GPa) = 27.47435 37.13169 32.30302
#
# Velocity S-wave (km/s) = 3.21397 3.73638 3.48498
# Velocity P-wave (km/s) = 6.07151 6.46139 6.26948
#
# Compressibility (1/GPa) = 0.01628268
#
# Stress axis : x y z
#
# Youngs Moduli (GPa) = 135.71001 79.06078 108.73394
#
# Poissons Ratio (x) = 0.21953 -0.04403
# Poissons Ratio (y) = 0.37683 0.44514
# Poissons Ratio (z) = -0.05496 0.32366
#
# Static dielectric constant tensor:
#      x y z
#    x 1.991700 0.000000 0.000000 
#    y 0.000000 2.057910 0.000000 
#    z 0.000000 0.000000 2.061320 
# 
# From -- ./inp_files/21723.got.cif
#   From: 2010.05.17/outbox.cif.g08.bks.cpg/sg55_11_cif.got.tgz:21723.got - 2010.06.03 13:27:54.
