data_PCOD9428382
_publ_section_title
;
Structure prediction by ZEFSAII (Michael W. Deem and Ramdas Pophale) SiO2 
 PCOD9428382
Probable space group: P B A M
;
_chemical_formula_sum "Si O2"
_cell_formula_units_Z 64
_cell_length_a 7.600325
_cell_length_b 20.342120
_cell_length_c 17.463738
_cell_angle_alpha 90.000000
_cell_angle_beta 90.000000
_cell_angle_gamma 90.000000
_cell_volume 2700.011307
_symmetry_space_group_name_H-M "P B A M"
_symmetry_group_IT_number 55
_symmetry_cell_setting 'orthorhombic'
loop_
_space_group_symop_operation_xyz
x,y,z
-x,-y,z
1/2+x,1/2-y,-z
1/2-x,1/2+y,-z
-x,-y,-z
x,y,-z
1/2-x,1/2+y,z
1/2+x,1/2-y,z
loop_
_atom_site_type_symbol
_atom_site_label
_atom_site_fract_x
_atom_site_fract_y
_atom_site_fract_z
Si Si1 0.203967 0.520887 0.090388
Si Si2 0.165945 0.661308 0.589960
Si Si3 0.127830 0.784000 0.310626
Si Si4 0.766850 0.118290 0.089399
Si Si5 0.203967 0.020886 0.590388
Si Si6 0.733150 0.118291 0.410601
Si Si7 0.665945 0.338692 0.910040
Si Si8 0.872170 0.716000 0.810626
O O1 0.297103 0.455182 0.120993
O O2 0.257086 0.592250 0.120549
O O3 0.000000 0.500000 0.096507
O O4 0.250493 0.527021 0.000000
O O5 0.212807 0.671702 0.500000
O O6 0.213308 0.723454 0.642136
O O7 0.242914 0.592250 0.620550
O O8 0.952928 0.655596 0.594098
O O9 0.107792 0.840138 0.373907
O O10 0.249999 0.821754 0.250000
O O11 1.000000 0.750000 0.250000
O O12 0.607793 0.159861 0.126093
O O13 0.952928 0.155596 0.094098
O O14 0.723125 0.110970 0.000000
O O15 0.250493 0.027021 0.500000
O O16 0.297103 0.955182 0.620993
O O17 0.000000 0.000000 0.596507
O O18 0.776874 0.110970 0.500000
O O19 0.713307 0.276546 0.857864
O O20 0.712807 0.328298 0.000000
#
# Coordination Sequence:
#
# PCOD9428382 Si02
#       8
#     8   8   8   8   8   8   8   8
#     4   9  19  35  62  95 122 152 204 264 311 362
#     4  10  21  40  65  92 122 164 211 260 316 378
#     4  12  25  42  61  88 131 169 208 257 315 381
#     4  10  21  40  65  92 122 163 211 260 317 380
#     4   9  19  35  62  95 122 152 204 264 311 362
#     4  10  21  40  65  92 122 163 211 260 317 380
#     4  10  21  40  65  92 122 164 211 260 316 378
#     4  12  25  42  61  88 131 169 208 257 315 381
#
# _framework density 23.703603999999999
#
# number of rings (size 3 to 8) (size 9 to 14) (size 15 to 20)
#    0.000    1.750    2.500    1.500    3.500    3.000 
#    0.000    1.250    0.000    0.000    0.000    0.000 
#    0.000    0.000    0.000    0.000    0.000    0.000 
#
# Total GULP energy -356666.891905 kJ/mol
# GULP energy per Si atom -5572.920186 kJ/mol
# Density = 2.364965 g / cm^3
# Si number density = 23.703604 Si / 1000 Ang^3
#
#
#
# Elastic Constant Matrix: (Units=GPa)
#
#
# Indices 1 2 3 4 5 6 
#
# 1 33.6890 29.6805 16.0533 0.0000 0.0000 0.0000
# 2 29.6805 179.8840 60.0333 0.0000 0.0000 0.0000
# 3 16.0533 60.0333 70.8367 0.0000 0.0000 0.0000
# 4 0.0000 0.0000 0.0000 -5.8248 0.0000 0.0000
# 5 0.0000 0.0000 0.0000 0.0000 32.1321 0.0000
# 6 0.0000 0.0000 0.0000 0.0000 0.0000 36.0682
#
#
#
# Elastic Compliance Matrix: (Units=1/GPa)
#
#
# Indices 1 2 3 4 5 6 
#
# 1 0.035653 -0.004443 -0.004315 0.000000 0.000000 0.000000
# 2 -0.004443 0.008305 -0.006032 0.000000 0.000000 0.000000
# 3 -0.004315 -0.006032 0.020207 0.000000 0.000000 0.000000
# 4 0.000000 0.000000 0.000000 -0.171680 0.000000 0.000000
# 5 0.000000 0.000000 0.000000 0.000000 0.031121 0.000000
# 6 0.000000 0.000000 0.000000 0.000000 0.000000 0.027725
#
#
# Mechanical properties :
#
#
# Convention : Reuss Voigt Hill
#
# Bulk Modulus (GPa) = 28.91273 55.10488 42.00881
# Shear Modulus (GPa) = -661.31929 24.38461 -318.46734
#
# Velocity S-wave (km/s) = -16.72127 3.21086 -11.60369
# Velocity P-wave (km/s) = 18.98887 6.08639 12.71875
#
# Compressibility (1/GPa) = 0.03458684
#
# Stress axis : x y z
#
# Youngs Moduli (GPa) = 28.04774 120.40693 49.48879
#
# Poissons Ratio (x) = 0.53494 0.21353
# Poissons Ratio (y) = 0.12461 0.29850
# Poissons Ratio (z) = 0.12102 0.72626
#
# Static dielectric constant tensor:
#      x y z
#    x 2.103890 0.000000 0.000000 
#    y 0.000000 1.899100 0.000000 
#    z 0.000000 0.000000 1.857290 
# 
# From -- ./inp_files/21106.got.cif
#   From: 2010.05.17/outbox.cif.g08.bks.cpg/sg55_11_cif.got.tgz:21106.got - 2010.06.03 13:27:54.
