data_PCOD9428520
_publ_section_title
;
Structure prediction by ZEFSAII (Michael W. Deem and Ramdas Pophale) SiO2 
 PCOD9428520
Probable space group: P B A M
;
_chemical_formula_sum "Si O2"
_cell_formula_units_Z 48
_cell_length_a 12.969272
_cell_length_b 12.931857
_cell_length_c 14.944820
_cell_angle_alpha 90.000000
_cell_angle_beta 90.000000
_cell_angle_gamma 90.000000
_cell_volume 2506.496952
_symmetry_space_group_name_H-M "P B A M"
_symmetry_group_IT_number 55
_symmetry_cell_setting 'orthorhombic'
loop_
_space_group_symop_operation_xyz
x,y,z
-x,-y,z
1/2+x,1/2-y,-z
1/2-x,1/2+y,-z
-x,-y,-z
x,y,-z
1/2-x,1/2+y,z
1/2+x,1/2-y,z
loop_
_atom_site_type_symbol
_atom_site_label
_atom_site_fract_x
_atom_site_fract_y
_atom_site_fract_z
Si Si1 0.125008 0.878923 0.000000
Si Si2 0.733302 0.765933 0.857930
Si Si3 0.878963 0.873966 0.000000
Si Si4 0.063764 0.901737 0.394763
Si Si5 0.781905 0.623114 0.302151
Si Si6 0.487335 0.828488 0.602196
Si Si7 0.402684 0.064371 0.229945
O O1 0.180071 0.824980 0.915417
O O2 0.002111 0.856729 0.000000
O O3 0.138657 0.002453 0.000000
O O4 0.821731 0.821846 0.915503
O O5 0.779732 0.716485 0.768377
O O6 0.644670 0.847847 0.832127
O O7 0.084797 0.919199 0.500000
O O8 0.170483 0.888692 0.344250
O O9 0.002598 0.794273 0.387146
O O10 0.000000 0.000000 0.360767
O O11 0.869801 0.643239 0.375743
O O12 0.815200 0.518738 0.252136
O O13 0.514898 0.856548 0.500000
O O14 0.556199 0.885374 0.677116
O O15 0.500000 0.000000 0.191852
#
# Coordination Sequence:
#
# PCOD9428520 Si02
#       7
#     4   8   4   8   8   8   8
#     4  10  24  46  67  93 123 163 192 258 324 377
#     4  11  23  43  65  96 127 159 207 257 313 380
#     4  10  24  44  69  95 125 157 204 250 319 398
#     4  10  22  38  58  91 127 169 219 262 310 361
#     4  11  23  38  64  92 126 168 212 261 314 364
#     4  10  22  41  61  88 130 173 215 258 306 366
#     4  10  23  40  62  95 124 167 215 254 308 370
#
# _framework density 19.150234000000001
#
# number of rings (size 3 to 8) (size 9 to 14) (size 15 to 20)
#    0.000    1.667    1.667    1.500    7.000    3.667 
#    3.000    0.833    0.000    0.000    0.000    0.000 
#    0.000    0.000    0.000    0.000    0.000    0.000 
#
# Total GULP energy -268163.007274 kJ/mol
# GULP energy per Si atom -5586.729318 kJ/mol
# Density = 1.910665 g / cm^3
# Si number density = 19.150234 Si / 1000 Ang^3
#
#
#
# Elastic Constant Matrix: (Units=GPa)
#
#
# Indices 1 2 3 4 5 6 
#
# 1 80.2081 35.2715 30.0064 0.0000 0.0000 0.0000
# 2 35.2715 90.6082 15.1447 0.0000 0.0000 0.0000
# 3 30.0064 15.1447 36.9364 0.0000 0.0000 0.0000
# 4 0.0000 0.0000 0.0000 29.9318 0.0000 0.0000
# 5 0.0000 0.0000 0.0000 0.0000 2.7599 0.0000
# 6 0.0000 0.0000 0.0000 0.0000 0.0000 38.3466
#
#
#
# Elastic Compliance Matrix: (Units=1/GPa)
#
#
# Indices 1 2 3 4 5 6 
#
# 1 0.020169 -0.005489 -0.014134 0.000000 0.000000 0.000000
# 2 -0.005489 0.013342 -0.001012 0.000000 0.000000 0.000000
# 3 -0.014134 -0.001012 0.038971 0.000000 0.000000 0.000000
# 4 0.000000 0.000000 0.000000 0.033409 0.000000 0.000000
# 5 0.000000 0.000000 0.000000 0.000000 0.362327 0.000000
# 6 0.000000 0.000000 0.000000 0.000000 0.000000 0.026078
#
#
# Mechanical properties :
#
#
# Convention : Reuss Voigt Hill
#
# Bulk Modulus (GPa) = 32.03843 40.95533 36.49688
# Shear Modulus (GPa) = 9.15801 22.69635 15.92718
#
# Velocity S-wave (km/s) = 2.18919 3.44637 2.88704
# Velocity P-wave (km/s) = 4.81212 6.10487 5.49663
#
# Compressibility (1/GPa) = 0.03121252
#
# Stress axis : x y z
#
# Youngs Moduli (GPa) = 49.58084 74.94978 25.66017
#
# Poissons Ratio (x) = 0.41139 0.36269
# Poissons Ratio (y) = 0.27214 0.02596
# Poissons Ratio (z) = 0.70080 0.07582
#
# Static dielectric constant tensor:
#      x y z
#    x 1.627980 0.000000 0.000000 
#    y 0.000000 1.662150 0.000000 
#    z 0.000000 0.000000 1.660480 
# 
# From -- ./inp_files/18318.got.cif
#   From: 2010.05.17/outbox.cif.g08.bks.cpg/sg55_10_cif.got.tgz:18318.got - 2010.06.03 13:27:54.
