data_PCOD9428451
_publ_section_title
;
Structure prediction by ZEFSAII (Michael W. Deem and Ramdas Pophale) SiO2 
 PCOD9428451
Probable space group: P B A M
;
_chemical_formula_sum "Si O2"
_cell_formula_units_Z 32
_cell_length_a 5.077403
_cell_length_b 11.637719
_cell_length_c 22.060825
_cell_angle_alpha 90.000000
_cell_angle_beta 90.000000
_cell_angle_gamma 90.000000
_cell_volume 1303.560678
_symmetry_space_group_name_H-M "P B A M"
_symmetry_group_IT_number 55
_symmetry_cell_setting 'orthorhombic'
loop_
_space_group_symop_operation_xyz
x,y,z
-x,-y,z
1/2+x,1/2-y,-z
1/2-x,1/2+y,-z
-x,-y,-z
x,y,-z
1/2-x,1/2+y,z
1/2+x,1/2-y,z
loop_
_atom_site_type_symbol
_atom_site_label
_atom_site_fract_x
_atom_site_fract_y
_atom_site_fract_z
Si Si1 0.754552 0.332667 0.000000
Si Si2 0.802699 0.683233 0.696055
Si Si3 0.732570 0.831609 0.867391
Si Si4 0.500000 0.500000 0.774345
Si Si5 0.749588 0.583310 0.433671
O O1 0.745536 0.390463 0.065775
O O2 0.516107 0.243193 0.000000
O O3 0.601529 0.786416 0.711026
O O4 0.688040 0.575987 0.731933
O O5 0.772064 0.663519 0.624245
O O6 0.445754 0.773006 0.862417
O O7 0.819244 0.922212 0.817670
O O8 0.500000 0.500000 0.427142
O O9 0.735018 0.641178 0.500000
O O10 0.000000 0.500000 0.432927
#
# Coordination Sequence:
#
# PCOD9428451 Si02
#       5
#     4   8   8   4   8
#     4   8  16  35  62  89 124 156 208 273 321 378
#     4  12  27  43  66  97 129 174 221 264 323 389
#     4  10  22  41  64  94 125 168 215 268 328 386
#     4  12  26  43  65  90 136 176 218 270 318 388
#     4  10  21  42  70  97 127 165 212 269 327 382
#
# _framework density 24.548148000000001
#
# number of rings (size 3 to 8) (size 9 to 14) (size 15 to 20)
#    0.000    1.500    1.250    3.000    0.000    4.500 
#    0.000    0.000    0.000    9.000    0.000    0.000 
#    0.000    0.000    0.000    0.000    0.000    0.000 
#
# Total GULP energy -179368.047464 kJ/mol
# GULP energy per Si atom -5605.251483 kJ/mol
# Density = 2.449228 g / cm^3
# Si number density = 24.548148 Si / 1000 Ang^3
#
#
#
# Elastic Constant Matrix: (Units=GPa)
#
#
# Indices 1 2 3 4 5 6 
#
# 1 135.5758 5.5308 3.8069 0.0000 0.0000 0.0000
# 2 5.5308 56.0387 51.5371 0.0000 0.0000 0.0000
# 3 3.8069 51.5371 175.8691 0.0000 0.0000 0.0000
# 4 0.0000 0.0000 0.0000 73.7525 0.0000 0.0000
# 5 0.0000 0.0000 0.0000 0.0000 25.3863 0.0000
# 6 0.0000 0.0000 0.0000 0.0000 0.0000 21.0176
#
#
#
# Elastic Compliance Matrix: (Units=1/GPa)
#
#
# Indices 1 2 3 4 5 6 
#
# 1 0.007406 -0.000799 0.000074 0.000000 0.000000 0.000000
# 2 -0.000799 0.024514 -0.007166 0.000000 0.000000 0.000000
# 3 0.000074 -0.007166 0.007785 0.000000 0.000000 0.000000
# 4 0.000000 0.000000 0.000000 0.013559 0.000000 0.000000
# 5 0.000000 0.000000 0.000000 0.000000 0.039391 0.000000
# 6 0.000000 0.000000 0.000000 0.000000 0.000000 0.047579
#
#
# Mechanical properties :
#
#
# Convention : Reuss Voigt Hill
#
# Bulk Modulus (GPa) = 41.80191 54.35923 48.08057
# Shear Modulus (GPa) = 30.48929 44.47186 37.48058
#
# Velocity S-wave (km/s) = 3.52805 4.26093 3.91169
# Velocity P-wave (km/s) = 5.80187 6.81171 6.32697
#
# Compressibility (1/GPa) = 0.02392235
#
# Stress axis : x y z
#
# Youngs Moduli (GPa) = 135.01723 40.79232 128.45989
#
# Poissons Ratio (x) = 0.03259 -0.00948
# Poissons Ratio (y) = 0.10786 0.92060
# Poissons Ratio (z) = -0.00996 0.29234
#
# Static dielectric constant tensor:
#      x y z
#    x 1.877010 0.000000 0.000000 
#    y 0.000000 1.938850 0.000000 
#    z 0.000000 0.000000 2.005260 
# 
# From -- ./inp_files/22215.got.cif
#   From: 2010.05.17/outbox.cif.g08.bks.cpg/sg55_12_cif.got.tgz:22215.got - 2010.06.03 13:27:54.
