data_PCOD9428214
_publ_section_title
;
Structure prediction by ZEFSAII (Michael W. Deem and Ramdas Pophale) SiO2 
 PCOD9428214
Probable space group: P B A M
;
_chemical_formula_sum "Si O2"
_cell_formula_units_Z 48
_cell_length_a 20.290256
_cell_length_b 14.179276
_cell_length_c 8.873816
_cell_angle_alpha 90.000000
_cell_angle_beta 90.000000
_cell_angle_gamma 90.000000
_cell_volume 2553.006979
_symmetry_space_group_name_H-M "P B A M"
_symmetry_group_IT_number 55
_symmetry_cell_setting 'orthorhombic'
loop_
_space_group_symop_operation_xyz
x,y,z
-x,-y,z
1/2+x,1/2-y,-z
1/2-x,1/2+y,-z
-x,-y,-z
x,y,-z
1/2-x,1/2+y,z
1/2+x,1/2-y,z
loop_
_atom_site_type_symbol
_atom_site_label
_atom_site_fract_x
_atom_site_fract_y
_atom_site_fract_z
Si Si1 0.060947 0.435328 0.821009
Si Si2 0.818586 0.086326 0.322902
Si Si3 0.703635 0.976633 0.174465
Si Si4 0.110637 0.244774 0.680016
Si Si5 0.571328 0.453121 0.821622
Si Si6 0.256542 0.239859 0.822639
O O1 0.128317 0.494322 0.802941
O O2 0.070991 0.336298 0.737204
O O3 0.000000 0.500000 0.770505
O O4 0.052452 0.415981 0.000000
O O5 0.830391 0.092311 0.500000
O O6 0.750160 0.033438 0.286528
O O7 0.874686 0.024462 0.244405
O O8 0.808301 0.188513 0.250224
O O9 0.718003 0.866534 0.193914
O O10 0.721152 0.000960 0.000000
O O11 0.113319 0.242902 0.500000
O O12 0.079354 0.147851 0.741860
O O13 0.185105 0.250222 0.745442
O O14 0.500000 0.500000 0.799842
O O15 0.582910 0.440019 0.000000
O O16 0.248929 0.260380 0.000000
#
# Coordination Sequence:
#
# PCOD9428214 Si02
#       6
#     8   8   8   8   8   8
#     4  10  22  41  65  93 127 169 215 259 310 377
#     4  12  24  38  62  95 129 163 206 263 322 373
#     4  10  21  38  63  90 121 165 214 262 305 367
#     4  12  24  39  63  95 129 166 207 260 328 380
#     4  11  25  45  68  92 124 170 218 261 312 383
#     4  11  22  38  63  92 126 169 220 263 308 375
#
# _framework density 18.801359000000001
#
# number of rings (size 3 to 8) (size 9 to 14) (size 15 to 20)
#    0.000    1.000    3.333    4.000    0.000    3.667 
#    0.000    3.333    0.000    0.000    0.000    0.000 
#    0.000    0.000    0.000    0.000    0.000    0.000 
#
# Total GULP energy -268437.839782 kJ/mol
# GULP energy per Si atom -5592.454995 kJ/mol
# Density = 1.875857 g / cm^3
# Si number density = 18.801359 Si / 1000 Ang^3
#
#
#
# Elastic Constant Matrix: (Units=GPa)
#
#
# Indices 1 2 3 4 5 6 
#
# 1 64.1216 24.2083 48.8579 0.0000 0.0000 0.0000
# 2 24.2083 113.3404 54.2688 0.0000 0.0000 0.0000
# 3 48.8579 54.2688 112.3089 0.0000 0.0000 0.0000
# 4 0.0000 0.0000 0.0000 24.8969 0.0000 0.0000
# 5 0.0000 0.0000 0.0000 0.0000 -37.3868 0.0000
# 6 0.0000 0.0000 0.0000 0.0000 0.0000 24.5259
#
#
#
# Elastic Compliance Matrix: (Units=1/GPa)
#
#
# Indices 1 2 3 4 5 6 
#
# 1 0.023330 -0.000161 -0.010072 0.000000 0.000000 0.000000
# 2 -0.000161 0.011480 -0.005477 0.000000 0.000000 0.000000
# 3 -0.010072 -0.005477 0.015932 0.000000 0.000000 0.000000
# 4 0.000000 0.000000 0.000000 0.040166 0.000000 0.000000
# 5 0.000000 0.000000 0.000000 0.000000 -0.026747 0.000000
# 6 0.000000 0.000000 0.000000 0.000000 0.000000 0.040773
#
#
# Mechanical properties :
#
#
# Convention : Reuss Voigt Hill
#
# Bulk Modulus (GPa) = 51.75187 60.49344 56.12266
# Shear Modulus (GPa) = 35.01539 13.23627 24.12583
#
# Velocity S-wave (km/s) = 4.32022 2.65619 3.58606
# Velocity P-wave (km/s) = 7.24369 6.45384 6.86014
#
# Compressibility (1/GPa) = 0.01932297
#
# Stress axis : x y z
#
# Youngs Moduli (GPa) = 42.86277 87.10882 62.76568
#
# Poissons Ratio (x) = 0.01399 0.63216
# Poissons Ratio (y) = 0.00688 0.34379
# Poissons Ratio (z) = 0.43171 0.47712
#
# Static dielectric constant tensor:
#      x y z
#    x 1.628750 0.000000 0.000000 
#    y 0.000000 1.645940 0.000000 
#    z 0.000000 0.000000 1.640760 
# 
# From -- ./inp_files/5816.got.cif
#   From: 2010.05.17/outbox.cif.g08.bks.cpg/sg55_3_cif.got.tgz:5816.got - 2010.06.03 13:27:54.
