data_PCOD9428605
_publ_section_title
;
Structure prediction by ZEFSAII (Michael W. Deem and Ramdas Pophale) SiO2 
 PCOD9428605
Probable space group: P B A M
;
_chemical_formula_sum "Si O2"
_cell_formula_units_Z 48
_cell_length_a 21.287582
_cell_length_b 8.823253
_cell_length_c 13.247115
_cell_angle_alpha 90.000000
_cell_angle_beta 90.000000
_cell_angle_gamma 90.000000
_cell_volume 2488.148936
_symmetry_space_group_name_H-M "P B A M"
_symmetry_group_IT_number 55
_symmetry_cell_setting 'orthorhombic'
loop_
_space_group_symop_operation_xyz
x,y,z
-x,-y,z
1/2+x,1/2-y,-z
1/2-x,1/2+y,-z
-x,-y,-z
x,y,-z
1/2-x,1/2+y,z
1/2+x,1/2-y,z
loop_
_atom_site_type_symbol
_atom_site_label
_atom_site_fract_x
_atom_site_fract_y
_atom_site_fract_z
Si Si1 0.240907 0.815260 0.675995
Si Si2 0.065311 0.415705 0.881184
Si Si3 0.188026 0.554144 0.200170
Si Si4 0.762418 0.285318 0.000000
Si Si5 0.845058 0.916177 0.610772
Si Si6 0.346165 0.508914 0.000000
Si Si7 0.069355 0.070459 0.189240
O O1 0.268895 0.911449 0.769619
O O2 0.196466 0.680394 0.714065
O O3 0.300174 0.730894 0.625630
O O4 0.201158 0.938134 0.615152
O O5 0.118555 0.496834 0.816667
O O6 0.061247 0.242405 0.847924
O O7 0.000000 0.500000 0.866041
O O8 0.080889 0.425870 0.000000
O O9 0.211728 0.632163 0.098888
O O10 0.791264 0.117219 0.000000
O O11 0.688172 0.325828 0.000000
O O12 0.875301 0.909085 0.500000
O O13 0.892008 0.930327 0.705740
O O14 0.388800 0.493282 0.100246
O O15 0.000000 0.000000 0.198403
#
# Coordination Sequence:
#
# PCOD9428605 Si02
#       7
#     8   8   8   4   8   4   8
#     4  10  22  39  65  96 126 162 207 271 330 390
#     4  11  25  41  62  90 129 175 220 261 310 381
#     4  11  21  38  59  93 131 165 209 259 323 383
#     4  12  24  34  62  94 135 167 204 257 325 396
#     4  11  23  43  69  97 129 168 214 270 330 386
#     4  12  27  42  64  99 135 168 212 266 329 382
#     4  12  27  44  66  92 133 173 222 266 312 385
#
# _framework density 19.291450999999999
#
# number of rings (size 3 to 8) (size 9 to 14) (size 15 to 20)
#    0.000    0.833    3.333    4.750    7.000    0.333 
#    0.000    0.000    0.000    0.500    0.000    0.000 
#    0.000    0.000    0.000    0.000    0.000    0.000 
#
# Total GULP energy -268313.239714 kJ/mol
# GULP energy per Si atom -5589.859161 kJ/mol
# Density = 1.924754 g / cm^3
# Si number density = 19.291451 Si / 1000 Ang^3
#
#
#
# Elastic Constant Matrix: (Units=GPa)
#
#
# Indices 1 2 3 4 5 6 
#
# 1 97.5127 43.6154 36.9898 0.0000 0.0000 0.0000
# 2 43.6154 101.5722 25.0741 0.0000 0.0000 0.0000
# 3 36.9898 25.0741 112.7982 0.0000 0.0000 0.0000
# 4 0.0000 0.0000 0.0000 -7.5017 0.0000 0.0000
# 5 0.0000 0.0000 0.0000 0.0000 15.8054 0.0000
# 6 0.0000 0.0000 0.0000 0.0000 0.0000 39.3093
#
#
#
# Elastic Compliance Matrix: (Units=1/GPa)
#
#
# Indices 1 2 3 4 5 6 
#
# 1 0.013825 -0.005097 -0.003401 0.000000 0.000000 0.000000
# 2 -0.005097 0.012296 -0.001062 0.000000 0.000000 0.000000
# 3 -0.003401 -0.001062 0.010217 0.000000 0.000000 0.000000
# 4 0.000000 0.000000 0.000000 -0.133303 0.000000 0.000000
# 5 0.000000 0.000000 0.000000 0.000000 0.063270 0.000000
# 6 0.000000 0.000000 0.000000 0.000000 0.000000 0.025439
#
#
# Mechanical properties :
#
#
# Convention : Reuss Voigt Hill
#
# Bulk Modulus (GPa) = 58.07657 58.13797 58.10727
# Shear Modulus (GPa) = 301.18190 23.26953 162.22571
#
# Velocity S-wave (km/s) = 12.50843 3.47682 9.18012
# Velocity P-wave (km/s) = 15.45266 6.80586 11.93952
#
# Compressibility (1/GPa) = 0.01721865
#
# Stress axis : x y z
#
# Youngs Moduli (GPa) = 72.33400 81.32744 97.88024
#
# Poissons Ratio (x) = 0.41452 0.33285
# Poissons Ratio (y) = 0.36868 0.10394
# Poissons Ratio (z) = 0.24597 0.08636
#
# Static dielectric constant tensor:
#      x y z
#    x 1.657470 0.000000 0.000000 
#    y 0.000000 1.695600 0.000000 
#    z 0.000000 0.000000 1.691490 
# 
# From -- ./inp_files/15655.got.cif
#   From: 2010.05.17/outbox.cif.g08.bks.cpg/sg55_8_cif.got.tgz:15655.got - 2010.06.03 13:27:54.
