data_PCOD9428536
_publ_section_title
;
Structure prediction by ZEFSAII (Michael W. Deem and Ramdas Pophale) SiO2 
 PCOD9428536
Probable space group: P B A M
;
_chemical_formula_sum "Si O2"
_cell_formula_units_Z 26
_cell_length_a 4.914330
_cell_length_b 17.234638
_cell_length_c 12.186463
_cell_angle_alpha 90.000000
_cell_angle_beta 90.000000
_cell_angle_gamma 90.000000
_cell_volume 1032.153183
_symmetry_space_group_name_H-M "P B A M"
_symmetry_group_IT_number 55
_symmetry_cell_setting 'orthorhombic'
loop_
_space_group_symop_operation_xyz
x,y,z
-x,-y,z
1/2+x,1/2-y,-z
1/2-x,1/2+y,-z
-x,-y,-z
x,y,-z
1/2-x,1/2+y,z
1/2+x,1/2-y,z
loop_
_atom_site_type_symbol
_atom_site_label
_atom_site_fract_x
_atom_site_fract_y
_atom_site_fract_z
Si Si1 0.663726 0.572365 0.788314
Si Si2 0.500000 0.000000 0.000000
Si Si3 0.586629 0.193204 0.371313
Si Si4 0.759171 0.801051 0.126876
O O1 0.500000 0.500000 0.739441
O O2 0.850279 0.617147 0.700128
O O3 0.417546 0.630651 0.816180
O O4 0.819657 0.544631 0.899920
O O5 0.604453 0.173490 0.500000
O O6 0.302389 0.236916 0.351106
O O7 0.949337 0.725129 0.141735
O O8 0.773311 0.824535 0.000000
#
# Coordination Sequence:
#
# PCOD9428536 Si02
#       4
#     8   2   8   8
#     4  12  27  43  68 102 154 194 240 301 378 442
#     4  12  30  44  62 102 156 200 240 292 362 458
#     4  10  24  50  81 109 140 188 255 318 371 437
#     4  10  22  38  61  87 123 178 239 283 332 411
#
# _framework density 25.190056999999999
#
# number of rings (size 3 to 8) (size 9 to 14) (size 15 to 20)
#    0.000    1.231    1.538    2.308    8.615    0.615 
#    0.000    0.769    0.000    0.000    0.000    0.000 
#    0.000    0.000    0.000    0.000    0.000    0.000 
#
# Total GULP energy -145158.864631 kJ/mol
# GULP energy per Si atom -5583.033255 kJ/mol
# Density = 2.513272 g / cm^3
# Si number density = 25.190057 Si / 1000 Ang^3
#
#
#
# Elastic Constant Matrix: (Units=GPa)
#
#
# Indices 1 2 3 4 5 6 
#
# 1 162.4194 58.6109 63.0758 0.0000 0.0000 0.0000
# 2 58.6109 133.6656 58.5267 0.0000 0.0000 0.0000
# 3 63.0758 58.5267 159.6399 0.0000 0.0000 0.0000
# 4 0.0000 0.0000 0.0000 34.1023 0.0000 0.0000
# 5 0.0000 0.0000 0.0000 0.0000 45.2823 0.0000
# 6 0.0000 0.0000 0.0000 0.0000 0.0000 48.4558
#
#
#
# Elastic Compliance Matrix: (Units=1/GPa)
#
#
# Indices 1 2 3 4 5 6 
#
# 1 0.007919 -0.002504 -0.002211 0.000000 0.000000 0.000000
# 2 -0.002504 0.009704 -0.002568 0.000000 0.000000 0.000000
# 3 -0.002211 -0.002568 0.008079 0.000000 0.000000 0.000000
# 4 0.000000 0.000000 0.000000 0.029324 0.000000 0.000000
# 5 0.000000 0.000000 0.000000 0.000000 0.022084 0.000000
# 6 0.000000 0.000000 0.000000 0.000000 0.000000 0.020637
#
#
# Mechanical properties :
#
#
# Convention : Reuss Voigt Hill
#
# Bulk Modulus (GPa) = 89.80211 90.68352 90.24281
# Shear Modulus (GPa) = 43.09394 43.93552 43.51473
#
# Velocity S-wave (km/s) = 4.14061 4.18085 4.16078
# Velocity P-wave (km/s) = 7.65420 7.70609 7.68019
#
# Compressibility (1/GPa) = 0.01113560
#
# Stress axis : x y z
#
# Youngs Moduli (GPa) = 126.27473 103.05020 123.77568
#
# Poissons Ratio (x) = 0.25809 0.27364
# Poissons Ratio (y) = 0.31625 0.31787
# Poissons Ratio (z) = 0.27917 0.26464
#
# Static dielectric constant tensor:
#      x y z
#    x 2.010360 0.000000 0.000000 
#    y 0.000000 2.097680 0.000000 
#    z 0.000000 0.000000 2.129790 
# 
# From -- ./inp_files/16388.got.cif
#   From: 2010.05.17/outbox.cif.g08.bks.cpg/sg55_9_cif.got.tgz:16388.got - 2010.06.03 13:27:54.
