data_PCOD9428619
_publ_section_title
;
Structure prediction by ZEFSAII (Michael W. Deem and Ramdas Pophale) SiO2 
 PCOD9428619
Probable space group: P B A M
;
_chemical_formula_sum "Si O2"
_cell_formula_units_Z 64
_cell_length_a 24.154366
_cell_length_b 15.865133
_cell_length_c 8.014174
_cell_angle_alpha 90.000000
_cell_angle_beta 90.000000
_cell_angle_gamma 90.000000
_cell_volume 3071.129483
_symmetry_space_group_name_H-M "P B A M"
_symmetry_group_IT_number 55
_symmetry_cell_setting 'orthorhombic'
loop_
_space_group_symop_operation_xyz
x,y,z
-x,-y,z
1/2+x,1/2-y,-z
1/2-x,1/2+y,-z
-x,-y,-z
x,y,-z
1/2-x,1/2+y,z
1/2+x,1/2-y,z
loop_
_atom_site_type_symbol
_atom_site_label
_atom_site_fract_x
_atom_site_fract_y
_atom_site_fract_z
Si Si1 0.252890 0.856982 0.305724
Si Si2 0.628978 0.599110 0.703361
Si Si3 0.867779 0.581527 0.804356
Si Si4 0.124327 0.605515 0.796985
Si Si5 0.852612 0.914407 0.304114
Si Si6 0.079889 0.246669 0.804251
Si Si7 0.545455 0.743552 0.698768
Si Si8 0.755067 0.329245 0.195289
O O1 0.255792 0.880807 0.500000
O O2 0.191037 0.875862 0.243125
O O3 0.302024 0.904985 0.213460
O O4 0.261303 0.756767 0.287441
O O5 0.628241 0.604304 0.500000
O O6 0.620354 0.502206 0.753110
O O7 0.583680 0.666183 0.761224
O O8 0.884023 0.490164 0.735948
O O9 0.896580 0.665155 0.732633
O O10 0.882331 0.579717 0.000000
O O11 0.079123 0.671079 0.733872
O O12 0.185562 0.637045 0.745803
O O13 0.123356 0.605301 0.000000
O O14 0.841111 0.923288 0.500000
O O15 0.891845 0.834580 0.276453
O O16 0.793858 0.896021 0.218883
O O17 0.014271 0.244563 0.782442
O O18 0.095009 0.243214 0.000000
O O19 0.537421 0.734412 0.500000
O O20 0.759690 0.308373 0.000000
#
# Coordination Sequence:
#
# PCOD9428619 Si02
#       8
#     8   8   8   8   8   8   8   8
#     4  11  20  35  61  90 121 157 197 239 292 356
#     4   9  21  39  60  89 121 154 193 243 303 352
#     4  10  22  40  61  86 122 159 195 243 299 353
#     4  10  22  40  62  89 120 159 198 240 299 357
#     4  11  22  39  63  89 119 156 198 244 296 355
#     4  11  24  42  61  85 119 157 202 250 300 356
#     4  11  23  42  64  86 117 156 202 252 300 353
#     4  11  21  35  58  90 125 156 191 238 296 357
#
# _framework density 20.839238000000002
#
# number of rings (size 3 to 8) (size 9 to 14) (size 15 to 20)
#    0.000    1.500    2.500    2.625    0.000    2.500 
#    0.000    9.375    0.000    0.000    0.000    0.000 
#    0.000    0.000    0.000    0.000    0.000    0.000 
#
# Total GULP energy -357739.540453 kJ/mol
# GULP energy per Si atom -5589.680320 kJ/mol
# Density = 2.079181 g / cm^3
# Si number density = 20.839238 Si / 1000 Ang^3
#
#
#
# Elastic Constant Matrix: (Units=GPa)
#
#
# Indices 1 2 3 4 5 6 
#
# 1 89.5248 23.5532 -13.0602 0.0000 0.0000 0.0000
# 2 23.5532 112.5638 0.4396 0.0000 0.0000 0.0000
# 3 -13.0602 0.4396 14.6027 0.0000 0.0000 0.0000
# 4 0.0000 0.0000 0.0000 38.1193 0.0000 0.0000
# 5 0.0000 0.0000 0.0000 0.0000 48.7710 0.0000
# 6 0.0000 0.0000 0.0000 0.0000 0.0000 5.5212
#
#
#
# Elastic Compliance Matrix: (Units=1/GPa)
#
#
# Indices 1 2 3 4 5 6 
#
# 1 0.013746 -0.002925 0.012382 0.000000 0.000000 0.000000
# 2 -0.002925 0.009507 -0.002902 0.000000 0.000000 0.000000
# 3 0.012382 -0.002902 0.079642 0.000000 0.000000 0.000000
# 4 0.000000 0.000000 0.000000 0.026233 0.000000 0.000000
# 5 0.000000 0.000000 0.000000 0.000000 0.020504 0.000000
# 6 0.000000 0.000000 0.000000 0.000000 0.000000 0.181120
#
#
# Mechanical properties :
#
#
# Convention : Reuss Voigt Hill
#
# Bulk Modulus (GPa) = 8.62024 26.50625 17.56325
# Shear Modulus (GPa) = 14.03272 32.19954 23.11613
#
# Velocity S-wave (km/s) = 2.59777 3.93509 3.33417
# Velocity P-wave (km/s) = 3.62538 5.77872 4.82374
#
# Compressibility (1/GPa) = 0.11600605
#
# Stress axis : x y z
#
# Youngs Moduli (GPa) = 72.74928 105.18423 12.55618
#
# Poissons Ratio (x) = 0.30762 -0.15547
# Poissons Ratio (y) = 0.21276 0.03644
# Poissons Ratio (z) = -0.90078 0.30523
#
# Static dielectric constant tensor:
#      x y z
#    x 1.703480 0.000000 0.000000 
#    y 0.000000 1.758380 0.000000 
#    z 0.000000 0.000000 1.711960 
# 
# From -- ./inp_files/9775.got.cif
#   From: 2010.05.17/outbox.cif.g08.bks.cpg/sg55_5_cif.got.tgz:9775.got - 2010.06.03 13:27:54.
