data_PCOD9428358
_publ_section_title
;
Structure prediction by ZEFSAII (Michael W. Deem and Ramdas Pophale) SiO2 
 PCOD9428358
Probable space group: P B A M
;
_chemical_formula_sum "Si O2"
_cell_formula_units_Z 34
_cell_length_a 9.346339
_cell_length_b 8.848084
_cell_length_c 19.508488
_cell_angle_alpha 90.000000
_cell_angle_beta 90.000000
_cell_angle_gamma 90.000000
_cell_volume 1613.297189
_symmetry_space_group_name_H-M "P B A M"
_symmetry_group_IT_number 55
_symmetry_cell_setting 'orthorhombic'
loop_
_space_group_symop_operation_xyz
x,y,z
-x,-y,z
1/2+x,1/2-y,-z
1/2-x,1/2+y,-z
-x,-y,-z
x,y,-z
1/2-x,1/2+y,z
1/2+x,1/2-y,z
loop_
_atom_site_type_symbol
_atom_site_label
_atom_site_fract_x
_atom_site_fract_y
_atom_site_fract_z
Si Si1 0.133921 0.886874 0.920474
Si Si2 0.224221 0.589010 0.691259
Si Si3 0.500000 0.000000 0.500000
Si Si4 0.646939 0.919446 0.839254
Si Si5 0.934789 0.697147 0.635092
O O1 0.114098 0.740197 0.873801
O O2 0.272488 0.975619 0.893680
O O3 0.150117 0.842809 0.000000
O O4 0.000000 0.000000 0.914871
O O5 0.246726 0.599571 0.772348
O O6 0.170664 0.422391 0.672102
O O7 0.355258 0.644525 0.644750
O O8 0.086438 0.691986 0.672889
O O9 0.461900 0.873543 0.439598
O O10 0.500000 0.000000 0.816983
#
# Coordination Sequence:
#
# PCOD9428358 Si02
#       5
#     8   8   2   8   8
#     4  11  26  42  62  93 126 171 224 278 342 410
#     4  10  22  39  60  96 124 170 208 273 305 392
#     4   8  20  40  64  90 124 178 190 260 300 378
#     4  12  23  42  66  91 130 173 220 275 341 397
#     4  10  21  40  63  92 137 159 221 251 322 377
#
# _framework density 21.074852
#
# number of rings (size 3 to 8) (size 9 to 14) (size 15 to 20)
#    0.000    1.647    2.353    3.529    3.294    8.471 
#    0.000    0.000    0.000   11.294    0.000    0.000 
#    0.000    0.000    0.000    0.000    0.000    0.000 
#
# Total GULP energy -189478.108534 kJ/mol
# GULP energy per Si atom -5572.885545 kJ/mol
# Density = 2.102688 g / cm^3
# Si number density = 21.074852 Si / 1000 Ang^3
#
#
#
# Elastic Constant Matrix: (Units=GPa)
#
#
# Indices 1 2 3 4 5 6 
#
# 1 37.3946 14.3912 -15.9301 0.0000 0.0000 0.0000
# 2 14.3912 60.1771 28.7029 0.0000 0.0000 0.0000
# 3 -15.9301 28.7029 140.0200 0.0000 0.0000 0.0000
# 4 0.0000 0.0000 0.0000 -6.1693 0.0000 0.0000
# 5 0.0000 0.0000 0.0000 0.0000 -8.5152 0.0000
# 6 0.0000 0.0000 0.0000 0.0000 0.0000 43.1838
#
#
#
# Elastic Compliance Matrix: (Units=1/GPa)
#
#
# Indices 1 2 3 4 5 6 
#
# 1 0.033512 -0.010898 0.006047 0.000000 0.000000 0.000000
# 2 -0.010898 0.021963 -0.005742 0.000000 0.000000 0.000000
# 3 0.006047 -0.005742 0.009007 0.000000 0.000000 0.000000
# 4 0.000000 0.000000 0.000000 -0.162093 0.000000 0.000000
# 5 0.000000 0.000000 0.000000 0.000000 -0.117437 0.000000
# 6 0.000000 0.000000 0.000000 0.000000 0.000000 0.023157
#
#
# Mechanical properties :
#
#
# Convention : Reuss Voigt Hill
#
# Bulk Modulus (GPa) = 23.09786 32.43551 27.76668
# Shear Modulus (GPa) = -31.99536 19.72838 -6.13349
#
# Velocity S-wave (km/s) = -3.90061 3.06291 -1.70782
# Velocity P-wave (km/s) = 3.05002 5.28513 3.05205
#
# Compressibility (1/GPa) = 0.04329406
#
# Stress axis : x y z
#
# Youngs Moduli (GPa) = 29.84009 45.53157 111.02645
#
# Poissons Ratio (x) = 0.49622 -0.67135
# Poissons Ratio (y) = 0.32521 0.63753
# Poissons Ratio (z) = -0.18044 0.26145
#
# Static dielectric constant tensor:
#      x y z
#    x 1.769610 0.000000 0.000000 
#    y 0.000000 1.825890 0.000000 
#    z 0.000000 0.000000 1.713110 
# 
# From -- ./inp_files/22503.got.cif
#   From: 2010.05.17/outbox.cif.g08.bks.cpg/sg55_12_cif.got.tgz:22503.got - 2010.06.03 13:27:54.
