data_PCOD9428768
_publ_section_title
;
Structure prediction by ZEFSAII (Michael W. Deem and Ramdas Pophale) SiO2 
 PCOD9428768
Probable space group: P B A M
;
_chemical_formula_sum "Si O2"
_cell_formula_units_Z 48
_cell_length_a 9.369985
_cell_length_b 16.578508
_cell_length_c 15.748982
_cell_angle_alpha 90.000000
_cell_angle_beta 90.000000
_cell_angle_gamma 90.000000
_cell_volume 2446.452711
_symmetry_space_group_name_H-M "P B A M"
_symmetry_group_IT_number 55
_symmetry_cell_setting 'orthorhombic'
loop_
_space_group_symop_operation_xyz
x,y,z
-x,-y,z
1/2+x,1/2-y,-z
1/2-x,1/2+y,-z
-x,-y,-z
x,y,-z
1/2-x,1/2+y,z
1/2+x,1/2-y,z
loop_
_atom_site_type_symbol
_atom_site_label
_atom_site_fract_x
_atom_site_fract_y
_atom_site_fract_z
Si Si1 0.741303 0.651944 0.267956
Si Si2 0.917717 0.345799 0.000000
Si Si3 0.579643 0.324778 0.000000
Si Si4 0.962331 0.906441 0.186028
Si Si5 0.195803 0.662943 0.719419
Si Si6 0.526393 0.095425 0.403798
Si Si7 0.973141 0.590254 0.168880
O O1 0.576770 0.631254 0.252284
O O2 0.755138 0.747302 0.280543
O O3 0.836756 0.612985 0.343176
O O4 0.811637 0.616644 0.181525
O O5 0.751856 0.322925 0.000000
O O6 0.960734 0.401246 0.078046
O O7 0.009967 0.263890 0.000000
O O8 0.539127 0.366607 0.091138
O O9 0.810969 0.893874 0.234048
O O10 0.000000 0.000000 0.175887
O O11 0.120787 0.634470 0.632489
O O12 0.058346 0.658094 0.779696
O O13 0.553882 0.122955 0.500000
O O14 0.500000 0.000000 0.403977
O O15 0.000000 0.500000 0.202378
#
# Coordination Sequence:
#
# PCOD9428768 Si02
#       7
#     8   4   4   8   8   8   8
#     4  11  23  39  66  91 124 163 204 254 312 374
#     4  12  25  42  62  88 124 167 216 270 310 365
#     4  12  27  42  60  92 128 169 212 266 312 357
#     4  12  24  40  62  90 127 163 209 263 313 361
#     4  11  21  41  62  92 123 162 205 253 312 373
#     4  10  22  43  68  93 124 163 207 252 307 380
#     4  11  23  41  63  87 120 168 219 257 305 371
#
# _framework density 19.620242999999999
#
# number of rings (size 3 to 8) (size 9 to 14) (size 15 to 20)
#    0.000    0.833    1.667    8.500    2.333    0.667 
#    0.000    0.833    0.000    3.000    0.000    0.000 
#    0.000    0.000    0.000    0.000    0.000    0.000 
#
# Total GULP energy -267597.228198 kJ/mol
# GULP energy per Si atom -5574.942254 kJ/mol
# Density = 1.957559 g / cm^3
# Si number density = 19.620243 Si / 1000 Ang^3
#
#
#
# Elastic Constant Matrix: (Units=GPa)
#
#
# Indices 1 2 3 4 5 6 
#
# 1 84.7700 9.8596 30.5888 0.0000 0.0000 0.0000
# 2 9.8596 89.7514 14.7267 0.0000 0.0000 0.0000
# 3 30.5888 14.7267 109.0200 0.0000 0.0000 0.0000
# 4 0.0000 0.0000 0.0000 21.6747 0.0000 0.0000
# 5 0.0000 0.0000 0.0000 0.0000 7.3315 0.0000
# 6 0.0000 0.0000 0.0000 0.0000 0.0000 30.5908
#
#
#
# Elastic Compliance Matrix: (Units=1/GPa)
#
#
# Indices 1 2 3 4 5 6 
#
# 1 0.013190 -0.000861 -0.003585 0.000000 0.000000 0.000000
# 2 -0.000861 0.011451 -0.001305 0.000000 0.000000 0.000000
# 3 -0.003585 -0.001305 0.010355 0.000000 0.000000 0.000000
# 4 0.000000 0.000000 0.000000 0.046137 0.000000 0.000000
# 5 0.000000 0.000000 0.000000 0.000000 0.136399 0.000000
# 6 0.000000 0.000000 0.000000 0.000000 0.000000 0.032690
#
#
# Mechanical properties :
#
#
# Convention : Reuss Voigt Hill
#
# Bulk Modulus (GPa) = 42.56375 43.76572 43.16473
# Shear Modulus (GPa) = 18.54921 27.14381 22.84651
#
# Velocity S-wave (km/s) = 3.07809 3.72352 3.41608
# Velocity P-wave (km/s) = 5.86291 6.39070 6.13249
#
# Compressibility (1/GPa) = 0.02349417
#
# Stress axis : x y z
#
# Youngs Moduli (GPa) = 75.81358 87.33152 96.57431
#
# Poissons Ratio (x) = 0.07518 0.34618
# Poissons Ratio (y) = 0.06526 0.12605
# Poissons Ratio (z) = 0.27176 0.11399
#
# Static dielectric constant tensor:
#      x y z
#    x 1.708870 0.000000 0.000000 
#    y 0.000000 1.682480 0.000000 
#    z 0.000000 0.000000 1.762950 
# 
# From -- ./inp_files/20844.got.cif
#   From: 2010.05.17/outbox.cif.g08.bks.cpg/sg55_11_cif.got.tgz:20844.got - 2010.06.03 13:27:54.
