data_PCOD9428182
_publ_section_title
;
Structure prediction by ZEFSAII (Michael W. Deem and Ramdas Pophale) SiO2 
 PCOD9428182
Probable space group: P B A M
;
_chemical_formula_sum "Si O2"
_cell_formula_units_Z 48
_cell_length_a 24.026611
_cell_length_b 4.941368
_cell_length_c 19.891351
_cell_angle_alpha 90.000000
_cell_angle_beta 90.000000
_cell_angle_gamma 90.000000
_cell_volume 2361.587256
_symmetry_space_group_name_H-M "P B A M"
_symmetry_group_IT_number 55
_symmetry_cell_setting 'orthorhombic'
loop_
_space_group_symop_operation_xyz
x,y,z
-x,-y,z
1/2+x,1/2-y,-z
1/2-x,1/2+y,-z
-x,-y,-z
x,y,-z
1/2-x,1/2+y,z
1/2+x,1/2-y,z
loop_
_atom_site_type_symbol
_atom_site_label
_atom_site_fract_x
_atom_site_fract_y
_atom_site_fract_z
Si Si1 0.213247 0.267416 0.420925
Si Si2 0.561285 0.915223 0.274833
Si Si3 0.132926 0.069350 0.307679
Si Si4 0.441274 0.129065 0.117203
Si Si5 0.286959 0.406066 0.187170
Si Si6 0.627378 0.384029 0.076758
O O1 0.200110 0.241045 0.500000
O O2 0.234187 0.570163 0.407107
O O3 0.163415 0.172693 0.374174
O O4 0.589922 0.676470 0.316527
O O5 0.556496 0.818617 0.197371
O O6 0.500000 0.000000 0.298171
O O7 0.599995 0.178426 0.276348
O O8 0.179066 0.966853 0.254892
O O9 0.424049 0.406489 0.082327
O O10 0.500000 0.000000 0.096423
O O11 0.394352 0.905812 0.101502
O O12 0.267321 0.097247 0.185606
O O13 0.325742 0.493647 0.125344
O O14 0.646449 0.365355 0.000000
#
# Coordination Sequence:
#
# PCOD9428182 Si02
#       6
#     8   8   8   8   8   8
#     4  10  21  38  61  94 129 161 198 240 292 347
#     4  11  22  38  63  90 119 153 196 246 297 351
#     4  12  21  39  64  90 119 155 197 243 294 341
#     4  11  22  41  62  86 116 148 193 248 303 354
#     4  12  24  39  59  83 112 148 197 240 284 342
#     4  12  25  41  59  84 117 153 193 243 302 360
#
# _framework density 20.325312
#
# number of rings (size 3 to 8) (size 9 to 14) (size 15 to 20)
#    0.000    0.667    3.333    5.500    0.000    5.333 
#    0.000    0.000    0.000    3.000    0.000    0.000 
#    0.000    0.000    0.000    0.000    0.000    0.000 
#
# Total GULP energy -268735.753031 kJ/mol
# GULP energy per Si atom -5598.661521 kJ/mol
# Density = 2.027905 g / cm^3
# Si number density = 20.325312 Si / 1000 Ang^3
#
#
#
# Elastic Constant Matrix: (Units=GPa)
#
#
# Indices 1 2 3 4 5 6 
#
# 1 52.3519 -12.6955 23.4637 0.0000 0.0000 0.0000
# 2 -12.6955 55.0951 -15.1709 0.0000 0.0000 0.0000
# 3 23.4637 -15.1709 44.9919 0.0000 0.0000 0.0000
# 4 0.0000 0.0000 0.0000 47.7152 0.0000 0.0000
# 5 0.0000 0.0000 0.0000 0.0000 17.5741 0.0000
# 6 0.0000 0.0000 0.0000 0.0000 0.0000 31.5256
#
#
#
# Elastic Compliance Matrix: (Units=1/GPa)
#
#
# Indices 1 2 3 4 5 6 
#
# 1 0.025216 0.002414 -0.012337 0.000000 0.000000 0.000000
# 2 0.002414 0.020239 0.005566 0.000000 0.000000 0.000000
# 3 -0.012337 0.005566 0.030537 0.000000 0.000000 0.000000
# 4 0.000000 0.000000 0.000000 0.020958 0.000000 0.000000
# 5 0.000000 0.000000 0.000000 0.000000 0.056902 0.000000
# 6 0.000000 0.000000 0.000000 0.000000 0.000000 0.031720
#
#
# Mechanical properties :
#
#
# Convention : Reuss Voigt Hill
#
# Bulk Modulus (GPa) = 14.86387 15.95929 15.41158
# Shear Modulus (GPa) = 23.07213 29.81907 26.44560
#
# Velocity S-wave (km/s) = 3.37284 3.83442 3.61101
# Velocity P-wave (km/s) = 4.74310 5.24144 4.99848
#
# Compressibility (1/GPa) = 0.06727722
#
# Stress axis : x y z
#
# Youngs Moduli (GPa) = 39.65747 49.40913 32.74761
#
# Poissons Ratio (x) = -0.11925 0.40399
# Poissons Ratio (y) = -0.09571 -0.18227
# Poissons Ratio (z) = 0.48924 -0.27500
#
# Static dielectric constant tensor:
#      x y z
#    x 1.733460 0.000000 0.000000 
#    y 0.000000 1.703920 0.000000 
#    z 0.000000 0.000000 1.698910 
# 
# From -- ./inp_files/23114.got.cif
#   From: 2010.05.17/outbox.cif.g08.bks.cpg/sg55_12_cif.got.tgz:23114.got - 2010.06.03 13:27:54.
