data_PCOD9428522
_publ_section_title
;
Structure prediction by ZEFSAII (Michael W. Deem and Ramdas Pophale) SiO2 
 PCOD9428522
Probable space group: P B A M
;
_chemical_formula_sum "Si O2"
_cell_formula_units_Z 56
_cell_length_a 17.331390
_cell_length_b 10.506979
_cell_length_c 15.472385
_cell_angle_alpha 90.000000
_cell_angle_beta 90.000000
_cell_angle_gamma 90.000000
_cell_volume 2817.529830
_symmetry_space_group_name_H-M "P B A M"
_symmetry_group_IT_number 55
_symmetry_cell_setting 'orthorhombic'
loop_
_space_group_symop_operation_xyz
x,y,z
-x,-y,z
1/2+x,1/2-y,-z
1/2-x,1/2+y,-z
-x,-y,-z
x,y,-z
1/2-x,1/2+y,z
1/2+x,1/2-y,z
loop_
_atom_site_type_symbol
_atom_site_label
_atom_site_fract_x
_atom_site_fract_y
_atom_site_fract_z
Si Si1 0.190846 0.240227 0.594853
Si Si2 0.042532 0.363429 0.598937
Si Si3 0.968072 0.356259 0.227435
Si Si4 0.713508 0.842409 0.256573
Si Si5 0.046566 0.868411 0.100098
Si Si6 0.817121 0.079751 0.227197
Si Si7 0.408508 0.483463 0.401131
O O1 0.217517 0.273464 0.500000
O O2 0.263389 0.184186 0.644815
O O3 0.130332 0.123328 0.596256
O O4 0.134428 0.357721 0.621316
O O5 0.035014 0.313157 0.500000
O O6 0.001268 0.302417 0.681663
O O7 0.000000 0.500000 0.596186
O O8 0.875704 0.365326 0.237894
O O9 0.986194 0.252771 0.153383
O O10 0.000000 0.500000 0.212916
O O11 0.735664 0.704315 0.219714
O O12 0.766998 0.954209 0.224076
O O13 0.124291 0.905720 0.149414
O O14 0.056859 0.833738 0.000000
O O15 0.000000 0.000000 0.104542
O O16 0.864729 0.081031 0.319125
O O17 0.500000 0.500000 0.385637
O O18 0.398612 0.430329 0.500000
#
# Coordination Sequence:
#
# PCOD9428522 Si02
#       7
#     8   8   8   8   8   8   8
#     4   9  19  34  52  78 120 168 213 258 301 357
#     4   9  19  34  55  87 125 170 218 259 305 362
#     4  10  23  40  66  96 128 168 211 269 318 379
#     4  10  23  37  57  88 119 166 210 252 316 372
#     4  10  23  43  67  95 122 157 206 261 329 397
#     4  10  22  38  59  85 123 160 201 259 310 376
#     4   9  18  32  52  80 112 155 206 251 303 363
#
# _framework density 19.875565999999999
#
# number of rings (size 3 to 8) (size 9 to 14) (size 15 to 20)
#    0.000    2.429    0.000    0.429   12.000    1.429 
#    0.000    2.857    0.000    0.429    0.000    0.000 
#    0.000    0.000    0.000    0.000    0.000    0.000 
#
# Total GULP energy -311779.756096 kJ/mol
# GULP energy per Si atom -5567.495645 kJ/mol
# Density = 1.983033 g / cm^3
# Si number density = 19.875566 Si / 1000 Ang^3
#
#
#
# Elastic Constant Matrix: (Units=GPa)
#
#
# Indices 1 2 3 4 5 6 
#
# 1 37.5214 43.1078 30.8516 0.0000 0.0000 0.0000
# 2 43.1078 118.5183 55.7740 0.0000 0.0000 0.0000
# 3 30.8516 55.7740 134.7693 0.0000 0.0000 0.0000
# 4 0.0000 0.0000 0.0000 27.8228 0.0000 0.0000
# 5 0.0000 0.0000 0.0000 0.0000 -29.7916 0.0000
# 6 0.0000 0.0000 0.0000 0.0000 0.0000 34.2845
#
#
#
# Elastic Compliance Matrix: (Units=1/GPa)
#
#
# Indices 1 2 3 4 5 6 
#
# 1 0.048046 -0.015274 -0.004678 0.000000 0.000000 0.000000
# 2 -0.015274 0.015334 -0.002849 0.000000 0.000000 0.000000
# 3 -0.004678 -0.002849 0.009670 0.000000 0.000000 0.000000
# 4 0.000000 0.000000 0.000000 0.035942 0.000000 0.000000
# 5 0.000000 0.000000 0.000000 0.000000 -0.033566 0.000000
# 6 0.000000 0.000000 0.000000 0.000000 0.000000 0.029168
#
#
# Mechanical properties :
#
#
# Convention : Reuss Voigt Hill
#
# Bulk Modulus (GPa) = 36.43284 61.14174 48.78729
# Shear Modulus (GPa) = 31.37867 17.20150 24.29008
#
# Velocity S-wave (km/s) = 3.97767 2.94506 3.49966
# Velocity P-wave (km/s) = 6.28220 6.51103 6.39764
#
# Compressibility (1/GPa) = 0.02744777
#
# Stress axis : x y z
#
# Youngs Moduli (GPa) = 20.81351 65.21492 103.41173
#
# Poissons Ratio (x) = 0.99610 0.48371
# Poissons Ratio (y) = 0.31791 0.29466
# Poissons Ratio (z) = 0.09736 0.18582
#
# Static dielectric constant tensor:
#      x y z
#    x 1.810270 0.000000 0.000000 
#    y 0.000000 1.800240 0.000000 
#    z 0.000000 0.000000 1.743250 
# 
# From -- ./inp_files/18937.got.cif
#   From: 2010.05.17/outbox.cif.g08.bks.cpg/sg55_10_cif.got.tgz:18937.got - 2010.06.03 13:27:54.
