data_PCOD9428211
_publ_section_title
;
Structure prediction by ZEFSAII (Michael W. Deem and Ramdas Pophale) SiO2 
 PCOD9428211
Probable space group: P B A M
;
_chemical_formula_sum "Si O2"
_cell_formula_units_Z 48
_cell_length_a 9.247420
_cell_length_b 27.541636
_cell_length_c 9.051763
_cell_angle_alpha 90.000000
_cell_angle_beta 90.000000
_cell_angle_gamma 90.000000
_cell_volume 2305.385151
_symmetry_space_group_name_H-M "P B A M"
_symmetry_group_IT_number 55
_symmetry_cell_setting 'orthorhombic'
loop_
_space_group_symop_operation_xyz
x,y,z
-x,-y,z
1/2+x,1/2-y,-z
1/2-x,1/2+y,-z
-x,-y,-z
x,y,-z
1/2-x,1/2+y,z
1/2+x,1/2-y,z
loop_
_atom_site_type_symbol
_atom_site_label
_atom_site_fract_x
_atom_site_fract_y
_atom_site_fract_z
Si Si1 0.179250 0.956307 0.175547
Si Si2 0.378574 0.036554 0.767388
Si Si3 0.389061 0.889075 0.668536
Si Si4 0.367926 0.695261 0.677653
Si Si5 0.958588 0.288777 0.320233
Si Si6 0.606569 0.403449 0.164165
O O1 0.269261 0.908283 0.218248
O O2 0.011809 0.944661 0.200030
O O3 0.257962 0.996588 0.277709
O O4 0.197468 0.969286 0.000000
O O5 0.479562 0.071420 0.669665
O O6 0.268430 0.074890 0.839756
O O7 0.500000 0.000000 0.837985
O O8 0.333594 0.885651 0.500000
O O9 0.450519 0.836927 0.715805
O O10 0.368005 0.696602 0.500000
O O11 0.470574 0.738637 0.730556
O O12 0.205201 0.705361 0.731172
O O13 0.407802 0.641485 0.727531
O O14 0.955134 0.287601 0.500000
O O15 0.569173 0.386317 0.000000
#
# Coordination Sequence:
#
# PCOD9428211 Si02
#       6
#     8   8   8   8   8   8
#     4  10  23  39  58  86 121 160 203 242 291 360
#     4  10  21  38  63  86 115 157 203 245 293 355
#     4  10  21  39  62  90 121 154 198 252 299 348
#     4  10  21  39  63  88 117 155 199 243 294 358
#     4   9  19  37  61  88 116 151 195 241 292 356
#     4  11  23  40  60  88 124 158 198 252 300 348
#
# _framework density 20.820815
#
# number of rings (size 3 to 8) (size 9 to 14) (size 15 to 20)
#    0.000    2.000    1.667    1.000    2.333   11.000 
#    0.000    1.667    0.000    6.000    0.000    0.000 
#    0.000    0.000    0.000    0.000    0.000    0.000 
#
# Total GULP energy -267203.866615 kJ/mol
# GULP energy per Si atom -5566.747221 kJ/mol
# Density = 2.077343 g / cm^3
# Si number density = 20.820815 Si / 1000 Ang^3
#
#
#
# Elastic Constant Matrix: (Units=GPa)
#
#
# Indices 1 2 3 4 5 6 
#
# 1 86.5562 22.5753 13.5713 0.0000 0.0000 0.0000
# 2 22.5753 115.8724 15.8077 0.0000 0.0000 0.0000
# 3 13.5713 15.8077 14.7902 0.0000 0.0000 0.0000
# 4 0.0000 0.0000 0.0000 8.4174 0.0000 0.0000
# 5 0.0000 0.0000 0.0000 0.0000 32.1753 0.0000
# 6 0.0000 0.0000 0.0000 0.0000 0.0000 38.3268
#
#
#
# Elastic Compliance Matrix: (Units=1/GPa)
#
#
# Indices 1 2 3 4 5 6 
#
# 1 0.013616 -0.001110 -0.011307 0.000000 0.000000 0.000000
# 2 -0.001110 0.010194 -0.009876 0.000000 0.000000 0.000000
# 3 -0.011307 -0.009876 0.088543 0.000000 0.000000 0.000000
# 4 0.000000 0.000000 0.000000 0.118802 0.000000 0.000000
# 5 0.000000 0.000000 0.000000 0.000000 0.031080 0.000000
# 6 0.000000 0.000000 0.000000 0.000000 0.000000 0.026091
#
#
# Mechanical properties :
#
#
# Convention : Reuss Voigt Hill
#
# Bulk Modulus (GPa) = 14.75678 35.68081 25.21879
# Shear Modulus (GPa) = 14.06469 26.80155 20.43312
#
# Velocity S-wave (km/s) = 2.60188 3.59172 3.13610
# Velocity P-wave (km/s) = 4.01613 5.86301 5.02514
#
# Compressibility (1/GPa) = 0.06776545
#
# Stress axis : x y z
#
# Youngs Moduli (GPa) = 73.44541 98.09843 11.29397
#
# Poissons Ratio (x) = 0.10891 0.12770
# Poissons Ratio (y) = 0.08154 0.11154
# Poissons Ratio (z) = 0.83043 0.96886
#
# Static dielectric constant tensor:
#      x y z
#    x 1.761510 0.000000 0.000000 
#    y 0.000000 1.764280 0.000000 
#    z 0.000000 0.000000 1.726500 
# 
# From -- ./inp_files/12306.got.cif
#   From: 2010.05.17/outbox.cif.g08.bks.cpg/sg55_7_cif.got.tgz:12306.got - 2010.06.03 13:27:54.
