data_PCOD9428509
_publ_section_title
;
Structure prediction by ZEFSAII (Michael W. Deem and Ramdas Pophale) SiO2 
 PCOD9428509
Probable space group: P B A M
;
_chemical_formula_sum "Si O2"
_cell_formula_units_Z 52
_cell_length_a 5.163512
_cell_length_b 16.608284
_cell_length_c 29.673582
_cell_angle_alpha 90.000000
_cell_angle_beta 90.000000
_cell_angle_gamma 90.000000
_cell_volume 2544.719560
_symmetry_space_group_name_H-M "P B A M"
_symmetry_group_IT_number 55
_symmetry_cell_setting 'orthorhombic'
loop_
_space_group_symop_operation_xyz
x,y,z
-x,-y,z
1/2+x,1/2-y,-z
1/2-x,1/2+y,-z
-x,-y,-z
x,y,-z
1/2-x,1/2+y,z
1/2+x,1/2-y,z
loop_
_atom_site_type_symbol
_atom_site_label
_atom_site_fract_x
_atom_site_fract_y
_atom_site_fract_z
Si Si1 0.416462 0.193380 0.757054
Si Si2 0.539977 0.806189 0.048887
Si Si3 0.000000 0.500000 0.615295
Si Si4 0.650257 0.585837 0.551773
Si Si5 0.839769 0.303750 0.857264
Si Si6 0.650522 0.427308 0.307574
Si Si7 0.480981 0.698631 0.372611
O O1 0.690083 0.238745 0.751883
O O2 0.391259 0.159926 0.808203
O O3 0.350415 0.121565 0.723001
O O4 0.257757 0.764718 0.049642
O O5 0.594273 0.850137 0.096359
O O6 0.569164 0.847635 0.000000
O O7 0.097979 0.430915 0.581897
O O8 0.214883 0.532800 0.648972
O O9 0.500000 0.500000 0.552549
O O10 0.702466 0.606082 0.500000
O O11 0.505073 0.654270 0.579501
O O12 0.546032 0.270868 0.858322
O O13 0.500000 0.500000 0.283616
O O14 0.465773 0.362357 0.331503
O O15 0.693855 0.767400 0.368472
#
# Coordination Sequence:
#
# PCOD9428509 Si02
#       7
#     8   8   4   8   8   8   8
#     4  10  22  38  57  84 114 148 189 232 290 340
#     4   8  12  18  32  56  87 128 173 213 261 321
#     4  12  21  44  66  90 118 152 197 236 272 332
#     4  11  24  44  68  92 119 157 191 223 273 337
#     4   8  14  26  42  63  98 137 173 220 273 331
#     4  12  25  40  63  87 115 153 195 235 281 338
#     4  12  25  43  65  92 124 149 184 231 280 329
#
# _framework density 20.434470000000001
#
# number of rings (size 3 to 8) (size 9 to 14) (size 15 to 20)
#    0.000    1.692    3.077    2.077    2.154    0.615 
#    0.000    0.000    0.000    0.000    0.000    0.000 
#    0.000    0.615    0.000    0.692    0.000   12.308 
#
# Total GULP energy -290084.409120 kJ/mol
# GULP energy per Si atom -5578.546329 kJ/mol
# Density = 2.038796 g / cm^3
# Si number density = 20.434470 Si / 1000 Ang^3
#
#
#
# Elastic Constant Matrix: (Units=GPa)
#
#
# Indices 1 2 3 4 5 6 
#
# 1 75.4094 1.5284 1.9284 0.0000 0.0000 0.0000
# 2 1.5284 35.6157 18.2232 0.0000 0.0000 0.0000
# 3 1.9284 18.2232 138.1162 0.0000 0.0000 0.0000
# 4 0.0000 0.0000 0.0000 4.5656 0.0000 0.0000
# 5 0.0000 0.0000 0.0000 0.0000 15.0790 0.0000
# 6 0.0000 0.0000 0.0000 0.0000 0.0000 9.5741
#
#
#
# Elastic Compliance Matrix: (Units=1/GPa)
#
#
# Indices 1 2 3 4 5 6 
#
# 1 0.013274 -0.000509 -0.000118 0.000000 0.000000 0.000000
# 2 -0.000509 0.030130 -0.003968 0.000000 0.000000 0.000000
# 3 -0.000118 -0.003968 0.007766 0.000000 0.000000 0.000000
# 4 0.000000 0.000000 0.000000 0.219027 0.000000 0.000000
# 5 0.000000 0.000000 0.000000 0.000000 0.066317 0.000000
# 6 0.000000 0.000000 0.000000 0.000000 0.000000 0.104448
#
#
# Mechanical properties :
#
#
# Convention : Reuss Voigt Hill
#
# Bulk Modulus (GPa) = 23.82182 32.50015 28.16099
# Shear Modulus (GPa) = 10.77247 21.00784 15.89016
#
# Velocity S-wave (km/s) = 2.29851 3.20981 2.79160
# Velocity P-wave (km/s) = 4.32749 5.44760 4.91953
#
# Compressibility (1/GPa) = 0.04197832
#
# Stress axis : x y z
#
# Youngs Moduli (GPa) = 75.33365 33.18983 128.77465
#
# Poissons Ratio (x) = 0.01690 0.01522
# Poissons Ratio (y) = 0.03836 0.51101
# Poissons Ratio (z) = 0.00890 0.13170
#
# Static dielectric constant tensor:
#      x y z
#    x 1.778030 0.000000 0.000000 
#    y 0.000000 1.744900 0.000000 
#    z 0.000000 0.000000 1.800120 
# 
# From -- ./inp_files/24055.got.cif
#   From: 2010.05.17/outbox.cif.g08.bks.cpg/sg55_13_cif.got.tgz:24055.got - 2010.06.03 13:27:54.
