data_PCOD9428936
_publ_section_title
;
Structure prediction by ZEFSAII (Michael W. Deem and Ramdas Pophale) SiO2 
 PCOD9428936
Probable space group: P B A M
;
_chemical_formula_sum "Si O2"
_cell_formula_units_Z 34
_cell_length_a 9.041162
_cell_length_b 9.740028
_cell_length_c 19.353570
_cell_angle_alpha 90.000000
_cell_angle_beta 90.000000
_cell_angle_gamma 90.000000
_cell_volume 1704.298038
_symmetry_space_group_name_H-M "P B A M"
_symmetry_group_IT_number 55
_symmetry_cell_setting 'orthorhombic'
loop_
_space_group_symop_operation_xyz
x,y,z
-x,-y,z
1/2+x,1/2-y,-z
1/2-x,1/2+y,-z
-x,-y,-z
x,y,-z
1/2-x,1/2+y,z
1/2+x,1/2-y,z
loop_
_atom_site_type_symbol
_atom_site_label
_atom_site_fract_x
_atom_site_fract_y
_atom_site_fract_z
Si Si1 0.077197 0.145592 0.706491
Si Si2 0.085899 0.207749 0.136791
Si Si3 0.100595 0.618213 0.357683
Si Si4 0.000000 0.500000 0.500000
Si Si5 0.212602 0.932654 0.917796
O O1 0.085746 0.218580 0.780689
O O2 0.237900 0.123788 0.674226
O O3 0.979858 0.238115 0.655520
O O4 0.000000 0.000000 0.718261
O O5 0.142962 0.347372 0.102951
O O6 0.927160 0.156413 0.109586
O O7 0.195606 0.082310 0.116050
O O8 0.000000 0.500000 0.322597
O O9 0.096139 0.576542 0.438043
O O10 0.201724 0.947254 0.000000
#
# Coordination Sequence:
#
# PCOD9428936 Si02
#       5
#     8   8   8   2   8
#     4  12  23  43  68 102 128 178 220 278 331 387
#     4  11  24  40  62  93 127 165 218 269 328 382
#     4  10  24  44  70  94 139 168 224 264 324 401
#     4   8  24  48  64 100 136 176 208 266 332 380
#     4  11  22  41  62  88 127 169 213 268 326 395
#
# _framework density 19.949562
#
# number of rings (size 3 to 8) (size 9 to 14) (size 15 to 20)
#    0.706    0.471    2.353    5.647    3.294    1.882 
#    0.000    3.529    0.000    0.000    0.000    0.000 
#    0.000    0.000    0.000    0.000    0.000    0.000 
#
# Total GULP energy -189451.743784 kJ/mol
# GULP energy per Si atom -5572.110111 kJ/mol
# Density = 1.990416 g / cm^3
# Si number density = 19.949562 Si / 1000 Ang^3
#
#
#
# Elastic Constant Matrix: (Units=GPa)
#
#
# Indices 1 2 3 4 5 6 
#
# 1 66.7218 3.6142 25.0817 0.0000 0.0000 0.0000
# 2 3.6142 33.9863 -10.9167 0.0000 0.0000 0.0000
# 3 25.0817 -10.9167 95.9342 0.0000 0.0000 0.0000
# 4 0.0000 0.0000 0.0000 1.4654 0.0000 0.0000
# 5 0.0000 0.0000 0.0000 0.0000 -56.9347 0.0000
# 6 0.0000 0.0000 0.0000 0.0000 0.0000 21.4277
#
#
#
# Elastic Compliance Matrix: (Units=1/GPa)
#
#
# Indices 1 2 3 4 5 6 
#
# 1 0.016982 -0.003355 -0.004822 0.000000 0.000000 0.000000
# 2 -0.003355 0.031203 0.004428 0.000000 0.000000 0.000000
# 3 -0.004822 0.004428 0.012188 0.000000 0.000000 0.000000
# 4 0.000000 0.000000 0.000000 0.682409 0.000000 0.000000
# 5 0.000000 0.000000 0.000000 0.000000 -0.017564 0.000000
# 6 0.000000 0.000000 0.000000 0.000000 0.000000 0.046669
#
#
# Mechanical properties :
#
#
# Convention : Reuss Voigt Hill
#
# Bulk Modulus (GPa) = 18.91233 25.80010 22.35621
# Shear Modulus (GPa) = 6.27346 5.11589 5.69468
#
# Velocity S-wave (km/s) = 1.77524 1.60312 1.69137
# Velocity P-wave (km/s) = 3.70171 4.04813 3.87879
#
# Compressibility (1/GPa) = 0.05287557
#
# Stress axis : x y z
#
# Youngs Moduli (GPa) = 58.88645 32.04867 82.04626
#
# Poissons Ratio (x) = 0.10751 0.39559
# Poissons Ratio (y) = 0.19754 -0.36328
# Poissons Ratio (z) = 0.28393 -0.14190
#
# Static dielectric constant tensor:
#      x y z
#    x 1.705950 0.000000 0.000000 
#    y 0.000000 1.736200 0.000000 
#    z 0.000000 0.000000 1.654330 
# 
# From -- ./inp_files/22509.got.cif
#   From: 2010.05.17/outbox.cif.g08.bks.cpg/sg55_12_cif.got.tgz:22509.got - 2010.06.03 13:27:54.
