data_PCOD9428867
_publ_section_title
;
Structure prediction by ZEFSAII (Michael W. Deem and Ramdas Pophale) SiO2 
 PCOD9428867
Probable space group: P B A M
;
_chemical_formula_sum "Si O2"
_cell_formula_units_Z 56
_cell_length_a 15.317979
_cell_length_b 9.489348
_cell_length_c 20.082828
_cell_angle_alpha 90.000000
_cell_angle_beta 90.000000
_cell_angle_gamma 90.000000
_cell_volume 2919.192350
_symmetry_space_group_name_H-M "P B A M"
_symmetry_group_IT_number 55
_symmetry_cell_setting 'orthorhombic'
loop_
_space_group_symop_operation_xyz
x,y,z
-x,-y,z
1/2+x,1/2-y,-z
1/2-x,1/2+y,-z
-x,-y,-z
x,y,-z
1/2-x,1/2+y,z
1/2+x,1/2-y,z
loop_
_atom_site_type_symbol
_atom_site_label
_atom_site_fract_x
_atom_site_fract_y
_atom_site_fract_z
Si Si1 0.915452 0.587267 0.579429
Si Si2 0.387378 0.651662 0.000000
Si Si3 0.404790 0.319114 0.853844
Si Si4 0.763336 0.299433 0.244933
Si Si5 0.746789 0.547007 0.663517
Si Si6 0.908948 0.919117 0.577845
Si Si7 0.890506 0.838146 0.146599
Si Si8 0.099221 0.828197 0.000000
O O1 0.906958 0.568642 0.500000
O O2 0.829111 0.534690 0.615490
O O3 0.923515 0.754191 0.592481
O O4 0.000000 0.500000 0.601635
O O5 0.361149 0.709564 0.072133
O O6 0.493439 0.657640 0.000000
O O7 0.363561 0.486625 0.000000
O O8 0.345003 0.245765 0.799536
O O9 0.390819 0.489554 0.852376
O O10 0.508355 0.295998 0.843177
O O11 0.379444 0.265159 0.928122
O O12 0.764028 0.206222 0.311722
O O13 0.764493 0.459143 0.269642
O O14 0.675321 0.281695 0.201822
O O15 0.662337 0.487067 0.626138
O O16 0.881290 0.931341 0.500000
O O17 0.000000 0.000000 0.585218
#
# Coordination Sequence:
#
# PCOD9428867 Si02
#       8
#     8   4   8   8   8   8   8   4
#     4  10  23  43  67  94 121 153 197 247 296 348
#     4   7  12  27  54  81 106 143 192 249 296 337
#     4   9  18  35  58  81 112 153 196 248 295 348
#     4  12  24  37  57  86 120 160 201 236 289 358
#     4  12  25  42  58  87 125 162 197 239 293 357
#     4  10  23  43  68  94 118 153 200 247 296 349
#     4   9  18  35  57  82 113 151 199 246 293 349
#     4   7  12  27  54  83 104 139 198 247 295 342
#
# _framework density 19.183388000000001
#
# number of rings (size 3 to 8) (size 9 to 14) (size 15 to 20)
#    0.000    2.143    2.857    2.143    2.000    2.857 
#    0.000    0.000    0.000    0.000    0.000    3.000 
#    0.000    0.000    0.000    0.000    0.000    0.000 
#
# Total GULP energy -312369.827296 kJ/mol
# GULP energy per Si atom -5578.032630 kJ/mol
# Density = 1.913973 g / cm^3
# Si number density = 19.183388 Si / 1000 Ang^3
#
#
#
# Elastic Constant Matrix: (Units=GPa)
#
#
# Indices 1 2 3 4 5 6 
#
# 1 88.1288 23.8526 48.3139 0.0000 0.0000 0.0000
# 2 23.8526 23.1994 22.4111 0.0000 0.0000 0.0000
# 3 48.3139 22.4111 58.7816 0.0000 0.0000 0.0000
# 4 0.0000 0.0000 0.0000 15.6373 0.0000 0.0000
# 5 0.0000 0.0000 0.0000 0.0000 -41.8493 0.0000
# 6 0.0000 0.0000 0.0000 0.0000 0.0000 24.0351
#
#
#
# Elastic Compliance Matrix: (Units=1/GPa)
#
#
# Indices 1 2 3 4 5 6 
#
# 1 0.021550 -0.007988 -0.014666 0.000000 0.000000 0.000000
# 2 -0.007988 0.071198 -0.020579 0.000000 0.000000 0.000000
# 3 -0.014666 -0.020579 0.036913 0.000000 0.000000 0.000000
# 4 0.000000 0.000000 0.000000 0.063950 0.000000 0.000000
# 5 0.000000 0.000000 0.000000 0.000000 -0.023895 0.000000
# 6 0.000000 0.000000 0.000000 0.000000 0.000000 0.041606
#
#
# Mechanical properties :
#
#
# Convention : Reuss Voigt Hill
#
# Bulk Modulus (GPa) = 23.15222 39.91834 31.53528
# Shear Modulus (GPa) = 16.01611 4.60010 10.30811
#
# Velocity S-wave (km/s) = 2.89259 1.55022 2.32059
# Velocity P-wave (km/s) = 4.82195 4.90492 4.86361
#
# Compressibility (1/GPa) = 0.04319240
#
# Stress axis : x y z
#
# Youngs Moduli (GPa) = 46.40468 14.04539 27.09083
#
# Poissons Ratio (x) = 0.11220 0.39733
# Poissons Ratio (y) = 0.37069 0.55751
# Poissons Ratio (z) = 0.68059 0.28904
#
# Static dielectric constant tensor:
#      x y z
#    x 1.632830 0.000000 0.000000 
#    y 0.000000 1.643160 0.000000 
#    z 0.000000 0.000000 1.692190 
# 
# From -- ./inp_files/23001.got.cif
#   From: 2010.05.17/outbox.cif.g08.bks.cpg/sg55_12_cif.got.tgz:23001.got - 2010.06.03 13:27:54.
