data_PCOD9428126
_publ_section_title
;
Structure prediction by ZEFSAII (Michael W. Deem and Ramdas Pophale) SiO2 
 PCOD9428126
Probable space group: P B A M
;
_chemical_formula_sum "Si O2"
_cell_formula_units_Z 64
_cell_length_a 7.910354
_cell_length_b 17.920838
_cell_length_c 21.002080
_cell_angle_alpha 90.000000
_cell_angle_beta 90.000000
_cell_angle_gamma 90.000000
_cell_volume 2977.258485
_symmetry_space_group_name_H-M "P B A M"
_symmetry_group_IT_number 55
_symmetry_cell_setting 'orthorhombic'
loop_
_space_group_symop_operation_xyz
x,y,z
-x,-y,z
1/2+x,1/2-y,-z
1/2-x,1/2+y,-z
-x,-y,-z
x,y,-z
1/2-x,1/2+y,z
1/2+x,1/2-y,z
loop_
_atom_site_type_symbol
_atom_site_label
_atom_site_fract_x
_atom_site_fract_y
_atom_site_fract_z
Si Si1 0.554206 0.423881 0.302192
Si Si2 0.535144 0.140121 0.791340
Si Si3 0.556640 0.638943 0.428598
Si Si4 0.554530 0.922715 0.335606
Si Si5 0.828775 0.804228 0.067826
Si Si6 0.564912 0.201286 0.571375
Si Si7 0.558827 0.138088 0.069072
Si Si8 0.142359 0.192530 0.794201
O O1 0.500000 0.500000 0.268844
O O2 0.458945 0.415433 0.369235
O O3 0.750801 0.429131 0.318400
O O4 0.534758 0.352197 0.257387
O O5 0.553374 0.089054 0.729300
O O6 0.579683 0.104214 0.860143
O O7 0.336973 0.165324 0.791121
O O8 0.632028 0.218816 0.784256
O O9 0.517618 0.610201 0.500000
O O10 0.744737 0.671869 0.429506
O O11 0.440160 0.711006 0.414228
O O12 0.529994 0.850131 0.378617
O O13 0.500000 0.000000 0.367994
O O14 0.636986 0.833990 0.068539
O O15 0.831850 0.714200 0.068921
O O16 0.916661 0.825796 0.133767
O O17 0.907004 0.827329 0.000000
O O18 0.491914 0.193159 0.500000
O O19 0.588355 0.099641 0.000000
#
# Coordination Sequence:
#
# PCOD9428126 Si02
#       8
#     8   8   8   8   8   8   8   8
#     4  11  23  37  53  74 103 138 175 214 256 303
#     4   9  18  31  49  74 100 129 166 207 252 301
#     4  10  21  38  60  84 108 134 166 205 249 299
#     4  11  23  37  53  74 103 138 175 214 256 303
#     4   8  13  23  41  66  95 124 156 198 247 296
#     4  10  21  38  60  84 108 134 166 205 249 299
#     4   8  13  23  41  66  95 124 156 198 247 296
#     4   9  18  31  49  74 100 129 166 207 252 301
#
# _framework density 21.496286999999999
#
# number of rings (size 3 to 8) (size 9 to 14) (size 15 to 20)
#    0.000    2.500    0.000    2.250    0.000    6.000 
#    0.000    0.000    0.000    0.750    0.000    0.000 
#    0.000    0.000    0.000    0.000    0.000    0.250 
#
# Total GULP energy -356951.342833 kJ/mol
# GULP energy per Si atom -5577.364732 kJ/mol
# Density = 2.144736 g / cm^3
# Si number density = 21.496287 Si / 1000 Ang^3
#
#
#
# Elastic Constant Matrix: (Units=GPa)
#
#
# Indices 1 2 3 4 5 6 
#
# 1 25.4046 1.5783 8.3056 0.0000 0.0000 0.0000
# 2 1.5783 28.5169 16.3426 0.0000 0.0000 0.0000
# 3 8.3056 16.3426 75.0593 0.0000 0.0000 0.0000
# 4 0.0000 0.0000 0.0000 -2.1961 0.0000 0.0000
# 5 0.0000 0.0000 0.0000 0.0000 5.7482 0.0000
# 6 0.0000 0.0000 0.0000 0.0000 0.0000 20.1500
#
#
#
# Elastic Compliance Matrix: (Units=1/GPa)
#
#
# Indices 1 2 3 4 5 6 
#
# 1 0.040844 0.000377 -0.004602 0.000000 0.000000 0.000000
# 2 0.000377 0.040070 -0.008766 0.000000 0.000000 0.000000
# 3 -0.004602 -0.008766 0.015741 0.000000 0.000000 0.000000
# 4 0.000000 0.000000 0.000000 -0.455362 0.000000 0.000000
# 5 0.000000 0.000000 0.000000 0.000000 0.173968 0.000000
# 6 0.000000 0.000000 0.000000 0.000000 0.000000 0.049628
#
#
# Mechanical properties :
#
#
# Convention : Reuss Voigt Hill
#
# Bulk Modulus (GPa) = 14.14981 20.15930 17.15455
# Shear Modulus (GPa) = -58.42947 11.59072 -23.41938
#
# Velocity S-wave (km/s) = -5.21921 2.32458 -3.30428
# Velocity P-wave (km/s) = 5.45193 4.07471 2.56127
#
# Compressibility (1/GPa) = 0.07067233
#
# Stress axis : x y z
#
# Youngs Moduli (GPa) = 24.48341 24.95644 63.53000
#
# Poissons Ratio (x) = -0.00940 0.29234
# Poissons Ratio (y) = -0.00922 0.55691
# Poissons Ratio (z) = 0.11266 0.21877
#
# Static dielectric constant tensor:
#      x y z
#    x 1.796140 0.000000 0.000000 
#    y 0.000000 1.765840 0.000000 
#    z 0.000000 0.000000 1.863720 
# 
# From -- ./inp_files/22713.got.cif
#   From: 2010.05.17/outbox.cif.g08.bks.cpg/sg55_12_cif.got.tgz:22713.got - 2010.06.03 13:27:54.
