data_PCOD9428838
_publ_section_title
;
Structure prediction by ZEFSAII (Michael W. Deem and Ramdas Pophale) SiO2 
 PCOD9428838
Probable space group: P B A M
;
_chemical_formula_sum "Si O2"
_cell_formula_units_Z 58
_cell_length_a 28.096928
_cell_length_b 11.492450
_cell_length_c 8.310428
_cell_angle_alpha 90.000000
_cell_angle_beta 90.000000
_cell_angle_gamma 90.000000
_cell_volume 2683.458311
_symmetry_space_group_name_H-M "P B A M"
_symmetry_group_IT_number 55
_symmetry_cell_setting 'orthorhombic'
loop_
_space_group_symop_operation_xyz
x,y,z
-x,-y,z
1/2+x,1/2-y,-z
1/2-x,1/2+y,-z
-x,-y,-z
x,y,-z
1/2-x,1/2+y,z
1/2+x,1/2-y,z
loop_
_atom_site_type_symbol
_atom_site_label
_atom_site_fract_x
_atom_site_fract_y
_atom_site_fract_z
Si Si1 0.873600 0.977006 0.678706
Si Si2 0.000000 0.000000 0.000000
Si Si3 0.606687 0.220817 0.308645
Si Si4 0.185060 0.443773 0.806603
Si Si5 0.510739 0.132095 0.189675
Si Si6 0.143473 0.686642 0.311825
Si Si7 0.055470 0.825966 0.244227
Si Si8 0.291316 0.381625 0.186633
O O1 0.853326 0.957503 0.500000
O O2 0.895715 0.856515 0.735556
O O3 0.913221 0.076771 0.666166
O O4 0.831894 0.020913 0.793070
O O5 0.975846 0.087858 0.134659
O O6 0.599240 0.208524 0.500000
O O7 0.566227 0.153569 0.213071
O O8 0.656959 0.167313 0.259765
O O9 0.159907 0.558514 0.736817
O O10 0.240415 0.430572 0.761195
O O11 0.182127 0.448354 0.000000
O O12 0.482889 0.228540 0.294221
O O13 0.500000 0.000000 0.235083
O O14 0.497728 0.148926 0.000000
O O15 0.128636 0.688875 0.500000
O O16 0.100247 0.738531 0.203383
O O17 0.188043 0.773329 0.286367
O O18 0.287647 0.346067 0.000000
#
# Coordination Sequence:
#
# PCOD9428838 Si02
#       8
#     8   2   8   8   8   8   8   8
#     4  10  24  43  66  98 138 181 225 283 349 409
#     4  12  24  36  64 104 128 180 222 282 348 392
#     4  11  25  43  64  95 133 179 224 278 345 407
#     4  11  25  44  68 100 137 178 230 286 345 412
#     4  11  24  42  65  94 131 176 227 283 344 402
#     4  11  25  44  70  99 136 183 225 281 348 411
#     4  11  23  41  67  99 134 173 233 279 341 410
#     4  10  23  41  67 101 132 174 224 280 339 407
#
# _framework density 21.613902
#
# number of rings (size 3 to 8) (size 9 to 14) (size 15 to 20)
#    0.000    1.241    0.690    4.552    6.759    5.793 
#    0.000    2.759    0.000    0.000    0.000    0.000 
#    0.000    0.000    0.000    0.000    0.000    0.000 
#
# Total GULP energy -322994.141772 kJ/mol
# GULP energy per Si atom -5568.864513 kJ/mol
# Density = 2.156471 g / cm^3
# Si number density = 21.613902 Si / 1000 Ang^3
#
#
#
# Elastic Constant Matrix: (Units=GPa)
#
#
# Indices 1 2 3 4 5 6 
#
# 1 97.5022 31.0358 30.1292 0.0000 0.0000 0.0000
# 2 31.0358 97.4819 31.9685 0.0000 0.0000 0.0000
# 3 30.1292 31.9685 40.8358 0.0000 0.0000 0.0000
# 4 0.0000 0.0000 0.0000 15.2625 0.0000 0.0000
# 5 0.0000 0.0000 0.0000 0.0000********** 0.0000
# 6 0.0000 0.0000 0.0000 0.0000 0.0000 33.9988
#
#
#
# Elastic Compliance Matrix: (Units=1/GPa)
#
#
# Indices 1 2 3 4 5 6 
#
# 1 0.013422 -0.001380 -0.008822 0.000000 0.000000 0.000000
# 2 -0.001380 0.013944 -0.009898 0.000000 0.000000 0.000000
# 3 -0.008822 -0.009898 0.038746 0.000000 0.000000 0.000000
# 4 0.000000 0.000000 0.000000 0.065520 0.000000 0.000000
# 5 0.000000 0.000000 0.000000 0.000000 -0.000002 0.000000
# 6 0.000000 0.000000 0.000000 0.000000 0.000000 0.029413
#
#
# Mechanical properties :
#
#
# Convention : Reuss Voigt Hill
#
# Bulk Modulus (GPa) = 38.59320 46.89853 42.74587
# Shear Modulus (GPa) = 23.82319 -105229.60601 -52602.89141
#
# Velocity S-wave (km/s) = 3.32357 -220.88859 -156.17414
# Velocity P-wave (km/s) = 5.71162 255.01754 180.27940
#
# Compressibility (1/GPa) = 0.02591130
#
# Stress axis : x y z
#
# Youngs Moduli (GPa) = 74.50657 71.71799 25.80903
#
# Poissons Ratio (x) = 0.09896 0.22770
# Poissons Ratio (y) = 0.10281 0.25545
# Poissons Ratio (z) = 0.65733 0.70984
#
# Static dielectric constant tensor:
#      x y z
#    x 1.778310 0.000000 0.000000 
#    y 0.000000 1.773250 0.000000 
#    z 0.000000 0.000000 1.785510 
# 
# From -- ./inp_files/10189.got.cif
#   From: 2010.05.17/outbox.cif.g08.bks.cpg/sg55_6_cif.got.tgz:10189.got - 2010.06.03 13:27:54.
