data_PCOD9428945
_publ_section_title
;
Structure prediction by ZEFSAII (Michael W. Deem and Ramdas Pophale) SiO2 
 PCOD9428945
Probable space group: P B A M
;
_chemical_formula_sum "Si O2"
_cell_formula_units_Z 32
_cell_length_a 5.033678
_cell_length_b 17.781145
_cell_length_c 15.693170
_cell_angle_alpha 90.000000
_cell_angle_beta 90.000000
_cell_angle_gamma 90.000000
_cell_volume 1404.610251
_symmetry_space_group_name_H-M "P B A M"
_symmetry_group_IT_number 55
_symmetry_cell_setting 'orthorhombic'
loop_
_space_group_symop_operation_xyz
x,y,z
-x,-y,z
1/2+x,1/2-y,-z
1/2-x,1/2+y,-z
-x,-y,-z
x,y,-z
1/2-x,1/2+y,z
1/2+x,1/2-y,z
loop_
_atom_site_type_symbol
_atom_site_label
_atom_site_fract_x
_atom_site_fract_y
_atom_site_fract_z
Si Si1 0.244265 0.697482 0.097669
Si Si2 0.146961 0.305319 0.689360
Si Si3 0.858779 0.419182 0.593637
Si Si4 0.017624 0.086722 0.765968
O O1 0.457660 0.764793 0.108558
O O2 0.321187 0.633981 0.164608
O O3 0.267753 0.670422 0.000000
O O4 0.394734 0.249143 0.697281
O O5 0.233318 0.372850 0.752770
O O6 0.075509 0.352999 0.605100
O O7 0.732635 0.414266 0.500000
O O8 0.659151 0.410594 0.672955
O O9 0.000000 0.500000 0.600745
O O10 0.000000 0.000000 0.790452
#
# Coordination Sequence:
#
# PCOD9428945 Si02
#       4
#     8   8   8   8
#     4  10  24  46  73 106 144 186 231 289 364 434
#     4  12  25  44  67 100 136 182 238 297 348 412
#     4  11  26  47  70 101 146 196 242 294 361 428
#     4  12  25  43  75 106 144 191 242 293 359 426
#
# _framework density 22.782121
#
# number of rings (size 3 to 8) (size 9 to 14) (size 15 to 20)
#    0.000    0.750    5.000    1.500    3.500    3.000 
#    0.000    0.000    0.000    5.250    0.000    0.000 
#    0.000    0.000    0.000    0.000    0.000    0.000 
#
# Total GULP energy -178958.906028 kJ/mol
# GULP energy per Si atom -5592.465813 kJ/mol
# Density = 2.273027 g / cm^3
# Si number density = 22.782121 Si / 1000 Ang^3
#
#
#
# Elastic Constant Matrix: (Units=GPa)
#
#
# Indices 1 2 3 4 5 6 
#
# 1 116.2282 31.9288 27.9829 0.0000 0.0000 0.0000
# 2 31.9288 159.3526 54.3088 0.0000 0.0000 0.0000
# 3 27.9829 54.3088 167.6348 0.0000 0.0000 0.0000
# 4 0.0000 0.0000 0.0000 20.1709 0.0000 0.0000
# 5 0.0000 0.0000 0.0000 0.0000 31.4711 0.0000
# 6 0.0000 0.0000 0.0000 0.0000 0.0000 30.4390
#
#
#
# Elastic Compliance Matrix: (Units=1/GPa)
#
#
# Indices 1 2 3 4 5 6 
#
# 1 0.009270 -0.001495 -0.001063 0.000000 0.000000 0.000000
# 2 -0.001495 0.007295 -0.002114 0.000000 0.000000 0.000000
# 3 -0.001063 -0.002114 0.006828 0.000000 0.000000 0.000000
# 4 0.000000 0.000000 0.000000 0.049576 0.000000 0.000000
# 5 0.000000 0.000000 0.000000 0.000000 0.031775 0.000000
# 6 0.000000 0.000000 0.000000 0.000000 0.000000 0.032853
#
#
# Mechanical properties :
#
#
# Convention : Reuss Voigt Hill
#
# Bulk Modulus (GPa) = 71.17871 74.62852 72.90362
# Shear Modulus (GPa) = 32.97609 38.34921 35.66265
#
# Velocity S-wave (km/s) = 3.80867 4.10726 3.96078
# Velocity P-wave (km/s) = 7.11705 7.43783 7.27921
#
# Compressibility (1/GPa) = 0.01404914
#
# Stress axis : x y z
#
# Youngs Moduli (GPa) = 107.86968 137.07238 146.46309
#
# Poissons Ratio (x) = 0.20495 0.15571
# Poissons Ratio (y) = 0.16128 0.30961
# Poissons Ratio (z) = 0.11468 0.28976
#
# Static dielectric constant tensor:
#      x y z
#    x 1.916970 0.000000 0.000000 
#    y 0.000000 1.829890 0.000000 
#    z 0.000000 0.000000 1.893850 
# 
# From -- ./inp_files/16408.got.cif
#   From: 2010.05.17/outbox.cif.g08.bks.cpg/sg55_9_cif.got.tgz:16408.got - 2010.06.03 13:27:54.
