data_PCOD9428533
_publ_section_title
;
Structure prediction by ZEFSAII (Michael W. Deem and Ramdas Pophale) SiO2 
 PCOD9428533
Probable space group: P B A M
;
_chemical_formula_sum "Si O2"
_cell_formula_units_Z 48
_cell_length_a 14.249886
_cell_length_b 20.587871
_cell_length_c 8.871716
_cell_angle_alpha 90.000000
_cell_angle_beta 90.000000
_cell_angle_gamma 90.000000
_cell_volume 2602.738038
_symmetry_space_group_name_H-M "P B A M"
_symmetry_group_IT_number 55
_symmetry_cell_setting 'orthorhombic'
loop_
_space_group_symop_operation_xyz
x,y,z
-x,-y,z
1/2+x,1/2-y,-z
1/2-x,1/2+y,-z
-x,-y,-z
x,y,-z
1/2-x,1/2+y,z
1/2+x,1/2-y,z
loop_
_atom_site_type_symbol
_atom_site_label
_atom_site_fract_x
_atom_site_fract_y
_atom_site_fract_z
Si Si1 0.041270 0.312710 0.176434
Si Si2 0.749962 0.890352 0.819159
Si Si3 0.751788 0.237077 0.178143
Si Si4 0.445948 0.565276 0.318859
Si Si5 0.065945 0.806674 0.678309
Si Si6 0.444801 0.065106 0.320089
O O1 0.149058 0.292877 0.197192
O O2 0.981765 0.251118 0.229522
O O3 0.008221 0.374063 0.271405
O O4 0.023801 0.325717 0.000000
O O5 0.747744 0.813377 0.776643
O O6 0.845251 0.922142 0.756324
O O7 0.656796 0.924577 0.755535
O O8 0.750212 0.893432 0.000000
O O9 0.826240 0.196356 0.273074
O O10 0.775754 0.234560 0.000000
O O11 0.500000 0.500000 0.270919
O O12 0.432335 0.561998 0.500000
O O13 0.513146 0.626507 0.286160
O O14 0.056581 0.794774 0.500000
O O15 0.432248 0.064067 0.500000
O O16 0.500000 0.000000 0.274058
#
# Coordination Sequence:
#
# PCOD9428533 Si02
#       6
#     8   8   8   8   8   8
#     4  11  22  39  62  89 122 157 201 251 300 358
#     4  11  22  39  64  91 121 162 204 248 308 366
#     4  10  22  38  60  90 124 160 199 253 308 356
#     4  10  23  42  62  89 127 166 204 251 305 361
#     4  11  22  36  61  91 119 158 205 250 299 358
#     4  11  25  43  63  90 125 162 202 251 304 361
#
# _framework density 18.442115999999999
#
# number of rings (size 3 to 8) (size 9 to 14) (size 15 to 20)
#    0.000    1.333    3.333    2.000    0.000    5.667 
#    0.000    5.000    0.000    0.000    0.000    0.000 
#    0.000    0.000    0.000    0.000    0.000    0.000 
#
# Total GULP energy -268249.527286 kJ/mol
# GULP energy per Si atom -5588.531818 kJ/mol
# Density = 1.840014 g / cm^3
# Si number density = 18.442116 Si / 1000 Ang^3
#
#
#
# Elastic Constant Matrix: (Units=GPa)
#
#
# Indices 1 2 3 4 5 6 
#
# 1 107.4239 53.6477 41.8697 0.0000 0.0000 0.0000
# 2 53.6477 107.3442 27.8845 0.0000 0.0000 0.0000
# 3 41.8697 27.8845 30.4422 0.0000 0.0000 0.0000
# 4 0.0000 0.0000 0.0000 -14.4440 0.0000 0.0000
# 5 0.0000 0.0000 0.0000 0.0000 24.0411 0.0000
# 6 0.0000 0.0000 0.0000 0.0000 0.0000 23.9996
#
#
#
# Elastic Compliance Matrix: (Units=1/GPa)
#
#
# Indices 1 2 3 4 5 6 
#
# 1 0.021287 -0.003980 -0.025632 0.000000 0.000000 0.000000
# 2 -0.003980 0.012969 -0.006405 0.000000 0.000000 0.000000
# 3 -0.025632 -0.006405 0.073969 0.000000 0.000000 0.000000
# 4 0.000000 0.000000 0.000000 -0.069233 0.000000 0.000000
# 5 0.000000 0.000000 0.000000 0.000000 0.041595 0.000000
# 6 0.000000 0.000000 0.000000 0.000000 0.000000 0.041667
#
#
# Mechanical properties :
#
#
# Convention : Reuss Voigt Hill
#
# Bulk Modulus (GPa) = 27.63095 54.66824 41.14960
# Shear Modulus (GPa) = 24.23039 14.83991 19.53515
#
# Velocity S-wave (km/s) = 3.62866 2.83976 3.25817
# Velocity P-wave (km/s) = 5.70712 6.36080 6.04281
#
# Compressibility (1/GPa) = 0.03619130
#
# Stress axis : x y z
#
# Youngs Moduli (GPa) = 46.97701 77.10796 13.51913
#
# Poissons Ratio (x) = 0.30692 0.34652
# Poissons Ratio (y) = 0.18698 0.08659
# Poissons Ratio (z) = 1.20411 0.49385
#
# Static dielectric constant tensor:
#      x y z
#    x 1.669100 0.000000 0.000000 
#    y 0.000000 1.611480 0.000000 
#    z 0.000000 0.000000 1.619420 
# 
# From -- ./inp_files/5809.got.cif
#   From: 2010.05.17/outbox.cif.g08.bks.cpg/sg55_3_cif.got.tgz:5809.got - 2010.06.03 13:27:54.
