data_PCOD9428555
_publ_section_title
;
Structure prediction by ZEFSAII (Michael W. Deem and Ramdas Pophale) SiO2 
 PCOD9428555
Probable space group: P B A M
;
_chemical_formula_sum "Si O2"
_cell_formula_units_Z 64
_cell_length_a 14.724059
_cell_length_b 10.396340
_cell_length_c 21.077949
_cell_angle_alpha 90.000000
_cell_angle_beta 90.000000
_cell_angle_gamma 90.000000
_cell_volume 3226.534941
_symmetry_space_group_name_H-M "P B A M"
_symmetry_group_IT_number 55
_symmetry_cell_setting 'orthorhombic'
loop_
_space_group_symop_operation_xyz
x,y,z
-x,-y,z
1/2+x,1/2-y,-z
1/2-x,1/2+y,-z
-x,-y,-z
x,y,-z
1/2-x,1/2+y,z
1/2+x,1/2-y,z
loop_
_atom_site_type_symbol
_atom_site_label
_atom_site_fract_x
_atom_site_fract_y
_atom_site_fract_z
Si Si1 0.263901 0.107014 0.146139
Si Si2 0.972985 0.357104 0.173449
Si Si3 0.007172 0.779348 0.299580
Si Si4 0.699425 0.634336 0.330539
Si Si5 0.241145 0.850524 0.929463
Si Si6 0.977900 0.145871 0.927798
Si Si7 0.948835 0.139102 0.426711
Si Si8 0.185644 0.130134 0.718412
O O1 0.364109 0.146258 0.169223
O O2 0.231700 0.208827 0.093544
O O3 0.201976 0.122883 0.207169
O O4 0.267127 0.963613 0.118620
O O5 0.008299 0.250333 0.123901
O O6 0.000000 0.500000 0.154139
O O7 0.004329 0.327322 0.245389
O O8 0.921847 0.872290 0.292068
O O9 0.108061 0.836600 0.288933
O O10 0.009682 0.759168 0.375953
O O11 0.654803 0.629160 0.400694
O O12 0.732937 0.493996 0.312053
O O13 0.771502 0.743228 0.313635
O O14 0.131492 0.847782 0.931245
O O15 0.275605 0.879252 0.000000
O O16 0.012503 0.168109 0.000000
O O17 0.000000 0.000000 0.908683
O O18 0.954418 0.174668 0.500000
O O19 0.000000 0.000000 0.419194
#
# Coordination Sequence:
#
# PCOD9428555 Si02
#       8
#     8   8   8   8   8   8   8   8
#     4  11  23  38  58  88 115 154 203 256 303 378
#     4  11  25  40  60  90 125 160 202 258 325 376
#     4  10  22  40  62  91 124 168 207 257 305 374
#     4  10  22  40  60  98 123 165 205 257 308 370
#     4  10  22  39  57  79 113 156 199 249 308 368
#     4   9  21  40  60  86 116 156 210 260 303 375
#     4   9  17  39  67  92 125 168 218 254 295 370
#     4  12  22  38  64  91 128 159 207 261 318 367
#
# _framework density 19.835519999999999
#
# number of rings (size 3 to 8) (size 9 to 14) (size 15 to 20)
#    0.750    1.000    2.500    1.500    7.000    1.250 
#    0.000    2.500    0.000    0.375    0.000    0.000 
#    0.000    0.000    0.000    0.000    0.000    0.000 
#
# Total GULP energy -356657.261989 kJ/mol
# GULP energy per Si atom -5572.769719 kJ/mol
# Density = 1.979037 g / cm^3
# Si number density = 19.835520 Si / 1000 Ang^3
#
#
#
# Elastic Constant Matrix: (Units=GPa)
#
#
# Indices 1 2 3 4 5 6 
#
# 1 30.0515 -2.3045 11.1357 0.0000 0.0000 0.0000
# 2 -2.3045 101.7800 41.3722 0.0000 0.0000 0.0000
# 3 11.1357 41.3722 130.2892 0.0000 0.0000 0.0000
# 4 0.0000 0.0000 0.0000 -14.4006 0.0000 0.0000
# 5 0.0000 0.0000 0.0000 0.0000 21.9791 0.0000
# 6 0.0000 0.0000 0.0000 0.0000 0.0000 22.4849
#
#
#
# Elastic Compliance Matrix: (Units=1/GPa)
#
#
# Indices 1 2 3 4 5 6 
#
# 1 0.034825 0.002295 -0.003705 0.000000 0.000000 0.000000
# 2 0.002295 0.011432 -0.003826 0.000000 0.000000 0.000000
# 3 -0.003705 -0.003826 0.009207 0.000000 0.000000 0.000000
# 4 0.000000 0.000000 0.000000 -0.069442 0.000000 0.000000
# 5 0.000000 0.000000 0.000000 0.000000 0.045498 0.000000
# 6 0.000000 0.000000 0.000000 0.000000 0.000000 0.044474
#
#
# Mechanical properties :
#
#
# Convention : Reuss Voigt Hill
#
# Bulk Modulus (GPa) = 22.22681 40.28084 31.25382
# Shear Modulus (GPa) = 49.27771 20.14050 34.70910
#
# Velocity S-wave (km/s) = 4.98970 3.18995 4.18765
# Velocity P-wave (km/s) = 6.66528 5.82402 6.25880
#
# Compressibility (1/GPa) = 0.04499071
#
# Stress axis : x y z
#
# Youngs Moduli (GPa) = 28.71487 87.47038 108.61364
#
# Poissons Ratio (x) = -0.20071 0.40243
# Poissons Ratio (y) = -0.06589 0.41560
# Poissons Ratio (z) = 0.10639 0.33470
#
# Static dielectric constant tensor:
#      x y z
#    x 1.735480 0.000000 0.000000 
#    y 0.000000 1.694830 0.000000 
#    z 0.000000 0.000000 1.714300 
# 
# From -- ./inp_files/23625.got.cif
#   From: 2010.05.17/outbox.cif.g08.bks.cpg/sg55_12_cif.got.tgz:23625.got - 2010.06.03 13:27:54.
