data_PCOD9428178
_publ_section_title
;
Structure prediction by ZEFSAII (Michael W. Deem and Ramdas Pophale) SiO2 
 PCOD9428178
Probable space group: P B A M
;
_chemical_formula_sum "Si O2"
_cell_formula_units_Z 34
_cell_length_a 4.952707
_cell_length_b 10.395036
_cell_length_c 25.126075
_cell_angle_alpha 90.000000
_cell_angle_beta 90.000000
_cell_angle_gamma 90.000000
_cell_volume 1293.579980
_symmetry_space_group_name_H-M "P B A M"
_symmetry_group_IT_number 55
_symmetry_cell_setting 'orthorhombic'
loop_
_space_group_symop_operation_xyz
x,y,z
-x,-y,z
1/2+x,1/2-y,-z
1/2-x,1/2+y,-z
-x,-y,-z
x,y,-z
1/2-x,1/2+y,z
1/2+x,1/2-y,z
loop_
_atom_site_type_symbol
_atom_site_label
_atom_site_fract_x
_atom_site_fract_y
_atom_site_fract_z
Si Si1 0.000000 0.500000 0.500000
Si Si2 0.694162 0.659290 0.819226
Si Si3 0.678239 0.161214 0.292675
Si Si4 0.000000 0.000000 0.910707
Si Si5 0.713967 0.658052 0.591833
Si Si6 0.268019 0.170802 0.000000
O O1 0.803432 0.562501 0.453696
O O2 0.400929 0.723098 0.820612
O O3 0.751473 0.592121 0.762510
O O4 0.703312 0.572419 0.870915
O O5 0.373618 0.212783 0.292221
O O6 0.743611 0.099550 0.349320
O O7 0.167377 0.094903 0.948383
O O8 0.917905 0.780679 0.586899
O O9 0.585511 0.199326 0.000000
#
# Coordination Sequence:
#
# PCOD9428178 Si02
#       6
#     2   8   8   4   8   4
#     4  12  24  38  64  92 120 166 216 264 316 368
#     4  10  21  38  61  91 124 159 205 259 313 376
#     4   8  16  35  58  80 115 155 190 243 308 363
#     4  11  24  40  68  96 126 169 214 264 322 373
#     4  10  22  40  60  86 121 159 203 255 311 374
#     4  11  26  45  64  92 132 173 214 261 314 380
#
# _framework density 26.283646999999998
#
# number of rings (size 3 to 8) (size 9 to 14) (size 15 to 20)
#    0.000    2.118    0.000    2.118    0.000    6.588 
#    0.000   14.118    0.000    0.000    0.000    0.000 
#    0.000    0.000    0.000    0.000    0.000    0.000 
#
# Total GULP energy -190124.508531 kJ/mol
# GULP energy per Si atom -5591.897310 kJ/mol
# Density = 2.622382 g / cm^3
# Si number density = 26.283647 Si / 1000 Ang^3
#
#
#
# Elastic Constant Matrix: (Units=GPa)
#
#
# Indices 1 2 3 4 5 6 
#
# 1 80.6528 24.2282 11.4304 0.0000 0.0000 0.0000
# 2 24.2282 59.0899 54.6159 0.0000 0.0000 0.0000
# 3 11.4304 54.6159 274.6887 0.0000 0.0000 0.0000
# 4 0.0000 0.0000 0.0000 40.4625 0.0000 0.0000
# 5 0.0000 0.0000 0.0000 0.0000 31.3337 0.0000
# 6 0.0000 0.0000 0.0000 0.0000 0.0000 46.0238
#
#
#
# Elastic Compliance Matrix: (Units=1/GPa)
#
#
# Indices 1 2 3 4 5 6 
#
# 1 0.014249 -0.006486 0.000697 0.000000 0.000000 0.000000
# 2 -0.006486 0.023686 -0.004440 0.000000 0.000000 0.000000
# 3 0.000697 -0.004440 0.004494 0.000000 0.000000 0.000000
# 4 0.000000 0.000000 0.000000 0.024714 0.000000 0.000000
# 5 0.000000 0.000000 0.000000 0.000000 0.031915 0.000000
# 6 0.000000 0.000000 0.000000 0.000000 0.000000 0.021728
#
#
# Mechanical properties :
#
#
# Convention : Reuss Voigt Hill
#
# Bulk Modulus (GPa) = 45.51474 66.10893 55.81183
# Shear Modulus (GPa) = 33.65471 45.17445 39.41458
#
# Velocity S-wave (km/s) = 3.58221 4.15025 3.87665
# Velocity P-wave (km/s) = 5.87060 6.94067 6.42794
#
# Compressibility (1/GPa) = 0.02197091
#
# Stress axis : x y z
#
# Youngs Moduli (GPa) = 70.18255 42.21843 222.50835
#
# Poissons Ratio (x) = 0.27384 -0.15503
# Poissons Ratio (y) = 0.45522 0.98785
# Poissons Ratio (z) = -0.04890 0.18743
#
# Static dielectric constant tensor:
#      x y z
#    x 1.984650 0.000000 0.000000 
#    y 0.000000 2.098270 0.000000 
#    z 0.000000 0.000000 2.041670 
# 
# From -- ./inp_files/23253.got.cif
#   From: 2010.05.17/outbox.cif.g08.bks.cpg/sg55_12_cif.got.tgz:23253.got - 2010.06.03 13:27:54.
