data_PCOD9428253
_publ_section_title
;
Structure prediction by ZEFSAII (Michael W. Deem and Ramdas Pophale) SiO2 
 PCOD9428253
Probable space group: P B A M
;
_chemical_formula_sum "Si O2"
_cell_formula_units_Z 64
_cell_length_a 12.875564
_cell_length_b 29.320938
_cell_length_c 7.711609
_cell_angle_alpha 90.000000
_cell_angle_beta 90.000000
_cell_angle_gamma 90.000000
_cell_volume 2911.314498
_symmetry_space_group_name_H-M "P B A M"
_symmetry_group_IT_number 55
_symmetry_cell_setting 'orthorhombic'
loop_
_space_group_symop_operation_xyz
x,y,z
-x,-y,z
1/2+x,1/2-y,-z
1/2-x,1/2+y,-z
-x,-y,-z
x,y,-z
1/2-x,1/2+y,z
1/2+x,1/2-y,z
loop_
_atom_site_type_symbol
_atom_site_label
_atom_site_fract_x
_atom_site_fract_y
_atom_site_fract_z
Si Si1 0.889117 0.860597 0.801045
Si Si2 0.387682 0.018964 0.787840
Si Si3 0.766662 0.059659 0.203567
Si Si4 0.160662 0.621673 0.209419
Si Si5 0.998150 0.700233 0.292169
Si Si6 0.425505 0.296374 0.297914
Si Si7 0.214336 0.341848 0.289253
Si Si8 0.997215 0.051086 0.300330
O O1 0.773273 0.861522 0.726196
O O2 0.974440 0.828924 0.711950
O O3 0.932463 0.912122 0.794185
O O4 0.884275 0.845245 0.000000
O O5 0.366149 0.070554 0.729967
O O6 0.500000 0.000000 0.733265
O O7 0.297997 0.983799 0.732339
O O8 0.387469 0.018742 0.000000
O O9 0.703214 0.106179 0.227773
O O10 0.877257 0.065888 0.294373
O O11 0.788030 0.053233 0.000000
O O12 0.072988 0.657845 0.256103
O O13 0.168059 0.619222 0.000000
O O14 0.989570 0.705601 0.500000
O O15 0.045451 0.747250 0.221094
O O16 0.882726 0.688279 0.229513
O O17 0.400410 0.288845 0.500000
O O18 0.323766 0.321342 0.224705
O O19 0.214959 0.343250 0.500000
O O20 0.032702 0.049375 0.500000
O O21 0.000000 0.000000 0.227336
#
# Coordination Sequence:
#
# PCOD9428253 Si02
#       8
#     8   8   8   8   8   8   8   8
#     4  11  23  39  60  88 121 156 200 250 302 359
#     4   9  18  34  57  84 117 158 200 238 292 358
#     4  11  21  35  60  89 117 157 203 248 300 360
#     4  10  22  40  60  88 125 159 196 252 303 352
#     4  10  23  40  63  91 118 158 204 248 304 367
#     4  10  22  40  63  87 117 158 199 250 308 363
#     4  10  21  39  60  88 123 154 198 255 303 357
#     4  11  23  38  57  84 119 159 199 243 299 357
#
# _framework density 21.983198000000002
#
# number of rings (size 3 to 8) (size 9 to 14) (size 15 to 20)
#    0.000    1.750    1.250    2.625    1.750    5.000 
#    0.000    1.250    0.000    3.375    0.000    0.000 
#    0.000    0.000    0.000    0.000    0.000    0.000 
#
# Total GULP energy -357798.578726 kJ/mol
# GULP energy per Si atom -5590.602793 kJ/mol
# Density = 2.193316 g / cm^3
# Si number density = 21.983198 Si / 1000 Ang^3
#
#
#
# Elastic Constant Matrix: (Units=GPa)
#
#
# Indices 1 2 3 4 5 6 
#
# 1 122.9991 42.8805 -5.9940 0.0000 0.0000 0.0000
# 2 42.8805 141.0757 -6.0532 0.0000 0.0000 0.0000
# 3 -5.9940 -6.0532 36.3222 0.0000 0.0000 0.0000
# 4 0.0000 0.0000 0.0000 93.5205 0.0000 0.0000
# 5 0.0000 0.0000 0.0000 0.0000 11.7450 0.0000
# 6 0.0000 0.0000 0.0000 0.0000 0.0000 30.8214
#
#
#
# Elastic Compliance Matrix: (Units=1/GPa)
#
#
# Indices 1 2 3 4 5 6 
#
# 1 0.009134 -0.002731 0.001052 0.000000 0.000000 0.000000
# 2 -0.002731 0.007956 0.000875 0.000000 0.000000 0.000000
# 3 0.001052 0.000875 0.027851 0.000000 0.000000 0.000000
# 4 0.000000 0.000000 0.000000 0.010693 0.000000 0.000000
# 5 0.000000 0.000000 0.000000 0.000000 0.085143 0.000000
# 6 0.000000 0.000000 0.000000 0.000000 0.000000 0.032445
#
#
# Mechanical properties :
#
#
# Convention : Reuss Voigt Hill
#
# Bulk Modulus (GPa) = 23.07708 40.22927 31.65318
# Shear Modulus (GPa) = 26.41689 45.18831 35.80260
#
# Velocity S-wave (km/s) = 3.47029 4.53877 4.04001
# Velocity P-wave (km/s) = 5.15535 6.76809 6.01601
#
# Compressibility (1/GPa) = 0.04333304
#
# Stress axis : x y z
#
# Youngs Moduli (GPa) = 109.48693 125.69051 35.90554
#
# Poissons Ratio (x) = 0.34326 -0.03778
# Poissons Ratio (y) = 0.29901 -0.03143
# Poissons Ratio (z) = -0.11519 -0.11001
#
# Static dielectric constant tensor:
#      x y z
#    x 1.790970 0.000000 0.000000 
#    y 0.000000 1.783930 0.000000 
#    z 0.000000 0.000000 1.820310 
# 
# From -- ./inp_files/4678.got.cif
#   From: 2010.05.17/outbox.cif.g08.bks.cpg/sg55_3_cif.got.tgz:4678.got - 2010.06.03 13:27:54.
