data_PCOD9428621
_publ_section_title
;
Structure prediction by ZEFSAII (Michael W. Deem and Ramdas Pophale) SiO2 
 PCOD9428621
Probable space group: P B A M
;
_chemical_formula_sum "Si O2"
_cell_formula_units_Z 48
_cell_length_a 18.203723
_cell_length_b 15.753836
_cell_length_c 8.844580
_cell_angle_alpha 90.000000
_cell_angle_beta 90.000000
_cell_angle_gamma 90.000000
_cell_volume 2536.435091
_symmetry_space_group_name_H-M "P B A M"
_symmetry_group_IT_number 55
_symmetry_cell_setting 'orthorhombic'
loop_
_space_group_symop_operation_xyz
x,y,z
-x,-y,z
1/2+x,1/2-y,-z
1/2-x,1/2+y,-z
-x,-y,-z
x,y,-z
1/2-x,1/2+y,z
1/2+x,1/2-y,z
loop_
_atom_site_type_symbol
_atom_site_label
_atom_site_fract_x
_atom_site_fract_y
_atom_site_fract_z
Si Si1 0.206914 0.916324 0.681352
Si Si2 0.210647 0.241571 0.318338
Si Si3 0.539005 0.911540 0.818251
Si Si4 0.788890 0.422103 0.819097
Si Si5 0.038295 0.247291 0.319054
Si Si6 0.955666 0.085755 0.181152
O O1 0.203095 0.921655 0.500000
O O2 0.247554 0.828425 0.721985
O O3 0.125388 0.917324 0.749035
O O4 0.252397 0.995626 0.744553
O O5 0.216386 0.230395 0.500000
O O6 0.247529 0.161681 0.237938
O O7 0.124630 0.247917 0.279737
O O8 0.625052 0.915665 0.779293
O O9 0.499988 0.832771 0.738804
O O10 0.500000 0.000000 0.777464
O O11 0.532942 0.900920 0.000000
O O12 0.782850 0.428810 0.000000
O O13 0.031667 0.241670 0.500000
O O14 0.998874 0.166673 0.244820
O O15 0.950378 0.091735 0.000000
O O16 0.000000 0.000000 0.219356
#
# Coordination Sequence:
#
# PCOD9428621 Si02
#       6
#     8   8   8   8   8   8
#     4  11  23  40  63  89 119 156 197 243 294 347
#     4  10  23  41  60  86 119 155 195 241 293 348
#     4  10  22  40  61  87 120 157 197 242 293 349
#     4  11  23  38  60  89 119 155 196 240 292 348
#     4  11  23  39  61  88 118 154 196 242 294 350
#     4  11  24  41  61  87 119 155 197 244 294 349
#
# _framework density 18.924198000000001
#
# number of rings (size 3 to 8) (size 9 to 14) (size 15 to 20)
#    0.000    1.333    0.000    5.000    0.000   11.000 
#    0.000    0.000    0.000    0.000    0.000    0.000 
#    0.000    0.000    0.000    0.000    0.000    0.000 
#
# Total GULP energy -268564.063059 kJ/mol
# GULP energy per Si atom -5595.084647 kJ/mol
# Density = 1.888113 g / cm^3
# Si number density = 18.924198 Si / 1000 Ang^3
#
#
#
# Elastic Constant Matrix: (Units=GPa)
#
#
# Indices 1 2 3 4 5 6 
#
# 1 114.0933 39.5088 35.6752 0.0000 0.0000 0.0000
# 2 39.5088 128.3852 38.5036 0.0000 0.0000 0.0000
# 3 35.6752 38.5036 34.6470 0.0000 0.0000 0.0000
# 4 0.0000 0.0000 0.0000 8.7617 0.0000 0.0000
# 5 0.0000 0.0000 0.0000 0.0000 29.2792 0.0000
# 6 0.0000 0.0000 0.0000 0.0000 0.0000 44.2106
#
#
#
# Elastic Compliance Matrix: (Units=1/GPa)
#
#
# Indices 1 2 3 4 5 6 
#
# 1 0.012927 0.000021 -0.013333 0.000000 0.000000 0.000000
# 2 0.000021 0.011683 -0.013005 0.000000 0.000000 0.000000
# 3 -0.013333 -0.013005 0.057044 0.000000 0.000000 0.000000
# 4 0.000000 0.000000 0.000000 0.114133 0.000000 0.000000
# 5 0.000000 0.000000 0.000000 0.000000 0.034154 0.000000
# 6 0.000000 0.000000 0.000000 0.000000 0.000000 0.022619
#
#
# Mechanical properties :
#
#
# Convention : Reuss Voigt Hill
#
# Bulk Modulus (GPa) = 34.46037 56.05563 45.25800
# Shear Modulus (GPa) = 15.87971 27.34615 21.61293
#
# Velocity S-wave (km/s) = 2.89990 3.80549 3.38313
# Velocity P-wave (km/s) = 5.42787 6.99960 6.26323
#
# Compressibility (1/GPa) = 0.02901884
#
# Stress axis : x y z
#
# Youngs Moduli (GPa) = 77.35899 85.59550 17.53033
#
# Poissons Ratio (x) = -0.00178 0.23374
# Poissons Ratio (y) = -0.00161 0.22798
# Poissons Ratio (z) = 1.03146 1.11314
#
# Static dielectric constant tensor:
#      x y z
#    x 1.624630 0.000000 0.000000 
#    y 0.000000 1.610640 0.000000 
#    z 0.000000 0.000000 1.634600 
# 
# From -- ./inp_files/7436.got.cif
#   From: 2010.05.17/outbox.cif.g08.bks.cpg/sg55_4_cif.got.tgz:7436.got - 2010.06.03 13:27:54.
