data_PCOD9428548
_publ_section_title
;
Structure prediction by ZEFSAII (Michael W. Deem and Ramdas Pophale) SiO2 
 PCOD9428548
Probable space group: P B A M
;
_chemical_formula_sum "Si O2"
_cell_formula_units_Z 56
_cell_length_a 11.089163
_cell_length_b 13.791697
_cell_length_c 16.268968
_cell_angle_alpha 90.000000
_cell_angle_beta 90.000000
_cell_angle_gamma 90.000000
_cell_volume 2488.149546
_symmetry_space_group_name_H-M "P B A M"
_symmetry_group_IT_number 55
_symmetry_cell_setting 'orthorhombic'
loop_
_space_group_symop_operation_xyz
x,y,z
-x,-y,z
1/2+x,1/2-y,-z
1/2-x,1/2+y,-z
-x,-y,-z
x,y,-z
1/2-x,1/2+y,z
1/2+x,1/2-y,z
loop_
_atom_site_type_symbol
_atom_site_label
_atom_site_fract_x
_atom_site_fract_y
_atom_site_fract_z
Si Si1 0.721510 0.333845 0.873785
Si Si2 0.460772 0.259064 0.866889
Si Si3 0.606455 0.440398 0.593654
Si Si4 0.285249 0.881872 0.594314
Si Si5 0.496555 0.107526 0.721327
Si Si6 0.866427 0.042884 0.906939
Si Si7 0.261435 0.200039 0.316538
O O1 0.592247 0.289834 0.904729
O O2 0.850996 0.300641 0.909964
O O3 0.711088 0.451198 0.876435
O O4 0.732415 0.298418 0.779655
O O5 0.496972 0.191607 0.789839
O O6 0.389712 0.361482 0.852555
O O7 0.500000 0.500000 0.635919
O O8 0.570502 0.416276 0.500000
O O9 0.714458 0.517517 0.591467
O O10 0.645771 0.344632 0.639198
O O11 0.314313 0.855117 0.500000
O O12 0.398597 0.887254 0.654704
O O13 0.205483 0.799096 0.638293
O O14 0.371546 0.126208 0.675219
O O15 0.500000 0.000000 0.759498
O O16 0.827044 0.071014 0.000000
O O17 0.000000 0.000000 0.913798
#
# Coordination Sequence:
#
# PCOD9428548 Si02
#       7
#     8   8   8   8   8   8   8
#     4  10  22  38  66  96 129 176 217 267 318 387
#     4  10  22  41  66  96 132 173 215 263 321 382
#     4  10  23  40  58  84 120 161 213 273 324 382
#     4  11  24  40  60  86 120 167 217 272 337 386
#     4  11  23  42  63  89 123 166 217 271 322 386
#     4   9  20  41  68 101 135 172 215 256 317 397
#     4  11  23  39  61  86 119 164 211 262 323 384
#
# _framework density 22.506684
#
# number of rings (size 3 to 8) (size 9 to 14) (size 15 to 20)
#    0.000    1.714    2.857    0.429    2.000    8.286 
#    0.000    0.000    0.000    1.286    0.000    0.000 
#    0.000    0.000    0.000    0.000    0.000    0.000 
#
# Total GULP energy -312051.163101 kJ/mol
# GULP energy per Si atom -5572.342198 kJ/mol
# Density = 2.245546 g / cm^3
# Si number density = 22.506684 Si / 1000 Ang^3
#
#
#
# Elastic Constant Matrix: (Units=GPa)
#
#
# Indices 1 2 3 4 5 6 
#
# 1 108.5851 12.8026 4.5891 0.0000 0.0000 0.0000
# 2 12.8026 115.4793 41.6399 0.0000 0.0000 0.0000
# 3 4.5891 41.6399 102.7834 0.0000 0.0000 0.0000
# 4 0.0000 0.0000 0.0000 -67.0371 0.0000 0.0000
# 5 0.0000 0.0000 0.0000 0.0000 54.9762 0.0000
# 6 0.0000 0.0000 0.0000 0.0000 0.0000 37.8871
#
#
#
# Elastic Compliance Matrix: (Units=1/GPa)
#
#
# Indices 1 2 3 4 5 6 
#
# 1 0.009331 -0.001036 0.000003 0.000000 0.000000 0.000000
# 2 -0.001036 0.010256 -0.004109 0.000000 0.000000 0.000000
# 3 0.000003 -0.004109 0.011394 0.000000 0.000000 0.000000
# 4 0.000000 0.000000 0.000000 -0.014917 0.000000 0.000000
# 5 0.000000 0.000000 0.000000 0.000000 0.018190 0.000000
# 6 0.000000 0.000000 0.000000 0.000000 0.000000 0.026394
#
#
# Mechanical properties :
#
#
# Convention : Reuss Voigt Hill
#
# Bulk Modulus (GPa) = 48.31348 49.43457 48.87402
# Shear Modulus (GPa) = 64.24295 23.01968 43.63131
#
# Velocity S-wave (km/s) = 5.34845 3.20158 4.40772
# Velocity P-wave (km/s) = 7.72361 5.97318 6.90409
#
# Compressibility (1/GPa) = 0.02069816
#
# Stress axis : x y z
#
# Youngs Moduli (GPa) = 107.16576 97.50504 87.76877
#
# Poissons Ratio (x) = 0.10097 -0.00025
# Poissons Ratio (y) = 0.11098 0.36061
# Poissons Ratio (z) = -0.00031 0.40061
#
# Static dielectric constant tensor:
#      x y z
#    x 1.892460 0.000000 0.000000 
#    y 0.000000 1.889690 0.000000 
#    z 0.000000 0.000000 1.842430 
# 
# From -- ./inp_files/22830.got.cif
#   From: 2010.05.17/outbox.cif.g08.bks.cpg/sg55_12_cif.got.tgz:22830.got - 2010.06.03 13:27:54.
