data_PCOD9428245
_publ_section_title
;
Structure prediction by ZEFSAII (Michael W. Deem and Ramdas Pophale) SiO2 
 PCOD9428245
Probable space group: P B A M
;
_chemical_formula_sum "Si O2"
_cell_formula_units_Z 64
_cell_length_a 9.243815
_cell_length_b 11.474786
_cell_length_c 24.085315
_cell_angle_alpha 90.000000
_cell_angle_beta 90.000000
_cell_angle_gamma 90.000000
_cell_volume 2554.748605
_symmetry_space_group_name_H-M "P B A M"
_symmetry_group_IT_number 55
_symmetry_cell_setting 'orthorhombic'
loop_
_space_group_symop_operation_xyz
x,y,z
-x,-y,z
1/2+x,1/2-y,-z
1/2-x,1/2+y,-z
-x,-y,-z
x,y,-z
1/2-x,1/2+y,z
1/2+x,1/2-y,z
loop_
_atom_site_type_symbol
_atom_site_label
_atom_site_fract_x
_atom_site_fract_y
_atom_site_fract_z
Si Si1 0.929615 0.130521 0.559365
Si Si2 0.755941 0.025177 0.938305
Si Si3 0.137928 0.706470 0.771764
Si Si4 0.624091 0.146563 0.842285
Si Si5 0.426711 0.373442 0.320317
Si Si6 0.023143 0.189678 0.060080
Si Si7 0.830892 0.471310 0.319575
Si Si8 0.830392 0.477150 0.559375
O O1 0.967125 0.186601 0.500000
O O2 0.963809 0.181553 0.619624
O O3 0.759933 0.097449 0.559580
O O4 0.000000 0.000000 0.559317
O O5 0.674415 0.036651 0.879734
O O6 0.862679 0.137101 0.937360
O O7 0.863393 0.915847 0.937135
O O8 0.685103 0.019789 0.000000
O O9 0.245809 0.784193 0.810078
O O10 0.048619 0.792944 0.731654
O O11 0.213385 0.615974 0.729436
O O12 0.013246 0.634489 0.802767
O O13 0.560113 0.228752 0.890128
O O14 0.500000 0.500000 0.317036
O O15 0.257693 0.408903 0.316576
O O16 0.038709 0.247261 0.000000
O O17 0.795971 0.420147 0.381211
O O18 0.000000 0.500000 0.316561
O O19 0.791962 0.419045 0.500000
O O20 0.000000 0.500000 0.559182
#
# Coordination Sequence:
#
# PCOD9428245 Si02
#       8
#     8   8   8   8   8   8   8   8
#     4   8  14  27  51  79 104 137 187 244 300 353
#     4   9  19  39  66  92 117 151 192 236 292 351
#     4  12  26  38  57  87 120 161 211 238 282 364
#     4  12  23  40  59  89 124 154 195 242 285 338
#     4  10  21  39  59  80 114 159 198 245 303 355
#     4   9  19  39  66  92 118 151 191 236 293 352
#     4  10  21  39  57  79 116 154 192 251 302 339
#     4   8  14  27  51  77 101 138 186 236 300 359
#
# _framework density 25.051389
#
# number of rings (size 3 to 8) (size 9 to 14) (size 15 to 20)
#    0.000    2.250    1.250    2.625    0.000    3.000 
#    0.000    0.625    0.000    1.500    0.000   19.250 
#    0.000    0.000    0.000    0.000    0.000    0.000 
#
# Total GULP energy -357406.600744 kJ/mol
# GULP energy per Si atom -5584.478137 kJ/mol
# Density = 2.499437 g / cm^3
# Si number density = 25.051389 Si / 1000 Ang^3
#
#
#
# Elastic Constant Matrix: (Units=GPa)
#
#
# Indices 1 2 3 4 5 6 
#
# 1 94.0651 -0.9323 31.8757 0.0000 0.0000 0.0000
# 2 -0.9323 36.3156 34.1012 0.0000 0.0000 0.0000
# 3 31.8757 34.1012 224.1727 0.0000 0.0000 0.0000
# 4 0.0000 0.0000 0.0000 77.9906 0.0000 0.0000
# 5 0.0000 0.0000 0.0000 0.0000 8.9556 0.0000
# 6 0.0000 0.0000 0.0000 0.0000 0.0000 24.6846
#
#
#
# Elastic Compliance Matrix: (Units=1/GPa)
#
#
# Indices 1 2 3 4 5 6 
#
# 1 0.011305 0.002100 -0.001927 0.000000 0.000000 0.000000
# 2 0.002100 0.032515 -0.005245 0.000000 0.000000 0.000000
# 3 -0.001927 -0.005245 0.005533 0.000000 0.000000 0.000000
# 4 0.000000 0.000000 0.000000 0.012822 0.000000 0.000000
# 5 0.000000 0.000000 0.000000 0.000000 0.111662 0.000000
# 6 0.000000 0.000000 0.000000 0.000000 0.000000 0.040511
#
#
# Mechanical properties :
#
#
# Convention : Reuss Voigt Hill
#
# Bulk Modulus (GPa) = 25.50470 53.84920 39.67695
# Shear Modulus (GPa) = 21.04721 41.62675 31.33698
#
# Velocity S-wave (km/s) = 2.90170 4.08076 3.54065
# Velocity P-wave (km/s) = 4.62920 6.61405 5.70855
#
# Compressibility (1/GPa) = 0.03920846
#
# Stress axis : x y z
#
# Youngs Moduli (GPa) = 88.45893 30.75485 180.74486
#
# Poissons Ratio (x) = -0.06457 0.34826
# Poissons Ratio (y) = -0.18572 0.94796
# Poissons Ratio (z) = 0.17044 0.16130
#
# Static dielectric constant tensor:
#      x y z
#    x 2.029190 0.000000 0.000000 
#    y 0.000000 2.022700 0.000000 
#    z 0.000000 0.000000 2.032290 
# 
# From -- ./inp_files/23499.got.cif
#   From: 2010.05.17/outbox.cif.g08.bks.cpg/sg55_12_cif.got.tgz:23499.got - 2010.06.03 13:27:54.
