data_PCOD9428025
_publ_section_title
;
Structure prediction by ZEFSAII (Michael W. Deem and Ramdas Pophale) SiO2 
 PCOD9428025
Probable space group: P B A M
;
_chemical_formula_sum "Si O2"
_cell_formula_units_Z 56
_cell_length_a 5.337244
_cell_length_b 14.614264
_cell_length_c 35.377679
_cell_angle_alpha 90.000000
_cell_angle_beta 90.000000
_cell_angle_gamma 90.000000
_cell_volume 2759.455171
_symmetry_space_group_name_H-M "P B A M"
_symmetry_group_IT_number 55
_symmetry_cell_setting 'orthorhombic'
loop_
_space_group_symop_operation_xyz
x,y,z
-x,-y,z
1/2+x,1/2-y,-z
1/2-x,1/2+y,-z
-x,-y,-z
x,y,-z
1/2-x,1/2+y,z
1/2+x,1/2-y,z
loop_
_atom_site_type_symbol
_atom_site_label
_atom_site_fract_x
_atom_site_fract_y
_atom_site_fract_z
Si Si1 0.250334 0.061239 0.541879
Si Si2 0.728908 0.812263 0.696762
Si Si3 0.749498 0.060697 0.043668
Si Si4 0.750191 0.396539 0.225104
Si Si5 0.293090 0.691963 0.613002
Si Si6 0.750298 0.103405 0.192215
Si Si7 0.237326 0.810418 0.885603
O O1 0.250020 0.106188 0.500000
O O2 0.248333 0.128770 0.577038
O O3 0.500000 0.000000 0.543948
O O4 0.000000 0.000000 0.544010
O O5 0.467222 0.756593 0.700432
O O6 0.742402 0.886574 0.729963
O O7 0.750852 0.852257 0.654394
O O8 0.755510 0.141619 0.073752
O O9 0.500000 0.000000 0.049894
O O10 0.744276 0.092477 0.000000
O O11 0.000000 0.000000 0.048607
O O12 0.749933 0.499931 0.208624
O O13 0.497592 0.353129 0.209593
O O14 0.997740 0.353190 0.207749
O O15 0.575506 0.730930 0.611641
O O16 0.757279 0.112826 0.147290
O O17 0.482746 0.747409 0.881316
#
# Coordination Sequence:
#
# PCOD9428025 Si02
#       7
#     8   8   8   8   8   8   8
#     4  10  21  38  58  87 122 157 199 246 296 354
#     4  10  21  37  59  84 117 153 195 253 301 353
#     4  10  23  43  70  97 126 168 208 243 294 363
#     4  10  21  39  58  83 112 164 197 252 296 354
#     4  10  21  38  59  88 121 154 198 247 304 362
#     4  10  23  38  58  85 120 153 205 249 289 363
#     4  12  26  41  64  98 128 163 202 254 310 351
#
# _framework density 20.293861
#
# number of rings (size 3 to 8) (size 9 to 14) (size 15 to 20)
#    0.000    1.714    0.000    3.429    4.000    4.571 
#    5.143    0.000    0.000    0.000    0.000    0.000 
#    0.000    0.000    0.000    0.000    0.000    0.000 
#
# Total GULP energy -312619.550118 kJ/mol
# GULP energy per Si atom -5582.491966 kJ/mol
# Density = 2.024767 g / cm^3
# Si number density = 20.293861 Si / 1000 Ang^3
#
#
#
# Elastic Constant Matrix: (Units=GPa)
#
#
# Indices 1 2 3 4 5 6 
#
# 1 137.3930 -10.2902 2.2118 0.0000 0.0000 0.0000
# 2 -10.2902 50.6789 42.3921 0.0000 0.0000 0.0000
# 3 2.2118 42.3921 153.3381 0.0000 0.0000 0.0000
# 4 0.0000 0.0000 0.0000 61.6095 0.0000 0.0000
# 5 0.0000 0.0000 0.0000 0.0000 23.6401 0.0000
# 6 0.0000 0.0000 0.0000 0.0000 0.0000 0.1069
#
#
#
# Elastic Compliance Matrix: (Units=1/GPa)
#
#
# Indices 1 2 3 4 5 6 
#
# 1 0.007445 0.002083 -0.000683 0.000000 0.000000 0.000000
# 2 0.002083 0.026251 -0.007287 0.000000 0.000000 0.000000
# 3 -0.000683 -0.007287 0.008546 0.000000 0.000000 0.000000
# 4 0.000000 0.000000 0.000000 0.016231 0.000000 0.000000
# 5 0.000000 0.000000 0.000000 0.000000 0.042301 0.000000
# 6 0.000000 0.000000 0.000000 0.000000 0.000000 9.357930
#
#
# Mechanical properties :
#
#
# Convention : Reuss Voigt Hill
#
# Bulk Modulus (GPa) = 32.82171 45.55972 39.19071
# Shear Modulus (GPa) = 0.52739 37.54437 19.03588
#
# Velocity S-wave (km/s) = 0.51033 4.30587 3.06602
# Velocity P-wave (km/s) = 4.06886 6.87164 5.64690
#
# Compressibility (1/GPa) = 0.03046764
#
# Stress axis : x y z
#
# Youngs Moduli (GPa) = 134.31060 38.09390 117.01256
#
# Poissons Ratio (x) = -0.07936 0.07996
# Poissons Ratio (y) = -0.27982 0.85272
# Poissons Ratio (z) = 0.09178 0.27761
#
# Static dielectric constant tensor:
#      x y z
#    x 1.773360 0.000000 0.000000 
#    y 0.000000 1.687000 0.000000 
#    z 0.000000 0.000000 1.717580 
# 
# From -- ./inp_files/24079.got.cif
#   From: 2010.05.17/outbox.cif.g08.bks.cpg/sg55_13_cif.got.tgz:24079.got - 2010.06.03 13:27:54.
