data_PCOD9428249
_publ_section_title
;
Structure prediction by ZEFSAII (Michael W. Deem and Ramdas Pophale) SiO2 
 PCOD9428249
Probable space group: P B A M
;
_chemical_formula_sum "Si O2"
_cell_formula_units_Z 64
_cell_length_a 9.311611
_cell_length_b 13.228805
_cell_length_c 22.122327
_cell_angle_alpha 90.000000
_cell_angle_beta 90.000000
_cell_angle_gamma 90.000000
_cell_volume 2725.061117
_symmetry_space_group_name_H-M "P B A M"
_symmetry_group_IT_number 55
_symmetry_cell_setting 'orthorhombic'
loop_
_space_group_symop_operation_xyz
x,y,z
-x,-y,z
1/2+x,1/2-y,-z
1/2-x,1/2+y,-z
-x,-y,-z
x,y,-z
1/2-x,1/2+y,z
1/2+x,1/2-y,z
loop_
_atom_site_type_symbol
_atom_site_label
_atom_site_fract_x
_atom_site_fract_y
_atom_site_fract_z
Si Si1 0.842745 0.391732 0.430497
Si Si2 0.822487 0.721248 0.850886
Si Si3 0.651904 0.036892 0.930593
Si Si4 0.918240 0.333344 0.772477
Si Si5 0.045586 0.849503 0.312370
Si Si6 0.254435 0.528536 0.302982
Si Si7 0.582711 0.400031 0.069516
Si Si8 0.551271 0.277918 0.567182
O O1 0.833497 0.433411 0.500000
O O2 0.806335 0.457935 0.371356
O O3 0.996698 0.336606 0.424065
O O4 0.719582 0.303554 0.427299
O O5 0.778710 0.630431 0.895289
O O6 0.695671 0.780858 0.817776
O O7 0.916041 0.802208 0.889145
O O8 0.928295 0.670167 0.803113
O O9 0.500000 0.000000 0.904794
O O10 0.754331 0.940344 0.931695
O O11 0.628402 0.070046 0.000000
O O12 0.930847 0.260208 0.714404
O O13 0.858157 0.437506 0.747015
O O14 0.030075 0.844952 0.384061
O O15 0.892536 0.896790 0.292975
O O16 0.177239 0.919442 0.294294
O O17 0.500000 0.500000 0.092006
O O18 0.535179 0.380380 0.000000
O O19 0.507178 0.306917 0.500000
#
# Coordination Sequence:
#
# PCOD9428249 Si02
#       8
#     8   8   8   8   8   8   8   8
#     4   9  17  31  57  85 111 145 191 251 310 366
#     4  12  25  40  65  91 126 165 207 254 298 365
#     4  10  22  42  66  94 127 157 196 253 308 358
#     4  12  24  40  59  87 122 163 209 245 293 358
#     4  10  21  39  60  83 118 158 201 254 305 360
#     4  10  21  39  60  83 117 159 202 252 308 360
#     4  10  22  42  68  97 126 159 201 250 309 368
#     4   9  17  31  57  85 111 145 190 250 310 364
#
# _framework density 23.485710999999998
#
# number of rings (size 3 to 8) (size 9 to 14) (size 15 to 20)
#    0.000    1.750    2.500    1.875    0.000    3.500 
#    0.000    7.500    0.000    0.000    0.000    3.500 
#    0.000    0.000    0.000    0.000    0.000    0.000 
#
# Total GULP energy -357804.792088 kJ/mol
# GULP energy per Si atom -5590.699876 kJ/mol
# Density = 2.343226 g / cm^3
# Si number density = 23.485711 Si / 1000 Ang^3
#
#
#
# Elastic Constant Matrix: (Units=GPa)
#
#
# Indices 1 2 3 4 5 6 
#
# 1 64.0774 15.5353 20.9346 0.0000 0.0000 0.0000
# 2 15.5353 49.3930 28.6896 0.0000 0.0000 0.0000
# 3 20.9346 28.6896 72.7046 0.0000 0.0000 0.0000
# 4 0.0000 0.0000 0.0000 17.0776 0.0000 0.0000
# 5 0.0000 0.0000 0.0000 0.0000 24.2012 0.0000
# 6 0.0000 0.0000 0.0000 0.0000 0.0000 31.1531
#
#
#
# Elastic Compliance Matrix: (Units=1/GPa)
#
#
# Indices 1 2 3 4 5 6 
#
# 1 0.017649 -0.003372 -0.003751 0.000000 0.000000 0.000000
# 2 -0.003372 0.026910 -0.009648 0.000000 0.000000 0.000000
# 3 -0.003751 -0.009648 0.018642 0.000000 0.000000 0.000000
# 4 0.000000 0.000000 0.000000 0.058556 0.000000 0.000000
# 5 0.000000 0.000000 0.000000 0.000000 0.041320 0.000000
# 6 0.000000 0.000000 0.000000 0.000000 0.000000 0.032099
#
#
# Mechanical properties :
#
#
# Convention : Reuss Voigt Hill
#
# Bulk Modulus (GPa) = 33.71735 35.16601 34.44168
# Shear Modulus (GPa) = 20.95504 22.55409 21.75457
#
# Velocity S-wave (km/s) = 2.99029 3.10229 3.04680
# Velocity P-wave (km/s) = 5.12934 5.27618 5.20328
#
# Compressibility (1/GPa) = 0.02965832
#
# Stress axis : x y z
#
# Youngs Moduli (GPa) = 56.65951 37.16038 53.64351
#
# Poissons Ratio (x) = 0.12531 0.20123
# Poissons Ratio (y) = 0.19107 0.51755
# Poissons Ratio (z) = 0.21254 0.35852
#
# Static dielectric constant tensor:
#      x y z
#    x 1.916000 0.000000 0.000000 
#    y 0.000000 1.857790 0.000000 
#    z 0.000000 0.000000 1.892340 
# 
# From -- ./inp_files/23487.got.cif
#   From: 2010.05.17/outbox.cif.g08.bks.cpg/sg55_12_cif.got.tgz:23487.got - 2010.06.03 13:27:54.
