data_PCOD9428193
_publ_section_title
;
Structure prediction by ZEFSAII (Michael W. Deem and Ramdas Pophale) SiO2 
 PCOD9428193
Probable space group: P B A M
;
_chemical_formula_sum "Si O2"
_cell_formula_units_Z 40
_cell_length_a 16.973160
_cell_length_b 12.826501
_cell_length_c 7.916753
_cell_angle_alpha 90.000000
_cell_angle_beta 90.000000
_cell_angle_gamma 90.000000
_cell_volume 1723.526637
_symmetry_space_group_name_H-M "P B A M"
_symmetry_group_IT_number 55
_symmetry_cell_setting 'orthorhombic'
loop_
_space_group_symop_operation_xyz
x,y,z
-x,-y,z
1/2+x,1/2-y,-z
1/2-x,1/2+y,-z
-x,-y,-z
x,y,-z
1/2-x,1/2+y,z
1/2+x,1/2-y,z
loop_
_atom_site_type_symbol
_atom_site_label
_atom_site_fract_x
_atom_site_fract_y
_atom_site_fract_z
Si Si1 0.086594 0.967280 0.803142
Si Si2 0.114193 0.566771 0.197756
Si Si3 0.153070 0.176995 0.308504
Si Si4 0.808393 0.226857 0.795813
Si Si5 0.064200 0.352350 0.802040
O O1 0.137568 0.869208 0.733813
O O2 0.141482 0.070164 0.791777
O O3 0.071613 0.941743 0.000000
O O4 0.000000 0.000000 0.730573
O O5 0.163311 0.660697 0.272673
O O6 0.113219 0.450689 0.269855
O O7 0.025314 0.609012 0.200424
O O8 0.137267 0.554784 0.000000
O O9 0.169338 0.148872 0.500000
O O10 0.216388 0.262295 0.245172
O O11 0.073558 0.244163 0.291964
O O12 0.815705 0.226421 0.000000
O O13 0.083694 0.335213 0.000000
#
# Coordination Sequence:
#
# PCOD9428193 Si02
#       5
#     8   8   8   8   8
#     4  10  22  43  71  96 119 156 213 270 314 365
#     4   8  16  33  62  92 113 140 190 252 304 347
#     4  12  26  39  55  86 130 169 200 241 300 371
#     4  10  21  38  62  90 119 155 203 256 306 357
#     4   9  17  35  62  89 115 147 194 248 296 353
#
# _framework density 23.208228999999999
#
# number of rings (size 3 to 8) (size 9 to 14) (size 15 to 20)
#    0.000    2.200    0.000    4.200    2.800    4.400 
#    0.000    5.000    0.000    0.000    0.000    0.000 
#    0.000    0.000    0.000    0.000    0.000    0.000 
#
# Total GULP energy -222969.734517 kJ/mol
# GULP energy per Si atom -5574.243363 kJ/mol
# Density = 2.315541 g / cm^3
# Si number density = 23.208229 Si / 1000 Ang^3
#
#
#
# Elastic Constant Matrix: (Units=GPa)
#
#
# Indices 1 2 3 4 5 6 
#
# 1 48.5249 10.9855 1.0656 0.0000 0.0000 0.0000
# 2 10.9855 78.4676 -8.6173 0.0000 0.0000 0.0000
# 3 1.0656 -8.6173 27.8511 0.0000 0.0000 0.0000
# 4 0.0000 0.0000 0.0000 -20.8244 0.0000 0.0000
# 5 0.0000 0.0000 0.0000 0.0000 -6.8003 0.0000
# 6 0.0000 0.0000 0.0000 0.0000 0.0000 40.4841
#
#
#
# Elastic Compliance Matrix: (Units=1/GPa)
#
#
# Indices 1 2 3 4 5 6 
#
# 1 0.021370 -0.003190 -0.001805 0.000000 0.000000 0.000000
# 2 -0.003190 0.013669 0.004351 0.000000 0.000000 0.000000
# 3 -0.001805 0.004351 0.037320 0.000000 0.000000 0.000000
# 4 0.000000 0.000000 0.000000 -0.048021 0.000000 0.000000
# 5 0.000000 0.000000 0.000000 0.000000 -0.147053 0.000000
# 6 0.000000 0.000000 0.000000 0.000000 0.000000 0.024701
#
#
# Mechanical properties :
#
#
# Convention : Reuss Voigt Hill
#
# Bulk Modulus (GPa) = 14.07025 17.96793 16.01909
# Shear Modulus (GPa) = -68.45926 12.66585 -27.89670
#
# Velocity S-wave (km/s) = -5.43708 2.33866 -3.47077
# Velocity P-wave (km/s) = 5.77409 3.87960 3.02397
#
# Compressibility (1/GPa) = 0.07107196
#
# Stress axis : x y z
#
# Youngs Moduli (GPa) = 46.79501 73.16060 26.79493
#
# Poissons Ratio (x) = 0.23338 0.04835
# Poissons Ratio (y) = 0.14927 -0.11659
# Poissons Ratio (z) = 0.08445 -0.31833
#
# Static dielectric constant tensor:
#      x y z
#    x 2.143520 0.000000 0.000000 
#    y 0.000000 1.975030 0.000000 
#    z 0.000000 0.000000 1.874370 
# 
# From -- ./inp_files/3607.got.cif
#   From: 2010.05.17/outbox.cif.g08.bks.cpg/sg55_2_cif.got.tgz:3607.got - 2010.06.03 13:27:54.
