data_PCOD9428270
_publ_section_title
;
Structure prediction by ZEFSAII (Michael W. Deem and Ramdas Pophale) SiO2 
 PCOD9428270
Probable space group: P B A M
;
_chemical_formula_sum "Si O2"
_cell_formula_units_Z 64
_cell_length_a 11.071227
_cell_length_b 33.041064
_cell_length_c 9.013397
_cell_angle_alpha 90.000000
_cell_angle_beta 90.000000
_cell_angle_gamma 90.000000
_cell_volume 3297.146770
_symmetry_space_group_name_H-M "P B A M"
_symmetry_group_IT_number 55
_symmetry_cell_setting 'orthorhombic'
loop_
_space_group_symop_operation_xyz
x,y,z
-x,-y,z
1/2+x,1/2-y,-z
1/2-x,1/2+y,-z
-x,-y,-z
x,y,-z
1/2-x,1/2+y,z
1/2+x,1/2-y,z
loop_
_atom_site_type_symbol
_atom_site_label
_atom_site_fract_x
_atom_site_fract_y
_atom_site_fract_z
Si Si1 0.621862 0.974212 0.178410
Si Si2 0.010340 0.831700 0.331126
Si Si3 0.081358 0.612655 0.675848
Si Si4 0.266748 0.190419 0.669472
Si Si5 0.875634 0.098778 0.169814
Si Si6 0.700495 0.725865 0.176032
Si Si7 0.136381 0.345575 0.169572
Si Si8 0.862155 0.013609 0.322395
O O1 0.601045 0.928701 0.235907
O O2 0.500000 0.000000 0.218470
O O3 0.747565 0.990853 0.247975
O O4 0.632058 0.975494 0.000000
O O5 0.049375 0.840194 0.500000
O O6 0.021120 0.872831 0.237619
O O7 0.095829 0.798176 0.259526
O O8 0.876005 0.815255 0.331820
O O9 0.088484 0.604487 0.500000
O O10 0.176995 0.647627 0.715123
O O11 0.955418 0.633414 0.720074
O O12 0.308327 0.198776 0.500000
O O13 0.297497 0.228231 0.771657
O O14 0.757621 0.127426 0.169693
O O15 0.853585 0.059857 0.269348
O O16 0.900560 0.086866 0.000000
O O17 0.822667 0.700048 0.208986
O O18 0.182288 0.777251 0.000000
O O19 0.088536 0.345775 0.000000
O O20 0.851448 0.009595 0.500000
O O21 0.000000 0.000000 0.281505
#
# Coordination Sequence:
#
# PCOD9428270 Si02
#       8
#     8   8   8   8   8   8   8   8
#     4  11  25  45  68  96 130 167 210 264 322 382
#     4  10  21  39  62  86 120 160 201 250 303 361
#     4  11  24  40  62  92 125 161 205 252 306 370
#     4  10  24  41  58  85 122 161 200 250 305 360
#     4  10  21  39  63  91 122 157 204 252 302 364
#     4  10  22  39  61  89 120 157 205 255 303 361
#     4   9  20  39  60  88 122 157 199 251 300 355
#     4  11  25  42  64  94 129 167 209 259 315 380
#
# _framework density 19.410723000000001
#
# number of rings (size 3 to 8) (size 9 to 14) (size 15 to 20)
#    0.000    1.750    0.000    3.750    3.500   10.000 
#    0.000    0.000    0.000    0.000    0.000    0.000 
#    0.000    0.000    0.000    0.000    0.000    0.000 
#
# Total GULP energy -357346.187050 kJ/mol
# GULP energy per Si atom -5583.534173 kJ/mol
# Density = 1.936654 g / cm^3
# Si number density = 19.410723 Si / 1000 Ang^3
#
#
#
# Elastic Constant Matrix: (Units=GPa)
#
#
# Indices 1 2 3 4 5 6 
#
# 1 82.4030 45.8936 46.0982 0.0000 0.0000 0.0000
# 2 45.8936 107.3647 45.6258 0.0000 0.0000 0.0000
# 3 46.0982 45.6258 64.6308 0.0000 0.0000 0.0000
# 4 0.0000 0.0000 0.0000 33.5450 0.0000 0.0000
# 5 0.0000 0.0000 0.0000 0.0000 54.3936 0.0000
# 6 0.0000 0.0000 0.0000 0.0000 0.0000 20.5979
#
#
#
# Elastic Compliance Matrix: (Units=1/GPa)
#
#
# Indices 1 2 3 4 5 6 
#
# 1 0.021208 -0.003767 -0.012467 0.000000 0.000000 0.000000
# 2 -0.003767 0.013975 -0.007178 0.000000 0.000000 0.000000
# 3 -0.012467 -0.007178 0.029432 0.000000 0.000000 0.000000
# 4 0.000000 0.000000 0.000000 0.029811 0.000000 0.000000
# 5 0.000000 0.000000 0.000000 0.000000 0.018385 0.000000
# 6 0.000000 0.000000 0.000000 0.000000 0.000000 0.048549
#
#
# Mechanical properties :
#
#
# Convention : Reuss Voigt Hill
#
# Bulk Modulus (GPa) = 56.21340 58.84820 57.53080
# Shear Modulus (GPa) = 23.35189 29.49269 26.42229
#
# Velocity S-wave (km/s) = 3.47225 3.90218 3.69348
# Velocity P-wave (km/s) = 6.71552 7.11940 6.92041
#
# Compressibility (1/GPa) = 0.01778935
#
# Stress axis : x y z
#
# Youngs Moduli (GPa) = 47.15157 71.55619 33.97623
#
# Poissons Ratio (x) = 0.26959 0.42359
# Poissons Ratio (y) = 0.17764 0.24390
# Poissons Ratio (z) = 0.58785 0.51366
#
# Static dielectric constant tensor:
#      x y z
#    x 1.667560 0.000000 0.000000 
#    y 0.000000 1.653750 0.000000 
#    z 0.000000 0.000000 1.676410 
# 
# From -- ./inp_files/4632.got.cif
#   From: 2010.05.17/outbox.cif.g08.bks.cpg/sg55_3_cif.got.tgz:4632.got - 2010.06.03 13:27:54.
