data_PCOD9428554
_publ_section_title
;
Structure prediction by ZEFSAII (Michael W. Deem and Ramdas Pophale) SiO2 
 PCOD9428554
Probable space group: P B A M
;
_chemical_formula_sum "Si O2"
_cell_formula_units_Z 48
_cell_length_a 9.591455
_cell_length_b 17.196414
_cell_length_c 14.816725
_cell_angle_alpha 90.000000
_cell_angle_beta 90.000000
_cell_angle_gamma 90.000000
_cell_volume 2443.850338
_symmetry_space_group_name_H-M "P B A M"
_symmetry_group_IT_number 55
_symmetry_cell_setting 'orthorhombic'
loop_
_space_group_symop_operation_xyz
x,y,z
-x,-y,z
1/2+x,1/2-y,-z
1/2-x,1/2+y,-z
-x,-y,-z
x,y,-z
1/2-x,1/2+y,z
1/2+x,1/2-y,z
loop_
_atom_site_type_symbol
_atom_site_label
_atom_site_fract_x
_atom_site_fract_y
_atom_site_fract_z
Si Si1 0.426970 0.080412 0.104863
Si Si2 0.354129 0.718590 0.399456
Si Si3 0.652520 0.645084 0.601779
Si Si4 0.300408 0.668083 0.790415
Si Si5 0.705393 0.172898 0.104594
Si Si6 0.921713 0.080907 0.209459
O O1 0.298801 0.104492 0.166016
O O2 0.544858 0.146929 0.110593
O O3 0.500000 0.000000 0.131253
O O4 0.383410 0.073244 0.000000
O O5 0.312269 0.692803 0.500000
O O6 0.294843 0.805749 0.389077
O O7 0.520628 0.705244 0.393241
O O8 0.286703 0.671887 0.317338
O O9 0.647563 0.610997 0.500000
O O10 0.630572 0.588975 0.686823
O O11 0.268793 0.751391 0.834750
O O12 0.460687 0.646285 0.807669
O O13 0.796928 0.101827 0.142637
O O14 0.739066 0.188675 0.000000
O O15 0.000000 0.000000 0.195740
#
# Coordination Sequence:
#
# PCOD9428554 Si02
#       6
#     8   8   8   8   8   8
#     4  10  22  39  57  79 111 150 185 224 281 336
#     4   9  18  32  54  82 109 141 181 228 274 321
#     4   9  18  34  55  82 113 145 182 225 273 326
#     4  11  21  36  59  83 110 144 186 235 270 327
#     4  11  23  38  58  82 109 143 189 235 273 326
#     4  11  23  37  56  86 118 148 182 227 285 334
#
# _framework density 19.641138000000002
#
# number of rings (size 3 to 8) (size 9 to 14) (size 15 to 20)
#    0.000    1.833    1.667    2.500    2.333    3.333 
#    0.000    0.000    0.000    0.500    0.000    0.000 
#    0.000    0.000    0.000    0.000    0.000    0.000 
#
# Total GULP energy -267859.702996 kJ/mol
# GULP energy per Si atom -5580.410479 kJ/mol
# Density = 1.959643 g / cm^3
# Si number density = 19.641138 Si / 1000 Ang^3
#
#
#
# Elastic Constant Matrix: (Units=GPa)
#
#
# Indices 1 2 3 4 5 6 
#
# 1 33.0671 -9.0374 26.3888 0.0000 0.0000 0.0000
# 2 -9.0374 39.1420 5.5672 0.0000 0.0000 0.0000
# 3 26.3888 5.5672 78.9271 0.0000 0.0000 0.0000
# 4 0.0000 0.0000 0.0000 21.4762 0.0000 0.0000
# 5 0.0000 0.0000 0.0000 0.0000 23.8965 0.0000
# 6 0.0000 0.0000 0.0000 0.0000 0.0000 22.2728
#
#
#
# Elastic Compliance Matrix: (Units=1/GPa)
#
#
# Indices 1 2 3 4 5 6 
#
# 1 0.047217 0.013280 -0.016724 0.000000 0.000000 0.000000
# 2 0.013280 0.029542 -0.006524 0.000000 0.000000 0.000000
# 3 -0.016724 -0.006524 0.018722 0.000000 0.000000 0.000000
# 4 0.000000 0.000000 0.000000 0.046563 0.000000 0.000000
# 5 0.000000 0.000000 0.000000 0.000000 0.041847 0.000000
# 6 0.000000 0.000000 0.000000 0.000000 0.000000 0.044898
#
#
# Mechanical properties :
#
#
# Convention : Reuss Voigt Hill
#
# Bulk Modulus (GPa) = 13.23685 21.88593 17.56139
# Shear Modulus (GPa) = 18.25448 22.07694 20.16571
#
# Velocity S-wave (km/s) = 3.05191 3.35627 3.20770
# Velocity P-wave (km/s) = 4.37869 5.11727 4.76232
#
# Compressibility (1/GPa) = 0.07554668
#
# Stress axis : x y z
#
# Youngs Moduli (GPa) = 21.17874 33.84984 53.41446
#
# Poissons Ratio (x) = -0.44954 0.89328
# Poissons Ratio (y) = -0.28126 0.34848
# Poissons Ratio (z) = 0.35418 0.22084
#
# Static dielectric constant tensor:
#      x y z
#    x 1.692990 0.000000 0.000000 
#    y 0.000000 1.695100 0.000000 
#    z 0.000000 0.000000 1.695490 
# 
# From -- ./inp_files/17323.got.cif
#   From: 2010.05.17/outbox.cif.g08.bks.cpg/sg55_9_cif.got.tgz:17323.got - 2010.06.03 13:27:54.
