data_PCOD9428660
_publ_section_title
;
Structure prediction by ZEFSAII (Michael W. Deem and Ramdas Pophale) SiO2 
 PCOD9428660
Probable space group: P B A M
;
_chemical_formula_sum "Si O2"
_cell_formula_units_Z 32
_cell_length_a 4.882289
_cell_length_b 33.682234
_cell_length_c 7.890395
_cell_angle_alpha 90.000000
_cell_angle_beta 90.000000
_cell_angle_gamma 90.000000
_cell_volume 1297.547057
_symmetry_space_group_name_H-M "P B A M"
_symmetry_group_IT_number 55
_symmetry_cell_setting 'orthorhombic'
loop_
_space_group_symop_operation_xyz
x,y,z
-x,-y,z
1/2+x,1/2-y,-z
1/2-x,1/2+y,-z
-x,-y,-z
x,y,-z
1/2-x,1/2+y,z
1/2+x,1/2-y,z
loop_
_atom_site_type_symbol
_atom_site_label
_atom_site_fract_x
_atom_site_fract_y
_atom_site_fract_z
Si Si1 0.160492 0.414144 0.306574
Si Si2 0.200966 0.220293 0.500000
Si Si3 0.924048 0.330423 0.191250
Si Si4 0.845751 0.961339 0.195338
Si Si5 0.802095 0.221906 0.000000
O O1 0.248548 0.410298 0.500000
O O2 0.020742 0.373527 0.248357
O O3 0.927988 0.447683 0.286988
O O4 0.428174 0.426595 0.203462
O O5 0.414548 0.256992 0.500000
O O6 0.257005 0.192504 0.664190
O O7 0.799541 0.334688 0.000000
O O8 0.196977 0.304045 0.157077
O O9 0.773308 0.969476 0.000000
O O10 0.000000 0.000000 0.266474
O O11 0.099294 0.240120 0.000000
#
# Coordination Sequence:
#
# PCOD9428660 Si02
#       5
#     8   4   8   8   4
#     4  12  25  45  68 104 141 180 231 287 345 411
#     4  12  26  44  68  98 135 174 227 284 338 404
#     4  10  24  45  68  99 134 181 224 280 340 406
#     4  11  25  45  72 101 137 183 232 281 344 417
#     4  10  22  40  64  94 125 170 223 272 332 396
#
# _framework density 24.661919999999999
#
# number of rings (size 3 to 8) (size 9 to 14) (size 15 to 20)
#    0.750    0.250    1.250    5.250    0.000    9.000 
#    0.000    0.000    0.000    0.000    0.000    0.000 
#    0.000    0.000    0.000    0.000    0.000    0.000 
#
# Total GULP energy -179251.574062 kJ/mol
# GULP energy per Si atom -5601.611689 kJ/mol
# Density = 2.460579 g / cm^3
# Si number density = 24.661920 Si / 1000 Ang^3
#
#
#
# Elastic Constant Matrix: (Units=GPa)
#
#
# Indices 1 2 3 4 5 6 
#
# 1 72.1150 -5.1388 1.2740 0.0000 0.0000 0.0000
# 2 -5.1388 80.7692 10.8757 0.0000 0.0000 0.0000
# 3 1.2740 10.8757 129.5464 0.0000 0.0000 0.0000
# 4 0.0000 0.0000 0.0000 40.7828 0.0000 0.0000
# 5 0.0000 0.0000 0.0000 0.0000 379.8235 0.0000
# 6 0.0000 0.0000 0.0000 0.0000 0.0000 11.8543
#
#
#
# Elastic Compliance Matrix: (Units=1/GPa)
#
#
# Indices 1 2 3 4 5 6 
#
# 1 0.013936 0.000915 -0.000214 0.000000 0.000000 0.000000
# 2 0.000915 0.012583 -0.001065 0.000000 0.000000 0.000000
# 3 -0.000214 -0.001065 0.007811 0.000000 0.000000 0.000000
# 4 0.000000 0.000000 0.000000 0.024520 0.000000 0.000000
# 5 0.000000 0.000000 0.000000 0.000000 0.002633 0.000000
# 6 0.000000 0.000000 0.000000 0.000000 0.000000 0.084358
#
#
# Mechanical properties :
#
#
# Convention : Reuss Voigt Hill
#
# Bulk Modulus (GPa) = 29.76050 32.93916 31.34983
# Shear Modulus (GPa) = 31.69214 104.85342 68.27278
#
# Velocity S-wave (km/s) = 3.58867 6.52753 5.26722
# Velocity P-wave (km/s) = 5.40971 8.37835 7.05201
#
# Compressibility (1/GPa) = 0.03360159
#
# Stress axis : x y z
#
# Youngs Moduli (GPa) = 71.75784 79.47450 128.02817
#
# Poissons Ratio (x) = -0.07275 0.02739
# Poissons Ratio (y) = -0.06569 0.13639
# Poissons Ratio (z) = 0.01535 0.08467
#
# Static dielectric constant tensor:
#      x y z
#    x 1.950800 0.000000 0.000000 
#    y 0.000000 1.969760 0.000000 
#    z 0.000000 0.000000 1.939280 
# 
# From -- ./inp_files/1337.got.cif
#   From: 2010.05.17/outbox.cif.g08.bks.cpg/sg55_1_cif.got.tgz:1337.got - 2010.06.03 13:27:54.
