data_PCOD9428929
_publ_section_title
;
Structure prediction by ZEFSAII (Michael W. Deem and Ramdas Pophale) SiO2 
 PCOD9428929
Probable space group: P B A M
;
_chemical_formula_sum "Si O2"
_cell_formula_units_Z 36
_cell_length_a 8.889697
_cell_length_b 9.153202
_cell_length_c 18.388131
_cell_angle_alpha 90.000000
_cell_angle_beta 90.000000
_cell_angle_gamma 90.000000
_cell_volume 1496.227368
_symmetry_space_group_name_H-M "P B A M"
_symmetry_group_IT_number 55
_symmetry_cell_setting 'orthorhombic'
loop_
_space_group_symop_operation_xyz
x,y,z
-x,-y,z
1/2+x,1/2-y,-z
1/2-x,1/2+y,-z
-x,-y,-z
x,y,-z
1/2-x,1/2+y,z
1/2+x,1/2-y,z
loop_
_atom_site_type_symbol
_atom_site_label
_atom_site_fract_x
_atom_site_fract_y
_atom_site_fract_z
Si Si1 0.274051 0.543016 0.636761
Si Si2 0.318487 0.155220 0.885395
Si Si3 0.549988 0.721473 0.583156
Si Si4 0.164950 0.927433 0.793720
Si Si5 0.577495 0.214967 0.000000
O O1 0.412681 0.659190 0.631228
O O2 0.326508 0.409523 0.585579
O O3 0.127936 0.632816 0.613237
O O4 0.268715 0.469468 0.715808
O O5 0.265861 0.000639 0.855807
O O6 0.342412 0.258530 0.815025
O O7 0.461390 0.159005 0.936578
O O8 0.186287 0.214194 0.936818
O O9 0.499733 0.740798 0.500000
O O10 0.000000 0.000000 0.797899
#
# Coordination Sequence:
#
# PCOD9428929 Si02
#       5
#     8   8   8   8   4
#     4  11  24  42  67  96 135 175 219 273 331 398
#     4  11  25  43  72  95 136 177 221 278 327 400
#     4  11  22  42  67  98 133 174 219 272 331 393
#     4  12  24  45  66  99 135 173 220 273 336 391
#     4  10  24  44  66 104 128 178 226 270 336 388
#
# _framework density 24.060514000000001
#
# number of rings (size 3 to 8) (size 9 to 14) (size 15 to 20)
#    0.000    0.889    4.444    4.000    0.000    7.111 
#    0.000    4.444    0.000    0.000    0.000    0.000 
#    0.000    0.000    0.000    0.000    0.000    0.000 
#
# Total GULP energy -200563.188557 kJ/mol
# GULP energy per Si atom -5571.199682 kJ/mol
# Density = 2.400575 g / cm^3
# Si number density = 24.060514 Si / 1000 Ang^3
#
#
#
# Elastic Constant Matrix: (Units=GPa)
#
#
# Indices 1 2 3 4 5 6 
#
# 1 38.5719 10.5006 17.3368 0.0000 0.0000 0.0000
# 2 10.5006 75.9527 20.5430 0.0000 0.0000 0.0000
# 3 17.3368 20.5430 142.3328 0.0000 0.0000 0.0000
# 4 0.0000 0.0000 0.0000 -94.9987 0.0000 0.0000
# 5 0.0000 0.0000 0.0000 0.0000 38.8222 0.0000
# 6 0.0000 0.0000 0.0000 0.0000 0.0000 37.2806
#
#
#
# Elastic Compliance Matrix: (Units=1/GPa)
#
#
# Indices 1 2 3 4 5 6 
#
# 1 0.028103 -0.003080 -0.002979 0.000000 0.000000 0.000000
# 2 -0.003080 0.014038 -0.001651 0.000000 0.000000 0.000000
# 3 -0.002979 -0.001651 0.007627 0.000000 0.000000 0.000000
# 4 0.000000 0.000000 0.000000 -0.010526 0.000000 0.000000
# 5 0.000000 0.000000 0.000000 0.000000 0.025758 0.000000
# 6 0.000000 0.000000 0.000000 0.000000 0.000000 0.026824
#
#
# Mechanical properties :
#
#
# Convention : Reuss Voigt Hill
#
# Bulk Modulus (GPa) = 29.11244 39.29088 34.20166
# Shear Modulus (GPa) = 42.12582 10.11928 26.12255
#
# Velocity S-wave (km/s) = 4.18883 2.05302 3.29857
# Velocity P-wave (km/s) = 5.95995 4.68885 5.36220
#
# Compressibility (1/GPa) = 0.03434958
#
# Stress axis : x y z
#
# Youngs Moduli (GPa) = 35.58367 71.23306 131.11508
#
# Poissons Ratio (x) = 0.21937 0.39053
# Poissons Ratio (y) = 0.10958 0.21648
# Poissons Ratio (z) = 0.10599 0.11761
#
# Static dielectric constant tensor:
#      x y z
#    x 1.918480 0.000000 0.000000 
#    y 0.000000 1.916350 0.000000 
#    z 0.000000 0.000000 1.856740 
# 
# From -- ./inp_files/22474.got.cif
#   From: 2010.05.17/outbox.cif.g08.bks.cpg/sg55_12_cif.got.tgz:22474.got - 2010.06.03 13:27:54.
