data_PCOD9428326
_publ_section_title
;
Structure prediction by ZEFSAII (Michael W. Deem and Ramdas Pophale) SiO2 
 PCOD9428326
Probable space group: P B A M
;
_chemical_formula_sum "Si O2"
_cell_formula_units_Z 32
_cell_length_a 16.547201
_cell_length_b 9.857037
_cell_length_c 7.795652
_cell_angle_alpha 90.000000
_cell_angle_beta 90.000000
_cell_angle_gamma 90.000000
_cell_volume 1271.520519
_symmetry_space_group_name_H-M "P B A M"
_symmetry_group_IT_number 55
_symmetry_cell_setting 'orthorhombic'
loop_
_space_group_symop_operation_xyz
x,y,z
-x,-y,z
1/2+x,1/2-y,-z
1/2-x,1/2+y,-z
-x,-y,-z
x,y,-z
1/2-x,1/2+y,z
1/2+x,1/2-y,z
loop_
_atom_site_type_symbol
_atom_site_label
_atom_site_fract_x
_atom_site_fract_y
_atom_site_fract_z
Si Si1 0.656254 0.168858 0.196317
Si Si2 0.014182 0.646186 0.695843
Si Si3 0.419827 0.418761 0.289924
Si Si4 0.258331 0.573718 0.295190
O O1 0.577430 0.203864 0.306910
O O2 0.728607 0.270816 0.244307
O O3 0.684670 0.014872 0.225689
O O4 0.634564 0.190186 0.000000
O O5 0.042356 0.621555 0.500000
O O6 0.000000 0.500000 0.781154
O O7 0.069987 0.763568 0.770424
O O8 0.500000 0.500000 0.237821
O O9 0.419047 0.414457 0.500000
O O10 0.339616 0.496164 0.234708
O O11 0.253747 0.567238 0.500000
#
# Coordination Sequence:
#
# PCOD9428326 Si02
#       4
#     8   8   8   8
#     4  12  26  43  61  93 135 169 206 264 330 382
#     4  10  21  39  65  94 123 162 216 267 312 374
#     4   9  17  35  63  93 117 148 206 269 307 355
#     4  11  23  42  68  92 122 170 220 262 312 382
#
# _framework density 25.166719000000001
#
# number of rings (size 3 to 8) (size 9 to 14) (size 15 to 20)
#    0.000    1.500    2.500    3.000    3.500    0.500 
#    0.000    3.750    0.000    0.000    0.000    0.000 
#    0.000    0.000    0.000    0.000    0.000    0.000 
#
# Total GULP energy -179113.736324 kJ/mol
# GULP energy per Si atom -5597.304260 kJ/mol
# Density = 2.510944 g / cm^3
# Si number density = 25.166719 Si / 1000 Ang^3
#
#
#
# Elastic Constant Matrix: (Units=GPa)
#
#
# Indices 1 2 3 4 5 6 
#
# 1 75.2035 -3.6934 -3.5785 0.0000 0.0000 0.0000
# 2 -3.6934 132.4433 -4.6287 0.0000 0.0000 0.0000
# 3 -3.5785 -4.6287 72.0501 0.0000 0.0000 0.0000
# 4 0.0000 0.0000 0.0000 12.0082 0.0000 0.0000
# 5 0.0000 0.0000 0.0000 0.0000 -3.4865 0.0000
# 6 0.0000 0.0000 0.0000 0.0000 0.0000 47.5239
#
#
#
# Elastic Compliance Matrix: (Units=1/GPa)
#
#
# Indices 1 2 3 4 5 6 
#
# 1 0.013349 0.000396 0.000688 0.000000 0.000000 0.000000
# 2 0.000396 0.007579 0.000507 0.000000 0.000000 0.000000
# 3 0.000688 0.000507 0.013946 0.000000 0.000000 0.000000
# 4 0.000000 0.000000 0.000000 0.083276 0.000000 0.000000
# 5 0.000000 0.000000 0.000000 0.000000 -0.286824 0.000000
# 6 0.000000 0.000000 0.000000 0.000000 0.000000 0.021042
#
#
# Mechanical properties :
#
#
# Convention : Reuss Voigt Hill
#
# Bulk Modulus (GPa) = 26.27608 28.43286 27.35447
# Shear Modulus (GPa) = -36.19840 30.64896 -2.77472
#
# Velocity S-wave (km/s) = -3.79666 3.49354 -1.05116
# Velocity P-wave (km/s) = 2.95907 5.25313 3.06915
#
# Compressibility (1/GPa) = 0.03805742
#
# Stress axis : x y z
#
# Youngs Moduli (GPa) = 74.90926 131.94078 71.70533
#
# Poissons Ratio (x) = -0.05229 -0.04937
# Poissons Ratio (y) = -0.02969 -0.03633
# Poissons Ratio (z) = -0.05157 -0.06684
#
# Static dielectric constant tensor:
#      x y z
#    x 2.001790 0.000000 0.000000 
#    y 0.000000 2.013830 0.000000 
#    z 0.000000 0.000000 1.945540 
# 
# From -- ./inp_files/2010.got.cif
#   From: 2010.05.17/outbox.cif.g08.bks.cpg/sg55_2_cif.got.tgz:2010.got - 2010.06.03 13:27:54.
