data_PCOD9428932
_publ_section_title
;
Structure prediction by ZEFSAII (Michael W. Deem and Ramdas Pophale) SiO2 
 PCOD9428932
Probable space group: P B A M
;
_chemical_formula_sum "Si O2"
_cell_formula_units_Z 40
_cell_length_a 10.186925
_cell_length_b 10.214548
_cell_length_c 17.339735
_cell_angle_alpha 90.000000
_cell_angle_beta 90.000000
_cell_angle_gamma 90.000000
_cell_volume 1804.283254
_symmetry_space_group_name_H-M "P B A M"
_symmetry_group_IT_number 55
_symmetry_cell_setting 'orthorhombic'
loop_
_space_group_symop_operation_xyz
x,y,z
-x,-y,z
1/2+x,1/2-y,-z
1/2-x,1/2+y,-z
-x,-y,-z
x,y,-z
1/2-x,1/2+y,z
1/2+x,1/2-y,z
loop_
_atom_site_type_symbol
_atom_site_label
_atom_site_fract_x
_atom_site_fract_y
_atom_site_fract_z
Si Si1 0.157155 0.503573 0.909660
Si Si2 0.771702 0.749348 0.180502
Si Si3 0.866338 0.819665 0.410153
Si Si4 0.146352 0.482820 0.591114
Si Si5 0.976751 0.151447 0.732005
O O1 0.222225 0.617677 0.859113
O O2 0.212661 0.364268 0.882623
O O3 0.000000 0.500000 0.898136
O O4 0.182946 0.526413 0.000000
O O5 0.662753 0.701016 0.240589
O O6 0.909257 0.769876 0.223533
O O7 0.893544 0.847595 0.500000
O O8 0.758089 0.921061 0.378042
O O9 0.819520 0.669730 0.404833
O O10 0.995312 0.832307 0.358560
O O11 0.136401 0.518950 0.500000
O O12 0.000000 0.500000 0.625096
O O13 0.000000 0.000000 0.751827
#
# Coordination Sequence:
#
# PCOD9428932 Si02
#       5
#     8   8   8   8   8
#     4  11  24  46  78 112 147 186 231 289 354 426
#     4  12  25  49  70 110 148 187 237 289 354 437
#     4  10  24  44  68 100 136 186 251 306 364 427
#     4   9  20  40  65  94 131 171 233 312 368 423
#     4  12  28  45  72 104 146 195 237 298 368 420
#
# _framework density 22.169467000000001
#
# number of rings (size 3 to 8) (size 9 to 14) (size 15 to 20)
#    0.000    1.200    4.000    0.600    5.600    0.400 
#    0.000    1.000    0.000    0.000    0.000    0.000 
#    0.000    0.000    0.000    0.000    0.000    0.000 
#
# Total GULP energy -224064.470122 kJ/mol
# GULP energy per Si atom -5601.611753 kJ/mol
# Density = 2.211901 g / cm^3
# Si number density = 22.169467 Si / 1000 Ang^3
#
#
#
# Elastic Constant Matrix: (Units=GPa)
#
#
# Indices 1 2 3 4 5 6 
#
# 1 76.7007 0.4904 21.6050 0.0000 0.0000 0.0000
# 2 0.4904 80.2141 2.2585 0.0000 0.0000 0.0000
# 3 21.6050 2.2585 70.0584 0.0000 0.0000 0.0000
# 4 0.0000 0.0000 0.0000 19.9809 0.0000 0.0000
# 5 0.0000 0.0000 0.0000 0.0000 27.5209 0.0000
# 6 0.0000 0.0000 0.0000 0.0000 0.0000 32.2128
#
#
#
# Elastic Compliance Matrix: (Units=1/GPa)
#
#
# Indices 1 2 3 4 5 6 
#
# 1 0.014278 0.000037 -0.004404 0.000000 0.000000 0.000000
# 2 0.000037 0.012478 -0.000414 0.000000 0.000000 0.000000
# 3 -0.004404 -0.000414 0.015645 0.000000 0.000000 0.000000
# 4 0.000000 0.000000 0.000000 0.050048 0.000000 0.000000
# 5 0.000000 0.000000 0.000000 0.000000 0.036336 0.000000
# 6 0.000000 0.000000 0.000000 0.000000 0.000000 0.031044
#
#
# Mechanical properties :
#
#
# Convention : Reuss Voigt Hill
#
# Bulk Modulus (GPa) = 30.45150 30.63121 30.54136
# Shear Modulus (GPa) = 27.72579 29.45089 28.58834
#
# Velocity S-wave (km/s) = 3.54026 3.64874 3.59491
# Velocity P-wave (km/s) = 5.52059 5.62120 5.57112
#
# Compressibility (1/GPa) = 0.03283910
#
# Stress axis : x y z
#
# Youngs Moduli (GPa) = 70.03747 80.14069 63.91662
#
# Poissons Ratio (x) = -0.00294 0.28151
# Poissons Ratio (y) = -0.00257 0.02643
# Poissons Ratio (z) = 0.30847 0.03314
#
# Static dielectric constant tensor:
#      x y z
#    x 1.810370 0.000000 0.000000 
#    y 0.000000 1.806420 0.000000 
#    z 0.000000 0.000000 1.798870 
# 
# From -- ./inp_files/20618.got.cif
#   From: 2010.05.17/outbox.cif.g08.bks.cpg/sg55_11_cif.got.tgz:20618.got - 2010.06.03 13:27:54.
