data_PCOD9428213
_publ_section_title
;
Structure prediction by ZEFSAII (Michael W. Deem and Ramdas Pophale) SiO2 
 PCOD9428213
Probable space group: P B A M
;
_chemical_formula_sum "Si O2"
_cell_formula_units_Z 28
_cell_length_a 13.451715
_cell_length_b 10.469578
_cell_length_c 8.011380
_cell_angle_alpha 90.000000
_cell_angle_beta 90.000000
_cell_angle_gamma 90.000000
_cell_volume 1128.272924
_symmetry_space_group_name_H-M "P B A M"
_symmetry_group_IT_number 55
_symmetry_cell_setting 'orthorhombic'
loop_
_space_group_symop_operation_xyz
x,y,z
-x,-y,z
1/2+x,1/2-y,-z
1/2-x,1/2+y,-z
-x,-y,-z
x,y,-z
1/2-x,1/2+y,z
1/2+x,1/2-y,z
loop_
_atom_site_type_symbol
_atom_site_label
_atom_site_fract_x
_atom_site_fract_y
_atom_site_fract_z
Si Si1 0.134088 0.521031 0.500000
Si Si2 0.072080 0.808538 0.500000
Si Si3 0.562461 0.630605 0.829649
Si Si4 0.164044 0.158658 0.500000
Si Si5 0.117400 0.327911 0.197043
O O1 0.922138 0.343289 0.500000
O O2 0.249974 0.555897 0.500000
O O3 0.110530 0.447211 0.325623
O O4 0.122966 0.862606 0.336827
O O5 0.956955 0.859132 0.500000
O O6 0.500000 0.500000 0.830524
O O7 0.487183 0.750299 0.821054
O O8 0.621403 0.636092 0.000000
O O9 0.177756 0.231792 0.321356
O O10 0.145920 0.351086 0.000000
#
# Coordination Sequence:
#
# PCOD9428213 Si02
#       5
#     4   4   8   4   8
#     4  11  23  40  62  95 126 161 219 263 314 392
#     4  10  21  38  63  88 122 168 205 255 329 372
#     4   9  18  35  58  90 122 155 203 253 309 379
#     4   9  21  41  58  87 128 160 210 259 308 378
#     4   9  20  40  65  91 124 165 205 263 327 380
#
# _framework density 24.816690999999999
#
# number of rings (size 3 to 8) (size 9 to 14) (size 15 to 20)
#    0.000    2.571    0.000    1.286    0.000   11.429 
#   20.571    7.143    0.000    0.000    0.000    0.000 
#    0.000    0.000    0.000    0.000    0.000    0.000 
#
# Total GULP energy -155901.754684 kJ/mol
# GULP energy per Si atom -5567.919810 kJ/mol
# Density = 2.476021 g / cm^3
# Si number density = 24.816691 Si / 1000 Ang^3
#
#
#
# Elastic Constant Matrix: (Units=GPa)
#
#
# Indices 1 2 3 4 5 6 
#
# 1 112.2642 40.4929 22.1364 0.0000 0.0000 0.0000
# 2 40.4929 108.1722 72.1508 0.0000 0.0000 0.0000
# 3 22.1364 72.1508 350.6386 0.0000 0.0000 0.0000
# 4 0.0000 0.0000 0.0000 -50.0330 0.0000 0.0000
# 5 0.0000 0.0000 0.0000 0.0000 -56.3742 0.0000
# 6 0.0000 0.0000 0.0000 0.0000 0.0000 25.2482
#
#
#
# Elastic Compliance Matrix: (Units=1/GPa)
#
#
# Indices 1 2 3 4 5 6 
#
# 1 0.010306 -0.003969 0.000166 0.000000 0.000000 0.000000
# 2 -0.003969 0.012243 -0.002269 0.000000 0.000000 0.000000
# 3 0.000166 -0.002269 0.003308 0.000000 0.000000 0.000000
# 4 0.000000 0.000000 0.000000 -0.019987 0.000000 0.000000
# 5 0.000000 0.000000 0.000000 0.000000 -0.017739 0.000000
# 6 0.000000 0.000000 0.000000 0.000000 0.000000 0.039607
#
#
# Mechanical properties :
#
#
# Convention : Reuss Voigt Hill
#
# Bulk Modulus (GPa) = 72.91288 93.40391 83.15840
# Shear Modulus (GPa) = 112.47523 12.85452 62.66488
#
# Velocity S-wave (km/s) = 6.73950 2.27838 5.03050
# Velocity P-wave (km/s) = 9.48712 6.68136 8.20506
#
# Compressibility (1/GPa) = 0.01371500
#
# Stress axis : x y z
#
# Youngs Moduli (GPa) = 97.02770 81.67630 302.26961
#
# Poissons Ratio (x) = 0.32415 -0.05018
# Poissons Ratio (y) = 0.38508 0.68578
# Poissons Ratio (z) = -0.01611 0.18531
#
# Static dielectric constant tensor:
#      x y z
#    x 1.925820 0.000000 0.000000 
#    y 0.000000 2.029960 0.000000 
#    z 0.000000 0.000000 2.157820 
# 
# From -- ./inp_files/4858.got.cif
#   From: 2010.05.17/outbox.cif.g08.bks.cpg/sg55_3_cif.got.tgz:4858.got - 2010.06.03 13:27:54.
