data_PCOD9428228
_publ_section_title
;
Structure prediction by ZEFSAII (Michael W. Deem and Ramdas Pophale) SiO2 
 PCOD9428228
Probable space group: P B A M
;
_chemical_formula_sum "Si O2"
_cell_formula_units_Z 32
_cell_length_a 9.445127
_cell_length_b 13.729730
_cell_length_c 8.976764
_cell_angle_alpha 90.000000
_cell_angle_beta 90.000000
_cell_angle_gamma 90.000000
_cell_volume 1164.098169
_symmetry_space_group_name_H-M "P B A M"
_symmetry_group_IT_number 55
_symmetry_cell_setting 'orthorhombic'
loop_
_space_group_symop_operation_xyz
x,y,z
-x,-y,z
1/2+x,1/2-y,-z
1/2-x,1/2+y,-z
-x,-y,-z
x,y,-z
1/2-x,1/2+y,z
1/2+x,1/2-y,z
loop_
_atom_site_type_symbol
_atom_site_label
_atom_site_fract_x
_atom_site_fract_y
_atom_site_fract_z
Si Si1 0.186882 0.455735 0.336439
Si Si2 0.476204 0.632980 0.000000
Si Si3 0.560466 0.841321 0.257127
Si Si4 0.235004 0.760723 0.000000
Si Si5 0.005292 0.123942 0.665887
O O1 0.135372 0.422185 0.500000
O O2 0.151017 0.569827 0.326861
O O3 0.348751 0.423775 0.329878
O O4 0.087093 0.397386 0.221575
O O5 0.400580 0.739363 0.000000
O O6 0.436586 0.597381 0.166619
O O7 0.646845 0.639448 0.000000
O O8 0.512550 0.741037 0.335122
O O9 0.668006 0.797404 0.137836
O O10 0.066197 0.099931 0.500000
#
# Coordination Sequence:
#
# PCOD9428228 Si02
#       5
#     8   4   8   4   8
#     4  10  21  39  64 100 133 175 229 279 325 401
#     4  10  24  43  63 101 134 171 226 281 319 411
#     4  10  21  38  64  94 133 173 226 275 323 396
#     4  10  24  40  67  96 135 177 223 273 350 388
#     4  10  22  39  67  97 131 176 219 274 343 385
#
# _framework density 27.489090000000001
#
# number of rings (size 3 to 8) (size 9 to 14) (size 15 to 20)
#    0.000    2.000    0.000    3.000   14.000    3.000 
#    0.000    5.000    0.000    3.000    0.000    0.000 
#    0.000    0.000    0.000    0.000    0.000    0.000 
#
# Total GULP energy -178363.717332 kJ/mol
# GULP energy per Si atom -5573.866167 kJ/mol
# Density = 2.742652 g / cm^3
# Si number density = 27.489090 Si / 1000 Ang^3
#
#
#
# Elastic Constant Matrix: (Units=GPa)
#
#
# Indices 1 2 3 4 5 6 
#
# 1 94.4018 -17.1805 13.7502 0.0000 0.0000 0.0000
# 2 -17.1805 172.1599 37.2502 0.0000 0.0000 0.0000
# 3 13.7502 37.2502 161.8373 0.0000 0.0000 0.0000
# 4 0.0000 0.0000 0.0000 33.9000 0.0000 0.0000
# 5 0.0000 0.0000 0.0000 0.0000 17.3320 0.0000
# 6 0.0000 0.0000 0.0000 0.0000 0.0000 38.5038
#
#
#
# Elastic Compliance Matrix: (Units=1/GPa)
#
#
# Indices 1 2 3 4 5 6 
#
# 1 0.011025 0.001371 -0.001252 0.000000 0.000000 0.000000
# 2 0.001371 0.006284 -0.001563 0.000000 0.000000 0.000000
# 3 -0.001252 -0.001563 0.006645 0.000000 0.000000 0.000000
# 4 0.000000 0.000000 0.000000 0.029499 0.000000 0.000000
# 5 0.000000 0.000000 0.000000 0.000000 0.057697 0.000000
# 6 0.000000 0.000000 0.000000 0.000000 0.000000 0.025971
#
#
# Mechanical properties :
#
#
# Convention : Reuss Voigt Hill
#
# Bulk Modulus (GPa) = 47.47026 55.11543 51.29285
# Shear Modulus (GPa) = 34.00664 44.25242 39.12953
#
# Velocity S-wave (km/s) = 3.52105 4.01661 3.77697
# Velocity P-wave (km/s) = 5.81693 6.45014 6.14170
#
# Compressibility (1/GPa) = 0.02106582
#
# Stress axis : x y z
#
# Youngs Moduli (GPa) = 90.70315 159.14620 150.48555
#
# Poissons Ratio (x) = -0.21822 0.18846
# Poissons Ratio (y) = -0.12437 0.23518
# Poissons Ratio (z) = 0.11359 0.24871
#
# Static dielectric constant tensor:
#      x y z
#    x 2.119970 0.000000 0.000000 
#    y 0.000000 2.120210 0.000000 
#    z 0.000000 0.000000 2.179070 
# 
# From -- ./inp_files/3438.got.cif
#   From: 2010.05.17/outbox.cif.g08.bks.cpg/sg55_2_cif.got.tgz:3438.got - 2010.06.03 13:27:54.
