data_PCOD9428423
_publ_section_title
;
Structure prediction by ZEFSAII (Michael W. Deem and Ramdas Pophale) SiO2 
 PCOD9428423
Probable space group: P B A M
;
_chemical_formula_sum "Si O2"
_cell_formula_units_Z 48
_cell_length_a 14.761100
_cell_length_b 18.733427
_cell_length_c 9.126546
_cell_angle_alpha 90.000000
_cell_angle_beta 90.000000
_cell_angle_gamma 90.000000
_cell_volume 2523.727161
_symmetry_space_group_name_H-M "P B A M"
_symmetry_group_IT_number 55
_symmetry_cell_setting 'orthorhombic'
loop_
_space_group_symop_operation_xyz
x,y,z
-x,-y,z
1/2+x,1/2-y,-z
1/2-x,1/2+y,-z
-x,-y,-z
x,y,-z
1/2-x,1/2+y,z
1/2+x,1/2-y,z
loop_
_atom_site_type_symbol
_atom_site_label
_atom_site_fract_x
_atom_site_fract_y
_atom_site_fract_z
Si Si1 0.410221 0.184224 0.172755
Si Si2 0.399526 0.032515 0.327589
Si Si3 0.948041 0.074472 0.172816
Si Si4 0.215470 0.256750 0.828311
Si Si5 0.042752 0.207356 0.325945
Si Si6 0.235774 0.423202 0.175002
O O1 0.395731 0.106482 0.240226
O O2 0.317760 0.229314 0.189957
O O3 0.489364 0.225892 0.255969
O O4 0.431099 0.179573 0.000000
O O5 0.383133 0.044560 0.500000
O O6 0.500000 0.000000 0.310685
O O7 0.327301 0.977044 0.262708
O O8 0.842037 0.066592 0.209304
O O9 0.994877 0.136409 0.265303
O O10 0.952872 0.094542 0.000000
O O11 0.000000 0.000000 0.192285
O O12 0.145326 0.213121 0.730916
O O13 0.211558 0.340809 0.793325
O O14 0.191562 0.247570 0.000000
O O15 0.038499 0.210035 0.500000
O O16 0.224185 0.434618 0.000000
#
# Coordination Sequence:
#
# PCOD9428423 Si02
#       6
#     8   8   8   8   8   8
#     4  11  23  43  68  93 122 164 217 263 306 366
#     4  11  25  42  61  92 132 169 204 254 322 380
#     4  10  22  42  66  91 124 167 216 262 308 370
#     4  10  22  41  66  91 121 162 212 261 307 369
#     4  12  25  40  63  95 131 164 202 257 324 382
#     4  10  21  41  66  94 123 164 214 259 309 366
#
# _framework density 19.019489
#
# number of rings (size 3 to 8) (size 9 to 14) (size 15 to 20)
#    0.000    1.333    1.667    3.500    2.333    7.000 
#    0.000    0.000    0.000    0.000    0.000    0.000 
#    0.000    0.000    0.000    0.000    0.000    0.000 
#
# Total GULP energy -268503.550544 kJ/mol
# GULP energy per Si atom -5593.823970 kJ/mol
# Density = 1.897620 g / cm^3
# Si number density = 19.019489 Si / 1000 Ang^3
#
#
#
# Elastic Constant Matrix: (Units=GPa)
#
#
# Indices 1 2 3 4 5 6 
#
# 1 65.1299 0.7260 38.8417 0.0000 0.0000 0.0000
# 2 0.7260 62.1652 37.2857 0.0000 0.0000 0.0000
# 3 38.8417 37.2857 82.3474 0.0000 0.0000 0.0000
# 4 0.0000 0.0000 0.0000 16.0235 0.0000 0.0000
# 5 0.0000 0.0000 0.0000 0.0000 -8.4515 0.0000
# 6 0.0000 0.0000 0.0000 0.0000 0.0000 30.6631
#
#
#
# Elastic Compliance Matrix: (Units=1/GPa)
#
#
# Indices 1 2 3 4 5 6 
#
# 1 0.024673 0.009187 -0.015797 0.000000 0.000000 0.000000
# 2 0.009187 0.025504 -0.015881 0.000000 0.000000 0.000000
# 3 -0.015797 -0.015881 0.026786 0.000000 0.000000 0.000000
# 4 0.000000 0.000000 0.000000 0.062408 0.000000 0.000000
# 5 0.000000 0.000000 0.000000 0.000000 -0.118322 0.000000
# 6 0.000000 0.000000 0.000000 0.000000 0.000000 0.032612
#
#
# Mechanical properties :
#
#
# Convention : Reuss Voigt Hill
#
# Bulk Modulus (GPa) = 31.27029 40.37213 35.82121
# Shear Modulus (GPa) = 45.74413 16.49963 31.12188
#
# Velocity S-wave (km/s) = 4.90952 2.94855 4.04953
# Velocity P-wave (km/s) = 6.97243 5.73278 6.38277
#
# Compressibility (1/GPa) = 0.03197924
#
# Stress axis : x y z
#
# Youngs Moduli (GPa) = 40.53085 39.20940 37.33347
#
# Poissons Ratio (x) = -0.36021 0.58976
# Poissons Ratio (y) = -0.37235 0.59290
# Poissons Ratio (z) = 0.64027 0.62269
#
# Static dielectric constant tensor:
#      x y z
#    x 1.642050 0.000000 0.000000 
#    y 0.000000 1.629770 0.000000 
#    z 0.000000 0.000000 1.631620 
# 
# From -- ./inp_files/5572.got.cif
#   From: 2010.05.17/outbox.cif.g08.bks.cpg/sg55_3_cif.got.tgz:5572.got - 2010.06.03 13:27:54.
