data_PCOD9428984
_publ_section_title
;
Structure prediction by ZEFSAII (Michael W. Deem and Ramdas Pophale) SiO2 
 PCOD9428984
Probable space group: P B A M
;
_chemical_formula_sum "Si O2"
_cell_formula_units_Z 40
_cell_length_a 26.577496
_cell_length_b 10.493023
_cell_length_c 7.868464
_cell_angle_alpha 90.000000
_cell_angle_beta 90.000000
_cell_angle_gamma 90.000000
_cell_volume 2194.343681
_symmetry_space_group_name_H-M "P B A M"
_symmetry_group_IT_number 55
_symmetry_cell_setting 'orthorhombic'
loop_
_space_group_symop_operation_xyz
x,y,z
-x,-y,z
1/2+x,1/2-y,-z
1/2-x,1/2+y,-z
-x,-y,-z
x,y,-z
1/2-x,1/2+y,z
1/2+x,1/2-y,z
loop_
_atom_site_type_symbol
_atom_site_label
_atom_site_fract_x
_atom_site_fract_y
_atom_site_fract_z
Si Si1 0.801553 0.486644 0.198492
Si Si2 0.560132 0.848051 0.000000
Si Si3 0.811515 0.004415 0.696358
Si Si4 0.943357 0.655168 0.000000
Si Si5 0.646980 0.242688 0.193973
Si Si6 0.869043 0.257896 0.697579
O O1 0.741706 0.490983 0.211431
O O2 0.825041 0.618863 0.265873
O O3 0.825904 0.366026 0.290301
O O4 0.816396 0.476508 0.000000
O O5 0.588214 0.798219 0.831264
O O6 0.501518 0.810151 0.000000
O O7 0.561774 0.002264 0.000000
O O8 0.799248 0.029212 0.500000
O O9 0.844525 0.124162 0.754536
O O10 0.841832 0.872930 0.712523
O O11 0.911426 0.708936 0.839861
O O12 0.667339 0.260216 0.000000
O O13 0.885594 0.248069 0.500000
#
# Coordination Sequence:
#
# PCOD9428984 Si02
#       6
#     8   4   8   4   8   8
#     4  11  20  36  59  86 117 162 202 235 286 347
#     4  11  20  43  68  86 119 146 191 265 298 340
#     4  11  24  35  52  86 128 160 191 238 285 351
#     4   9  20  41  66  92 107 144 207 243 306 356
#     4   9  19  38  57  86 110 151 201 235 289 350
#     4  11  23  39  59  91 120 156 202 236 294 352
#
# _framework density 18.228686
#
# number of rings (size 3 to 8) (size 9 to 14) (size 15 to 20)
#    0.600    1.000    3.000    2.400    2.800    4.800 
#    0.000    5.000    0.000    2.400    0.000    0.000 
#    0.000    0.000    0.000    0.000    0.000    0.000 
#
# Total GULP energy -223102.124750 kJ/mol
# GULP energy per Si atom -5577.553119 kJ/mol
# Density = 1.818720 g / cm^3
# Si number density = 18.228686 Si / 1000 Ang^3
#
#
#
# Elastic Constant Matrix: (Units=GPa)
#
#
# Indices 1 2 3 4 5 6 
#
# 1 146.2454 58.8699 32.3055 0.0000 0.0000 0.0000
# 2 58.8699 131.2802 13.1916 0.0000 0.0000 0.0000
# 3 32.3055 13.1916 49.3583 0.0000 0.0000 0.0000
# 4 0.0000 0.0000 0.0000 55.2695 0.0000 0.0000
# 5 0.0000 0.0000 0.0000 0.0000 2.6525 0.0000
# 6 0.0000 0.0000 0.0000 0.0000 0.0000 -6.3569
#
#
#
# Elastic Compliance Matrix: (Units=1/GPa)
#
#
# Indices 1 2 3 4 5 6 
#
# 1 0.009492 -0.003733 -0.005215 0.000000 0.000000 0.000000
# 2 -0.003733 0.009295 -0.000041 0.000000 0.000000 0.000000
# 3 -0.005215 -0.000041 0.023685 0.000000 0.000000 0.000000
# 4 0.000000 0.000000 0.000000 0.018093 0.000000 0.000000
# 5 0.000000 0.000000 0.000000 0.000000 0.377002 0.000000
# 6 0.000000 0.000000 0.000000 0.000000 0.000000 -0.157308
#
#
# Mechanical properties :
#
#
# Convention : Reuss Voigt Hill
#
# Bulk Modulus (GPa) = 40.82652 59.51309 50.16980
# Shear Modulus (GPa) = 16.31846 25.14747 20.73296
#
# Velocity S-wave (km/s) = 2.99525 3.71826 3.37617
# Velocity P-wave (km/s) = 5.86579 7.15213 6.54066
#
# Compressibility (1/GPa) = 0.02449388
#
# Stress axis : x y z
#
# Youngs Moduli (GPa) = 105.34734 107.58182 42.22169
#
# Poissons Ratio (x) = 0.40156 0.22020
# Poissons Ratio (y) = 0.39322 0.00174
# Poissons Ratio (z) = 0.54942 0.00444
#
# Static dielectric constant tensor:
#      x y z
#    x 1.602380 0.000000 0.000000 
#    y 0.000000 1.629560 0.000000 
#    z 0.000000 0.000000 1.762910 
# 
# From -- ./inp_files/10015.got.cif
#   From: 2010.05.17/outbox.cif.g08.bks.cpg/sg55_6_cif.got.tgz:10015.got - 2010.06.03 13:27:54.
