data_PCOD9428731
_publ_section_title
;
Structure prediction by ZEFSAII (Michael W. Deem and Ramdas Pophale) SiO2 
 PCOD9428731
Probable space group: P B A M
;
_chemical_formula_sum "Si O2"
_cell_formula_units_Z 48
_cell_length_a 12.596231
_cell_length_b 9.303543
_cell_length_c 17.941354
_cell_angle_alpha 90.000000
_cell_angle_beta 90.000000
_cell_angle_gamma 90.000000
_cell_volume 2102.539682
_symmetry_space_group_name_H-M "P B A M"
_symmetry_group_IT_number 55
_symmetry_cell_setting 'orthorhombic'
loop_
_space_group_symop_operation_xyz
x,y,z
-x,-y,z
1/2+x,1/2-y,-z
1/2-x,1/2+y,-z
-x,-y,-z
x,y,-z
1/2-x,1/2+y,z
1/2+x,1/2-y,z
loop_
_atom_site_type_symbol
_atom_site_label
_atom_site_fract_x
_atom_site_fract_y
_atom_site_fract_z
Si Si1 0.530987 0.165307 0.415098
Si Si2 0.789473 0.638351 0.695704
Si Si3 0.836870 0.377072 0.207748
Si Si4 0.111754 0.921939 0.414237
Si Si5 0.671340 0.451076 0.081719
Si Si6 0.965004 0.241756 0.916365
O O1 0.569618 0.190195 0.500000
O O2 0.622146 0.210060 0.357352
O O3 0.423740 0.256135 0.406932
O O4 0.500000 0.000000 0.406898
O O5 0.720158 0.747834 0.746126
O O6 0.851141 0.516361 0.741633
O O7 0.706295 0.555187 0.642421
O O8 0.753219 0.427871 0.145997
O O9 0.936884 0.329580 0.157626
O O10 0.141192 0.953185 0.500000
O O11 0.000000 0.000000 0.398391
O O12 0.579779 0.331706 0.088694
O O13 0.616725 0.606965 0.085110
O O14 0.720837 0.435708 0.000000
O O15 0.957654 0.308250 0.000000
#
# Coordination Sequence:
#
# PCOD9428731 Si02
#       6
#     8   8   8   8   8   8
#     4  10  22  42  64  86 118 162 208 254 303 358
#     4  12  25  38  60  93 130 161 199 255 318 375
#     4  12  23  38  58  93 129 157 195 248 318 371
#     4  10  22  42  66  89 117 163 215 254 297 366
#     4   9  19  39  64  86 115 161 210 251 295 360
#     4   9  19  39  64  86 114 161 212 250 295 361
#
# _framework density 22.829533999999999
#
# number of rings (size 3 to 8) (size 9 to 14) (size 15 to 20)
#    0.000    1.667    1.667    4.000    0.000    4.000 
#    0.000    6.667    0.000    2.000    0.000    0.000 
#    0.000    0.000    0.000    0.000    0.000    0.000 
#
# Total GULP energy -268423.338805 kJ/mol
# GULP energy per Si atom -5592.152892 kJ/mol
# Density = 2.277757 g / cm^3
# Si number density = 22.829534 Si / 1000 Ang^3
#
#
#
# Elastic Constant Matrix: (Units=GPa)
#
#
# Indices 1 2 3 4 5 6 
#
# 1 26.8779 -7.3830 40.4634 0.0000 0.0000 0.0000
# 2 -7.3830 52.2176 15.8448 0.0000 0.0000 0.0000
# 3 40.4634 15.8448 137.3529 0.0000 0.0000 0.0000
# 4 0.0000 0.0000 0.0000 15.4158 0.0000 0.0000
# 5 0.0000 0.0000 0.0000 0.0000 43.0511 0.0000
# 6 0.0000 0.0000 0.0000 0.0000 0.0000 1.8886
#
#
#
# Elastic Compliance Matrix: (Units=1/GPa)
#
#
# Indices 1 2 3 4 5 6 
#
# 1 0.082811 0.019804 -0.026680 0.000000 0.000000 0.000000
# 2 0.019804 0.024582 -0.008670 0.000000 0.000000 0.000000
# 3 -0.026680 -0.008670 0.016141 0.000000 0.000000 0.000000
# 4 0.000000 0.000000 0.000000 0.064869 0.000000 0.000000
# 5 0.000000 0.000000 0.000000 0.000000 0.023228 0.000000
# 6 0.000000 0.000000 0.000000 0.000000 0.000000 0.529501
#
#
# Mechanical properties :
#
#
# Convention : Reuss Voigt Hill
#
# Bulk Modulus (GPa) = 10.81764 34.92211 22.86987
# Shear Modulus (GPa) = 6.22636 23.23930 14.73283
#
# Velocity S-wave (km/s) = 1.65325 3.19399 2.54311
# Velocity P-wave (km/s) = 2.89708 5.37887 4.32003
#
# Compressibility (1/GPa) = 0.09244159
#
# Stress axis : x y z
#
# Youngs Moduli (GPa) = 12.07564 40.68096 61.95571
#
# Poissons Ratio (x) = -0.80566 1.65300
# Poissons Ratio (y) = -0.23915 0.53715
# Poissons Ratio (z) = 0.32218 0.35270
#
# Static dielectric constant tensor:
#      x y z
#    x 1.811690 0.000000 0.000000 
#    y 0.000000 1.888230 0.000000 
#    z 0.000000 0.000000 1.852380 
# 
# From -- ./inp_files/21509.got.cif
#   From: 2010.05.17/outbox.cif.g08.bks.cpg/sg55_11_cif.got.tgz:21509.got - 2010.06.03 13:27:54.
