data_PCOD9428059
_publ_section_title
;
Structure prediction by ZEFSAII (Michael W. Deem and Ramdas Pophale) SiO2 
 PCOD9428059
Probable space group: P B A M
;
_chemical_formula_sum "Si O2"
_cell_formula_units_Z 30
_cell_length_a 11.052855
_cell_length_b 21.085903
_cell_length_c 7.279582
_cell_angle_alpha 90.000000
_cell_angle_beta 90.000000
_cell_angle_gamma 90.000000
_cell_volume 1696.575220
_symmetry_space_group_name_H-M "P B A M"
_symmetry_group_IT_number 55
_symmetry_cell_setting 'orthorhombic'
loop_
_space_group_symop_operation_xyz
x,y,z
-x,-y,z
1/2+x,1/2-y,-z
1/2-x,1/2+y,-z
-x,-y,-z
x,y,-z
1/2-x,1/2+y,z
1/2+x,1/2-y,z
loop_
_atom_site_type_symbol
_atom_site_label
_atom_site_fract_x
_atom_site_fract_y
_atom_site_fract_z
Si Si1 0.265599 0.908337 0.500000
Si Si2 0.000000 0.500000 0.500000
Si Si3 0.558161 0.566679 0.783727
Si Si4 0.088664 0.279669 0.500000
Si Si5 0.353770 0.134732 0.500000
Si Si6 0.850075 0.828584 0.782244
O O1 0.178970 0.919148 0.326416
O O2 0.317847 0.837598 0.500000
O O3 0.375894 0.957146 0.500000
O O4 0.918035 0.433245 0.500000
O O5 0.500000 0.500000 0.724730
O O6 0.458824 0.621333 0.755592
O O7 0.584398 0.562260 0.000000
O O8 0.111963 0.235411 0.676890
O O9 0.955980 0.310643 0.500000
O O10 0.267512 0.144516 0.677110
O O11 0.830337 0.820102 0.000000
#
# Coordination Sequence:
#
# PCOD9428059 Si02
#       6
#     4   2   8   4   4   8
#     4  11  21  38  60  83 119 157 190 241 289 352
#     4  10  22  40  62  88 118 158 194 234 306 348
#     4  10  21  37  61  90 113 147 198 245 292 342
#     4  10  24  37  54  85 118 155 200 233 291 355
#     4  10  21  40  60  85 119 154 194 243 291 356
#     4  10  22  38  60  86 117 155 196 246 294 343
#
# _framework density 17.682683000000001
#
# number of rings (size 3 to 8) (size 9 to 14) (size 15 to 20)
#    0.000    1.867    0.000    3.600    7.467    2.133 
#    0.000    5.333    0.000    0.000    0.000    0.000 
#    0.000    0.000    0.000    0.000    0.000    0.000 
#
# Total GULP energy -167012.523503 kJ/mol
# GULP energy per Si atom -5567.084117 kJ/mol
# Density = 1.764244 g / cm^3
# Si number density = 17.682683 Si / 1000 Ang^3
#
#
#
# Elastic Constant Matrix: (Units=GPa)
#
#
# Indices 1 2 3 4 5 6 
#
# 1 161.7606 90.2375 93.1368 0.0000 0.0000 0.0000
# 2 90.2375 167.6808 80.9251 0.0000 0.0000 0.0000
# 3 93.1368 80.9251 136.5736 0.0000 0.0000 0.0000
# 4 0.0000 0.0000 0.0000 19.9883 0.0000 0.0000
# 5 0.0000 0.0000 0.0000 0.0000 -51.1415 0.0000
# 6 0.0000 0.0000 0.0000 0.0000 0.0000 22.5133
#
#
#
# Elastic Compliance Matrix: (Units=1/GPa)
#
#
# Indices 1 2 3 4 5 6 
#
# 1 0.011366 -0.003327 -0.005779 0.000000 0.000000 0.000000
# 2 -0.003327 0.009326 -0.003257 0.000000 0.000000 0.000000
# 3 -0.005779 -0.003257 0.013193 0.000000 0.000000 0.000000
# 4 0.000000 0.000000 0.000000 0.050029 0.000000 0.000000
# 5 0.000000 0.000000 0.000000 0.000000 -0.019554 0.000000
# 6 0.000000 0.000000 0.000000 0.000000 0.000000 0.044418
#
#
# Mechanical properties :
#
#
# Convention : Reuss Voigt Hill
#
# Bulk Modulus (GPa) = 109.19716 110.51266 109.85491
# Shear Modulus (GPa) = 36.61424 11.71970 24.16697
#
# Velocity S-wave (km/s) = 4.55535 2.57724 3.70090
# Velocity P-wave (km/s) = 9.46341 8.45515 8.97345
#
# Compressibility (1/GPa) = 0.00915775
#
# Stress axis : x y z
#
# Youngs Moduli (GPa) = 87.98473 107.22482 75.79637
#
# Poissons Ratio (x) = 0.35676 0.43805
# Poissons Ratio (y) = 0.29275 0.24688
# Poissons Ratio (z) = 0.50849 0.34924
#
# Static dielectric constant tensor:
#      x y z
#    x 1.573310 0.000000 0.000000 
#    y 0.000000 1.591950 0.000000 
#    z 0.000000 0.000000 1.606460 
# 
# From -- ./inp_files/2087.got.cif
#   From: 2010.05.17/outbox.cif.g08.bks.cpg/sg55_2_cif.got.tgz:2087.got - 2010.06.03 13:27:54.
