data_PCOD9428331
_publ_section_title
;
Structure prediction by ZEFSAII (Michael W. Deem and Ramdas Pophale) SiO2 
 PCOD9428331
Probable space group: P B A M
;
_chemical_formula_sum "Si O2"
_cell_formula_units_Z 48
_cell_length_a 27.587593
_cell_length_b 5.562843
_cell_length_c 13.555453
_cell_angle_alpha 90.000000
_cell_angle_beta 90.000000
_cell_angle_gamma 90.000000
_cell_volume 2080.293676
_symmetry_space_group_name_H-M "P B A M"
_symmetry_group_IT_number 55
_symmetry_cell_setting 'orthorhombic'
loop_
_space_group_symop_operation_xyz
x,y,z
-x,-y,z
1/2+x,1/2-y,-z
1/2-x,1/2+y,-z
-x,-y,-z
x,y,-z
1/2-x,1/2+y,z
1/2+x,1/2-y,z
loop_
_atom_site_type_symbol
_atom_site_label
_atom_site_fract_x
_atom_site_fract_y
_atom_site_fract_z
Si Si1 0.637490 0.318656 0.109031
Si Si2 0.946455 0.547616 0.804344
Si Si3 0.372818 0.324014 0.722683
Si Si4 0.778824 0.340720 0.381902
Si Si5 0.269211 0.963131 0.884748
Si Si6 0.051413 0.138315 0.389435
O O1 0.583434 0.227403 0.127089
O O2 0.649949 0.490803 0.199277
O O3 0.673988 0.093588 0.115678
O O4 0.643220 0.426464 0.000000
O O5 0.913045 0.317808 0.785741
O O6 0.950531 0.664798 0.695805
O O7 0.000000 0.500000 0.841868
O O8 0.330697 0.168822 0.672799
O O9 0.403716 0.466572 0.639930
O O10 0.787373 0.339345 0.500000
O O11 0.750350 0.590596 0.360793
O O12 0.244989 0.720706 0.842794
O O13 0.253751 0.977066 0.000000
O O14 0.057814 0.234958 0.500000
O O15 0.000000 0.000000 0.386039
#
# Coordination Sequence:
#
# PCOD9428331 Si02
#       6
#     8   8   8   8   8   8
#     4  10  25  43  64  95 129 179 235 288 347 409
#     4  11  24  43  64  95 133 172 224 286 347 412
#     4  11  24  42  67  94 132 179 222 286 338 411
#     4  10  24  45  70 104 145 186 229 275 339 427
#     4   9  19  37  62  92 127 163 212 280 343 400
#     4  10  21  39  65  98 131 165 211 272 344 415
#
# _framework density 23.073664999999998
#
# number of rings (size 3 to 8) (size 9 to 14) (size 15 to 20)
#    0.000    1.833    1.667    0.500    7.000    4.000 
#    0.000    0.833    0.000    0.000    0.000    0.000 
#    0.000    0.000    0.000    0.000    0.000    0.000 
#
# Total GULP energy -268547.480963 kJ/mol
# GULP energy per Si atom -5594.739187 kJ/mol
# Density = 2.302115 g / cm^3
# Si number density = 23.073665 Si / 1000 Ang^3
#
#
#
# Elastic Constant Matrix: (Units=GPa)
#
#
# Indices 1 2 3 4 5 6 
#
# 1 127.2823 33.1029 34.3074 0.0000 0.0000 0.0000
# 2 33.1029 81.1159 25.2269 0.0000 0.0000 0.0000
# 3 34.3074 25.2269 108.7030 0.0000 0.0000 0.0000
# 4 0.0000 0.0000 0.0000 17.8841 0.0000 0.0000
# 5 0.0000 0.0000 0.0000 0.0000 19.3664 0.0000
# 6 0.0000 0.0000 0.0000 0.0000 0.0000 42.1392
#
#
#
# Elastic Compliance Matrix: (Units=1/GPa)
#
#
# Indices 1 2 3 4 5 6 
#
# 1 0.009254 -0.003091 -0.002203 0.000000 0.000000 0.000000
# 2 -0.003091 0.014320 -0.002348 0.000000 0.000000 0.000000
# 3 -0.002203 -0.002348 0.010440 0.000000 0.000000 0.000000
# 4 0.000000 0.000000 0.000000 0.055916 0.000000 0.000000
# 5 0.000000 0.000000 0.000000 0.000000 0.051636 0.000000
# 6 0.000000 0.000000 0.000000 0.000000 0.000000 0.023731
#
#
# Mechanical properties :
#
#
# Convention : Reuss Voigt Hill
#
# Bulk Modulus (GPa) = 53.39278 55.81950 54.60614
# Shear Modulus (GPa) = 26.76321 30.84221 28.80271
#
# Velocity S-wave (km/s) = 3.40943 3.66004 3.53695
# Velocity P-wave (km/s) = 6.22007 6.48888 6.35590
#
# Compressibility (1/GPa) = 0.01872913
#
# Stress axis : x y z
#
# Youngs Moduli (GPa) = 108.05624 69.83377 95.78952
#
# Poissons Ratio (x) = 0.21589 0.21106
# Poissons Ratio (y) = 0.33405 0.22487
# Poissons Ratio (z) = 0.23808 0.16394
#
# Static dielectric constant tensor:
#      x y z
#    x 1.901410 0.000000 0.000000 
#    y 0.000000 1.895310 0.000000 
#    z 0.000000 0.000000 1.846350 
# 
# From -- ./inp_files/16656.got.cif
#   From: 2010.05.17/outbox.cif.g08.bks.cpg/sg55_9_cif.got.tgz:16656.got - 2010.06.03 13:27:54.
