data_PCOD9428104
_publ_section_title
;
Structure prediction by ZEFSAII (Michael W. Deem and Ramdas Pophale) SiO2 
 PCOD9428104
Probable space group: P B A M
;
_chemical_formula_sum "Si O2"
_cell_formula_units_Z 40
_cell_length_a 7.630405
_cell_length_b 24.376783
_cell_length_c 11.077359
_cell_angle_alpha 90.000000
_cell_angle_beta 90.000000
_cell_angle_gamma 90.000000
_cell_volume 2060.441135
_symmetry_space_group_name_H-M "P B A M"
_symmetry_group_IT_number 55
_symmetry_cell_setting 'orthorhombic'
loop_
_space_group_symop_operation_xyz
x,y,z
-x,-y,z
1/2+x,1/2-y,-z
1/2-x,1/2+y,-z
-x,-y,-z
x,y,-z
1/2-x,1/2+y,z
1/2+x,1/2-y,z
loop_
_atom_site_type_symbol
_atom_site_label
_atom_site_fract_x
_atom_site_fract_y
_atom_site_fract_z
Si Si1 0.530090 0.174354 0.138776
Si Si2 0.622186 0.295800 0.855927
Si Si3 0.506427 0.633038 0.635453
Si Si4 0.268842 0.035937 0.365255
Si Si5 0.645182 0.076948 0.697988
O O1 0.321036 0.182545 0.150894
O O2 0.615261 0.231699 0.180217
O O3 0.591962 0.118385 0.197356
O O4 0.576084 0.170910 0.000000
O O5 0.515796 0.328048 0.752270
O O6 0.566357 0.300385 0.000000
O O7 0.463201 0.655562 0.500000
O O8 0.375701 0.581734 0.657796
O O9 0.702269 0.609693 0.631400
O O10 0.235884 0.013079 0.500000
O O11 0.460248 0.063739 0.365171
O O12 0.277230 0.983828 0.276721
#
# Coordination Sequence:
#
# PCOD9428104 Si02
#       5
#     8   8   8   8   8
#     4  10  21  39  63  87 117 158 205 250 301 360
#     4  10  21  41  64  88 119 160 203 249 304 364
#     4  11  22  38  61  93 124 157 201 250 298 355
#     4  10  21  38  58  86 123 163 200 244 297 358
#     4  11  20  36  61  87 119 158 201 242 299 353
#
# _framework density 19.413319000000001
#
# number of rings (size 3 to 8) (size 9 to 14) (size 15 to 20)
#    0.000    1.600    2.000    4.200    0.000    4.000 
#    0.000    9.000    0.000    2.400    0.000    0.000 
#    0.000    0.000    0.000    0.000    0.000    0.000 
#
# Total GULP energy -222844.933381 kJ/mol
# GULP energy per Si atom -5571.123335 kJ/mol
# Density = 1.936913 g / cm^3
# Si number density = 19.413319 Si / 1000 Ang^3
#
#
#
# Elastic Constant Matrix: (Units=GPa)
#
#
# Indices 1 2 3 4 5 6 
#
# 1 57.2661 26.6771 26.4110 0.0000 0.0000 0.0000
# 2 26.6771 124.4636 75.4294 0.0000 0.0000 0.0000
# 3 26.4110 75.4294 81.9861 0.0000 0.0000 0.0000
# 4 0.0000 0.0000 0.0000 20.7042 0.0000 0.0000
# 5 0.0000 0.0000 0.0000 0.0000 39.3104 0.0000
# 6 0.0000 0.0000 0.0000 0.0000 0.0000 32.6322
#
#
#
# Elastic Compliance Matrix: (Units=1/GPa)
#
#
# Indices 1 2 3 4 5 6 
#
# 1 0.020553 -0.000888 -0.005804 0.000000 0.000000 0.000000
# 2 -0.000888 0.018198 -0.016457 0.000000 0.000000 0.000000
# 3 -0.005804 -0.016457 0.029208 0.000000 0.000000 0.000000
# 4 0.000000 0.000000 0.000000 0.048299 0.000000 0.000000
# 5 0.000000 0.000000 0.000000 0.000000 0.025439 0.000000
# 6 0.000000 0.000000 0.000000 0.000000 0.000000 0.030645
#
#
# Mechanical properties :
#
#
# Convention : Reuss Voigt Hill
#
# Bulk Modulus (GPa) = 46.16549 57.86119 52.01334
# Shear Modulus (GPa) = 22.13771 27.54259 24.84015
#
# Velocity S-wave (km/s) = 3.38055 3.77071 3.58095
# Velocity P-wave (km/s) = 6.25055 6.98765 6.62936
#
# Compressibility (1/GPa) = 0.02166120
#
# Stress axis : x y z
#
# Youngs Moduli (GPa) = 48.65540 54.95044 34.23748
#
# Poissons Ratio (x) = 0.04878 0.19872
# Poissons Ratio (y) = 0.04319 0.56344
# Poissons Ratio (z) = 0.28240 0.90431
#
# Static dielectric constant tensor:
#      x y z
#    x 1.713710 0.000000 0.000000 
#    y 0.000000 1.699020 0.000000 
#    z 0.000000 0.000000 1.707830 
# 
# From -- ./inp_files/2321.got.cif
#   From: 2010.05.17/outbox.cif.g08.bks.cpg/sg55_2_cif.got.tgz:2321.got - 2010.06.03 13:27:54.
