data_PCOD9428460
_publ_section_title
;
Structure prediction by ZEFSAII (Michael W. Deem and Ramdas Pophale) SiO2 
 PCOD9428460
Probable space group: P B A M
;
_chemical_formula_sum "Si O2"
_cell_formula_units_Z 34
_cell_length_a 5.225715
_cell_length_b 19.909744
_cell_length_c 13.485655
_cell_angle_alpha 90.000000
_cell_angle_beta 90.000000
_cell_angle_gamma 90.000000
_cell_volume 1403.083254
_symmetry_space_group_name_H-M "P B A M"
_symmetry_group_IT_number 55
_symmetry_cell_setting 'orthorhombic'
loop_
_space_group_symop_operation_xyz
x,y,z
-x,-y,z
1/2+x,1/2-y,-z
1/2-x,1/2+y,-z
-x,-y,-z
x,y,-z
1/2-x,1/2+y,z
1/2+x,1/2-y,z
loop_
_atom_site_type_symbol
_atom_site_label
_atom_site_fract_x
_atom_site_fract_y
_atom_site_fract_z
Si Si1 0.256860 0.442126 0.000000
Si Si2 0.404928 0.104462 0.660298
Si Si3 0.000000 0.500000 0.175725
Si Si4 0.871245 0.702987 0.500000
Si Si5 0.255027 0.648355 0.000000
Si Si6 0.500000 0.000000 0.500000
Si Si7 0.626395 0.291248 0.215153
O O1 0.224217 0.486841 0.097753
O O2 0.515275 0.403318 0.000000
O O3 0.022237 0.387432 0.000000
O O4 0.584475 0.153315 0.594077
O O5 0.346408 0.043462 0.586003
O O6 0.183393 0.150557 0.705383
O O7 0.505884 0.065991 0.756962
O O8 0.103143 0.757557 0.500000
O O9 0.305363 0.687904 0.897670
O O10 0.340251 0.266011 0.231248
#
# Coordination Sequence:
#
# PCOD9428460 Si02
#       7
#     4   8   4   4   4   2   8
#     4  11  24  45  68 101 145 189 234 287 351 415
#     4  10  21  43  73 104 139 183 235 294 358 425
#     4  10  22  44  72 106 142 190 240 292 350 432
#     4  11  24  47  72 101 140 180 230 294 362 423
#     4  12  24  46  66 101 147 188 235 292 344 418
#     4   8  20  42  76 100 144 172 236 294 366 418
#     4  12  25  43  69 103 140 187 237 287 351 421
#
# _framework density 24.232347000000001
#
# number of rings (size 3 to 8) (size 9 to 14) (size 15 to 20)
#    0.000    1.176    2.353    3.529    0.000    1.882 
#    0.000    0.000    0.000    8.471    0.000    0.000 
#    0.000    0.000    0.000    0.000    0.000    0.000 
#
# Total GULP energy -189549.351526 kJ/mol
# GULP energy per Si atom -5574.980927 kJ/mol
# Density = 2.417719 g / cm^3
# Si number density = 24.232347 Si / 1000 Ang^3
#
#
#
# Elastic Constant Matrix: (Units=GPa)
#
#
# Indices 1 2 3 4 5 6 
#
# 1 77.0409 28.5708 24.1697 0.0000 0.0000 0.0000
# 2 28.5708 101.9257 62.1717 0.0000 0.0000 0.0000
# 3 24.1697 62.1717 188.7729 0.0000 0.0000 0.0000
# 4 0.0000 0.0000 0.0000 89.3203 0.0000 0.0000
# 5 0.0000 0.0000 0.0000 0.0000 16.6815 0.0000
# 6 0.0000 0.0000 0.0000 0.0000 0.0000 15.7651
#
#
#
# Elastic Compliance Matrix: (Units=1/GPa)
#
#
# Indices 1 2 3 4 5 6 
#
# 1 0.014550 -0.003682 -0.000650 0.000000 0.000000 0.000000
# 2 -0.003682 0.013209 -0.003879 0.000000 0.000000 0.000000
# 3 -0.000650 -0.003879 0.006658 0.000000 0.000000 0.000000
# 4 0.000000 0.000000 0.000000 0.011196 0.000000 0.000000
# 5 0.000000 0.000000 0.000000 0.000000 0.059947 0.000000
# 6 0.000000 0.000000 0.000000 0.000000 0.000000 0.063431
#
#
# Mechanical properties :
#
#
# Convention : Reuss Voigt Hill
#
# Bulk Modulus (GPa) = 55.57154 66.39598 60.98376
# Shear Modulus (GPa) = 26.12180 41.20853 33.66517
#
# Velocity S-wave (km/s) = 3.28681 4.12826 3.73133
# Velocity P-wave (km/s) = 6.11447 7.08396 6.61700
#
# Compressibility (1/GPa) = 0.01799482
#
# Stress axis : x y z
#
# Youngs Moduli (GPa) = 68.73086 75.70499 150.19147
#
# Poissons Ratio (x) = 0.27872 0.09767
# Poissons Ratio (y) = 0.25305 0.58259
# Poissons Ratio (z) = 0.04470 0.29366
#
# Static dielectric constant tensor:
#      x y z
#    x 1.901150 0.000000 0.000000 
#    y 0.000000 2.029630 0.000000 
#    z 0.000000 0.000000 1.921270 
# 
# From -- ./inp_files/16467.got.cif
#   From: 2010.05.17/outbox.cif.g08.bks.cpg/sg55_9_cif.got.tgz:16467.got - 2010.06.03 13:27:54.
