data_PCOD9428220
_publ_section_title
;
Structure prediction by ZEFSAII (Michael W. Deem and Ramdas Pophale) SiO2 
 PCOD9428220
Probable space group: P B A M
;
_chemical_formula_sum "Si O2"
_cell_formula_units_Z 56
_cell_length_a 12.848909
_cell_length_b 12.733215
_cell_length_c 14.664871
_cell_angle_alpha 90.000000
_cell_angle_beta 90.000000
_cell_angle_gamma 90.000000
_cell_volume 2399.289053
_symmetry_space_group_name_H-M "P B A M"
_symmetry_group_IT_number 55
_symmetry_cell_setting 'orthorhombic'
loop_
_space_group_symop_operation_xyz
x,y,z
-x,-y,z
1/2+x,1/2-y,-z
1/2-x,1/2+y,-z
-x,-y,-z
x,y,-z
1/2-x,1/2+y,z
1/2+x,1/2-y,z
loop_
_atom_site_type_symbol
_atom_site_label
_atom_site_fract_x
_atom_site_fract_y
_atom_site_fract_z
Si Si1 0.322143 0.064125 0.604499
Si Si2 0.160218 0.531317 0.897656
Si Si3 0.417317 0.586811 0.656078
Si Si4 0.346831 0.670504 0.831866
Si Si5 0.095469 0.774019 0.304473
Si Si6 0.543403 0.771473 0.099138
Si Si7 0.296783 0.881185 0.272587
O O1 0.353365 0.066732 0.500000
O O2 0.196129 0.081499 0.611489
O O3 0.370559 0.160887 0.660086
O O4 0.352203 0.954349 0.652726
O O5 0.248675 0.621195 0.881883
O O6 0.055576 0.602497 0.891073
O O7 0.185502 0.448200 0.819582
O O8 0.167549 0.488090 0.000000
O O9 0.500000 0.500000 0.625797
O O10 0.395055 0.581205 0.765744
O O11 0.487893 0.691831 0.648800
O O12 0.428510 0.723432 0.898941
O O13 0.322413 0.763713 0.760038
O O14 0.086370 0.771525 0.194466
O O15 0.183533 0.862020 0.317654
O O16 0.590576 0.744349 0.000000
#
# Coordination Sequence:
#
# PCOD9428220 Si02
#       7
#     8   8   8   8   8   8   8
#     4  12  26  45  68  99 131 172 229 283 344 407
#     4  11  22  38  62  95 132 172 223 270 324 400
#     4  11  21  42  71  98 128 169 221 275 333 401
#     4  11  22  40  65  94 135 177 219 271 336 392
#     4  11  22  43  69  95 137 173 216 279 345 396
#     4  10  21  38  63  94 129 174 221 265 319 393
#     4  12  21  43  63  94 132 176 216 272 341 393
#
# _framework density 23.340247999999999
#
# number of rings (size 3 to 8) (size 9 to 14) (size 15 to 20)
#    0.000    0.857    7.143    0.429    0.000    3.714 
#    0.000    1.429    0.000    8.143    0.000    0.000 
#    0.000    0.000    0.000    0.000    0.000    0.000 
#
# Total GULP energy -312432.667010 kJ/mol
# GULP energy per Si atom -5579.154768 kJ/mol
# Density = 2.328712 g / cm^3
# Si number density = 23.340248 Si / 1000 Ang^3
#
#
#
# Elastic Constant Matrix: (Units=GPa)
#
#
# Indices 1 2 3 4 5 6 
#
# 1 29.0494 -1.1821 -6.7346 0.0000 0.0000 0.0000
# 2 -1.1821 62.6110 20.5302 0.0000 0.0000 0.0000
# 3 -6.7346 20.5302 113.1363 0.0000 0.0000 0.0000
# 4 0.0000 0.0000 0.0000 -4.8111 0.0000 0.0000
# 5 0.0000 0.0000 0.0000 0.0000 21.1305 0.0000
# 6 0.0000 0.0000 0.0000 0.0000 0.0000 29.2487
#
#
#
# Elastic Compliance Matrix: (Units=1/GPa)
#
#
# Indices 1 2 3 4 5 6 
#
# 1 0.034906 -0.000024 0.002082 0.000000 0.000000 0.000000
# 2 -0.000024 0.016982 -0.003083 0.000000 0.000000 0.000000
# 3 0.002082 -0.003083 0.009522 0.000000 0.000000 0.000000
# 4 0.000000 0.000000 0.000000 -0.207851 0.000000 0.000000
# 5 0.000000 0.000000 0.000000 0.000000 0.047325 0.000000
# 6 0.000000 0.000000 0.000000 0.000000 0.000000 0.034190
#
#
# Mechanical properties :
#
#
# Convention : Reuss Voigt Hill
#
# Bulk Modulus (GPa) = 16.84605 25.55819 21.20212
# Shear Modulus (GPa) = -116.03741 21.92581 -47.05580
#
# Velocity S-wave (km/s) = -7.05858 3.06829 -4.49495
# Velocity P-wave (km/s) = 7.69403 4.85042 4.22324
#
# Compressibility (1/GPa) = 0.05936109
#
# Stress axis : x y z
#
# Youngs Moduli (GPa) = 28.64845 58.88544 105.01666
#
# Poissons Ratio (x) = 0.00139 -0.21866
# Poissons Ratio (y) = 0.00068 0.32377
# Poissons Ratio (z) = -0.05965 0.18155
#
# Static dielectric constant tensor:
#      x y z
#    x 2.015810 0.000000 0.000000 
#    y 0.000000 1.920490 0.000000 
#    z 0.000000 0.000000 1.826410 
# 
# From -- ./inp_files/18938.got.cif
#   From: 2010.05.17/outbox.cif.g08.bks.cpg/sg55_10_cif.got.tgz:18938.got - 2010.06.03 13:27:54.
