data_PCOD9428807
_publ_section_title
;
Structure prediction by ZEFSAII (Michael W. Deem and Ramdas Pophale) SiO2 
 PCOD9428807
Probable space group: P B A M
;
_chemical_formula_sum "Si O2"
_cell_formula_units_Z 56
_cell_length_a 30.135754
_cell_length_b 5.185359
_cell_length_c 16.028595
_cell_angle_alpha 90.000000
_cell_angle_beta 90.000000
_cell_angle_gamma 90.000000
_cell_volume 2504.703641
_symmetry_space_group_name_H-M "P B A M"
_symmetry_group_IT_number 55
_symmetry_cell_setting 'orthorhombic'
loop_
_space_group_symop_operation_xyz
x,y,z
-x,-y,z
1/2+x,1/2-y,-z
1/2-x,1/2+y,-z
-x,-y,-z
x,y,-z
1/2-x,1/2+y,z
1/2+x,1/2-y,z
loop_
_atom_site_type_symbol
_atom_site_label
_atom_site_fract_x
_atom_site_fract_y
_atom_site_fract_z
Si Si1 0.586170 0.755020 0.410263
Si Si2 0.560568 0.140257 0.264813
Si Si3 0.221005 0.381005 0.598692
Si Si4 0.900893 0.614545 0.095713
Si Si5 0.725982 0.482016 0.000000
Si Si6 0.500000 0.500000 0.356507
Si Si7 0.148002 0.061003 0.314717
Si Si8 0.656342 0.618013 0.863042
O O1 0.587562 0.891905 0.500000
O O2 0.543148 0.568934 0.410018
O O3 0.632489 0.612530 0.392569
O O4 0.575939 0.923886 0.329488
O O5 0.562203 0.076073 0.167495
O O6 0.515758 0.269698 0.296741
O O7 0.600741 0.342221 0.279343
O O8 0.209884 0.365366 0.500000
O O9 0.258901 0.163160 0.614875
O O10 0.179377 0.289350 0.653646
O O11 0.864678 0.394789 0.117042
O O12 0.878172 0.894462 0.107885
O O13 0.915345 0.586754 0.000000
O O14 0.699022 0.566984 0.081258
O O15 0.732126 0.174673 0.000000
O O16 0.167173 0.912440 0.234901
#
# Coordination Sequence:
#
# PCOD9428807 Si02
#       8
#     8   8   8   8   4   4   8   8
#     4  11  22  39  65  95 129 174 222 270 332 400
#     4  10  23  39  64  96 127 170 219 271 324 403
#     4  10  23  40  60  86 123 168 212 267 328 379
#     4  11  20  40  67  92 123 169 216 261 317 378
#     4  12  24  38  58  96 132 167 209 269 333 406
#     4  10  23  42  59  92 140 172 207 272 339 394
#     4  10  23  40  62  92 126 165 225 270 326 388
#     4  11  22  39  63  89 126 166 210 265 320 386
#
# _framework density 22.357935999999999
#
# number of rings (size 3 to 8) (size 9 to 14) (size 15 to 20)
#    0.000    1.429    2.857    1.929    2.000    5.143 
#    0.000    0.357    0.000    1.714    0.000    0.000 
#    0.000    0.000    0.000    0.000    0.000    0.000 
#
# Total GULP energy -312819.579660 kJ/mol
# GULP energy per Si atom -5586.063923 kJ/mol
# Density = 2.230705 g / cm^3
# Si number density = 22.357936 Si / 1000 Ang^3
#
#
#
# Elastic Constant Matrix: (Units=GPa)
#
#
# Indices 1 2 3 4 5 6 
#
# 1 40.4018 -2.0370 20.9838 0.0000 0.0000 0.0000
# 2 -2.0370 49.8694 0.6774 0.0000 0.0000 0.0000
# 3 20.9838 0.6774 144.1178 0.0000 0.0000 0.0000
# 4 0.0000 0.0000 0.0000 25.0845 0.0000 0.0000
# 5 0.0000 0.0000 0.0000 0.0000 12.9452 0.0000
# 6 0.0000 0.0000 0.0000 0.0000 0.0000 14.0731
#
#
#
# Elastic Compliance Matrix: (Units=1/GPa)
#
#
# Indices 1 2 3 4 5 6 
#
# 1 0.026842 0.001150 -0.003914 0.000000 0.000000 0.000000
# 2 0.001150 0.020103 -0.000262 0.000000 0.000000 0.000000
# 3 -0.003914 -0.000262 0.007510 0.000000 0.000000 0.000000
# 4 0.000000 0.000000 0.000000 0.039865 0.000000 0.000000
# 5 0.000000 0.000000 0.000000 0.000000 0.077249 0.000000
# 6 0.000000 0.000000 0.000000 0.000000 0.000000 0.071057
#
#
# Mechanical properties :
#
#
# Convention : Reuss Voigt Hill
#
# Bulk Modulus (GPa) = 20.65997 30.40418 25.53207
# Shear Modulus (GPa) = 18.88130 24.73822 21.80976
#
# Velocity S-wave (km/s) = 2.90918 3.32996 3.12666
# Velocity P-wave (km/s) = 4.53267 5.33040 4.94764
#
# Compressibility (1/GPa) = 0.04840278
#
# Stress axis : x y z
#
# Youngs Moduli (GPa) = 37.25509 49.74408 133.15882
#
# Poissons Ratio (x) = -0.05718 0.52114
# Poissons Ratio (y) = -0.04283 0.03487
# Poissons Ratio (z) = 0.14580 0.01303
#
# Static dielectric constant tensor:
#      x y z
#    x 1.832300 0.000000 0.000000 
#    y 0.000000 1.940850 0.000000 
#    z 0.000000 0.000000 1.868610 
# 
# From -- ./inp_files/20162.got.cif
#   From: 2010.05.17/outbox.cif.g08.bks.cpg/sg55_11_cif.got.tgz:20162.got - 2010.06.03 13:27:54.
