data_PCOD9428745
_publ_section_title
;
Structure prediction by ZEFSAII (Michael W. Deem and Ramdas Pophale) SiO2 
 PCOD9428745
Probable space group: P B A M
;
_chemical_formula_sum "Si O2"
_cell_formula_units_Z 40
_cell_length_a 20.904936
_cell_length_b 8.776087
_cell_length_c 9.643251
_cell_angle_alpha 90.000000
_cell_angle_beta 90.000000
_cell_angle_gamma 90.000000
_cell_volume 1769.184937
_symmetry_space_group_name_H-M "P B A M"
_symmetry_group_IT_number 55
_symmetry_cell_setting 'orthorhombic'
loop_
_space_group_symop_operation_xyz
x,y,z
-x,-y,z
1/2+x,1/2-y,-z
1/2-x,1/2+y,-z
-x,-y,-z
x,y,-z
1/2-x,1/2+y,z
1/2+x,1/2-y,z
loop_
_atom_site_type_symbol
_atom_site_label
_atom_site_fract_x
_atom_site_fract_y
_atom_site_fract_z
Si Si1 0.617895 0.521133 0.838296
Si Si2 0.543090 0.758409 0.344084
Si Si3 0.160738 0.535838 0.274931
Si Si4 0.431989 0.821917 0.148885
Si Si5 0.773957 0.166748 0.661674
O O1 0.564908 0.623626 0.759902
O O2 0.599482 0.344584 0.838230
O O3 0.680612 0.552822 0.746839
O O4 0.625115 0.568407 0.000000
O O5 0.530163 0.704407 0.500000
O O6 0.602345 0.876206 0.348773
O O7 0.481368 0.833292 0.274420
O O8 0.122267 0.450986 0.154228
O O9 0.202463 0.399117 0.338756
O O10 0.211790 0.673197 0.261966
O O11 0.466034 0.829012 0.000000
O O12 0.793313 0.181284 0.500000
#
# Coordination Sequence:
#
# PCOD9428745 Si02
#       5
#     8   8   8   8   8
#     4  10  22  42  67  96 131 171 214 259 315 382
#     4  11  24  42  67 100 133 168 214 265 320 382
#     4  11  24  41  65  93 126 166 212 263 319 378
#     4  11  25  43  65  95 132 174 216 262 318 381
#     4  11  23  42  67  95 128 166 213 267 324 384
#
# _framework density 22.609280999999999
#
# number of rings (size 3 to 8) (size 9 to 14) (size 15 to 20)
#    0.000    1.200    0.000    6.600    0.000   12.800 
#    0.000    2.000    0.000    0.000    0.000    0.000 
#    0.000    0.000    0.000    0.000    0.000    0.000 
#
# Total GULP energy -223146.959948 kJ/mol
# GULP energy per Si atom -5578.673999 kJ/mol
# Density = 2.255782 g / cm^3
# Si number density = 22.609281 Si / 1000 Ang^3
#
#
#
# Elastic Constant Matrix: (Units=GPa)
#
#
# Indices 1 2 3 4 5 6 
#
# 1 82.1913 44.8716 40.7238 0.0000 0.0000 0.0000
# 2 44.8716 117.8897 33.9283 0.0000 0.0000 0.0000
# 3 40.7238 33.9283 89.2956 0.0000 0.0000 0.0000
# 4 0.0000 0.0000 0.0000 -41.3027 0.0000 0.0000
# 5 0.0000 0.0000 0.0000 0.0000 37.5318 0.0000
# 6 0.0000 0.0000 0.0000 0.0000 0.0000 51.5545
#
#
#
# Elastic Compliance Matrix: (Units=1/GPa)
#
#
# Indices 1 2 3 4 5 6 
#
# 1 0.018055 -0.005055 -0.006313 0.000000 0.000000 0.000000
# 2 -0.005055 0.010939 -0.001851 0.000000 0.000000 0.000000
# 3 -0.006313 -0.001851 0.014781 0.000000 0.000000 0.000000
# 4 0.000000 0.000000 0.000000 -0.024211 0.000000 0.000000
# 5 0.000000 0.000000 0.000000 0.000000 0.026644 0.000000
# 6 0.000000 0.000000 0.000000 0.000000 0.000000 0.019397
#
#
# Mechanical properties :
#
#
# Convention : Reuss Voigt Hill
#
# Bulk Modulus (GPa) = 57.68181 58.71378 58.19780
# Shear Modulus (GPa) = 51.11323 20.88025 35.99674
#
# Velocity S-wave (km/s) = 4.75986 3.04225 3.99447
# Velocity P-wave (km/s) = 7.46835 6.19400 6.86083
#
# Compressibility (1/GPa) = 0.01733649
#
# Stress axis : x y z
#
# Youngs Moduli (GPa) = 55.38772 91.41346 67.65336
#
# Poissons Ratio (x) = 0.46210 0.42711
# Poissons Ratio (y) = 0.27999 0.12523
# Poissons Ratio (z) = 0.34967 0.16921
#
# Static dielectric constant tensor:
#      x y z
#    x 1.868340 0.000000 0.000000 
#    y 0.000000 1.874960 0.000000 
#    z 0.000000 0.000000 1.800280 
# 
# From -- ./inp_files/9302.got.cif
#   From: 2010.05.17/outbox.cif.g08.bks.cpg/sg55_5_cif.got.tgz:9302.got - 2010.06.03 13:27:54.
