data_PCOD9428891
_publ_section_title
;
Structure prediction by ZEFSAII (Michael W. Deem and Ramdas Pophale) SiO2 
 PCOD9428891
Probable space group: P B A M
;
_chemical_formula_sum "Si O2"
_cell_formula_units_Z 32
_cell_length_a 17.254989
_cell_length_b 7.810409
_cell_length_c 10.892343
_cell_angle_alpha 90.000000
_cell_angle_beta 90.000000
_cell_angle_gamma 90.000000
_cell_volume 1467.944960
_symmetry_space_group_name_H-M "P B A M"
_symmetry_group_IT_number 55
_symmetry_cell_setting 'orthorhombic'
loop_
_space_group_symop_operation_xyz
x,y,z
-x,-y,z
1/2+x,1/2-y,-z
1/2-x,1/2+y,-z
-x,-y,-z
x,y,-z
1/2-x,1/2+y,z
1/2+x,1/2-y,z
loop_
_atom_site_type_symbol
_atom_site_label
_atom_site_fract_x
_atom_site_fract_y
_atom_site_fract_z
Si Si1 0.089358 0.806316 0.712174
Si Si2 0.693468 0.500000 0.135774
Si Si3 0.410642 0.693684 0.712174
Si Si4 0.691895 1.000000 0.631997
O O1 0.136382 0.838994 0.838968
O O2 0.137320 0.665924 0.640292
O O3 1.000000 0.757334 0.728205
O O4 0.090264 1.000000 0.657768
O O5 0.636382 0.338993 0.161032
O O6 0.753113 0.500000 0.249095
O O7 0.726160 0.500000 0.000000
O O8 0.362680 0.834076 0.640292
O O9 0.733192 1.000000 0.500000
#
# Coordination Sequence:
#
# PCOD9428891 Si02
#       4
#     8   8   8   8
#     4   9  22  42  64  95 131 166 212 271 327 379
#     4  10  23  45  69  95 131 174 219 268 324 386
#     4   9  22  42  64  95 131 166 212 271 327 379
#     4  12  25  41  65  99 135 172 215 264 324 392
#
# _framework density 21.799182999999999
#
# number of rings (size 3 to 8) (size 9 to 14) (size 15 to 20)
#    1.500    0.500    0.000    2.250    0.000   13.000 
#    0.000    2.500    0.000    4.500    0.000    0.000 
#    0.000    0.000    0.000    0.000    0.000    0.000 
#
# Total GULP energy -178248.650498 kJ/mol
# GULP energy per Si atom -5570.270328 kJ/mol
# Density = 2.174957 g / cm^3
# Si number density = 21.799183 Si / 1000 Ang^3
#
#
#
# Elastic Constant Matrix: (Units=GPa)
#
#
# Indices 1 2 3 4 5 6 
#
# 1 152.0202 19.4661 78.7425 0.0000 0.0000 0.0000
# 2 19.4661 48.5583 31.5549 0.0000 0.0000 0.0000
# 3 78.7425 31.5549 179.9096 0.0000 0.0000 0.0000
# 4 0.0000 0.0000 0.0000 16.3564 0.0000 0.0000
# 5 0.0000 0.0000 0.0000 0.0000 17.7697 0.0000
# 6 0.0000 0.0000 0.0000 0.0000 0.0000 -75.1256
#
#
#
# Elastic Compliance Matrix: (Units=1/GPa)
#
#
# Indices 1 2 3 4 5 6 
#
# 1 0.008561 -0.001125 -0.003549 0.000000 0.000000 0.000000
# 2 -0.001125 0.023391 -0.003610 0.000000 0.000000 0.000000
# 3 -0.003549 -0.003610 0.007745 0.000000 0.000000 0.000000
# 4 0.000000 0.000000 0.000000 0.061138 0.000000 0.000000
# 5 0.000000 0.000000 0.000000 0.000000 0.056275 0.000000
# 6 0.000000 0.000000 0.000000 0.000000 0.000000 -0.013311
#
#
# Mechanical properties :
#
#
# Convention : Reuss Voigt Hill
#
# Bulk Modulus (GPa) = 43.23956 71.11280 57.17618
# Shear Modulus (GPa) = 29.74812 8.51507 19.13159
#
# Velocity S-wave (km/s) = 3.69812 1.97854 2.96569
# Velocity P-wave (km/s) = 6.17359 6.15728 6.16544
#
# Compressibility (1/GPa) = 0.02312697
#
# Stress axis : x y z
#
# Youngs Moduli (GPa) = 116.81295 42.75174 129.11455
#
# Poissons Ratio (x) = 0.04811 0.45829
# Poissons Ratio (y) = 0.13144 0.46612
# Poissons Ratio (z) = 0.41462 0.15434
#
# Static dielectric constant tensor:
#      x y z
#    x 1.822980 0.000000 0.000000 
#    y 0.000000 1.842760 0.000000 
#    z 0.000000 0.000000 1.801920 
# 
# From -- ./inp_files/14615.got.cif
#   From: 2010.05.17/outbox.cif.g08.bks.cpg/sg55_8_cif.got.tgz:14615.got - 2010.06.03 13:27:54.
