data_PCOD9428390
_publ_section_title
;
Structure prediction by ZEFSAII (Michael W. Deem and Ramdas Pophale) SiO2 
 PCOD9428390
Probable space group: P B A M
;
_chemical_formula_sum "Si O2"
_cell_formula_units_Z 30
_cell_length_a 4.910023
_cell_length_b 23.693789
_cell_length_c 12.792030
_cell_angle_alpha 90.000000
_cell_angle_beta 90.000000
_cell_angle_gamma 90.000000
_cell_volume 1488.187020
_symmetry_space_group_name_H-M "P B A M"
_symmetry_group_IT_number 55
_symmetry_cell_setting 'orthorhombic'
loop_
_space_group_symop_operation_xyz
x,y,z
-x,-y,z
1/2+x,1/2-y,-z
1/2-x,1/2+y,-z
-x,-y,-z
x,y,-z
1/2-x,1/2+y,z
1/2+x,1/2-y,z
loop_
_atom_site_type_symbol
_atom_site_label
_atom_site_fract_x
_atom_site_fract_y
_atom_site_fract_z
Si Si1 0.500000 0.500000 0.500000
Si Si2 0.880865 0.129936 0.693793
Si Si3 0.959386 0.790300 0.500000
Si Si4 0.749006 0.707845 0.116585
Si Si5 0.372455 0.054029 0.315661
O O1 0.702115 0.472655 0.589602
O O2 0.982922 0.171402 0.601790
O O3 0.756019 0.163770 0.790369
O O4 0.634533 0.091108 0.650898
O O5 0.142103 0.094302 0.733458
O O6 0.159480 0.736219 0.500000
O O7 0.487438 0.747191 0.126100
O O8 0.758771 0.682148 0.000000
O O9 0.500000 0.000000 0.255567
#
# Coordination Sequence:
#
# PCOD9428390 Si02
#       5
#     2   8   4   8   8
#     4  12  22  40  58  84 120 160 208 254 292 358
#     4  12  23  39  62  90 122 165 203 249 315 368
#     4  12  24  38  53  85 126 156 189 241 307 376
#     4  10  21  40  66  94 124 161 208 258 303 369
#     4  12  24  39  60  88 121 157 212 259 296 360
#
# _framework density 20.158756
#
# number of rings (size 3 to 8) (size 9 to 14) (size 15 to 20)
#    0.000    0.533    2.667    6.800    0.000    0.000 
#    0.000    0.000    0.000    4.800    0.000    0.000 
#    0.000    0.000    0.000    0.000    0.000    0.000 
#
# Total GULP energy -167038.544215 kJ/mol
# GULP energy per Si atom -5567.951474 kJ/mol
# Density = 2.011287 g / cm^3
# Si number density = 20.158756 Si / 1000 Ang^3
#
#
#
# Elastic Constant Matrix: (Units=GPa)
#
#
# Indices 1 2 3 4 5 6 
#
# 1 119.7310 19.0112 -5.7648 0.0000 0.0000 0.0000
# 2 19.0112 75.8138 35.1841 0.0000 0.0000 0.0000
# 3 -5.7648 35.1841 82.3040 0.0000 0.0000 0.0000
# 4 0.0000 0.0000 0.0000 21.8052 0.0000 0.0000
# 5 0.0000 0.0000 0.0000 0.0000 20.7391 0.0000
# 6 0.0000 0.0000 0.0000 0.0000 0.0000 9.2904
#
#
#
# Elastic Compliance Matrix: (Units=1/GPa)
#
#
# Indices 1 2 3 4 5 6 
#
# 1 0.008949 -0.003163 0.001979 0.000000 0.000000 0.000000
# 2 -0.003163 0.017572 -0.007733 0.000000 0.000000 0.000000
# 3 0.001979 -0.007733 0.015595 0.000000 0.000000 0.000000
# 4 0.000000 0.000000 0.000000 0.045861 0.000000 0.000000
# 5 0.000000 0.000000 0.000000 0.000000 0.048218 0.000000
# 6 0.000000 0.000000 0.000000 0.000000 0.000000 0.107638
#
#
# Mechanical properties :
#
#
# Convention : Reuss Voigt Hill
#
# Bulk Modulus (GPa) = 41.18278 41.63443 41.40860
# Shear Modulus (GPa) = 18.53488 25.66148 22.09818
#
# Velocity S-wave (km/s) = 3.03553 3.57174 3.31449
# Velocity P-wave (km/s) = 5.72359 6.14067 5.93580
#
# Compressibility (1/GPa) = 0.02428200
#
# Stress axis : x y z
#
# Youngs Moduli (GPa) = 111.73826 56.90793 64.12458
#
# Poissons Ratio (x) = 0.17997 -0.12689
# Poissons Ratio (y) = 0.35337 0.49590
# Poissons Ratio (z) = -0.22111 0.44009
#
# Static dielectric constant tensor:
#      x y z
#    x 1.726960 0.000000 0.000000 
#    y 0.000000 1.362250 0.000000 
#    z 0.000000 0.000000 1.678370 
# 
# From -- ./inp_files/11162.got.cif
#   From: 2010.05.17/outbox.cif.g08.bks.cpg/sg55_6_cif.got.tgz:11162.got - 2010.06.03 13:27:54.
