data_PCOD9428102
_publ_section_title
;
Structure prediction by ZEFSAII (Michael W. Deem and Ramdas Pophale) SiO2 
 PCOD9428102
Probable space group: P B A M
;
_chemical_formula_sum "Si O2"
_cell_formula_units_Z 64
_cell_length_a 24.275548
_cell_length_b 15.299682
_cell_length_c 8.432693
_cell_angle_alpha 90.000000
_cell_angle_beta 90.000000
_cell_angle_gamma 90.000000
_cell_volume 3131.971031
_symmetry_space_group_name_H-M "P B A M"
_symmetry_group_IT_number 55
_symmetry_cell_setting 'orthorhombic'
loop_
_space_group_symop_operation_xyz
x,y,z
-x,-y,z
1/2+x,1/2-y,-z
1/2-x,1/2+y,-z
-x,-y,-z
x,y,-z
1/2-x,1/2+y,z
1/2+x,1/2-y,z
loop_
_atom_site_type_symbol
_atom_site_label
_atom_site_fract_x
_atom_site_fract_y
_atom_site_fract_z
Si Si1 0.369786 0.180304 0.690868
Si Si2 0.245221 0.232657 0.690977
Si Si3 0.521569 0.734150 0.315015
Si Si4 0.542105 0.427583 0.188313
Si Si5 0.640736 0.004965 0.814991
Si Si6 0.167469 0.077309 0.810837
Si Si7 0.970847 0.591676 0.188931
Si Si8 0.248178 0.931592 0.685561
O O1 0.373371 0.168231 0.500000
O O2 0.307203 0.203072 0.732431
O O3 0.414458 0.254035 0.733042
O O4 0.383820 0.090117 0.777394
O O5 0.240654 0.232895 0.500000
O O6 0.200984 0.162643 0.751995
O O7 0.241308 0.333188 0.747479
O O8 0.519252 0.710436 0.500000
O O9 0.487293 0.664456 0.217152
O O10 0.494840 0.828885 0.287258
O O11 0.500000 0.500000 0.255304
O O12 0.604650 0.427063 0.251896
O O13 0.546997 0.443646 0.000000
O O14 0.593967 0.076446 0.783078
O O15 0.694508 0.018054 0.710221
O O16 0.656091 0.009194 0.000000
O O17 0.201066 0.990112 0.764683
O O18 0.165719 0.083435 0.000000
O O19 0.000000 0.500000 0.227711
O O20 0.979064 0.607396 0.000000
O O21 0.234641 0.925001 0.500000
#
# Coordination Sequence:
#
# PCOD9428102 Si02
#       8
#     8   8   8   8   8   8   8   8
#     4  10  21  39  61  89 125 161 203 257 313 373
#     4  10  23  42  64  91 125 166 204 251 320 379
#     4  11  24  39  63  95 124 161 211 261 311 373
#     4  10  25  48  68  89 124 169 215 267 322 371
#     4  11  22  37  60  89 122 164 209 251 301 368
#     4  11  24  43  67  96 126 162 215 266 311 373
#     4  10  21  38  58  85 125 167 205 246 303 370
#     4  11  24  41  64  91 125 165 202 251 318 380
#
# _framework density 20.434417
#
# number of rings (size 3 to 8) (size 9 to 14) (size 15 to 20)
#    0.000    1.500    2.500    1.500    3.500    4.000 
#    0.000    0.000    0.000    0.000    0.000    0.000 
#    0.000    0.000    0.000    0.000    0.000    0.000 
#
# Total GULP energy -357520.170650 kJ/mol
# GULP energy per Si atom -5586.252666 kJ/mol
# Density = 2.038791 g / cm^3
# Si number density = 20.434417 Si / 1000 Ang^3
#
#
#
# Elastic Constant Matrix: (Units=GPa)
#
#
# Indices 1 2 3 4 5 6 
#
# 1 144.4741 53.4968 21.7758 0.0000 0.0000 0.0000
# 2 53.4968 97.0948 10.3095 0.0000 0.0000 0.0000
# 3 21.7758 10.3095 7.4625 0.0000 0.0000 0.0000
# 4 0.0000 0.0000 0.0000 17.4461 0.0000 0.0000
# 5 0.0000 0.0000 0.0000 0.0000 15.2914 0.0000
# 6 0.0000 0.0000 0.0000 0.0000 0.0000 21.2784
#
#
#
# Elastic Compliance Matrix: (Units=1/GPa)
#
#
# Indices 1 2 3 4 5 6 
#
# 1 0.013456 -0.003803 -0.034012 0.000000 0.000000 0.000000
# 2 -0.003803 0.013144 -0.007063 0.000000 0.000000 0.000000
# 3 -0.034012 -0.007063 0.243010 0.000000 0.000000 0.000000
# 4 0.000000 0.000000 0.000000 0.057319 0.000000 0.000000
# 5 0.000000 0.000000 0.000000 0.000000 0.065396 0.000000
# 6 0.000000 0.000000 0.000000 0.000000 0.000000 0.046996
#
#
# Mechanical properties :
#
#
# Convention : Reuss Voigt Hill
#
# Bulk Modulus (GPa) = 5.56003 46.68837 26.12420
# Shear Modulus (GPa) = 8.48855 21.69981 15.09418
#
# Velocity S-wave (km/s) = 2.04036 3.26225 2.72079
# Velocity P-wave (km/s) = 2.87708 6.08993 4.76261
#
# Compressibility (1/GPa) = 0.17985499
#
# Stress axis : x y z
#
# Youngs Moduli (GPa) = 74.31520 76.07872 4.11506
#
# Poissons Ratio (x) = 0.28930 0.13996
# Poissons Ratio (y) = 0.28259 0.02906
# Poissons Ratio (z) = 2.52763 0.53732
#
# Static dielectric constant tensor:
#      x y z
#    x 1.744050 0.000000 0.000000 
#    y 0.000000 1.727070 0.000000 
#    z 0.000000 0.000000 1.706620 
# 
# From -- ./inp_files/9732.got.cif
#   From: 2010.05.17/outbox.cif.g08.bks.cpg/sg55_5_cif.got.tgz:9732.got - 2010.06.03 13:27:54.
