data_PCOD9428682
_publ_section_title
;
Structure prediction by ZEFSAII (Michael W. Deem and Ramdas Pophale) SiO2 
 PCOD9428682
Probable space group: P B A M
;
_chemical_formula_sum "Si O2"
_cell_formula_units_Z 56
_cell_length_a 15.077520
_cell_length_b 15.715439
_cell_length_c 11.177717
_cell_angle_alpha 90.000000
_cell_angle_beta 90.000000
_cell_angle_gamma 90.000000
_cell_volume 2648.558320
_symmetry_space_group_name_H-M "P B A M"
_symmetry_group_IT_number 55
_symmetry_cell_setting 'orthorhombic'
loop_
_space_group_symop_operation_xyz
x,y,z
-x,-y,z
1/2+x,1/2-y,-z
1/2-x,1/2+y,-z
-x,-y,-z
x,y,-z
1/2-x,1/2+y,z
1/2+x,1/2-y,z
loop_
_atom_site_type_symbol
_atom_site_label
_atom_site_fract_x
_atom_site_fract_y
_atom_site_fract_z
Si Si1 0.180666 0.554988 0.132449
Si Si2 0.573734 0.062083 0.312403
Si Si3 0.960696 0.832650 0.755571
Si Si4 0.812400 0.723613 0.632193
Si Si5 0.379428 0.502185 0.139752
Si Si6 0.368189 0.370293 0.637997
Si Si7 0.037372 0.676257 0.868820
O O1 0.138445 0.497186 0.234761
O O2 0.284900 0.549980 0.136122
O O3 0.139497 0.649032 0.142969
O O4 0.152999 0.522645 0.000000
O O5 0.635045 0.133055 0.373486
O O6 0.514852 0.119335 0.224438
O O7 0.500000 0.000000 0.372051
O O8 0.869582 0.785620 0.717197
O O9 0.945271 0.924167 0.814315
O O10 0.030684 0.836368 0.646130
O O11 0.012884 0.772776 0.847588
O O12 0.812574 0.762930 0.500000
O O13 0.710586 0.698067 0.660229
O O14 0.366526 0.434551 0.248309
O O15 0.395786 0.474329 0.000000
O O16 0.353933 0.402502 0.500000
O O17 0.007027 0.651202 0.000000
#
# Coordination Sequence:
#
# PCOD9428682 Si02
#       7
#     8   8   8   8   8   8   8
#     4   9  17  32  55  85 122 160 204 253 312 377
#     4   9  16  31  57  86 119 157 205 258 318 370
#     4  11  24  39  65  91 129 165 213 263 321 377
#     4  10  22  41  62  90 126 163 212 266 315 379
#     4  11  24  42  67  97 129 165 214 268 316 373
#     4  11  25  46  69  92 125 173 218 259 319 387
#     4   9  18  32  55  87 123 161 202 256 318 380
#
# _framework density 21.143575999999999
#
# number of rings (size 3 to 8) (size 9 to 14) (size 15 to 20)
#    0.000    2.000    1.429    1.714    2.000    5.429 
#    0.000    0.714    0.000    0.000    0.000    0.000 
#    0.000    0.000    0.000    0.000    0.000    0.000 
#
# Total GULP energy -311783.279649 kJ/mol
# GULP energy per Si atom -5567.558565 kJ/mol
# Density = 2.109545 g / cm^3
# Si number density = 21.143576 Si / 1000 Ang^3
#
#
#
# Elastic Constant Matrix: (Units=GPa)
#
#
# Indices 1 2 3 4 5 6 
#
# 1 94.5447 21.2919 38.5103 0.0000 0.0000 0.0000
# 2 21.2919 73.9339 34.1750 0.0000 0.0000 0.0000
# 3 38.5103 34.1750 120.8530 0.0000 0.0000 0.0000
# 4 0.0000 0.0000 0.0000 16.6874 0.0000 0.0000
# 5 0.0000 0.0000 0.0000 0.0000 3.8187 0.0000
# 6 0.0000 0.0000 0.0000 0.0000 0.0000 29.4062
#
#
#
# Elastic Compliance Matrix: (Units=1/GPa)
#
#
# Indices 1 2 3 4 5 6 
#
# 1 0.012409 -0.002008 -0.003386 0.000000 0.000000 0.000000
# 2 -0.002008 0.015884 -0.003852 0.000000 0.000000 0.000000
# 3 -0.003386 -0.003852 0.010443 0.000000 0.000000 0.000000
# 4 0.000000 0.000000 0.000000 0.059926 0.000000 0.000000
# 5 0.000000 0.000000 0.000000 0.000000 0.261867 0.000000
# 6 0.000000 0.000000 0.000000 0.000000 0.000000 0.034006
#
#
# Mechanical properties :
#
#
# Convention : Reuss Voigt Hill
#
# Bulk Modulus (GPa) = 49.39943 53.03178 51.21561
# Shear Modulus (GPa) = 11.91115 23.00609 17.45862
#
# Velocity S-wave (km/s) = 2.37607 3.30220 2.87665
# Velocity P-wave (km/s) = 5.56256 6.29885 5.94212
#
# Compressibility (1/GPa) = 0.02024315
#
# Stress axis : x y z
#
# Youngs Moduli (GPa) = 80.58978 62.95474 95.76011
#
# Poissons Ratio (x) = 0.12643 0.32426
# Poissons Ratio (y) = 0.16185 0.36886
# Poissons Ratio (z) = 0.27289 0.24249
#
# Static dielectric constant tensor:
#      x y z
#    x 1.813090 0.000000 0.000000 
#    y 0.000000 1.765780 0.000000 
#    z 0.000000 0.000000 1.768690 
# 
# From -- ./inp_files/14233.got.cif
#   From: 2010.05.17/outbox.cif.g08.bks.cpg/sg55_8_cif.got.tgz:14233.got - 2010.06.03 13:27:54.
