data_PCOD9428707
_publ_section_title
;
Structure prediction by ZEFSAII (Michael W. Deem and Ramdas Pophale) SiO2 
 PCOD9428707
Probable space group: P B A M
;
_chemical_formula_sum "Si O2"
_cell_formula_units_Z 48
_cell_length_a 18.757493
_cell_length_b 14.734332
_cell_length_c 8.910015
_cell_angle_alpha 90.000000
_cell_angle_beta 90.000000
_cell_angle_gamma 90.000000
_cell_volume 2462.542188
_symmetry_space_group_name_H-M "P B A M"
_symmetry_group_IT_number 55
_symmetry_cell_setting 'orthorhombic'
loop_
_space_group_symop_operation_xyz
x,y,z
-x,-y,z
1/2+x,1/2-y,-z
1/2-x,1/2+y,-z
-x,-y,-z
x,y,-z
1/2-x,1/2+y,z
1/2+x,1/2-y,z
loop_
_atom_site_type_symbol
_atom_site_label
_atom_site_fract_x
_atom_site_fract_y
_atom_site_fract_z
Si Si1 0.972694 0.398611 0.820881
Si Si2 0.072679 0.057030 0.824046
Si Si3 0.769252 0.720865 0.822964
Si Si4 0.078247 0.254437 0.321055
Si Si5 0.306535 0.086245 0.176444
Si Si6 0.703283 0.551420 0.677904
O O1 0.888715 0.394682 0.787400
O O2 0.000000 0.500000 0.787023
O O3 0.018148 0.324086 0.733877
O O4 0.982020 0.383426 0.000000
O O5 0.064881 0.154574 0.746640
O O6 0.135890 0.000740 0.747174
O O7 0.089979 0.070675 0.000000
O O8 0.000000 0.000000 0.812991
O O9 0.845337 0.713685 0.742645
O O10 0.739159 0.822348 0.804383
O O11 0.714826 0.649264 0.751980
O O12 0.777306 0.702914 0.000000
O O13 0.080703 0.249926 0.500000
O O14 0.272076 0.008052 0.275985
O O15 0.302836 0.059524 0.000000
O O16 0.696539 0.558272 0.500000
#
# Coordination Sequence:
#
# PCOD9428707 Si02
#       6
#     8   8   8   8   8   8
#     4  10  22  41  66  95 128 170 217 263 314 384
#     4  11  25  45  68  92 126 175 226 268 315 389
#     4  11  23  41  66  92 126 173 222 263 311 386
#     4  12  25  42  66  99 135 169 210 269 335 385
#     4  10  22  41  66  94 125 170 221 262 311 384
#     4  12  25  41  66  98 134 166 208 272 334 382
#
# _framework density 19.492052999999999
#
# number of rings (size 3 to 8) (size 9 to 14) (size 15 to 20)
#    0.000    1.000    1.667    5.000    2.333    4.333 
#    0.000    0.000    0.000    0.000    0.000    0.000 
#    0.000    0.000    0.000    0.000    0.000    0.000 
#
# Total GULP energy -268660.731162 kJ/mol
# GULP energy per Si atom -5597.098566 kJ/mol
# Density = 1.944769 g / cm^3
# Si number density = 19.492053 Si / 1000 Ang^3
#
#
#
# Elastic Constant Matrix: (Units=GPa)
#
#
# Indices 1 2 3 4 5 6 
#
# 1 69.4314 -0.5452 27.7711 0.0000 0.0000 0.0000
# 2 -0.5452 61.1367 38.1781 0.0000 0.0000 0.0000
# 3 27.7711 38.1781 116.7833 0.0000 0.0000 0.0000
# 4 0.0000 0.0000 0.0000 18.5841 0.0000 0.0000
# 5 0.0000 0.0000 0.0000 0.0000 -84.3909 0.0000
# 6 0.0000 0.0000 0.0000 0.0000 0.0000 31.6267
#
#
#
# Elastic Compliance Matrix: (Units=1/GPa)
#
#
# Indices 1 2 3 4 5 6 
#
# 1 0.016414 0.003247 -0.004965 0.000000 0.000000 0.000000
# 2 0.003247 0.021195 -0.007701 0.000000 0.000000 0.000000
# 3 -0.004965 -0.007701 0.012261 0.000000 0.000000 0.000000
# 4 0.000000 0.000000 0.000000 0.053809 0.000000 0.000000
# 5 0.000000 0.000000 0.000000 0.000000 -0.011850 0.000000
# 6 0.000000 0.000000 0.000000 0.000000 0.000000 0.031619
#
#
# Mechanical properties :
#
#
# Convention : Reuss Voigt Hill
#
# Bulk Modulus (GPa) = 32.22491 42.01769 37.12130
# Shear Modulus (GPa) = 32.75899 5.29382 19.02641
#
# Velocity S-wave (km/s) = 4.10400 1.64978 3.12767
# Velocity P-wave (km/s) = 6.24702 5.02316 5.66822
#
# Compressibility (1/GPa) = 0.03103190
#
# Stress axis : x y z
#
# Youngs Moduli (GPa) = 60.92383 47.18156 81.55949
#
# Poissons Ratio (x) = -0.15318 0.40491
# Poissons Ratio (y) = -0.19780 0.62808
# Poissons Ratio (z) = 0.30246 0.36334
#
# Static dielectric constant tensor:
#      x y z
#    x 1.662990 0.000000 0.000000 
#    y 0.000000 1.654480 0.000000 
#    z 0.000000 0.000000 1.654130 
# 
# From -- ./inp_files/7433.got.cif
#   From: 2010.05.17/outbox.cif.g08.bks.cpg/sg55_4_cif.got.tgz:7433.got - 2010.06.03 13:27:54.
