data_PCOD9428413
_publ_section_title
;
Structure prediction by ZEFSAII (Michael W. Deem and Ramdas Pophale) SiO2 
 PCOD9428413
Probable space group: P B A M
;
_chemical_formula_sum "Si O2"
_cell_formula_units_Z 48
_cell_length_a 18.427791
_cell_length_b 7.719153
_cell_length_c 15.761396
_cell_angle_alpha 90.000000
_cell_angle_beta 90.000000
_cell_angle_gamma 90.000000
_cell_volume 2242.010322
_symmetry_space_group_name_H-M "P B A M"
_symmetry_group_IT_number 55
_symmetry_cell_setting 'orthorhombic'
loop_
_space_group_symop_operation_xyz
x,y,z
-x,-y,z
1/2+x,1/2-y,-z
1/2-x,1/2+y,-z
-x,-y,-z
x,y,-z
1/2-x,1/2+y,z
1/2+x,1/2-y,z
loop_
_atom_site_type_symbol
_atom_site_label
_atom_site_fract_x
_atom_site_fract_y
_atom_site_fract_z
Si Si1 0.979817 0.812405 0.337906
Si Si2 0.254089 0.117908 0.698814
Si Si3 0.885589 0.262943 0.225525
Si Si4 0.414311 0.951636 0.904924
Si Si5 0.123288 0.101016 0.821167
Si Si6 0.157494 0.340688 0.595726
O O1 0.928489 0.856717 0.258190
O O2 0.928328 0.692378 0.393971
O O3 0.049784 0.728257 0.293762
O O4 0.000000 0.000000 0.377301
O O5 0.312613 0.267466 0.721143
O O6 0.204685 0.109001 0.783519
O O7 0.200045 0.165594 0.622141
O O8 0.308949 0.971805 0.664303
O O9 0.878987 0.433823 0.169001
O O10 0.895177 0.099830 0.162061
O O11 0.395776 0.750329 0.887707
O O12 0.500000 0.000000 0.898692
O O13 0.390500 0.997632 0.000000
O O14 0.173660 0.393406 0.500000
#
# Coordination Sequence:
#
# PCOD9428413 Si02
#       6
#     8   8   8   8   8   8
#     4   9  20  38  63  93 123 172 227 269 325 405
#     4  11  22  40  66  93 127 177 230 265 330 418
#     4  11  21  40  68  93 124 173 232 269 321 407
#     4  11  24  40  66 102 133 165 212 279 340 388
#     4  10  21  41  64  92 129 174 223 270 321 404
#     4  11  23  40  62  96 136 171 217 286 346 393
#
# _framework density 21.409357
#
# number of rings (size 3 to 8) (size 9 to 14) (size 15 to 20)
#    0.000    1.500    3.333    2.500    0.000    1.000 
#    0.000    5.000    0.000    0.000    0.000    0.000 
#    0.000    0.000    0.000    0.000    0.000    0.000 
#
# Total GULP energy -267539.000642 kJ/mol
# GULP energy per Si atom -5573.729180 kJ/mol
# Density = 2.136063 g / cm^3
# Si number density = 21.409357 Si / 1000 Ang^3
#
#
#
# Elastic Constant Matrix: (Units=GPa)
#
#
# Indices 1 2 3 4 5 6 
#
# 1 127.2024 20.6671 26.2599 0.0000 0.0000 0.0000
# 2 20.6671 65.1800 24.8667 0.0000 0.0000 0.0000
# 3 26.2599 24.8667 81.7951 0.0000 0.0000 0.0000
# 4 0.0000 0.0000 0.0000 9.3664 0.0000 0.0000
# 5 0.0000 0.0000 0.0000 0.0000 10.5553 0.0000
# 6 0.0000 0.0000 0.0000 0.0000 0.0000 29.3824
#
#
#
# Elastic Compliance Matrix: (Units=1/GPa)
#
#
# Indices 1 2 3 4 5 6 
#
# 1 0.008622 -0.001898 -0.002191 0.000000 0.000000 0.000000
# 2 -0.001898 0.017773 -0.004794 0.000000 0.000000 0.000000
# 3 -0.002191 -0.004794 0.014386 0.000000 0.000000 0.000000
# 4 0.000000 0.000000 0.000000 0.106765 0.000000 0.000000
# 5 0.000000 0.000000 0.000000 0.000000 0.094739 0.000000
# 6 0.000000 0.000000 0.000000 0.000000 0.000000 0.034034
#
#
# Mechanical properties :
#
#
# Convention : Reuss Voigt Hill
#
# Bulk Modulus (GPa) = 43.44859 46.41832 44.93346
# Shear Modulus (GPa) = 16.56963 23.35308 19.96135
#
# Velocity S-wave (km/s) = 2.78500 3.30629 3.05678
# Velocity P-wave (km/s) = 5.53894 6.02526 5.78722
#
# Compressibility (1/GPa) = 0.02301571
#
# Stress axis : x y z
#
# Youngs Moduli (GPa) = 115.97981 56.26574 69.50962
#
# Poissons Ratio (x) = 0.10679 0.15230
# Poissons Ratio (y) = 0.22013 0.33322
# Poissons Ratio (z) = 0.25412 0.26973
#
# Static dielectric constant tensor:
#      x y z
#    x 1.834150 0.000000 0.000000 
#    y 0.000000 1.949410 0.000000 
#    z 0.000000 0.000000 1.705030 
# 
# From -- ./inp_files/19354.got.cif
#   From: 2010.05.17/outbox.cif.g08.bks.cpg/sg55_10_cif.got.tgz:19354.got - 2010.06.03 13:27:54.
