data_PCOD9428750
_publ_section_title
;
Structure prediction by ZEFSAII (Michael W. Deem and Ramdas Pophale) SiO2 
 PCOD9428750
Probable space group: P B A M
;
_chemical_formula_sum "Si O2"
_cell_formula_units_Z 32
_cell_length_a 9.418526
_cell_length_b 7.316158
_cell_length_c 16.772190
_cell_angle_alpha 90.000000
_cell_angle_beta 90.000000
_cell_angle_gamma 90.000000
_cell_volume 1155.728413
_symmetry_space_group_name_H-M "P B A M"
_symmetry_group_IT_number 55
_symmetry_cell_setting 'orthorhombic'
loop_
_space_group_symop_operation_xyz
x,y,z
-x,-y,z
1/2+x,1/2-y,-z
1/2-x,1/2+y,-z
-x,-y,-z
x,y,-z
1/2-x,1/2+y,z
1/2+x,1/2-y,z
loop_
_atom_site_type_symbol
_atom_site_label
_atom_site_fract_x
_atom_site_fract_y
_atom_site_fract_z
Si Si1 0.104640 0.677875 0.090738
Si Si2 0.679345 0.004828 0.311327
Si Si3 0.896804 0.175809 0.589800
Si Si4 0.880044 0.820109 0.194653
O O1 0.261402 0.652788 0.126173
O O2 0.000000 0.500000 0.088004
O O3 0.031169 0.818342 0.151871
O O4 0.114443 0.745554 0.000000
O O5 0.586267 0.836600 0.344662
O O6 0.826840 0.935222 0.270077
O O7 0.736589 0.111785 0.388311
O O8 0.626128 0.121289 0.236972
O O9 0.903663 0.248255 0.500000
O O10 0.000000 0.000000 0.592346
#
# Coordination Sequence:
#
# PCOD9428750 Si02
#       4
#     8   8   8   8
#     4  11  24  44  67 101 146 188 239 301 368 434
#     4  10  23  39  67  98 139 182 231 296 351 428
#     4  10  22  42  68 100 139 183 234 291 359 432
#     4  11  23  43  69 102 138 193 242 298 362 431
#
# _framework density 27.688168999999998
#
# number of rings (size 3 to 8) (size 9 to 14) (size 15 to 20)
#    0.000    1.500    2.500    1.500    7.000    0.000 
#    0.000    1.250    0.000    7.500    0.000    0.000 
#    0.000    0.000    0.000    0.000    0.000    0.000 
#
# Total GULP energy -179051.906305 kJ/mol
# GULP energy per Si atom -5595.372072 kJ/mol
# Density = 2.762515 g / cm^3
# Si number density = 27.688169 Si / 1000 Ang^3
#
#
#
# Elastic Constant Matrix: (Units=GPa)
#
#
# Indices 1 2 3 4 5 6 
#
# 1 111.0541 -7.6767 42.9683 0.0000 0.0000 0.0000
# 2 -7.6767 81.2925 26.3558 0.0000 0.0000 0.0000
# 3 42.9683 26.3558 210.3415 0.0000 0.0000 0.0000
# 4 0.0000 0.0000 0.0000 30.1290 0.0000 0.0000
# 5 0.0000 0.0000 0.0000 0.0000 40.9153 0.0000
# 6 0.0000 0.0000 0.0000 0.0000 0.0000 34.0975
#
#
#
# Elastic Compliance Matrix: (Units=1/GPa)
#
#
# Indices 1 2 3 4 5 6 
#
# 1 0.009991 0.001673 -0.002251 0.000000 0.000000 0.000000
# 2 0.001673 0.013102 -0.001984 0.000000 0.000000 0.000000
# 3 -0.002251 -0.001984 0.005462 0.000000 0.000000 0.000000
# 4 0.000000 0.000000 0.000000 0.033191 0.000000 0.000000
# 5 0.000000 0.000000 0.000000 0.000000 0.024441 0.000000
# 6 0.000000 0.000000 0.000000 0.000000 0.000000 0.029328
#
#
# Mechanical properties :
#
#
# Convention : Reuss Voigt Hill
#
# Bulk Modulus (GPa) = 42.67319 58.44254 50.55786
# Shear Modulus (GPa) = 38.92624 43.76442 41.34533
#
# Velocity S-wave (km/s) = 3.75357 3.98001 3.86845
# Velocity P-wave (km/s) = 5.85075 6.50184 6.18487
#
# Compressibility (1/GPa) = 0.02343392
#
# Stress axis : x y z
#
# Youngs Moduli (GPa) = 100.08941 76.32232 183.06783
#
# Poissons Ratio (x) = -0.12770 0.41201
# Poissons Ratio (y) = -0.16746 0.36312
# Poissons Ratio (z) = 0.22526 0.15139
#
# Static dielectric constant tensor:
#      x y z
#    x 2.354170 0.000000 0.000000 
#    y 0.000000 2.400330 0.000000 
#    z 0.000000 0.000000 2.015000 
# 
# From -- ./inp_files/16848.got.cif
#   From: 2010.05.17/outbox.cif.g08.bks.cpg/sg55_9_cif.got.tgz:16848.got - 2010.06.03 13:27:54.
