data_PCOD9428676
_publ_section_title
;
Structure prediction by ZEFSAII (Michael W. Deem and Ramdas Pophale) SiO2 
 PCOD9428676
Probable space group: P B A M
;
_chemical_formula_sum "Si O2"
_cell_formula_units_Z 58
_cell_length_a 15.795994
_cell_length_b 18.352379
_cell_length_c 9.254542
_cell_angle_alpha 90.000000
_cell_angle_beta 90.000000
_cell_angle_gamma 90.000000
_cell_volume 2682.836833
_symmetry_space_group_name_H-M "P B A M"
_symmetry_group_IT_number 55
_symmetry_cell_setting 'orthorhombic'
loop_
_space_group_symop_operation_xyz
x,y,z
-x,-y,z
1/2+x,1/2-y,-z
1/2-x,1/2+y,-z
-x,-y,-z
x,y,-z
1/2-x,1/2+y,z
1/2+x,1/2-y,z
loop_
_atom_site_type_symbol
_atom_site_label
_atom_site_fract_x
_atom_site_fract_y
_atom_site_fract_z
Si Si1 0.798221 0.263214 0.667934
Si Si2 0.969863 0.613809 0.763006
Si Si3 0.500000 0.000000 0.500000
Si Si4 0.009016 0.777203 0.667706
Si Si5 0.270651 0.492949 0.669158
Si Si6 0.656104 0.907988 0.839118
Si Si7 0.782275 0.640488 0.163967
Si Si8 0.946003 0.931174 0.326160
O O1 0.782176 0.284103 0.500000
O O2 0.811443 0.332042 0.771881
O O3 0.727666 0.210350 0.732965
O O4 0.888698 0.221681 0.671665
O O5 0.981459 0.700263 0.732488
O O6 0.877651 0.609607 0.832930
O O7 0.976054 0.561789 0.624430
O O8 0.055033 0.593119 0.847109
O O9 0.983090 0.774111 0.500000
O O10 0.971587 0.851883 0.731924
O O11 0.267076 0.473719 0.500000
O O12 0.187128 0.534302 0.721087
O O13 0.276755 0.421445 0.766145
O O14 0.348560 0.547489 0.693369
O O15 0.690743 0.922108 0.000000
O O16 0.758210 0.658131 0.000000
O O17 0.962026 0.928046 0.500000
O O18 0.000000 0.000000 0.270536
#
# Coordination Sequence:
#
# PCOD9428676 Si02
#       8
#     8   8   2   8   8   8   8   8
#     4  10  22  40  68  98 129 167 221 277 329 397
#     4  11  25  39  67  91 132 178 231 275 340 400
#     4  12  24  40  62 100 130 168 224 304 326 386
#     4   9  18  37  63  98 129 164 215 277 333 392
#     4  11  24  39  64  96 127 170 223 279 330 401
#     4  11  24  44  65  91 134 177 219 273 344 404
#     4  12  26  43  63  94 136 176 223 276 345 412
#     4   9  18  35  62  95 132 165 208 271 334 389
#
# _framework density 21.618907
#
# number of rings (size 3 to 8) (size 9 to 14) (size 15 to 20)
#    0.000    1.517    0.690    3.724    7.724    2.207 
#    0.000    2.069    0.000    8.276    0.000    0.000 
#    0.000    0.000    0.000    0.000    0.000    0.000 
#
# Total GULP energy -323418.861850 kJ/mol
# GULP energy per Si atom -5576.187273 kJ/mol
# Density = 2.156970 g / cm^3
# Si number density = 21.618907 Si / 1000 Ang^3
#
#
#
# Elastic Constant Matrix: (Units=GPa)
#
#
# Indices 1 2 3 4 5 6 
#
# 1 49.1776 19.8549 19.3577 0.0000 0.0000 0.0000
# 2 19.8549 84.6897 6.0587 0.0000 0.0000 0.0000
# 3 19.3577 6.0587 82.7744 0.0000 0.0000 0.0000
# 4 0.0000 0.0000 0.0000 39.5757 0.0000 0.0000
# 5 0.0000 0.0000 0.0000 0.0000 -4.5956 0.0000
# 6 0.0000 0.0000 0.0000 0.0000 0.0000 32.7470
#
#
#
# Elastic Compliance Matrix: (Units=1/GPa)
#
#
# Indices 1 2 3 4 5 6 
#
# 1 0.024621 -0.005389 -0.005364 0.000000 0.000000 0.000000
# 2 -0.005389 0.013049 0.000305 0.000000 0.000000 0.000000
# 3 -0.005364 0.000305 0.013313 0.000000 0.000000 0.000000
# 4 0.000000 0.000000 0.000000 0.025268 0.000000 0.000000
# 5 0.000000 0.000000 0.000000 0.000000 -0.217598 0.000000
# 6 0.000000 0.000000 0.000000 0.000000 0.000000 0.030537
#
#
# Mechanical properties :
#
#
# Convention : Reuss Voigt Hill
#
# Bulk Modulus (GPa) = 33.23424 34.13158 33.68291
# Shear Modulus (GPa) = -62.59013 24.97010 -18.81002
#
# Velocity S-wave (km/s) = -5.38650 3.40223 -2.95290
# Velocity P-wave (km/s) = 4.82491 5.59068 1.99699
#
# Compressibility (1/GPa) = 0.03008945
#
# Stress axis : x y z
#
# Youngs Moduli (GPa) = 40.61523 76.63243 75.11436
#
# Poissons Ratio (x) = 0.41294 0.40288
# Poissons Ratio (y) = 0.21886 -0.02291
# Poissons Ratio (z) = 0.21784 -0.02338
#
# Static dielectric constant tensor:
#      x y z
#    x 1.833030 0.000000 0.000000 
#    y 0.000000 1.819910 0.000000 
#    z 0.000000 0.000000 1.747930 
# 
# From -- ./inp_files/7737.got.cif
#   From: 2010.05.17/outbox.cif.g08.bks.cpg/sg55_4_cif.got.tgz:7737.got - 2010.06.03 13:27:54.
