data_PCOD9428640
_publ_section_title
;
Structure prediction by ZEFSAII (Michael W. Deem and Ramdas Pophale) SiO2 
 PCOD9428640
Probable space group: P B A M
;
_chemical_formula_sum "Si O2"
_cell_formula_units_Z 56
_cell_length_a 21.388156
_cell_length_b 14.948967
_cell_length_c 8.902723
_cell_angle_alpha 90.000000
_cell_angle_beta 90.000000
_cell_angle_gamma 90.000000
_cell_volume 2846.475087
_symmetry_space_group_name_H-M "P B A M"
_symmetry_group_IT_number 55
_symmetry_cell_setting 'orthorhombic'
loop_
_space_group_symop_operation_xyz
x,y,z
-x,-y,z
1/2+x,1/2-y,-z
1/2-x,1/2+y,-z
-x,-y,-z
x,y,-z
1/2-x,1/2+y,z
1/2+x,1/2-y,z
loop_
_atom_site_type_symbol
_atom_site_label
_atom_site_fract_x
_atom_site_fract_y
_atom_site_fract_z
Si Si1 0.745036 0.814163 0.820112
Si Si2 0.233333 0.494703 0.326848
Si Si3 0.445014 0.573433 0.828376
Si Si4 0.394526 0.249295 0.822137
Si Si5 0.521100 0.239226 0.679408
Si Si6 0.629922 0.568629 0.670077
Si Si7 0.342522 0.828139 0.681467
O O1 0.674387 0.784059 0.776750
O O2 0.798106 0.749759 0.749312
O O3 0.747567 0.916717 0.766639
O O4 0.750513 0.808135 0.000000
O O5 0.220051 0.521106 0.500000
O O6 0.295578 0.434213 0.328779
O O7 0.180564 0.426612 0.269652
O O8 0.500000 0.500000 0.829887
O O9 0.467454 0.664289 0.754170
O O10 0.392469 0.527348 0.727621
O O11 0.424462 0.588501 0.000000
O O12 0.454378 0.205737 0.741298
O O13 0.394112 0.353819 0.777669
O O14 0.401472 0.239149 0.000000
O O15 0.517396 0.247077 0.500000
O O16 0.584476 0.185790 0.717347
O O17 0.607509 0.584610 0.500000
O O18 0.335559 0.823895 0.500000
#
# Coordination Sequence:
#
# PCOD9428640 Si02
#       7
#     8   8   8   8   8   8   8
#     4  11  24  40  63  93 123 160 204 249 302 365
#     4  10  22  40  63  89 119 155 199 252 304 357
#     4  11  22  34  51  80 120 156 188 235 297 363
#     4  11  23  39  58  85 121 158 197 242 297 358
#     4  11  23  38  60  87 118 157 204 251 299 359
#     4  11  21  35  59  86 113 152 198 245 297 354
#     4  10  22  42  64  91 123 158 202 253 306 360
#
# _framework density 19.673456000000002
#
# number of rings (size 3 to 8) (size 9 to 14) (size 15 to 20)
#    0.000    1.286    2.857    3.000    0.000    8.571 
#    0.000    0.714    0.000    4.286    0.000    0.000 
#    0.000    0.000    0.000    0.000    0.000    0.000 
#
# Total GULP energy -312723.801448 kJ/mol
# GULP energy per Si atom -5584.353597 kJ/mol
# Density = 1.962868 g / cm^3
# Si number density = 19.673456 Si / 1000 Ang^3
#
#
#
# Elastic Constant Matrix: (Units=GPa)
#
#
# Indices 1 2 3 4 5 6 
#
# 1 94.3844 4.0623 17.6310 0.0000 0.0000 0.0000
# 2 4.0623 38.0448 -6.7113 0.0000 0.0000 0.0000
# 3 17.6310 -6.7113 23.8441 0.0000 0.0000 0.0000
# 4 0.0000 0.0000 0.0000 15.2305 0.0000 0.0000
# 5 0.0000 0.0000 0.0000 0.0000 28.5566 0.0000
# 6 0.0000 0.0000 0.0000 0.0000 0.0000 33.3905
#
#
#
# Elastic Compliance Matrix: (Units=1/GPa)
#
#
# Indices 1 2 3 4 5 6 
#
# 1 0.012643 -0.003156 -0.010237 0.000000 0.000000 0.000000
# 2 -0.003156 0.028446 0.010340 0.000000 0.000000 0.000000
# 3 -0.010237 0.010340 0.052419 0.000000 0.000000 0.000000
# 4 0.000000 0.000000 0.000000 0.065658 0.000000 0.000000
# 5 0.000000 0.000000 0.000000 0.000000 0.035018 0.000000
# 6 0.000000 0.000000 0.000000 0.000000 0.000000 0.029949
#
#
# Mechanical properties :
#
#
# Convention : Reuss Voigt Hill
#
# Bulk Modulus (GPa) = 11.44135 20.69305 16.06720
# Shear Modulus (GPa) = 19.27736 24.85494 22.06615
#
# Velocity S-wave (km/s) = 3.13368 3.55825 3.35269
# Velocity P-wave (km/s) = 4.34989 5.23666 4.81374
#
# Compressibility (1/GPa) = 0.08740226
#
# Stress axis : x y z
#
# Youngs Moduli (GPa) = 79.09484 35.15462 19.07709
#
# Poissons Ratio (x) = 0.11094 0.19529
# Poissons Ratio (y) = 0.24961 -0.19726
# Poissons Ratio (z) = 0.80969 -0.36350
#
# Static dielectric constant tensor:
#      x y z
#    x 1.766210 0.000000 0.000000 
#    y 0.000000 1.671610 0.000000 
#    z 0.000000 0.000000 1.674850 
# 
# From -- ./inp_files/6097.got.cif
#   From: 2010.05.17/outbox.cif.g08.bks.cpg/sg55_4_cif.got.tgz:6097.got - 2010.06.03 13:27:54.
