data_PCOD9428986
_publ_section_title
;
Structure prediction by ZEFSAII (Michael W. Deem and Ramdas Pophale) SiO2 
 PCOD9428986
Probable space group: P B A M
;
_chemical_formula_sum "Si O2"
_cell_formula_units_Z 40
_cell_length_a 15.757694
_cell_length_b 7.447689
_cell_length_c 15.298426
_cell_angle_alpha 90.000000
_cell_angle_beta 90.000000
_cell_angle_gamma 90.000000
_cell_volume 1795.398863
_symmetry_space_group_name_H-M "P B A M"
_symmetry_group_IT_number 55
_symmetry_cell_setting 'orthorhombic'
loop_
_space_group_symop_operation_xyz
x,y,z
-x,-y,z
1/2+x,1/2-y,-z
1/2-x,1/2+y,-z
-x,-y,-z
x,y,-z
1/2-x,1/2+y,z
1/2+x,1/2-y,z
loop_
_atom_site_type_symbol
_atom_site_label
_atom_site_fract_x
_atom_site_fract_y
_atom_site_fract_z
Si Si1 0.677363 0.318237 0.782214
Si Si2 0.627131 0.922197 0.214462
Si Si3 0.172538 0.049332 0.405376
Si Si4 0.129214 0.629775 0.594960
Si Si5 0.087704 0.893024 0.098813
O O1 0.779409 0.329070 0.778596
O O2 0.645545 0.351635 0.682769
O O3 0.647380 0.477331 0.844524
O O4 0.644091 0.126004 0.813109
O O5 0.589978 0.921106 0.312414
O O6 0.577304 0.796409 0.147925
O O7 0.147217 0.128746 0.500000
O O8 0.275279 0.047022 0.404188
O O9 0.140768 0.845463 0.402429
O O10 0.091645 0.584345 0.500000
O O11 0.119568 0.865840 0.000000
O O12 0.000000 0.000000 0.095481
#
# Coordination Sequence:
#
# PCOD9428986 Si02
#       5
#     8   8   8   8   8
#     4  11  20  37  63  92 122 155 201 247 294 352
#     4  11  20  37  63  92 122 155 201 247 294 352
#     4   9  15  25  47  82 122 156 189 236 289 341
#     4   9  15  25  47  82 122 156 189 236 289 341
#     4  11  26  46  63  85 120 156 197 254 315 367
#
# _framework density 22.279171999999999
#
# number of rings (size 3 to 8) (size 9 to 14) (size 15 to 20)
#    0.000    1.800    4.000    3.600    0.000    4.800 
#    0.000    2.000    0.000    2.400    0.000    2.800 
#    0.000    0.000    0.000    0.000    0.000    0.000 
#
# Total GULP energy -223442.269681 kJ/mol
# GULP energy per Si atom -5586.056742 kJ/mol
# Density = 2.222846 g / cm^3
# Si number density = 22.279172 Si / 1000 Ang^3
#
#
#
# Elastic Constant Matrix: (Units=GPa)
#
#
# Indices 1 2 3 4 5 6 
#
# 1 36.7807 22.2860 23.2181 0.0000 0.0000 0.0000
# 2 22.2860 100.4842 26.1449 0.0000 0.0000 0.0000
# 3 23.2181 26.1449 152.7398 0.0000 0.0000 0.0000
# 4 0.0000 0.0000 0.0000 -25.5749 0.0000 0.0000
# 5 0.0000 0.0000 0.0000 0.0000 19.8830 0.0000
# 6 0.0000 0.0000 0.0000 0.0000 0.0000 18.1865
#
#
#
# Elastic Compliance Matrix: (Units=1/GPa)
#
#
# Indices 1 2 3 4 5 6 
#
# 1 0.033604 -0.006409 -0.004011 0.000000 0.000000 0.000000
# 2 -0.006409 0.011638 -0.001018 0.000000 0.000000 0.000000
# 3 -0.004011 -0.001018 0.007331 0.000000 0.000000 0.000000
# 4 0.000000 0.000000 0.000000 -0.039101 0.000000 0.000000
# 5 0.000000 0.000000 0.000000 0.000000 0.050294 0.000000
# 6 0.000000 0.000000 0.000000 0.000000 0.000000 0.054986
#
#
# Mechanical properties :
#
#
# Convention : Reuss Voigt Hill
#
# Bulk Modulus (GPa) = 33.67391 48.14476 40.90934
# Shear Modulus (GPa) = 32.99743 17.05597 25.02670
#
# Velocity S-wave (km/s) = 3.85267 2.76987 3.35524
# Velocity P-wave (km/s) = 5.91084 5.64679 5.78033
#
# Compressibility (1/GPa) = 0.02969658
#
# Stress axis : x y z
#
# Youngs Moduli (GPa) = 29.75870 85.92452 136.40641
#
# Poissons Ratio (x) = 0.55071 0.54713
# Poissons Ratio (y) = 0.19073 0.13884
# Poissons Ratio (z) = 0.11936 0.08746
#
# Static dielectric constant tensor:
#      x y z
#    x 1.859120 0.000000 0.000000 
#    y 0.000000 1.799060 0.000000 
#    z 0.000000 0.000000 1.859800 
# 
# From -- ./inp_files/19247.got.cif
#   From: 2010.05.17/outbox.cif.g08.bks.cpg/sg55_10_cif.got.tgz:19247.got - 2010.06.03 13:27:54.
