data_PCOD9428710
_publ_section_title
;
Structure prediction by ZEFSAII (Michael W. Deem and Ramdas Pophale) SiO2 
 PCOD9428710
Probable space group: P B A M
;
_chemical_formula_sum "Si O2"
_cell_formula_units_Z 56
_cell_length_a 14.422693
_cell_length_b 21.727267
_cell_length_c 7.895115
_cell_angle_alpha 90.000000
_cell_angle_beta 90.000000
_cell_angle_gamma 90.000000
_cell_volume 2474.058252
_symmetry_space_group_name_H-M "P B A M"
_symmetry_group_IT_number 55
_symmetry_cell_setting 'orthorhombic'
loop_
_space_group_symop_operation_xyz
x,y,z
-x,-y,z
1/2+x,1/2-y,-z
1/2-x,1/2+y,-z
-x,-y,-z
x,y,-z
1/2-x,1/2+y,z
1/2+x,1/2-y,z
loop_
_atom_site_type_symbol
_atom_site_label
_atom_site_fract_x
_atom_site_fract_y
_atom_site_fract_z
Si Si1 0.619224 0.258758 0.299989
Si Si2 0.544113 0.595402 0.500000
Si Si3 0.359537 0.881979 0.295399
Si Si4 0.147232 0.034941 0.500000
Si Si5 0.728815 0.997814 0.186415
Si Si6 0.811247 0.304388 0.799049
Si Si7 0.432174 0.081974 0.304302
Si Si8 0.929184 0.183663 0.190591
O O1 0.596714 0.255726 0.500000
O O2 0.645801 0.189354 0.244232
O O3 0.707309 0.301902 0.269127
O O4 0.529551 0.283657 0.204876
O O5 0.593069 0.529813 0.500000
O O6 0.432696 0.586129 0.500000
O O7 0.573405 0.632407 0.666211
O O8 0.350500 0.885064 0.500000
O O9 0.463086 0.904828 0.249951
O O10 0.286279 0.929698 0.219684
O O11 0.210854 0.033503 0.333415
O O12 0.627185 0.967143 0.201387
O O13 0.767655 0.986876 0.000000
O O14 0.875573 0.354490 0.710547
O O15 0.855721 0.237346 0.772689
O O16 0.811063 0.317295 0.000000
O O17 0.433962 0.061595 0.500000
O O18 0.915429 0.160286 0.000000
#
# Coordination Sequence:
#
# PCOD9428710 Si02
#       8
#     8   4   8   4   8   8   8   8
#     4  11  23  40  68  99 137 184 226 278 341 406
#     4  11  28  50  78  92 134 181 224 282 358 395
#     4  10  22  41  66  97 136 180 227 277 333 403
#     4  11  28  54  69 102 130 172 233 294 334 405
#     4  12  26  43  71 100 134 180 229 282 342 403
#     4  11  25  40  62 100 141 179 225 282 340 405
#     4  11  22  41  67  96 137 181 226 278 333 402
#     4  11  25  45  72 108 141 175 228 283 340 414
#
# _framework density 22.634875000000001
#
# number of rings (size 3 to 8) (size 9 to 14) (size 15 to 20)
#    0.000    1.000    3.571    1.714    6.000    5.143 
#    0.000    1.429    0.000    0.000    0.000    0.000 
#    0.000    0.000    0.000    0.000    0.000    0.000 
#
# Total GULP energy -313744.358689 kJ/mol
# GULP energy per Si atom -5602.577834 kJ/mol
# Density = 2.258336 g / cm^3
# Si number density = 22.634875 Si / 1000 Ang^3
#
#
#
# Elastic Constant Matrix: (Units=GPa)
#
#
# Indices 1 2 3 4 5 6 
#
# 1 82.6919 -1.5065 14.2507 0.0000 0.0000 0.0000
# 2 -1.5065 70.4448 34.4922 0.0000 0.0000 0.0000
# 3 14.2507 34.4922 85.7059 0.0000 0.0000 0.0000
# 4 0.0000 0.0000 0.0000 -19.0233 0.0000 0.0000
# 5 0.0000 0.0000 0.0000 0.0000 6.5132 0.0000
# 6 0.0000 0.0000 0.0000 0.0000 0.0000 -53.5438
#
#
#
# Elastic Compliance Matrix: (Units=1/GPa)
#
#
# Indices 1 2 3 4 5 6 
#
# 1 0.012595 0.001613 -0.002743 0.000000 0.000000 0.000000
# 2 0.001613 0.017886 -0.007466 0.000000 0.000000 0.000000
# 3 -0.002743 -0.007466 0.015129 0.000000 0.000000 0.000000
# 4 0.000000 0.000000 0.000000 -0.052567 0.000000 0.000000
# 5 0.000000 0.000000 0.000000 0.000000 0.153535 0.000000
# 6 0.000000 0.000000 0.000000 0.000000 0.000000 -0.018676
#
#
# Mechanical properties :
#
#
# Convention : Reuss Voigt Hill
#
# Bulk Modulus (GPa) = 35.19161 37.03502 36.11331
# Shear Modulus (GPa) = 32.34848 -0.43705 15.95572
#
# Velocity S-wave (km/s) = 3.78450 -0.43989 2.65791
# Velocity P-wave (km/s) = 5.88879 4.01739 5.04070
#
# Compressibility (1/GPa) = 0.02841586
#
# Stress axis : x y z
#
# Youngs Moduli (GPa) = 79.39518 55.91059 66.09955
#
# Poissons Ratio (x) = -0.09016 0.18133
# Poissons Ratio (y) = -0.12803 0.49351
# Poissons Ratio (z) = 0.21780 0.41744
#
# Static dielectric constant tensor:
#      x y z
#    x 1.810280 0.000000 0.000000 
#    y 0.000000 1.838930 0.000000 
#    z 0.000000 0.000000 1.817080 
# 
# From -- ./inp_files/6232.got.cif
#   From: 2010.05.17/outbox.cif.g08.bks.cpg/sg55_4_cif.got.tgz:6232.got - 2010.06.03 13:27:54.
