data_PCOD9428552
_publ_section_title
;
Structure prediction by ZEFSAII (Michael W. Deem and Ramdas Pophale) SiO2 
 PCOD9428552
Probable space group: P B A M
;
_chemical_formula_sum "Si O2"
_cell_formula_units_Z 64
_cell_length_a 16.138997
_cell_length_b 8.315755
_cell_length_c 21.403188
_cell_angle_alpha 90.000000
_cell_angle_beta 90.000000
_cell_angle_gamma 90.000000
_cell_volume 2872.477878
_symmetry_space_group_name_H-M "P B A M"
_symmetry_group_IT_number 55
_symmetry_cell_setting 'orthorhombic'
loop_
_space_group_symop_operation_xyz
x,y,z
-x,-y,z
1/2+x,1/2-y,-z
1/2-x,1/2+y,-z
-x,-y,-z
x,y,-z
1/2-x,1/2+y,z
1/2+x,1/2-y,z
loop_
_atom_site_type_symbol
_atom_site_label
_atom_site_fract_x
_atom_site_fract_y
_atom_site_fract_z
Si Si1 0.687588 0.814703 0.566935
Si Si2 0.081152 0.891564 0.066768
Si Si3 0.667527 0.797691 0.162961
Si Si4 0.372083 0.807741 0.702106
Si Si5 0.177799 0.207138 0.071434
Si Si6 0.921179 0.613993 0.166634
Si Si7 0.692500 0.821916 0.701151
Si Si8 0.628536 0.187237 0.432869
O O1 0.658838 0.744115 0.500000
O O2 0.662537 0.747844 0.635058
O O3 0.787338 0.793286 0.566891
O O4 0.660583 0.001592 0.566842
O O5 0.092159 0.778884 0.125261
O O6 0.156233 0.018927 0.068213
O O7 0.083173 0.802950 0.000000
O O8 0.000000 0.000000 0.068350
O O9 0.747157 0.770205 0.119585
O O10 0.655183 0.987956 0.167982
O O11 0.667627 0.738111 0.234066
O O12 0.292092 0.692652 0.703019
O O13 0.415107 0.786311 0.634168
O O14 0.420173 0.791029 0.767495
O O15 0.338708 0.993382 0.701190
O O16 0.098176 0.287270 0.104487
O O17 0.191643 0.263228 0.000000
O O18 0.000000 0.500000 0.165504
O O19 0.584815 0.212904 0.500000
#
# Coordination Sequence:
#
# PCOD9428552 Si02
#       8
#     8   8   8   8   8   8   8   8
#     4   8  13  22  36  60  93 124 156 197 246 292
#     4  10  22  39  56  75 102 134 167 208 256 305
#     4  11  21  35  55  79 104 132 171 212 251 305
#     4   9  17  30  46  71 100 131 168 207 250 296
#     4  11  23  38  58  80 101 130 169 209 254 305
#     4  11  23  37  54  78 108 140 170 208 257 306
#     4   9  17  27  46  71  96 129 165 207 250 292
#     4   8  13  22  39  62  92 127 162 200 243 290
#
# _framework density 22.280417
#
# number of rings (size 3 to 8) (size 9 to 14) (size 15 to 20)
#    0.000    2.375    1.250    1.875    1.750    2.250 
#    0.000    0.000    0.000    0.375    0.000    0.000 
#    0.000    0.500    0.000    0.000    0.000  120.375 
#
# Total GULP energy -356404.506563 kJ/mol
# GULP energy per Si atom -5568.820415 kJ/mol
# Density = 2.222971 g / cm^3
# Si number density = 22.280417 Si / 1000 Ang^3
#
#
#
# Elastic Constant Matrix: (Units=GPa)
#
#
# Indices 1 2 3 4 5 6 
#
# 1 32.5438 -5.2021 22.4966 0.0000 0.0000 0.0000
# 2 -5.2021 6.8636 26.1193 0.0000 0.0000 0.0000
# 3 22.4966 26.1193 231.7910 0.0000 0.0000 0.0000
# 4 0.0000 0.0000 0.0000 7.4371 0.0000 0.0000
# 5 0.0000 0.0000 0.0000 0.0000 7.7999 0.0000
# 6 0.0000 0.0000 0.0000 0.0000 0.0000 3.5191
#
#
#
# Elastic Compliance Matrix: (Units=1/GPa)
#
#
# Indices 1 2 3 4 5 6 
#
# 1 0.066267 0.130784 -0.021169 0.000000 0.000000 0.000000
# 2 0.130784 0.513194 -0.070522 0.000000 0.000000 0.000000
# 3 -0.021169 -0.070522 0.014316 0.000000 0.000000 0.000000
# 4 0.000000 0.000000 0.000000 0.134460 0.000000 0.000000
# 5 0.000000 0.000000 0.000000 0.000000 0.128207 0.000000
# 6 0.000000 0.000000 0.000000 0.000000 0.000000 0.284164
#
#
# Mechanical properties :
#
#
# Convention : Reuss Voigt Hill
#
# Bulk Modulus (GPa) = 1.48818 39.78066 20.63442
# Shear Modulus (GPa) = 3.88678 18.93686 11.41182
#
# Velocity S-wave (km/s) = 1.32222 2.91852 2.26562
# Velocity P-wave (km/s) = 1.73217 5.40836 4.01564
#
# Compressibility (1/GPa) = 0.67196319
#
# Stress axis : x y z
#
# Youngs Moduli (GPa) = 15.09041 1.94858 69.85385
#
# Poissons Ratio (x) = -0.25484 1.47874
# Poissons Ratio (y) = -1.97359 4.92627
# Poissons Ratio (z) = 0.31945 0.13742
#
# Static dielectric constant tensor:
#      x y z
#    x 1.863030 0.000000 0.000000 
#    y 0.000000 1.823260 0.000000 
#    z 0.000000 0.000000 1.927860 
# 
# From -- ./inp_files/23076.got.cif
#   From: 2010.05.17/outbox.cif.g08.bks.cpg/sg55_12_cif.got.tgz:23076.got - 2010.06.03 13:27:54.
