data_PCOD9428393
_publ_section_title
;
Structure prediction by ZEFSAII (Michael W. Deem and Ramdas Pophale) SiO2 
 PCOD9428393
Probable space group: P B A M
;
_chemical_formula_sum "Si O2"
_cell_formula_units_Z 64
_cell_length_a 11.998655
_cell_length_b 31.004819
_cell_length_c 9.030350
_cell_angle_alpha 90.000000
_cell_angle_beta 90.000000
_cell_angle_gamma 90.000000
_cell_volume 3359.435828
_symmetry_space_group_name_H-M "P B A M"
_symmetry_group_IT_number 55
_symmetry_cell_setting 'orthorhombic'
loop_
_space_group_symop_operation_xyz
x,y,z
-x,-y,z
1/2+x,1/2-y,-z
1/2-x,1/2+y,-z
-x,-y,-z
x,y,-z
1/2-x,1/2+y,z
1/2+x,1/2-y,z
loop_
_atom_site_type_symbol
_atom_site_label
_atom_site_fract_x
_atom_site_fract_y
_atom_site_fract_z
Si Si1 0.752792 0.049815 0.823808
Si Si2 0.290120 0.046163 0.175821
Si Si3 0.526192 0.169448 0.329280
Si Si4 0.515921 0.067889 0.672900
Si Si5 0.102156 0.876673 0.676211
Si Si6 0.838044 0.874774 0.323468
Si Si7 0.749842 0.196299 0.175257
Si Si8 0.709945 0.787571 0.676276
O O1 0.630672 0.059698 0.758140
O O2 0.840475 0.081247 0.746387
O O3 0.772465 0.999055 0.796888
O O4 0.752809 0.057541 0.000000
O O5 0.410507 0.044710 0.254295
O O6 0.222761 0.086605 0.239026
O O7 0.306650 0.050598 0.000000
O O8 0.562413 0.177013 0.500000
O O9 0.493385 0.119288 0.318485
O O10 0.627958 0.179643 0.222623
O O11 0.417697 0.198025 0.299873
O O12 0.527466 0.056387 0.500000
O O13 0.121848 0.876537 0.500000
O O14 0.161416 0.835154 0.746882
O O15 0.970073 0.875823 0.702822
O O16 0.817587 0.880256 0.500000
O O17 0.786665 0.828385 0.282083
O O18 0.762959 0.244672 0.235028
O O19 0.763691 0.194407 0.000000
O O20 0.725011 0.779775 0.500000
#
# Coordination Sequence:
#
# PCOD9428393 Si02
#       8
#     8   8   8   8   8   8   8   8
#     4  11  24  41  61  91 128 167 206 252 314 376
#     4  11  24  40  62  92 129 166 202 252 317 377
#     4  10  21  40  67  93 122 162 207 254 307 363
#     4  11  21  38  65  95 125 162 209 257 306 364
#     4  11  24  43  66  91 121 164 213 262 309 364
#     4  10  23  44  67  91 120 160 214 262 307 365
#     4  12  26  41  62  95 131 163 202 254 309 376
#     4  10  22  43  67  91 122 162 207 256 305 365
#
# _framework density 19.050818
#
# number of rings (size 3 to 8) (size 9 to 14) (size 15 to 20)
#    0.000    1.250    2.500    3.000    1.750    6.500 
#    0.000    2.500    0.000    0.000    0.000    0.000 
#    0.000    0.000    0.000    0.000    0.000    0.000 
#
# Total GULP energy -357949.896651 kJ/mol
# GULP energy per Si atom -5592.967135 kJ/mol
# Density = 1.900746 g / cm^3
# Si number density = 19.050818 Si / 1000 Ang^3
#
#
#
# Elastic Constant Matrix: (Units=GPa)
#
#
# Indices 1 2 3 4 5 6 
#
# 1 74.3390 30.6669 55.3653 0.0000 0.0000 0.0000
# 2 30.6669 90.5051 50.2289 0.0000 0.0000 0.0000
# 3 55.3653 50.2289 92.8483 0.0000 0.0000 0.0000
# 4 0.0000 0.0000 0.0000 37.0781 0.0000 0.0000
# 5 0.0000 0.0000 0.0000 0.0000 3.0925 0.0000
# 6 0.0000 0.0000 0.0000 0.0000 0.0000 8.0617
#
#
#
# Elastic Compliance Matrix: (Units=1/GPa)
#
#
# Indices 1 2 3 4 5 6 
#
# 1 0.024203 -0.000273 -0.014284 0.000000 0.000000 0.000000
# 2 -0.000273 0.015793 -0.008380 0.000000 0.000000 0.000000
# 3 -0.014284 -0.008380 0.023822 0.000000 0.000000 0.000000
# 4 0.000000 0.000000 0.000000 0.026970 0.000000 0.000000
# 5 0.000000 0.000000 0.000000 0.000000 0.323362 0.000000
# 6 0.000000 0.000000 0.000000 0.000000 0.000000 0.124043
#
#
# Mechanical properties :
#
#
# Convention : Reuss Voigt Hill
#
# Bulk Modulus (GPa) = 55.73822 58.91273 57.32548
# Shear Modulus (GPa) = 8.47386 17.74188 13.10787
#
# Velocity S-wave (km/s) = 2.11132 3.05502 2.62591
# Velocity P-wave (km/s) = 5.93841 6.59055 6.27296
#
# Compressibility (1/GPa) = 0.01794101
#
# Stress axis : x y z
#
# Youngs Moduli (GPa) = 41.31669 63.32000 41.97853
#
# Poissons Ratio (x) = 0.01732 0.59964
# Poissons Ratio (y) = 0.01130 0.35180
# Poissons Ratio (z) = 0.59019 0.53065
#
# Static dielectric constant tensor:
#      x y z
#    x 1.627800 0.000000 0.000000 
#    y 0.000000 1.659920 0.000000 
#    z 0.000000 0.000000 1.640090 
# 
# From -- ./inp_files/4611.got.cif
#   From: 2010.05.17/outbox.cif.g08.bks.cpg/sg55_3_cif.got.tgz:4611.got - 2010.06.03 13:27:54.
