data_PCOD9428425
_publ_section_title
;
Structure prediction by ZEFSAII (Michael W. Deem and Ramdas Pophale) SiO2 
 PCOD9428425
Probable space group: P B A M
;
_chemical_formula_sum "Si O2"
_cell_formula_units_Z 48
_cell_length_a 12.880547
_cell_length_b 14.181529
_cell_length_c 12.000000
_cell_angle_alpha 90.000000
_cell_angle_beta 90.000000
_cell_angle_gamma 90.000000
_cell_volume 2191.990210
_symmetry_space_group_name_H-M "P B A M"
_symmetry_group_IT_number 55
_symmetry_cell_setting 'orthorhombic'
loop_
_space_group_symop_operation_xyz
x,y,z
-x,-y,z
1/2+x,1/2-y,-z
1/2-x,1/2+y,-z
-x,-y,-z
x,y,-z
1/2-x,1/2+y,z
1/2+x,1/2-y,z
loop_
_atom_site_type_symbol
_atom_site_label
_atom_site_fract_x
_atom_site_fract_y
_atom_site_fract_z
Si Si1 0.252929 0.651395 0.121085
Si Si2 0.233260 0.908112 0.624047
Si Si3 0.473124 0.106395 0.191558
Si Si4 0.696980 0.132402 0.124744
Si Si5 0.590739 0.432515 0.700910
Si Si6 0.949940 0.237408 0.622243
O O1 0.137571 0.609665 0.131059
O O2 0.250548 0.764695 0.131009
O O3 0.329761 0.609344 0.211075
O O4 0.296680 0.629878 0.000000
O O5 0.287322 0.906592 0.500000
O O6 0.282586 0.911200 0.750047
O O7 0.160888 0.815111 0.627610
O O8 0.157212 0.998478 0.623164
O O9 0.572402 0.140704 0.122278
O O10 0.460886 0.179467 0.291262
O O11 0.500000 0.000000 0.225714
O O12 0.727596 0.092796 0.000000
O O13 0.500000 0.500000 0.749949
O O14 0.533663 0.344909 0.643692
O O15 0.964544 0.276875 0.500000
#
# Coordination Sequence:
#
# PCOD9428425 Si02
#       6
#     8   8   8   8   8   8
#     4  11  24  44  69  99 138 181 229 281 341 412
#     4  10  21  41  70 102 133 174 227 281 346 412
#     4  12  25  43  65  97 138 182 228 275 347 414
#     4  11  24  44  70  97 133 183 231 279 341 409
#     4  10  21  41  70 103 132 170 225 282 342 408
#     4  10  21  41  66  96 138 179 223 284 344 400
#
# _framework density 21.897908999999999
#
# number of rings (size 3 to 8) (size 9 to 14) (size 15 to 20)
#    0.000    1.333    3.333    2.000    0.000    6.667 
#    0.000    5.833    0.000    0.000    0.000    0.000 
#    0.000    0.000    0.000    0.000    0.000    0.000 
#
# Total GULP energy -267689.529595 kJ/mol
# GULP energy per Si atom -5576.865200 kJ/mol
# Density = 2.184807 g / cm^3
# Si number density = 21.897909 Si / 1000 Ang^3
#
#
#
# Elastic Constant Matrix: (Units=GPa)
#
#
# Indices 1 2 3 4 5 6 
#
# 1 65.1775 -13.3155 30.9496 0.0000 0.0000 0.0000
# 2 -13.3155 68.2884 25.2946 0.0000 0.0000 0.0000
# 3 30.9496 25.2946 177.5337 0.0000 0.0000 0.0000
# 4 0.0000 0.0000 0.0000 -5.4572 0.0000 0.0000
# 5 0.0000 0.0000 0.0000 0.0000 9.9748 0.0000
# 6 0.0000 0.0000 0.0000 0.0000 0.0000 27.2105
#
#
#
# Elastic Compliance Matrix: (Units=1/GPa)
#
#
# Indices 1 2 3 4 5 6 
#
# 1 0.018207 0.004989 -0.003885 0.000000 0.000000 0.000000
# 2 0.004989 0.016827 -0.003267 0.000000 0.000000 0.000000
# 3 -0.003885 -0.003267 0.006775 0.000000 0.000000 0.000000
# 4 0.000000 0.000000 0.000000 -0.183244 0.000000 0.000000
# 5 0.000000 0.000000 0.000000 0.000000 0.100252 0.000000
# 6 0.000000 0.000000 0.000000 0.000000 0.000000 0.036751
#
#
# Mechanical properties :
#
#
# Convention : Reuss Voigt Hill
#
# Bulk Modulus (GPa) = 26.67870 44.09522 35.38696
# Shear Modulus (GPa) = 403.61653 24.21701 213.91677
#
# Velocity S-wave (km/s) = 13.59108 3.32912 9.89446
# Velocity P-wave (km/s) = 16.07793 5.91252 12.11317
#
# Compressibility (1/GPa) = 0.03748308
#
# Stress axis : x y z
#
# Youngs Moduli (GPa) = 54.92489 59.42905 147.59100
#
# Poissons Ratio (x) = -0.29650 0.57336
# Poissons Ratio (y) = -0.27402 0.48221
# Poissons Ratio (z) = 0.21337 0.19417
#
# Static dielectric constant tensor:
#      x y z
#    x 1.809020 0.000000 0.000000 
#    y 0.000000 1.796500 0.000000 
#    z 0.000000 0.000000 1.828890 
# 
# From -- ./inp_files/14126.got.cif
#   From: 2010.05.17/outbox.cif.g08.bks.cpg/sg55_8_cif.got.tgz:14126.got - 2010.06.03 13:27:54.
