data_PCOD9428809
_publ_section_title
;
Structure prediction by ZEFSAII (Michael W. Deem and Ramdas Pophale) SiO2 
 PCOD9428809
Probable space group: P B A M
;
_chemical_formula_sum "Si O2"
_cell_formula_units_Z 42
_cell_length_a 21.592953
_cell_length_b 10.822921
_cell_length_c 7.468560
_cell_angle_alpha 90.000000
_cell_angle_beta 90.000000
_cell_angle_gamma 90.000000
_cell_volume 1745.393693
_symmetry_space_group_name_H-M "P B A M"
_symmetry_group_IT_number 55
_symmetry_cell_setting 'orthorhombic'
loop_
_space_group_symop_operation_xyz
x,y,z
-x,-y,z
1/2+x,1/2-y,-z
1/2-x,1/2+y,-z
-x,-y,-z
x,y,-z
1/2-x,1/2+y,z
1/2+x,1/2-y,z
loop_
_atom_site_type_symbol
_atom_site_label
_atom_site_fract_x
_atom_site_fract_y
_atom_site_fract_z
Si Si1 0.238554 0.964473 0.704135
Si Si2 0.500000 0.500000 0.000000
Si Si3 0.381058 0.597798 0.800705
Si Si4 0.703329 0.791650 0.288922
Si Si5 0.932888 0.651337 0.780711
Si Si6 0.073683 0.628910 0.215672
O O1 0.260959 0.950170 0.500000
O O2 0.236442 0.828917 0.788432
O O3 0.167815 0.013177 0.701229
O O4 0.276868 0.076312 0.788577
O O5 0.447603 0.537489 0.846169
O O6 0.392613 0.733202 0.719210
O O7 0.352834 0.615767 0.000000
O O8 0.718532 0.794916 0.500000
O O9 0.629418 0.784475 0.272466
O O10 0.914709 0.512981 0.725674
O O11 0.004871 0.667058 0.727186
O O12 0.931941 0.655239 0.000000
O O13 0.072309 0.629272 0.000000
#
# Coordination Sequence:
#
# PCOD9428809 Si02
#       6
#     8   2   8   8   8   8
#     4  10  23  41  57  79 110 151 191 231 280 332
#     4   8  20  32  58  82 116 144 166 230 280 330
#     4   9  19  34  58  83 113 146 180 227 282 331
#     4  10  23  40  57  77 110 147 187 234 280 324
#     4   8  16  32  54  84 117 144 175 224 282 332
#     4   9  18  33  58  84 110 146 184 225 274 333
#
# _framework density 24.063338000000002
#
# number of rings (size 3 to 8) (size 9 to 14) (size 15 to 20)
#    0.571    2.286    0.000    1.143    5.333    1.524 
#    0.000    3.333    0.000    0.000    0.000    0.000 
#    0.000    0.000    0.000    0.000    0.000    0.000 
#
# Total GULP energy -233834.272199 kJ/mol
# GULP energy per Si atom -5567.482671 kJ/mol
# Density = 2.400857 g / cm^3
# Si number density = 24.063338 Si / 1000 Ang^3
#
#
#
# Elastic Constant Matrix: (Units=GPa)
#
#
# Indices 1 2 3 4 5 6 
#
# 1 62.0171 32.4071 -3.6488 0.0000 0.0000 0.0000
# 2 32.4071 105.7299 4.0244 0.0000 0.0000 0.0000
# 3 -3.6488 4.0244 68.4774 0.0000 0.0000 0.0000
# 4 0.0000 0.0000 0.0000 -7.7543 0.0000 0.0000
# 5 0.0000 0.0000 0.0000 0.0000 20.5468 0.0000
# 6 0.0000 0.0000 0.0000 0.0000 0.0000 25.4012
#
#
#
# Elastic Compliance Matrix: (Units=1/GPa)
#
#
# Indices 1 2 3 4 5 6 
#
# 1 0.019329 -0.005977 0.001381 0.000000 0.000000 0.000000
# 2 -0.005977 0.011328 -0.000984 0.000000 0.000000 0.000000
# 3 0.001381 -0.000984 0.014735 0.000000 0.000000 0.000000
# 4 0.000000 0.000000 0.000000 -0.128961 0.000000 0.000000
# 5 0.000000 0.000000 0.000000 0.000000 0.048669 0.000000
# 6 0.000000 0.000000 0.000000 0.000000 0.000000 0.039368
#
#
# Mechanical properties :
#
#
# Convention : Reuss Voigt Hill
#
# Bulk Modulus (GPa) = 29.21302 33.53221 31.37262
# Shear Modulus (GPa) = 184.91923 21.20152 103.06038
#
# Velocity S-wave (km/s) = 8.77575 2.97151 6.55147
# Velocity P-wave (km/s) = 10.71687 5.07330 8.38420
#
# Compressibility (1/GPa) = 0.03423131
#
# Stress axis : x y z
#
# Youngs Moduli (GPa) = 51.73521 88.28023 67.86658
#
# Poissons Ratio (x) = 0.52766 -0.09374
# Poissons Ratio (y) = 0.30923 0.06679
# Poissons Ratio (z) = -0.07146 0.08689
#
# Static dielectric constant tensor:
#      x y z
#    x 1.907500 0.000000 0.000000 
#    y 0.000000 1.975530 0.000000 
#    z 0.000000 0.000000 1.930980 
# 
# From -- ./inp_files/9401.got.cif
#   From: 2010.05.17/outbox.cif.g08.bks.cpg/sg55_5_cif.got.tgz:9401.got - 2010.06.03 13:27:54.
