data_PCOD9428339
_publ_section_title
;
Structure prediction by ZEFSAII (Michael W. Deem and Ramdas Pophale) SiO2 
 PCOD9428339
Probable space group: P B A M
;
_chemical_formula_sum "Si O2"
_cell_formula_units_Z 58
_cell_length_a 19.012649
_cell_length_b 5.337348
_cell_length_c 23.725008
_cell_angle_alpha 90.000000
_cell_angle_beta 90.000000
_cell_angle_gamma 90.000000
_cell_volume 2407.545581
_symmetry_space_group_name_H-M "P B A M"
_symmetry_group_IT_number 55
_symmetry_cell_setting 'orthorhombic'
loop_
_space_group_symop_operation_xyz
x,y,z
-x,-y,z
1/2+x,1/2-y,-z
1/2-x,1/2+y,-z
-x,-y,-z
x,y,-z
1/2-x,1/2+y,z
1/2+x,1/2-y,z
loop_
_atom_site_type_symbol
_atom_site_label
_atom_site_fract_x
_atom_site_fract_y
_atom_site_fract_z
Si Si1 0.067117 0.676058 0.094184
Si Si2 0.224897 0.416532 0.348167
Si Si3 0.418834 0.077529 0.324456
Si Si4 0.547645 0.746232 0.560482
Si Si5 0.211768 0.399182 0.067905
Si Si6 0.219123 0.055310 0.777913
Si Si7 0.000000 0.000000 0.000000
Si Si8 0.924933 0.100995 0.781739
O O1 0.136975 0.511083 0.086651
O O2 0.065039 0.776927 0.157626
O O3 0.000000 0.500000 0.082640
O O4 0.055415 0.898396 0.049427
O O5 0.240476 0.680939 0.377862
O O6 0.141795 0.377158 0.337817
O O7 0.259160 0.497904 0.287308
O O8 0.414785 0.254271 0.379317
O O9 0.399322 0.208320 0.266109
O O10 0.500000 0.000000 0.318699
O O11 0.500000 0.500000 0.559806
O O12 0.586598 0.753125 0.500000
O O13 0.500000 0.000000 0.561643
O O14 0.230757 0.113391 0.084256
O O15 0.209758 0.397588 0.000000
O O16 0.238461 0.786089 0.803063
O O17 0.136588 0.103610 0.784603
O O18 0.000000 0.000000 0.762460
#
# Coordination Sequence:
#
# PCOD9428339 Si02
#       8
#     8   8   8   8   8   8   2   8
#     4  12  28  47  75 101 139 183 231 285 354 434
#     4  10  21  40  60  90 129 183 223 266 339 420
#     4  11  23  38  67 100 136 178 226 289 342 398
#     4   9  19  37  60  93 133 177 227 279 338 400
#     4  10  24  44  72 104 134 171 224 282 333 401
#     4  10  22  43  65  90 134 187 216 264 341 419
#     4  12  26  52  72  98 132 192 226 274 370 418
#     4  12  26  41  66 106 138 168 228 288 339 408
#
# _framework density 24.090926
#
# number of rings (size 3 to 8) (size 9 to 14) (size 15 to 20)
#    0.000    1.379    4.138    1.034    5.793    4.414 
#    0.000    0.000    0.000    0.828    0.000    0.000 
#    0.000    0.000    0.000    0.000    0.000    0.000 
#
# Total GULP energy -323584.018364 kJ/mol
# GULP energy per Si atom -5579.034799 kJ/mol
# Density = 2.403609 g / cm^3
# Si number density = 24.090926 Si / 1000 Ang^3
#
#
#
# Elastic Constant Matrix: (Units=GPa)
#
#
# Indices 1 2 3 4 5 6 
#
# 1 146.0340 19.8089 -28.4339 0.0000 0.0000 0.0000
# 2 19.8089 112.7683 0.6813 0.0000 0.0000 0.0000
# 3 -28.4339 0.6813 112.6182 0.0000 0.0000 0.0000
# 4 0.0000 0.0000 0.0000 -8.0505 0.0000 0.0000
# 5 0.0000 0.0000 0.0000 0.0000 -0.7357 0.0000
# 6 0.0000 0.0000 0.0000 0.0000 0.0000 33.0503
#
#
#
# Elastic Compliance Matrix: (Units=1/GPa)
#
#
# Indices 1 2 3 4 5 6 
#
# 1 0.007390 -0.001309 0.001874 0.000000 0.000000 0.000000
# 2 -0.001309 0.009100 -0.000386 0.000000 0.000000 0.000000
# 3 0.001874 -0.000386 0.009355 0.000000 0.000000 0.000000
# 4 0.000000 0.000000 0.000000 -0.124216 0.000000 0.000000
# 5 0.000000 0.000000 0.000000 0.000000 -1.359178 0.000000
# 6 0.000000 0.000000 0.000000 0.000000 0.000000 0.030257
#
#
# Mechanical properties :
#
#
# Convention : Reuss Voigt Hill
#
# Bulk Modulus (GPa) = 38.16421 39.50369 38.83395
# Shear Modulus (GPa) = -3.52382 30.14376 13.30997
#
# Velocity S-wave (km/s) = -1.21074 3.54114 2.35306
# Velocity P-wave (km/s) = 3.73117 5.75785 4.85152
#
# Compressibility (1/GPa) = 0.02620256
#
# Stress axis : x y z
#
# Youngs Moduli (GPa) = 135.31451 109.88893 106.89479
#
# Poissons Ratio (x) = 0.14390 -0.20030
# Poissons Ratio (y) = 0.17719 0.04123
# Poissons Ratio (z) = -0.25355 0.04238
#
# Static dielectric constant tensor:
#      x y z
#    x 1.928400 0.000000 0.000000 
#    y 0.000000 1.971090 0.000000 
#    z 0.000000 0.000000 1.967240 
# 
# From -- ./inp_files/24012.got.cif
#   From: 2010.05.17/outbox.cif.g08.bks.cpg/sg55_13_cif.got.tgz:24012.got - 2010.06.03 13:27:54.
