data_PCOD9428137
_publ_section_title
;
Structure prediction by ZEFSAII (Michael W. Deem and Ramdas Pophale) SiO2 
 PCOD9428137
Probable space group: P B A M
;
_chemical_formula_sum "Si O2"
_cell_formula_units_Z 56
_cell_length_a 20.465400
_cell_length_b 8.264468
_cell_length_c 14.090789
_cell_angle_alpha 90.000000
_cell_angle_beta 90.000000
_cell_angle_gamma 90.000000
_cell_volume 2383.254664
_symmetry_space_group_name_H-M "P B A M"
_symmetry_group_IT_number 55
_symmetry_cell_setting 'orthorhombic'
loop_
_space_group_symop_operation_xyz
x,y,z
-x,-y,z
1/2+x,1/2-y,-z
1/2-x,1/2+y,-z
-x,-y,-z
x,y,-z
1/2-x,1/2+y,z
1/2+x,1/2-y,z
loop_
_atom_site_type_symbol
_atom_site_label
_atom_site_fract_x
_atom_site_fract_y
_atom_site_fract_z
Si Si1 0.524674 0.675150 0.885634
Si Si2 0.781226 0.231718 0.291655
Si Si3 0.403616 0.109457 0.385833
Si Si4 0.961927 0.743704 0.386441
Si Si5 0.887965 0.703191 0.889711
Si Si6 0.840139 0.337773 0.111348
Si Si7 0.154763 0.115175 0.289367
O O1 0.500000 0.500000 0.850771
O O2 0.465724 0.800200 0.868237
O O3 0.595194 0.739145 0.856074
O O4 0.530454 0.662031 0.000000
O O5 0.834749 0.345135 0.341653
O O6 0.783312 0.282586 0.180920
O O7 0.708111 0.256259 0.328406
O O8 0.808579 0.052758 0.300225
O O9 0.399460 0.118947 0.500000
O O10 0.462921 0.228710 0.354926
O O11 0.428283 0.929098 0.362234
O O12 0.962326 0.760151 0.500000
O O13 0.914156 0.875197 0.342381
O O14 0.856613 0.527267 0.876790
O O15 0.859638 0.834826 0.818608
O O16 0.880584 0.750559 0.000000
O O17 0.827346 0.308076 0.000000
#
# Coordination Sequence:
#
# PCOD9428137 Si02
#       7
#     8   8   8   8   8   8   8
#     4   9  17  31  53  83 116 151 198 253 305 357
#     4  12  26  42  62  90 127 168 212 260 313 373
#     4   9  20  42  71  99 127 161 202 251 310 375
#     4   9  20  42  71  99 127 161 202 251 310 375
#     4  10  21  38  60  86 120 164 211 259 312 369
#     4  10  21  38  60  86 120 164 211 259 312 369
#     4  12  26  42  62  90 127 168 212 260 313 373
#
# _framework density 23.497278000000001
#
# number of rings (size 3 to 8) (size 9 to 14) (size 15 to 20)
#    0.000    1.857    0.000    4.714    2.000    5.714 
#    0.000    1.429    0.000    0.000    0.000    0.000 
#    0.000    0.000    0.000    0.000    0.000    0.000 
#
# Total GULP energy -313429.650048 kJ/mol
# GULP energy per Si atom -5596.958037 kJ/mol
# Density = 2.344380 g / cm^3
# Si number density = 23.497278 Si / 1000 Ang^3
#
#
#
# Elastic Constant Matrix: (Units=GPa)
#
#
# Indices 1 2 3 4 5 6 
#
# 1 78.0477 -11.4304 12.6978 0.0000 0.0000 0.0000
# 2 -11.4304 56.8314 6.8788 0.0000 0.0000 0.0000
# 3 12.6978 6.8788 51.1479 0.0000 0.0000 0.0000
# 4 0.0000 0.0000 0.0000 17.5103 0.0000 0.0000
# 5 0.0000 0.0000 0.0000 0.0000 -1.6126 0.0000
# 6 0.0000 0.0000 0.0000 0.0000 0.0000 36.3999
#
#
#
# Elastic Compliance Matrix: (Units=1/GPa)
#
#
# Indices 1 2 3 4 5 6 
#
# 1 0.013926 0.003273 -0.003897 0.000000 0.000000 0.000000
# 2 0.003273 0.018656 -0.003321 0.000000 0.000000 0.000000
# 3 -0.003897 -0.003321 0.020965 0.000000 0.000000 0.000000
# 4 0.000000 0.000000 0.000000 0.057109 0.000000 0.000000
# 5 0.000000 0.000000 0.000000 0.000000 -0.620113 0.000000
# 6 0.000000 0.000000 0.000000 0.000000 0.000000 0.027473
#
#
# Mechanical properties :
#
#
# Convention : Reuss Voigt Hill
#
# Bulk Modulus (GPa) = 21.90333 22.47994 22.19164
# Shear Modulus (GPa) = -10.89627 22.31823 5.71098
#
# Velocity S-wave (km/s) = -2.15576 3.08526 1.56069
# Velocity P-wave (km/s) = 1.77354 4.72013 3.56546
#
# Compressibility (1/GPa) = 0.04565516
#
# Stress axis : x y z
#
# Youngs Moduli (GPa) = 71.80790 53.60163 47.69760
#
# Poissons Ratio (x) = -0.17542 0.18590
# Poissons Ratio (y) = -0.23500 0.15843
# Poissons Ratio (z) = 0.27986 0.17804
#
# Static dielectric constant tensor:
#      x y z
#    x 1.865700 0.000000 0.000000 
#    y 0.000000 1.899060 0.000000 
#    z 0.000000 0.000000 1.889180 
# 
# From -- ./inp_files/19748.got.cif
#   From: 2010.05.17/outbox.cif.g08.bks.cpg/sg55_10_cif.got.tgz:19748.got - 2010.06.03 13:27:54.
