data_PCOD9428064
_publ_section_title
;
Structure prediction by ZEFSAII (Michael W. Deem and Ramdas Pophale) SiO2 
 PCOD9428064
Probable space group: P B A M
;
_chemical_formula_sum "Si O2"
_cell_formula_units_Z 58
_cell_length_a 13.217477
_cell_length_b 26.702840
_cell_length_c 7.634342
_cell_angle_alpha 90.000000
_cell_angle_beta 90.000000
_cell_angle_gamma 90.000000
_cell_volume 2694.496528
_symmetry_space_group_name_H-M "P B A M"
_symmetry_group_IT_number 55
_symmetry_cell_setting 'orthorhombic'
loop_
_space_group_symop_operation_xyz
x,y,z
-x,-y,z
1/2+x,1/2-y,-z
1/2-x,1/2+y,-z
-x,-y,-z
x,y,-z
1/2-x,1/2+y,z
1/2+x,1/2-y,z
loop_
_atom_site_type_symbol
_atom_site_label
_atom_site_fract_x
_atom_site_fract_y
_atom_site_fract_z
Si Si1 0.162741 0.060845 0.214333
Si Si2 0.269103 0.451009 0.786632
Si Si3 0.539030 0.070921 0.201730
Si Si4 0.989023 0.318631 0.700443
Si Si5 0.500000 0.000000 0.500000
Si Si6 0.771800 0.340469 0.202582
Si Si7 0.043929 0.886878 0.788736
Si Si8 0.933367 0.787201 0.707786
O O1 0.238697 0.104848 0.270678
O O2 0.050306 0.078114 0.268739
O O3 0.194714 0.005857 0.271882
O O4 0.163050 0.060853 0.000000
O O5 0.154193 0.440071 0.736277
O O6 0.350296 0.409767 0.726979
O O7 0.269993 0.450947 0.000000
O O8 0.520618 0.130104 0.208269
O O9 0.473400 0.041251 0.343220
O O10 0.524844 0.054906 0.000000
O O11 0.023649 0.322936 0.500000
O O12 0.867458 0.316908 0.704087
O O13 0.032971 0.266993 0.774920
O O14 0.670979 0.307234 0.212729
O O15 0.801025 0.346433 0.000000
O O16 0.016927 0.830315 0.738255
O O17 0.044474 0.888537 0.000000
O O18 0.918175 0.783734 0.500000
#
# Coordination Sequence:
#
# PCOD9428064 Si02
#       8
#     8   8   8   8   2   8   8   8
#     4   8  15  29  54  86 118 152 196 251 306 366
#     4   9  18  33  57  90 123 161 206 257 315 373
#     4  11  25  43  66  95 127 167 214 261 318 382
#     4  11  24  43  63  89 124 162 208 262 319 378
#     4  12  26  48  64  90 130 172 210 268 314 378
#     4  10  21  37  62  91 116 155 210 263 316 377
#     4   9  17  33  58  88 120 157 207 260 310 368
#     4  10  22  40  60  86 123 165 205 254 319 380
#
# _framework density 21.525358000000001
#
# number of rings (size 3 to 8) (size 9 to 14) (size 15 to 20)
#    0.000    2.207    0.690    2.690    1.931    4.966 
#    1.241    2.759    0.000    3.310    0.000    0.000 
#    0.000    0.000    0.000    0.000    0.000    0.000 
#
# Total GULP energy -323529.264723 kJ/mol
# GULP energy per Si atom -5578.090771 kJ/mol
# Density = 2.147637 g / cm^3
# Si number density = 21.525358 Si / 1000 Ang^3
#
#
#
# Elastic Constant Matrix: (Units=GPa)
#
#
# Indices 1 2 3 4 5 6 
#
# 1 61.6275 44.6419 6.1956 0.0000 0.0000 0.0000
# 2 44.6419 151.4482 12.1916 0.0000 0.0000 0.0000
# 3 6.1956 12.1916 76.0675 0.0000 0.0000 0.0000
# 4 0.0000 0.0000 0.0000 17.5381 0.0000 0.0000
# 5 0.0000 0.0000 0.0000 0.0000 8.8373 0.0000
# 6 0.0000 0.0000 0.0000 0.0000 0.0000 18.5320
#
#
#
# Elastic Compliance Matrix: (Units=1/GPa)
#
#
# Indices 1 2 3 4 5 6 
#
# 1 0.020670 -0.006035 -0.000716 0.000000 0.000000 0.000000
# 2 -0.006035 0.008451 -0.000863 0.000000 0.000000 0.000000
# 3 -0.000716 -0.000863 0.013343 0.000000 0.000000 0.000000
# 4 0.000000 0.000000 0.000000 0.057019 0.000000 0.000000
# 5 0.000000 0.000000 0.000000 0.000000 0.113157 0.000000
# 6 0.000000 0.000000 0.000000 0.000000 0.000000 0.053961
#
#
# Mechanical properties :
#
#
# Convention : Reuss Voigt Hill
#
# Bulk Modulus (GPa) = 36.71667 46.13348 41.42507
# Shear Modulus (GPa) = 17.18751 24.05575 20.62163
#
# Velocity S-wave (km/s) = 2.82880 3.34661 3.09854
# Velocity P-wave (km/s) = 5.26915 6.03421 5.66461
#
# Compressibility (1/GPa) = 0.02723559
#
# Stress axis : x y z
#
# Youngs Moduli (GPa) = 48.37841 118.32380 74.94640
#
# Poissons Ratio (x) = 0.71412 0.05368
# Poissons Ratio (y) = 0.29198 0.06468
# Poissons Ratio (z) = 0.03465 0.10211
#
# Static dielectric constant tensor:
#      x y z
#    x 1.784110 0.000000 0.000000 
#    y 0.000000 1.767570 0.000000 
#    z 0.000000 0.000000 1.820860 
# 
# From -- ./inp_files/4301.got.cif
#   From: 2010.05.17/outbox.cif.g08.bks.cpg/sg55_3_cif.got.tgz:4301.got - 2010.06.03 13:27:54.
