data_PCOD9428031
_publ_section_title
;
Structure prediction by ZEFSAII (Michael W. Deem and Ramdas Pophale) SiO2 
 PCOD9428031
Probable space group: P B A M
;
_chemical_formula_sum "Si O2"
_cell_formula_units_Z 64
_cell_length_a 26.451788
_cell_length_b 15.003008
_cell_length_c 8.944669
_cell_angle_alpha 90.000000
_cell_angle_beta 90.000000
_cell_angle_gamma 90.000000
_cell_volume 3549.749022
_symmetry_space_group_name_H-M "P B A M"
_symmetry_group_IT_number 55
_symmetry_cell_setting 'orthorhombic'
loop_
_space_group_symop_operation_xyz
x,y,z
-x,-y,z
1/2+x,1/2-y,-z
1/2-x,1/2+y,-z
-x,-y,-z
x,y,-z
1/2-x,1/2+y,z
1/2+x,1/2-y,z
loop_
_atom_site_type_symbol
_atom_site_label
_atom_site_fract_x
_atom_site_fract_y
_atom_site_fract_z
Si Si1 0.000366 0.394516 0.320885
Si Si2 0.604472 0.169283 0.178428
Si Si3 0.215219 0.997052 0.679169
Si Si4 0.363624 0.648322 0.323164
Si Si5 0.825365 0.500942 0.820546
Si Si6 0.362624 0.363152 0.821840
Si Si7 0.058357 0.991156 0.323006
Si Si8 0.604140 0.833920 0.819952
O O1 0.000889 0.387535 0.500000
O O2 0.949847 0.349802 0.256264
O O3 0.000000 0.500000 0.280537
O O4 0.050550 0.349465 0.254730
O O5 0.628333 0.261718 0.233145
O O6 0.642075 0.088295 0.217610
O O7 0.597787 0.169816 0.000000
O O8 0.214563 0.991946 0.500000
O O9 0.183981 0.086610 0.721635
O O10 0.271517 0.999143 0.741172
O O11 0.183979 0.913462 0.744068
O O12 0.359285 0.668403 0.500000
O O13 0.412045 0.583937 0.302534
O O14 0.858624 0.414800 0.779782
O O15 0.817793 0.499927 0.000000
O O16 0.412211 0.417346 0.770820
O O17 0.370909 0.260455 0.779253
O O18 0.356329 0.368545 0.000000
O O19 0.062084 0.968639 0.500000
O O20 0.000000 0.000000 0.282771
O O21 0.597079 0.835246 0.000000
#
# Coordination Sequence:
#
# PCOD9428031 Si02
#       8
#     8   8   8   8   8   8   8   8
#     4  11  23  38  59  86 118 156 195 240 288 339
#     4  11  23  38  60  87 118 157 195 236 289 343
#     4  10  22  41  63  85 115 153 191 242 298 343
#     4   9  20  38  57  83 117 152 192 237 289 343
#     4  10  22  40  61  84 115 154 194 238 289 346
#     4  10  21  37  59  87 116 149 193 240 287 343
#     4   9  19  36  56  80 115 155 191 235 291 345
#     4  10  22  40  60  86 120 156 193 237 289 346
#
# _framework density 18.029443000000001
#
# number of rings (size 3 to 8) (size 9 to 14) (size 15 to 20)
#    0.000    2.000    1.250    2.250    1.750    6.750 
#    0.000    3.750    0.000    0.000    0.000    0.000 
#    0.000    0.000    0.000    0.000    0.000    0.000 
#
# Total GULP energy -357459.128444 kJ/mol
# GULP energy per Si atom -5585.298882 kJ/mol
# Density = 1.798841 g / cm^3
# Si number density = 18.029443 Si / 1000 Ang^3
#
#
#
# Elastic Constant Matrix: (Units=GPa)
#
#
# Indices 1 2 3 4 5 6 
#
# 1 174.2356 83.1584 60.0576 0.0000 0.0000 0.0000
# 2 83.1584 150.3097 58.8848 0.0000 0.0000 0.0000
# 3 60.0576 58.8848 45.0582 0.0000 0.0000 0.0000
# 4 0.0000 0.0000 0.0000 25.9167 0.0000 0.0000
# 5 0.0000 0.0000 0.0000 0.0000 39.1218 0.0000
# 6 0.0000 0.0000 0.0000 0.0000 0.0000 -1.3425
#
#
#
# Elastic Compliance Matrix: (Units=1/GPa)
#
#
# Indices 1 2 3 4 5 6 
#
# 1 0.010651 -0.000678 -0.013310 0.000000 0.000000 0.000000
# 2 -0.000678 0.013675 -0.016968 0.000000 0.000000 0.000000
# 3 -0.013310 -0.016968 0.062109 0.000000 0.000000 0.000000
# 4 0.000000 0.000000 0.000000 0.038585 0.000000 0.000000
# 5 0.000000 0.000000 0.000000 0.000000 0.025561 0.000000
# 6 0.000000 0.000000 0.000000 0.000000 0.000000 -0.744898
#
#
# Mechanical properties :
#
#
# Convention : Reuss Voigt Hill
#
# Bulk Modulus (GPa) = 40.77810 85.97835 63.37822
# Shear Modulus (GPa) = -9.53782 23.90603 7.18411
#
# Velocity S-wave (km/s) = -2.30252 3.64530 1.99833
# Velocity P-wave (km/s) = 3.94940 8.09376 6.36815
#
# Compressibility (1/GPa) = 0.02452297
#
# Stress axis : x y z
#
# Youngs Moduli (GPa) = 93.88789 73.12376 16.10069
#
# Poissons Ratio (x) = 0.04960 0.21430
# Poissons Ratio (y) = 0.06368 0.27319
# Poissons Ratio (z) = 1.24967 1.24075
#
# Static dielectric constant tensor:
#      x y z
#    x 1.582740 0.000000 0.000000 
#    y 0.000000 1.604500 0.000000 
#    z 0.000000 0.000000 1.604890 
# 
# From -- ./inp_files/9832.got.cif
#   From: 2010.05.17/outbox.cif.g08.bks.cpg/sg55_5_cif.got.tgz:9832.got - 2010.06.03 13:27:54.
