data_PCOD9428860
_publ_section_title
;
Structure prediction by ZEFSAII (Michael W. Deem and Ramdas Pophale) SiO2 
 PCOD9428860
Probable space group: P B A M
;
_chemical_formula_sum "Si O2"
_cell_formula_units_Z 56
_cell_length_a 15.051703
_cell_length_b 21.539576
_cell_length_c 8.977438
_cell_angle_alpha 90.000000
_cell_angle_beta 90.000000
_cell_angle_gamma 90.000000
_cell_volume 2910.550941
_symmetry_space_group_name_H-M "P B A M"
_symmetry_group_IT_number 55
_symmetry_cell_setting 'orthorhombic'
loop_
_space_group_symop_operation_xyz
x,y,z
-x,-y,z
1/2+x,1/2-y,-z
1/2-x,1/2+y,-z
-x,-y,-z
x,y,-z
1/2-x,1/2+y,z
1/2+x,1/2-y,z
loop_
_atom_site_type_symbol
_atom_site_label
_atom_site_fract_x
_atom_site_fract_y
_atom_site_fract_z
Si Si1 0.582820 0.276671 0.823969
Si Si2 0.486945 0.927932 0.821068
Si Si3 0.466773 0.599052 0.325492
Si Si4 0.353074 0.480133 0.674138
Si Si5 0.560125 0.812104 0.678040
Si Si6 0.716473 0.105158 0.177096
Si Si7 0.738254 0.735677 0.678334
O O1 0.540818 0.342326 0.779658
O O2 0.521362 0.223851 0.753366
O O3 0.678938 0.271466 0.749360
O O4 0.589029 0.268194 0.000000
O O5 0.555397 0.881747 0.740978
O O6 0.386408 0.906724 0.782538
O O7 0.500000 0.000000 0.781454
O O8 0.497008 0.922208 0.000000
O O9 0.459813 0.617967 0.500000
O O10 0.560452 0.563962 0.308578
O O11 0.389380 0.549011 0.294182
O O12 0.327064 0.477567 0.500000
O O13 0.274988 0.453738 0.774389
O O14 0.550215 0.812712 0.500000
O O15 0.648386 0.772848 0.714574
O O16 0.756054 0.165909 0.257697
O O17 0.721005 0.114529 0.000000
O O18 0.746331 0.732927 0.500000
#
# Coordination Sequence:
#
# PCOD9428860 Si02
#       7
#     8   8   8   8   8   8   8
#     4  12  24  38  60  90 123 159 197 249 312 368
#     4  10  23  43  64  88 124 165 204 255 315 371
#     4   9  19  37  58  84 119 159 203 249 301 358
#     4   9  19  36  59  84 116 160 203 248 300 358
#     4  11  24  42  65  92 122 161 210 261 312 371
#     4  11  22  37  60  91 122 160 206 252 311 377
#     4  11  24  41  63  90 121 160 206 257 309 367
#
# _framework density 19.240345000000001
#
# number of rings (size 3 to 8) (size 9 to 14) (size 15 to 20)
#    0.000    1.571    1.429    4.286    0.000    8.857 
#    0.000    4.286    0.000    0.000    0.000    0.000 
#    0.000    0.000    0.000    0.000    0.000    0.000 
#
# Total GULP energy -313004.041464 kJ/mol
# GULP energy per Si atom -5589.357883 kJ/mol
# Density = 1.919655 g / cm^3
# Si number density = 19.240345 Si / 1000 Ang^3
#
#
#
# Elastic Constant Matrix: (Units=GPa)
#
#
# Indices 1 2 3 4 5 6 
#
# 1 82.0871 37.7988 48.4792 0.0000 0.0000 0.0000
# 2 37.7988 107.4191 46.8263 0.0000 0.0000 0.0000
# 3 48.4792 46.8263 56.9375 0.0000 0.0000 0.0000
# 4 0.0000 0.0000 0.0000 39.6104 0.0000 0.0000
# 5 0.0000 0.0000 0.0000 0.0000 32.3123 0.0000
# 6 0.0000 0.0000 0.0000 0.0000 0.0000 -116.7047
#
#
#
# Elastic Compliance Matrix: (Units=1/GPa)
#
#
# Indices 1 2 3 4 5 6 
#
# 1 0.024541 0.000738 -0.021502 0.000000 0.000000 0.000000
# 2 0.000738 0.014534 -0.012581 0.000000 0.000000 0.000000
# 3 -0.021502 -0.012581 0.046218 0.000000 0.000000 0.000000
# 4 0.000000 0.000000 0.000000 0.025246 0.000000 0.000000
# 5 0.000000 0.000000 0.000000 0.000000 0.030948 0.000000
# 6 0.000000 0.000000 0.000000 0.000000 0.000000 -0.008569
#
#
# Mechanical properties :
#
#
# Convention : Reuss Voigt Hill
#
# Bulk Modulus (GPa) = 53.75774 56.96139 55.35956
# Shear Modulus (GPa) = 24.29405 -1.40046 11.44680
#
# Velocity S-wave (km/s) = 3.55725 -0.85408 2.44178
# Velocity P-wave (km/s) = 6.69872 5.35694 6.06505
#
# Compressibility (1/GPa) = 0.01860197
#
# Stress axis : x y z
#
# Youngs Moduli (GPa) = 40.74745 68.80318 21.63648
#
# Poissons Ratio (x) = -0.05075 0.46524
# Poissons Ratio (y) = -0.03006 0.27221
# Poissons Ratio (z) = 0.87617 0.86563
#
# Static dielectric constant tensor:
#      x y z
#    x 1.664720 0.000000 0.000000 
#    y 0.000000 1.684570 0.000000 
#    z 0.000000 0.000000 1.639720 
# 
# From -- ./inp_files/6149.got.cif
#   From: 2010.05.17/outbox.cif.g08.bks.cpg/sg55_4_cif.got.tgz:6149.got - 2010.06.03 13:27:54.
