data_PCOD9428278
_publ_section_title
;
Structure prediction by ZEFSAII (Michael W. Deem and Ramdas Pophale) SiO2 
 PCOD9428278
Probable space group: P B A M
;
_chemical_formula_sum "Si O2"
_cell_formula_units_Z 48
_cell_length_a 17.248839
_cell_length_b 17.285718
_cell_length_c 8.730341
_cell_angle_alpha 90.000000
_cell_angle_beta 90.000000
_cell_angle_gamma 90.000000
_cell_volume 2603.025960
_symmetry_space_group_name_H-M "P B A M"
_symmetry_group_IT_number 55
_symmetry_cell_setting 'orthorhombic'
loop_
_space_group_symop_operation_xyz
x,y,z
-x,-y,z
1/2+x,1/2-y,-z
1/2-x,1/2+y,-z
-x,-y,-z
x,y,-z
1/2-x,1/2+y,z
1/2+x,1/2-y,z
loop_
_atom_site_type_symbol
_atom_site_label
_atom_site_fract_x
_atom_site_fract_y
_atom_site_fract_z
Si Si1 0.588840 0.001029 0.815335
Si Si2 0.179399 0.353719 0.316400
Si Si3 0.850656 0.822176 0.684124
Si Si4 0.500546 0.409264 0.183730
Si Si5 0.182345 0.651894 0.184336
Si Si6 0.145156 0.817435 0.315899
O O1 0.633725 0.923284 0.768235
O O2 0.500000 0.000000 0.761172
O O3 0.633371 0.076542 0.758110
O O4 0.588163 0.002355 0.000000
O O5 0.174983 0.360719 0.500000
O O6 0.145995 0.269113 0.274738
O O7 0.270513 0.352464 0.274050
O O8 0.847899 0.827650 0.500000
O O9 0.923557 0.868133 0.748536
O O10 0.769815 0.852760 0.752513
O O11 0.500000 0.500000 0.224541
O O12 0.424585 0.367200 0.248877
O O13 0.501390 0.402744 0.000000
O O14 0.145440 0.730327 0.251059
O O15 0.183921 0.656470 0.000000
O O16 0.140272 0.814609 0.500000
#
# Coordination Sequence:
#
# PCOD9428278 Si02
#       6
#     8   8   8   8   8   8
#     4  10  23  39  58  88 122 156 197 244 294 349
#     4   9  21  40  61  88 117 154 198 242 296 355
#     4  10  22  41  63  89 120 157 202 249 303 360
#     4  11  25  41  61  91 123 157 201 249 303 364
#     4  10  21  39  62  89 121 160 203 247 300 357
#     4  10  22  41  63  89 121 158 201 248 303 360
#
# _framework density 18.440078
#
# number of rings (size 3 to 8) (size 9 to 14) (size 15 to 20)
#    0.000    2.000    0.000    3.000    4.667    7.000 
#    0.000    0.000    0.000    0.000    0.000    0.000 
#    0.000    0.000    0.000    0.000    0.000    0.000 
#
# Total GULP energy -268185.739605 kJ/mol
# GULP energy per Si atom -5587.202908 kJ/mol
# Density = 1.839811 g / cm^3
# Si number density = 18.440078 Si / 1000 Ang^3
#
#
#
# Elastic Constant Matrix: (Units=GPa)
#
#
# Indices 1 2 3 4 5 6 
#
# 1 172.8327 151.5113 59.2618 0.0000 0.0000 0.0000
# 2 151.5113 177.3800 60.7894 0.0000 0.0000 0.0000
# 3 59.2618 60.7894 51.4582 0.0000 0.0000 0.0000
# 4 0.0000 0.0000 0.0000 -195.8757 0.0000 0.0000
# 5 0.0000 0.0000 0.0000 0.0000 26.0749 0.0000
# 6 0.0000 0.0000 0.0000 0.0000 0.0000 28.2024
#
#
#
# Elastic Compliance Matrix: (Units=1/GPa)
#
#
# Indices 1 2 3 4 5 6 
#
# 1 0.024004 -0.018532 -0.005751 0.000000 0.000000 0.000000
# 2 -0.018532 0.023781 -0.006750 0.000000 0.000000 0.000000
# 3 -0.005751 -0.006750 0.034031 0.000000 0.000000 0.000000
# 4 0.000000 0.000000 0.000000 -0.005105 0.000000 0.000000
# 5 0.000000 0.000000 0.000000 0.000000 0.038351 0.000000
# 6 0.000000 0.000000 0.000000 0.000000 0.000000 0.035458
#
#
# Mechanical properties :
#
#
# Convention : Reuss Voigt Hill
#
# Bulk Modulus (GPa) = 50.63804 104.97733 77.80768
# Shear Modulus (GPa) = 22.81336 -19.64578 1.58379
#
# Velocity S-wave (km/s) = 3.52115 -3.26756 0.92777
# Velocity P-wave (km/s) = 6.63715 6.54343 6.59046
#
# Compressibility (1/GPa) = 0.01974800
#
# Stress axis : x y z
#
# Youngs Moduli (GPa) = 41.65929 42.05103 29.38510
#
# Poissons Ratio (x) = 0.77931 0.16901
# Poissons Ratio (y) = 0.77205 0.19835
# Poissons Ratio (z) = 0.23960 0.28384
#
# Static dielectric constant tensor:
#      x y z
#    x 1.610050 0.000000 0.000000 
#    y 0.000000 1.608510 0.000000 
#    z 0.000000 0.000000 1.621580 
# 
# From -- ./inp_files/5647.got.cif
#   From: 2010.05.17/outbox.cif.g08.bks.cpg/sg55_3_cif.got.tgz:5647.got - 2010.06.03 13:27:54.
