data_PCOD9428732
_publ_section_title
;
Structure prediction by ZEFSAII (Michael W. Deem and Ramdas Pophale) SiO2 
 PCOD9428732
Probable space group: P B A M
;
_chemical_formula_sum "Si O2"
_cell_formula_units_Z 48
_cell_length_a 13.939058
_cell_length_b 18.849886
_cell_length_c 8.120856
_cell_angle_alpha 90.000000
_cell_angle_beta 90.000000
_cell_angle_gamma 90.000000
_cell_volume 2133.752106
_symmetry_space_group_name_H-M "P B A M"
_symmetry_group_IT_number 55
_symmetry_cell_setting 'orthorhombic'
loop_
_space_group_symop_operation_xyz
x,y,z
-x,-y,z
1/2+x,1/2-y,-z
1/2-x,1/2+y,-z
-x,-y,-z
x,y,-z
1/2-x,1/2+y,z
1/2+x,1/2-y,z
loop_
_atom_site_type_symbol
_atom_site_label
_atom_site_fract_x
_atom_site_fract_y
_atom_site_fract_z
Si Si1 0.189288 0.640924 0.692920
Si Si2 0.730783 0.612770 0.692751
Si Si3 0.389470 0.519501 0.189107
Si Si4 0.586219 0.734044 0.188498
Si Si5 0.112733 0.174557 0.311387
Si Si6 0.389152 0.990545 0.701690
O O1 0.210304 0.631713 0.500000
O O2 0.101139 0.694221 0.709793
O O3 0.280664 0.685113 0.761962
O O4 0.166244 0.562391 0.758381
O O5 0.740249 0.630159 0.500000
O O6 0.665696 0.543447 0.721922
O O7 0.668301 0.675783 0.771001
O O8 0.834008 0.581826 0.753732
O O9 0.500000 0.500000 0.175198
O O10 0.387726 0.589653 0.297508
O O11 0.354423 0.530468 0.000000
O O12 0.480865 0.702415 0.220499
O O13 0.595152 0.754012 0.000000
O O14 0.106944 0.199696 0.500000
O O15 0.386636 0.990303 0.500000
O O16 0.500000 0.000000 0.750800
#
# Coordination Sequence:
#
# PCOD9428732 Si02
#       6
#     8   8   8   8   8   8
#     4  10  22  42  64  91 122 163 213 259 313 373
#     4  11  21  37  62  92 121 160 209 258 308 367
#     4  11  21  33  56  91 125 155 190 244 312 371
#     4  12  26  41  59  92 131 168 206 256 324 382
#     4  11  22  39  64  90 117 157 209 258 306 370
#     4   9  19  38  65  94 122 155 207 266 313 362
#
# _framework density 22.495584000000001
#
# number of rings (size 3 to 8) (size 9 to 14) (size 15 to 20)
#    0.000    1.333    3.333    3.000    0.000    3.333 
#    0.000    3.333    0.000    3.500    0.000    0.000 
#    0.000    0.000    0.000    0.000    0.000    0.000 
#
# Total GULP energy -267804.805817 kJ/mol
# GULP energy per Si atom -5579.266788 kJ/mol
# Density = 2.244438 g / cm^3
# Si number density = 22.495584 Si / 1000 Ang^3
#
#
#
# Elastic Constant Matrix: (Units=GPa)
#
#
# Indices 1 2 3 4 5 6 
#
# 1 108.4763 9.3399 9.8819 0.0000 0.0000 0.0000
# 2 9.3399 50.8094 -7.5761 0.0000 0.0000 0.0000
# 3 9.8819 -7.5761 34.4432 0.0000 0.0000 0.0000
# 4 0.0000 0.0000 0.0000 -61.7421 0.0000 0.0000
# 5 0.0000 0.0000 0.0000 0.0000 -16.1119 0.0000
# 6 0.0000 0.0000 0.0000 0.0000 0.0000 33.0804
#
#
#
# Elastic Compliance Matrix: (Units=1/GPa)
#
#
# Indices 1 2 3 4 5 6 
#
# 1 0.009714 -0.002276 -0.003288 0.000000 0.000000 0.000000
# 2 -0.002276 0.020882 0.005246 0.000000 0.000000 0.000000
# 3 -0.003288 0.005246 0.031130 0.000000 0.000000 0.000000
# 4 0.000000 0.000000 0.000000 -0.016196 0.000000 0.000000
# 5 0.000000 0.000000 0.000000 0.000000 -0.062066 0.000000
# 6 0.000000 0.000000 0.000000 0.000000 0.000000 0.030229
#
#
# Mechanical properties :
#
#
# Convention : Reuss Voigt Hill
#
# Bulk Modulus (GPa) = 16.36880 24.11335 20.24107
# Shear Modulus (GPa) = 144.12523 3.18416 73.65469
#
# Velocity S-wave (km/s) = 8.01295 1.19102 5.72826
# Velocity P-wave (km/s) = 9.63857 3.55441 7.26415
#
# Compressibility (1/GPa) = 0.06109185
#
# Stress axis : x y z
#
# Youngs Moduli (GPa) = 102.94369 47.88812 32.12292
#
# Poissons Ratio (x) = 0.10899 0.10561
# Poissons Ratio (y) = 0.23429 -0.16852
# Poissons Ratio (z) = 0.33844 -0.25123
#
# Static dielectric constant tensor:
#      x y z
#    x 1.829770 0.000000 0.000000 
#    y 0.000000 1.814720 0.000000 
#    z 0.000000 0.000000 1.798300 
# 
# From -- ./inp_files/5650.got.cif
#   From: 2010.05.17/outbox.cif.g08.bks.cpg/sg55_3_cif.got.tgz:5650.got - 2010.06.03 13:27:54.
