data_PCOD9428075
_publ_section_title
;
Structure prediction by ZEFSAII (Michael W. Deem and Ramdas Pophale) SiO2 
 PCOD9428075
Probable space group: P B A M
;
_chemical_formula_sum "Si O2"
_cell_formula_units_Z 28
_cell_length_a 18.253881
_cell_length_b 8.247065
_cell_length_c 7.450758
_cell_angle_alpha 90.000000
_cell_angle_beta 90.000000
_cell_angle_gamma 90.000000
_cell_volume 1121.644136
_symmetry_space_group_name_H-M "P B A M"
_symmetry_group_IT_number 55
_symmetry_cell_setting 'orthorhombic'
loop_
_space_group_symop_operation_xyz
x,y,z
-x,-y,z
1/2+x,1/2-y,-z
1/2-x,1/2+y,-z
-x,-y,-z
x,y,-z
1/2-x,1/2+y,z
1/2+x,1/2-y,z
loop_
_atom_site_type_symbol
_atom_site_label
_atom_site_fract_x
_atom_site_fract_y
_atom_site_fract_z
Si Si1 0.654095 0.616975 0.279798
Si Si2 0.500000 0.500000 0.252614
Si Si3 0.188790 0.514674 0.284222
Si Si4 0.956006 0.660092 0.790432
O O1 0.645065 0.604313 0.500000
O O2 0.582564 0.541822 0.190446
O O3 0.728910 0.526868 0.228664
O O4 0.663695 0.805599 0.231280
O O5 0.480691 0.682391 0.316609
O O6 0.188768 0.510563 0.500000
O O7 0.129219 0.383788 0.223415
O O8 0.000000 0.500000 0.732273
O O9 0.974069 0.692042 0.000000
#
# Coordination Sequence:
#
# PCOD9428075 Si02
#       4
#     8   4   8   8
#     4  10  21  37  63  96 130 165 210 263 318 375
#     4  12  22  40  66  94 129 168 211 256 319 376
#     4  10  21  41  64  93 128 167 212 263 315 376
#     4  11  24  43  64  91 126 165 209 261 311 373
#
# _framework density 24.963353999999999
#
# number of rings (size 3 to 8) (size 9 to 14) (size 15 to 20)
#    0.000    1.429    2.857    2.571    0.000    5.143 
#    0.000    7.143    0.000    0.000    0.000    0.000 
#    0.000    0.000    0.000    0.000    0.000    0.000 
#
# Total GULP energy -156305.124786 kJ/mol
# GULP energy per Si atom -5582.325885 kJ/mol
# Density = 2.490654 g / cm^3
# Si number density = 24.963354 Si / 1000 Ang^3
#
#
#
# Elastic Constant Matrix: (Units=GPa)
#
#
# Indices 1 2 3 4 5 6 
#
# 1 242.0444 87.9362 21.7350 0.0000 0.0000 0.0000
# 2 87.9362 205.2019 40.9170 0.0000 0.0000 0.0000
# 3 21.7350 40.9170 103.9636 0.0000 0.0000 0.0000
# 4 0.0000 0.0000 0.0000 -27.0473 0.0000 0.0000
# 5 0.0000 0.0000 0.0000 0.0000 -7.5285 0.0000
# 6 0.0000 0.0000 0.0000 0.0000 0.0000 67.8845
#
#
#
# Elastic Compliance Matrix: (Units=1/GPa)
#
#
# Indices 1 2 3 4 5 6 
#
# 1 0.004898 -0.002056 -0.000215 0.000000 0.000000 0.000000
# 2 -0.002056 0.006151 -0.001991 0.000000 0.000000 0.000000
# 3 -0.000215 -0.001991 0.010447 0.000000 0.000000 0.000000
# 4 0.000000 0.000000 0.000000 -0.036972 0.000000 0.000000
# 5 0.000000 0.000000 0.000000 0.000000 -0.132829 0.000000
# 6 0.000000 0.000000 0.000000 0.000000 0.000000 0.014731
#
#
# Mechanical properties :
#
#
# Convention : Reuss Voigt Hill
#
# Bulk Modulus (GPa) = 77.08590 94.70959 85.89775
# Shear Modulus (GPa) = -41.41598 33.36988 -4.02305
#
# Velocity S-wave (km/s) = -4.07759 3.66013 -1.27086
# Velocity P-wave (km/s) = 2.96272 7.47555 5.68602
#
# Compressibility (1/GPa) = 0.01297254
#
# Stress axis : x y z
#
# Youngs Moduli (GPa) = 204.17642 162.56562 95.71850
#
# Poissons Ratio (x) = 0.33424 0.02055
# Poissons Ratio (y) = 0.41979 0.19059
# Poissons Ratio (z) = 0.04385 0.32369
#
# Static dielectric constant tensor:
#      x y z
#    x 1.895650 0.000000 0.000000 
#    y 0.000000 1.908390 0.000000 
#    z 0.000000 0.000000 2.150600 
# 
# From -- ./inp_files/1823.got.cif
#   From: 2010.05.17/outbox.cif.g08.bks.cpg/sg55_1_cif.got.tgz:1823.got - 2010.06.03 13:27:54.
