data_PCOD9428935
_publ_section_title
;
Structure prediction by ZEFSAII (Michael W. Deem and Ramdas Pophale) SiO2 
 PCOD9428935
Probable space group: P B A M
;
_chemical_formula_sum "Si O2"
_cell_formula_units_Z 36
_cell_length_a 9.226536
_cell_length_b 9.121041
_cell_length_c 19.069116
_cell_angle_alpha 90.000000
_cell_angle_beta 90.000000
_cell_angle_gamma 90.000000
_cell_volume 1604.773149
_symmetry_space_group_name_H-M "P B A M"
_symmetry_group_IT_number 55
_symmetry_cell_setting 'orthorhombic'
loop_
_space_group_symop_operation_xyz
x,y,z
-x,-y,z
1/2+x,1/2-y,-z
1/2-x,1/2+y,-z
-x,-y,-z
x,y,-z
1/2-x,1/2+y,z
1/2+x,1/2-y,z
loop_
_atom_site_type_symbol
_atom_site_label
_atom_site_fract_x
_atom_site_fract_y
_atom_site_fract_z
Si Si1 0.868795 0.387006 0.918453
Si Si2 0.843539 0.568261 0.704775
Si Si3 0.801921 0.829549 0.391564
Si Si4 0.648026 0.578657 0.157823
Si Si5 0.935614 0.189582 0.500000
O O1 0.875404 0.242699 0.870625
O O2 0.725029 0.478818 0.901008
O O3 0.000000 0.500000 0.905313
O O4 0.873032 0.343371 0.000000
O O5 0.768612 0.471528 0.643702
O O6 0.853573 0.728356 0.672041
O O7 0.751031 0.575920 0.774843
O O8 0.000000 0.500000 0.718986
O O9 0.678633 0.750815 0.439041
O O10 0.940911 0.852823 0.440249
O O11 0.500000 0.500000 0.177335
#
# Coordination Sequence:
#
# PCOD9428935 Si02
#       5
#     8   8   8   8   4
#     4  11  25  48  77 110 150 191 237 300 365 431
#     4  12  27  48  68 100 144 188 236 295 359 428
#     4  11  25  44  73 100 139 185 236 299 366 432
#     4  12  27  44  72 108 146 195 249 298 362 436
#     4  10  24  44  70 108 134 182 240 302 370 440
#
# _framework density 22.433078999999999
#
# number of rings (size 3 to 8) (size 9 to 14) (size 15 to 20)
#    0.000    0.667    2.222    4.000    3.111   12.444 
#    0.000    0.000    0.000    0.000    0.000    0.000 
#    0.000    0.000    0.000    0.000    0.000    0.000 
#
# Total GULP energy -200648.341071 kJ/mol
# GULP energy per Si atom -5573.565030 kJ/mol
# Density = 2.238202 g / cm^3
# Si number density = 22.433079 Si / 1000 Ang^3
#
#
#
# Elastic Constant Matrix: (Units=GPa)
#
#
# Indices 1 2 3 4 5 6 
#
# 1 102.9452 40.0137 40.2410 0.0000 0.0000 0.0000
# 2 40.0137 110.0824 44.0753 0.0000 0.0000 0.0000
# 3 40.2410 44.0753 102.7974 0.0000 0.0000 0.0000
# 4 0.0000 0.0000 0.0000 232.9439 0.0000 0.0000
# 5 0.0000 0.0000 0.0000 0.0000 36.0109 0.0000
# 6 0.0000 0.0000 0.0000 0.0000 0.0000 22.7939
#
#
#
# Elastic Compliance Matrix: (Units=1/GPa)
#
#
# Indices 1 2 3 4 5 6 
#
# 1 0.012268 -0.003062 -0.003490 0.000000 0.000000 0.000000
# 2 -0.003062 0.011731 -0.003831 0.000000 0.000000 0.000000
# 3 -0.003490 -0.003831 0.012737 0.000000 0.000000 0.000000
# 4 0.000000 0.000000 0.000000 0.004293 0.000000 0.000000
# 5 0.000000 0.000000 0.000000 0.000000 0.027769 0.000000
# 6 0.000000 0.000000 0.000000 0.000000 0.000000 0.043871
#
#
# Mechanical properties :
#
#
# Convention : Reuss Voigt Hill
#
# Bulk Modulus (GPa) = 62.61693 62.72057 62.66875
# Shear Modulus (GPa) = 36.03383 71.11608 53.57495
#
# Velocity S-wave (km/s) = 4.01219 5.63651 4.89224
# Velocity P-wave (km/s) = 7.03114 8.38928 7.74006
#
# Compressibility (1/GPa) = 0.01597012
#
# Stress axis : x y z
#
# Youngs Moduli (GPa) = 81.51143 85.24367 78.51442
#
# Poissons Ratio (x) = 0.26103 0.27398
# Poissons Ratio (y) = 0.24960 0.30079
# Poissons Ratio (z) = 0.28444 0.32658
#
# Static dielectric constant tensor:
#      x y z
#    x 1.848810 0.000000 0.000000 
#    y 0.000000 1.828500 0.000000 
#    z 0.000000 0.000000 1.766950 
# 
# From -- ./inp_files/22505.got.cif
#   From: 2010.05.17/outbox.cif.g08.bks.cpg/sg55_12_cif.got.tgz:22505.got - 2010.06.03 13:27:54.
