data_PCOD9428665
_publ_section_title
;
Structure prediction by ZEFSAII (Michael W. Deem and Ramdas Pophale) SiO2 
 PCOD9428665
Probable space group: P B A M
;
_chemical_formula_sum "Si O2"
_cell_formula_units_Z 64
_cell_length_a 9.012999
_cell_length_b 16.006866
_cell_length_c 19.961026
_cell_angle_alpha 90.000000
_cell_angle_beta 90.000000
_cell_angle_gamma 90.000000
_cell_volume 2879.774571
_symmetry_space_group_name_H-M "P B A M"
_symmetry_group_IT_number 55
_symmetry_cell_setting 'orthorhombic'
loop_
_space_group_symop_operation_xyz
x,y,z
-x,-y,z
1/2+x,1/2-y,-z
1/2-x,1/2+y,-z
-x,-y,-z
x,y,-z
1/2-x,1/2+y,z
1/2+x,1/2-y,z
loop_
_atom_site_type_symbol
_atom_site_label
_atom_site_fract_x
_atom_site_fract_y
_atom_site_fract_z
Si Si1 0.940679 0.614317 0.785983
Si Si2 0.924836 0.811901 0.790998
Si Si3 0.738162 0.312988 0.926379
Si Si4 0.846748 0.084470 0.709693
Si Si5 0.184622 0.650927 0.426175
Si Si6 0.721812 0.912580 0.288975
Si Si7 0.459375 0.332922 0.574736
Si Si8 0.586135 0.135380 0.072802
O O1 0.963352 0.714621 0.793919
O O2 0.823760 0.604499 0.726814
O O3 0.094235 0.573917 0.764620
O O4 0.886762 0.585205 0.859164
O O5 0.852125 0.842357 0.860889
O O6 0.802340 0.827358 0.733167
O O7 0.063830 0.865688 0.766710
O O8 0.914194 0.331784 0.922815
O O9 0.699094 0.214006 0.926342
O O10 0.687184 0.344251 0.000000
O O11 0.896390 0.114804 0.636654
O O12 0.844200 0.984366 0.713514
O O13 0.149044 0.616643 0.500000
O O14 0.153291 0.594050 0.362351
O O15 0.100503 0.738700 0.418608
O O16 0.362181 0.665994 0.423371
O O17 0.414505 0.363398 0.500000
O O18 0.601988 0.093444 0.000000
#
# Coordination Sequence:
#
# PCOD9428665 Si02
#       8
#     8   8   8   8   8   8   8   8
#     4  11  23  40  62  89 118 163 204 248 297 358
#     4  11  21  38  64  88 115 157 203 252 293 352
#     4   9  18  32  55  88 119 150 196 256 306 346
#     4  12  26  39  59  90 126 160 198 247 301 356
#     4  10  22  40  65  92 120 156 201 248 297 355
#     4  12  24  41  59  89 127 157 196 246 305 353
#     4  10  22  41  64  91 120 157 202 247 296 355
#     4   9  18  33  56  87 119 150 197 257 305 347
#
# _framework density 22.223962
#
# number of rings (size 3 to 8) (size 9 to 14) (size 15 to 20)
#    0.000    1.500    2.500    3.000    7.000    0.500 
#    0.000    1.250    0.000    6.000    0.000    0.000 
#    0.000    0.000    0.000    0.000    0.000    0.000 
#
# Total GULP energy -357414.439209 kJ/mol
# GULP energy per Si atom -5584.600613 kJ/mol
# Density = 2.217338 g / cm^3
# Si number density = 22.223962 Si / 1000 Ang^3
#
#
#
# Elastic Constant Matrix: (Units=GPa)
#
#
# Indices 1 2 3 4 5 6 
#
# 1 36.4746 -5.9481 6.2059 0.0000 0.0000 0.0000
# 2 -5.9481 39.6293 22.8174 0.0000 0.0000 0.0000
# 3 6.2059 22.8174 144.4690 0.0000 0.0000 0.0000
# 4 0.0000 0.0000 0.0000 7.3965 0.0000 0.0000
# 5 0.0000 0.0000 0.0000 0.0000 35.3474 0.0000
# 6 0.0000 0.0000 0.0000 0.0000 0.0000 18.3537
#
#
#
# Elastic Compliance Matrix: (Units=1/GPa)
#
#
# Indices 1 2 3 4 5 6 
#
# 1 0.028673 0.005514 -0.002103 0.000000 0.000000 0.000000
# 2 0.005514 0.028819 -0.004788 0.000000 0.000000 0.000000
# 3 -0.002103 -0.004788 0.007769 0.000000 0.000000 0.000000
# 4 0.000000 0.000000 0.000000 0.135199 0.000000 0.000000
# 5 0.000000 0.000000 0.000000 0.000000 0.028291 0.000000
# 6 0.000000 0.000000 0.000000 0.000000 0.000000 0.054485
#
#
# Mechanical properties :
#
#
# Convention : Reuss Voigt Hill
#
# Bulk Modulus (GPa) = 15.99827 29.63594 22.81711
# Shear Modulus (GPa) = 16.29597 25.38603 20.84100
#
# Velocity S-wave (km/s) = 2.71082 3.38343 3.06563
# Velocity P-wave (km/s) = 4.12460 5.35047 4.77702
#
# Compressibility (1/GPa) = 0.06250676
#
# Stress axis : x y z
#
# Youngs Moduli (GPa) = 34.87562 34.69985 128.72477
#
# Poissons Ratio (x) = -0.19135 0.27066
# Poissons Ratio (y) = -0.19231 0.61640
# Poissons Ratio (z) = 0.07333 0.16616
#
# Static dielectric constant tensor:
#      x y z
#    x 1.828830 0.000000 0.000000 
#    y 0.000000 1.838220 0.000000 
#    z 0.000000 0.000000 1.860000 
# 
# From -- ./inp_files/22701.got.cif
#   From: 2010.05.17/outbox.cif.g08.bks.cpg/sg55_12_cif.got.tgz:22701.got - 2010.06.03 13:27:54.
