data_PCOD9428635
_publ_section_title
;
Structure prediction by ZEFSAII (Michael W. Deem and Ramdas Pophale) SiO2 
 PCOD9428635
Probable space group: P B A M
;
_chemical_formula_sum "Si O2"
_cell_formula_units_Z 40
_cell_length_a 8.558031
_cell_length_b 14.203176
_cell_length_c 14.488653
_cell_angle_alpha 90.000000
_cell_angle_beta 90.000000
_cell_angle_gamma 90.000000
_cell_volume 1761.113456
_symmetry_space_group_name_H-M "P B A M"
_symmetry_group_IT_number 55
_symmetry_cell_setting 'orthorhombic'
loop_
_space_group_symop_operation_xyz
x,y,z
-x,-y,z
1/2+x,1/2-y,-z
1/2-x,1/2+y,-z
-x,-y,-z
x,y,-z
1/2-x,1/2+y,z
1/2+x,1/2-y,z
loop_
_atom_site_type_symbol
_atom_site_label
_atom_site_fract_x
_atom_site_fract_y
_atom_site_fract_z
Si Si1 0.365568 0.802393 0.200477
Si Si2 0.688217 0.855913 0.892631
Si Si3 0.159321 0.949683 0.893481
Si Si4 0.270674 0.773750 0.608598
Si Si5 0.040143 0.103727 0.609567
O O1 0.318673 0.697890 0.167399
O O2 0.520532 0.831371 0.147917
O O3 0.219675 0.864353 0.166060
O O4 0.376013 0.817322 0.310101
O O5 0.714196 0.967270 0.889575
O O6 0.702965 0.826805 0.000000
O O7 0.139377 0.918907 0.000000
O O8 0.000000 0.000000 0.865300
O O9 0.311413 0.789455 0.500000
O O10 0.102542 0.822349 0.623946
O O11 0.300115 0.662171 0.628613
O O12 0.047767 0.089824 0.500000
O O13 0.000000 0.000000 0.649571
#
# Coordination Sequence:
#
# PCOD9428635 Si02
#       5
#     8   8   8   8   8
#     4  12  23  38  62  90 123 163 206 253 315 381
#     4  11  23  39  61  90 123 159 202 255 315 381
#     4  10  22  41  64  90 122 160 204 258 318 384
#     4  10  22  40  62  91 126 165 217 272 320 385
#     4   9  19  39  64  87 120 166 211 266 332 385
#
# _framework density 22.712904000000002
#
# number of rings (size 3 to 8) (size 9 to 14) (size 15 to 20)
#    0.000    1.600    0.000    4.800    0.000    5.600 
#    0.000    3.000    0.000   10.800    0.000    0.000 
#    0.000    0.000    0.000    0.000    0.000    0.000 
#
# Total GULP energy -223229.190059 kJ/mol
# GULP energy per Si atom -5580.729751 kJ/mol
# Density = 2.266121 g / cm^3
# Si number density = 22.712904 Si / 1000 Ang^3
#
#
#
# Elastic Constant Matrix: (Units=GPa)
#
#
# Indices 1 2 3 4 5 6 
#
# 1 44.6285 24.4050 19.8040 0.0000 0.0000 0.0000
# 2 24.4050 111.8396 8.5084 0.0000 0.0000 0.0000
# 3 19.8040 8.5084 140.3575 0.0000 0.0000 0.0000
# 4 0.0000 0.0000 0.0000 -35.0115 0.0000 0.0000
# 5 0.0000 0.0000 0.0000 0.0000 -687.0165 0.0000
# 6 0.0000 0.0000 0.0000 0.0000 0.0000 36.1996
#
#
#
# Elastic Compliance Matrix: (Units=1/GPa)
#
#
# Indices 1 2 3 4 5 6 
#
# 1 0.027029 -0.005634 -0.003472 0.000000 0.000000 0.000000
# 2 -0.005634 0.010157 0.000179 0.000000 0.000000 0.000000
# 3 -0.003472 0.000179 0.007604 0.000000 0.000000 0.000000
# 4 0.000000 0.000000 0.000000 -0.028562 0.000000 0.000000
# 5 0.000000 0.000000 0.000000 0.000000 -0.001456 0.000000
# 6 0.000000 0.000000 0.000000 0.000000 0.000000 0.027625
#
#
# Mechanical properties :
#
#
# Convention : Reuss Voigt Hill
#
# Bulk Modulus (GPa) = 37.12508 44.69561 40.91034
# Shear Modulus (GPa) = 72.22376 -120.89182 -24.33403
#
# Velocity S-wave (km/s) = 5.64514 -7.30353 -3.27674
# Velocity P-wave (km/s) = 7.67274 7.16944 1.93262
#
# Compressibility (1/GPa) = 0.02693597
#
# Stress axis : x y z
#
# Youngs Moduli (GPa) = 36.99738 98.45281 131.51463
#
# Poissons Ratio (x) = 0.55468 0.45664
# Poissons Ratio (y) = 0.20844 -0.02357
# Poissons Ratio (z) = 0.12846 -0.01764
#
# Static dielectric constant tensor:
#      x y z
#    x 1.880100 0.000000 0.000000 
#    y 0.000000 1.880560 0.000000 
#    z 0.000000 0.000000 1.861000 
# 
# From -- ./inp_files/17052.got.cif
#   From: 2010.05.17/outbox.cif.g08.bks.cpg/sg55_9_cif.got.tgz:17052.got - 2010.06.03 13:27:54.
