data_PCOD9428625
_publ_section_title
;
Structure prediction by ZEFSAII (Michael W. Deem and Ramdas Pophale) SiO2 
 PCOD9428625
Probable space group: P B A M
;
_chemical_formula_sum "Si O2"
_cell_formula_units_Z 48
_cell_length_a 15.557801
_cell_length_b 10.169658
_cell_length_c 14.111343
_cell_angle_alpha 90.000000
_cell_angle_beta 90.000000
_cell_angle_gamma 90.000000
_cell_volume 2232.661628
_symmetry_space_group_name_H-M "P B A M"
_symmetry_group_IT_number 55
_symmetry_cell_setting 'orthorhombic'
loop_
_space_group_symop_operation_xyz
x,y,z
-x,-y,z
1/2+x,1/2-y,-z
1/2-x,1/2+y,-z
-x,-y,-z
x,y,-z
1/2-x,1/2+y,z
1/2+x,1/2-y,z
loop_
_atom_site_type_symbol
_atom_site_label
_atom_site_fract_x
_atom_site_fract_y
_atom_site_fract_z
Si Si1 0.012216 0.646323 0.246458
Si Si2 0.183808 0.290958 0.762668
Si Si3 0.399044 0.498134 0.102329
Si Si4 0.161206 0.702076 0.896093
Si Si5 0.062076 0.875974 0.608772
Si Si6 0.795924 0.973240 0.704550
O O1 0.086831 0.634428 0.166672
O O2 0.044141 0.755635 0.320933
O O3 0.000000 0.500000 0.287472
O O4 0.917350 0.696092 0.213142
O O5 0.249229 0.236400 0.843605
O O6 0.214598 0.437959 0.733520
O O7 0.205480 0.181792 0.680816
O O8 0.500000 0.500000 0.115937
O O9 0.375995 0.346691 0.092267
O O10 0.353360 0.535056 0.199557
O O11 0.378244 0.563862 0.000000
O O12 0.172882 0.639269 0.000000
O O13 0.050761 0.836339 0.500000
O O14 0.154693 0.938613 0.628953
O O15 0.000000 0.000000 0.628862
#
# Coordination Sequence:
#
# PCOD9428625 Si02
#       6
#     8   8   8   8   8   8
#     4  12  24  43  71 101 142 183 226 289 352 408
#     4  11  23  38  68  95 134 182 227 279 344 405
#     4   9  16  29  56  86 116 162 217 266 319 390
#     4  10  22  40  61  95 138 183 233 276 332 407
#     4  11  23  45  74  98 126 172 231 290 354 425
#     4  11  21  40  62  93 131 173 218 281 340 407
#
# _framework density 21.499005
#
# number of rings (size 3 to 8) (size 9 to 14) (size 15 to 20)
#    0.000    1.333    5.000    2.500    0.000    2.000 
#    0.000    5.000    0.000    0.000    0.000    0.000 
#    0.000    0.000    0.000    0.000    0.000    0.000 
#
# Total GULP energy -267430.255910 kJ/mol
# GULP energy per Si atom -5571.463665 kJ/mol
# Density = 2.145007 g / cm^3
# Si number density = 21.499005 Si / 1000 Ang^3
#
#
#
# Elastic Constant Matrix: (Units=GPa)
#
#
# Indices 1 2 3 4 5 6 
#
# 1 103.4440 41.7055 23.4586 0.0000 0.0000 0.0000
# 2 41.7055 98.7486 26.5357 0.0000 0.0000 0.0000
# 3 23.4586 26.5357 55.3104 0.0000 0.0000 0.0000
# 4 0.0000 0.0000 0.0000 9.6322 0.0000 0.0000
# 5 0.0000 0.0000 0.0000 0.0000 15.1493 0.0000
# 6 0.0000 0.0000 0.0000 0.0000 0.0000 41.4428
#
#
#
# Elastic Compliance Matrix: (Units=1/GPa)
#
#
# Indices 1 2 3 4 5 6 
#
# 1 0.012090 -0.004280 -0.003074 0.000000 0.000000 0.000000
# 2 -0.004280 0.013141 -0.004489 0.000000 0.000000 0.000000
# 3 -0.003074 -0.004489 0.021537 0.000000 0.000000 0.000000
# 4 0.000000 0.000000 0.000000 0.103819 0.000000 0.000000
# 5 0.000000 0.000000 0.000000 0.000000 0.066010 0.000000
# 6 0.000000 0.000000 0.000000 0.000000 0.000000 0.024130
#
#
# Mechanical properties :
#
#
# Convention : Reuss Voigt Hill
#
# Bulk Modulus (GPa) = 43.32532 48.98917 46.15724
# Shear Modulus (GPa) = 18.37518 24.29839 21.33678
#
# Velocity S-wave (km/s) = 2.92670 3.36551 3.15374
# Velocity P-wave (km/s) = 5.62287 6.15941 5.89725
#
# Compressibility (1/GPa) = 0.02308119
#
# Stress axis : x y z
#
# Youngs Moduli (GPa) = 82.71469 76.10003 46.43090
#
# Poissons Ratio (x) = 0.32570 0.14274
# Poissons Ratio (y) = 0.35401 0.20843
# Poissons Ratio (z) = 0.25429 0.34162
#
# Static dielectric constant tensor:
#      x y z
#    x 2.272130 0.000000 0.000000 
#    y 0.000000 1.795380 0.000000 
#    z 0.000000 0.000000 1.859910 
# 
# From -- ./inp_files/18875.got.cif
#   From: 2010.05.17/outbox.cif.g08.bks.cpg/sg55_10_cif.got.tgz:18875.got - 2010.06.03 13:27:54.
