data_PCOD9428284
_publ_section_title
;
Structure prediction by ZEFSAII (Michael W. Deem and Ramdas Pophale) SiO2 
 PCOD9428284
Probable space group: P B A M
;
_chemical_formula_sum "Si O2"
_cell_formula_units_Z 56
_cell_length_a 8.841057
_cell_length_b 20.326106
_cell_length_c 14.188625
_cell_angle_alpha 90.000000
_cell_angle_beta 90.000000
_cell_angle_gamma 90.000000
_cell_volume 2549.756381
_symmetry_space_group_name_H-M "P B A M"
_symmetry_group_IT_number 55
_symmetry_cell_setting 'orthorhombic'
loop_
_space_group_symop_operation_xyz
x,y,z
-x,-y,z
1/2+x,1/2-y,-z
1/2-x,1/2+y,-z
-x,-y,-z
x,y,-z
1/2-x,1/2+y,z
1/2+x,1/2-y,z
loop_
_atom_site_type_symbol
_atom_site_label
_atom_site_fract_x
_atom_site_fract_y
_atom_site_fract_z
Si Si1 0.750275 0.192697 0.394276
Si Si2 0.147635 0.343206 0.887441
Si Si3 0.578804 0.564115 0.647734
Si Si4 0.908979 0.328550 0.384785
Si Si5 0.300913 0.607713 0.768552
Si Si6 0.834592 0.520307 0.780797
Si Si7 0.677760 0.780212 0.113291
O O1 0.706434 0.212678 0.500000
O O2 0.864374 0.131282 0.398963
O O3 0.837760 0.257093 0.359122
O O4 0.586050 0.172288 0.353818
O O5 0.159421 0.414689 0.842977
O O6 0.282507 0.294165 0.857832
O O7 0.989212 0.307007 0.864252
O O8 0.152012 0.350063 0.000000
O O9 0.500000 0.500000 0.601389
O O10 0.463162 0.588286 0.728349
O O11 0.729626 0.535303 0.692879
O O12 0.898155 0.339826 0.500000
O O13 0.808375 0.378138 0.322181
O O14 0.236767 0.545295 0.826103
O O15 0.292622 0.671242 0.833865
O O16 0.000000 0.500000 0.750770
O O17 0.697585 0.783998 0.000000
#
# Coordination Sequence:
#
# PCOD9428284 Si02
#       7
#     8   8   8   8   8   8   8
#     4  10  21  39  62  93 128 166 216 272 328 393
#     4  10  23  41  65  94 129 169 214 272 327 388
#     4  10  24  40  59  89 126 167 218 264 329 392
#     4  10  22  39  65 100 133 169 217 269 327 388
#     4  11  23  40  65  95 129 177 212 270 324 388
#     4  11  22  41  62  91 126 166 221 266 322 395
#     4  10  23  41  63  96 128 167 215 265 323 385
#
# _framework density 21.962883000000001
#
# number of rings (size 3 to 8) (size 9 to 14) (size 15 to 20)
#    0.000    1.714    1.429    1.714    4.000    2.857 
#    0.000    2.143    0.000   10.286    0.000    0.000 
#    0.000    0.000    0.000    0.000    0.000    0.000 
#
# Total GULP energy -312607.144399 kJ/mol
# GULP energy per Si atom -5582.270436 kJ/mol
# Density = 2.191289 g / cm^3
# Si number density = 21.962883 Si / 1000 Ang^3
#
#
#
# Elastic Constant Matrix: (Units=GPa)
#
#
# Indices 1 2 3 4 5 6 
#
# 1 83.5288 53.8759 34.3071 0.0000 0.0000 0.0000
# 2 53.8759 169.1848 37.9990 0.0000 0.0000 0.0000
# 3 34.3071 37.9990 54.8572 0.0000 0.0000 0.0000
# 4 0.0000 0.0000 0.0000 0.2635 0.0000 0.0000
# 5 0.0000 0.0000 0.0000 0.0000 3.3921 0.0000
# 6 0.0000 0.0000 0.0000 0.0000 0.0000 45.6706
#
#
#
# Elastic Compliance Matrix: (Units=1/GPa)
#
#
# Indices 1 2 3 4 5 6 
#
# 1 0.017945 -0.003782 -0.008602 0.000000 0.000000 0.000000
# 2 -0.003782 0.007797 -0.003035 0.000000 0.000000 0.000000
# 3 -0.008602 -0.003035 0.025712 0.000000 0.000000 0.000000
# 4 0.000000 0.000000 0.000000 3.794401 0.000000 0.000000
# 5 0.000000 0.000000 0.000000 0.000000 0.294798 0.000000
# 6 0.000000 0.000000 0.000000 0.000000 0.000000 0.021896
#
#
# Mechanical properties :
#
#
# Convention : Reuss Voigt Hill
#
# Bulk Modulus (GPa) = 48.51336 62.21497 55.36416
# Shear Modulus (GPa) = 1.19040 21.95786 11.57413
#
# Velocity S-wave (km/s) = 0.73701 3.16535 2.29811
# Velocity P-wave (km/s) = 4.78132 6.46127 5.68371
#
# Compressibility (1/GPa) = 0.02061288
#
# Stress axis : x y z
#
# Youngs Moduli (GPa) = 55.72686 128.25618 38.89291
#
# Poissons Ratio (x) = 0.48510 0.33457
# Poissons Ratio (y) = 0.21077 0.11806
# Poissons Ratio (z) = 0.47939 0.38931
#
# Static dielectric constant tensor:
#      x y z
#    x 1.815090 0.000000 0.000000 
#    y 0.000000 1.836850 0.000000 
#    z 0.000000 0.000000 1.821390 
# 
# From -- ./inp_files/17627.got.cif
#   From: 2010.05.17/outbox.cif.g08.bks.cpg/sg55_9_cif.got.tgz:17627.got - 2010.06.03 13:27:54.
