data_PCOD9428269
_publ_section_title
;
Structure prediction by ZEFSAII (Michael W. Deem and Ramdas Pophale) SiO2 
 PCOD9428269
Probable space group: P B A M
;
_chemical_formula_sum "Si O2"
_cell_formula_units_Z 46
_cell_length_a 16.132827
_cell_length_b 4.962543
_cell_length_c 26.181858
_cell_angle_alpha 90.000000
_cell_angle_beta 90.000000
_cell_angle_gamma 90.000000
_cell_volume 2096.115564
_symmetry_space_group_name_H-M "P B A M"
_symmetry_group_IT_number 55
_symmetry_cell_setting 'orthorhombic'
loop_
_space_group_symop_operation_xyz
x,y,z
-x,-y,z
1/2+x,1/2-y,-z
1/2-x,1/2+y,-z
-x,-y,-z
x,y,-z
1/2-x,1/2+y,z
1/2+x,1/2-y,z
loop_
_atom_site_type_symbol
_atom_site_label
_atom_site_fract_x
_atom_site_fract_y
_atom_site_fract_z
Si Si1 0.693715 0.929997 0.714872
Si Si2 0.308410 0.634257 0.000000
Si Si3 0.195794 0.963958 0.439215
Si Si4 0.917131 0.130972 0.914254
Si Si5 0.302590 0.074336 0.166066
Si Si6 0.943274 0.248859 0.364600
Si Si7 0.500000 0.000000 0.000000
O O1 0.770174 0.726078 0.705081
O O2 0.672314 0.896712 0.774760
O O3 0.617107 0.855423 0.679702
O O4 0.362867 0.576867 0.050736
O O5 0.268155 0.927024 0.000000
O O6 0.181281 0.946130 0.500000
O O7 0.271861 0.761868 0.426733
O O8 0.115847 0.868581 0.408788
O O9 0.866373 0.298284 0.873038
O O10 0.000000 0.000000 0.891082
O O11 0.950369 0.333224 0.956405
O O12 0.221088 0.263096 0.158426
O O13 0.000000 0.500000 0.381701
O O14 0.000000 0.000000 0.346785
#
# Coordination Sequence:
#
# PCOD9428269 Si02
#       7
#     8   4   8   8   8   8   2
#     4  10  21  42  66  88 120 164 207 251 301 373
#     4  11  24  39  62  82 112 151 192 231 269 335
#     4  10  21  39  62  86 119 171 223 259 307 376
#     4  11  25  40  62  88 124 154 191 240 297 356
#     4  10  23  43  67  92 118 157 204 246 294 353
#     4  12  24  37  59  94 130 161 204 264 322 370
#     4  10  24  40  56  82 120 158 188 220 296 360
#
# _framework density 21.945354999999999
#
# number of rings (size 3 to 8) (size 9 to 14) (size 15 to 20)
#    0.000    1.391    0.000    5.217    7.304    1.391 
#    1.565    0.000    0.000    0.000    0.000    0.000 
#    0.000    0.000    0.000    0.000    0.000    0.000 
#
# Total GULP energy -257065.552035 kJ/mol
# GULP energy per Si atom -5588.381566 kJ/mol
# Density = 2.189541 g / cm^3
# Si number density = 21.945355 Si / 1000 Ang^3
#
#
#
# Elastic Constant Matrix: (Units=GPa)
#
#
# Indices 1 2 3 4 5 6 
#
# 1 57.2544 -17.4917 10.1898 0.0000 0.0000 0.0000
# 2 -17.4917 48.4112 -21.5387 0.0000 0.0000 0.0000
# 3 10.1898 -21.5387 63.4508 0.0000 0.0000 0.0000
# 4 0.0000 0.0000 0.0000 29.6131 0.0000 0.0000
# 5 0.0000 0.0000 0.0000 0.0000 -32.0842 0.0000
# 6 0.0000 0.0000 0.0000 0.0000 0.0000 23.2255
#
#
#
# Elastic Compliance Matrix: (Units=1/GPa)
#
#
# Indices 1 2 3 4 5 6 
#
# 1 0.019675 0.006717 -0.000879 0.000000 0.000000 0.000000
# 2 0.006717 0.026625 0.007959 0.000000 0.000000 0.000000
# 3 -0.000879 0.007959 0.018603 0.000000 0.000000 0.000000
# 4 0.000000 0.000000 0.000000 0.033769 0.000000 0.000000
# 5 0.000000 0.000000 0.000000 0.000000 -0.031168 0.000000
# 6 0.000000 0.000000 0.000000 0.000000 0.000000 0.043056
#
#
# Mechanical properties :
#
#
# Convention : Reuss Voigt Hill
#
# Bulk Modulus (GPa) = 10.81119 12.38172 11.59646
# Shear Modulus (GPa) = 43.93777 17.34800 30.64289
#
# Velocity S-wave (km/s) = 4.47939 2.81465 3.74080
# Velocity P-wave (km/s) = 5.62942 4.02707 4.89426
#
# Compressibility (1/GPa) = 0.09249672
#
# Stress axis : x y z
#
# Youngs Moduli (GPa) = 50.82685 37.55933 53.75423
#
# Poissons Ratio (x) = -0.25230 0.04727
# Poissons Ratio (y) = -0.34143 -0.42783
# Poissons Ratio (z) = 0.04469 -0.29894
#
# Static dielectric constant tensor:
#      x y z
#    x 1.818320 0.000000 0.000000 
#    y 0.000000 1.811590 0.000000 
#    z 0.000000 0.000000 1.764290 
# 
# From -- ./inp_files/23969.got.cif
#   From: 2010.05.17/outbox.cif.g08.bks.cpg/sg55_12_cif.got.tgz:23969.got - 2010.06.03 13:27:54.
