data_PCOD9428402
_publ_section_title
;
Structure prediction by ZEFSAII (Michael W. Deem and Ramdas Pophale) SiO2 
 PCOD9428402
Probable space group: P B A M
;
_chemical_formula_sum "Si O2"
_cell_formula_units_Z 52
_cell_length_a 14.720194
_cell_length_b 7.817693
_cell_length_c 19.639040
_cell_angle_alpha 90.000000
_cell_angle_beta 90.000000
_cell_angle_gamma 90.000000
_cell_volume 2260.020612
_symmetry_space_group_name_H-M "P B A M"
_symmetry_group_IT_number 55
_symmetry_cell_setting 'orthorhombic'
loop_
_space_group_symop_operation_xyz
x,y,z
-x,-y,z
1/2+x,1/2-y,-z
1/2-x,1/2+y,-z
-x,-y,-z
x,y,-z
1/2-x,1/2+y,z
1/2+x,1/2-y,z
loop_
_atom_site_type_symbol
_atom_site_label
_atom_site_fract_x
_atom_site_fract_y
_atom_site_fract_z
Si Si1 0.117936 0.866248 0.138869
Si Si2 0.373528 0.926043 0.268968
Si Si3 0.000000 0.500000 0.613696
Si Si4 0.730634 0.329796 0.076679
Si Si5 0.667928 0.674084 0.718167
Si Si6 0.555222 0.160712 0.120485
Si Si7 0.419491 0.358858 0.425661
O O1 0.186482 0.704521 0.127864
O O2 0.122002 0.921955 0.217825
O O3 0.017572 0.814195 0.116748
O O4 0.171318 0.004689 0.094844
O O5 0.275337 0.842239 0.273139
O O6 0.422856 0.868581 0.200301
O O7 0.432174 0.896278 0.336200
O O8 0.361285 0.130357 0.271250
O O9 0.952196 0.341088 0.575928
O O10 0.651354 0.188185 0.085005
O O11 0.764920 0.333197 0.000000
O O12 0.639028 0.617169 0.642908
O O13 0.500000 0.000000 0.093126
O O14 0.500000 0.500000 0.422206
O O15 0.374230 0.385621 0.500000
#
# Coordination Sequence:
#
# PCOD9428402 Si02
#       7
#     8   8   4   8   8   8   8
#     4  12  24  44  70  98 133 181 231 289 350 423
#     4  11  22  41  66 104 133 172 235 291 345 414
#     4  10  21  40  70  96 141 188 230 286 351 422
#     4  12  28  46  68 100 139 179 229 290 358 434
#     4  11  23  41  69 100 134 179 231 291 343 412
#     4  12  23  43  69  96 135 173 226 288 351 415
#     4  10  23  43  67 102 144 186 233 286 355 428
#
# _framework density 23.008641000000001
#
# number of rings (size 3 to 8) (size 9 to 14) (size 15 to 20)
#    0.000    0.769    3.846    3.923    2.154    3.385 
#    0.000    3.846    0.000    0.000    0.000    0.000 
#    0.000    0.000    0.000    0.000    0.000    0.000 
#
# Total GULP energy -290834.556914 kJ/mol
# GULP energy per Si atom -5592.972248 kJ/mol
# Density = 2.295627 g / cm^3
# Si number density = 23.008641 Si / 1000 Ang^3
#
#
#
# Elastic Constant Matrix: (Units=GPa)
#
#
# Indices 1 2 3 4 5 6 
#
# 1 88.7327 -0.0283 13.2230 0.0000 0.0000 0.0000
# 2 -0.0283 63.1081 1.8652 0.0000 0.0000 0.0000
# 3 13.2230 1.8652 138.1394 0.0000 0.0000 0.0000
# 4 0.0000 0.0000 0.0000 27.7110 0.0000 0.0000
# 5 0.0000 0.0000 0.0000 0.0000 33.7880 0.0000
# 6 0.0000 0.0000 0.0000 0.0000 0.0000 40.3504
#
#
#
# Elastic Compliance Matrix: (Units=1/GPa)
#
#
# Indices 1 2 3 4 5 6 
#
# 1 0.011433 0.000037 -0.001095 0.000000 0.000000 0.000000
# 2 0.000037 0.015852 -0.000218 0.000000 0.000000 0.000000
# 3 -0.001095 -0.000218 0.007347 0.000000 0.000000 0.000000
# 4 0.000000 0.000000 0.000000 0.036087 0.000000 0.000000
# 5 0.000000 0.000000 0.000000 0.000000 0.029596 0.000000
# 6 0.000000 0.000000 0.000000 0.000000 0.000000 0.024783
#
#
# Mechanical properties :
#
#
# Convention : Reuss Voigt Hill
#
# Bulk Modulus (GPa) = 31.17014 35.56666 33.36840
# Shear Modulus (GPa) = 36.14231 38.69792 37.42012
#
# Velocity S-wave (km/s) = 3.96765 4.10553 4.03718
# Velocity P-wave (km/s) = 5.87930 6.16160 6.02211
#
# Compressibility (1/GPa) = 0.03208198
#
# Stress axis : x y z
#
# Youngs Moduli (GPa) = 87.46634 63.08240 136.11352
#
# Poissons Ratio (x) = -0.00236 0.14903
# Poissons Ratio (y) = -0.00328 0.02962
# Poissons Ratio (z) = 0.09577 0.01373
#
# Static dielectric constant tensor:
#      x y z
#    x 1.844160 0.000000 0.000000 
#    y 0.000000 2.114160 0.000000 
#    z 0.000000 0.000000 1.850970 
# 
# From -- ./inp_files/22933.got.cif
#   From: 2010.05.17/outbox.cif.g08.bks.cpg/sg55_12_cif.got.tgz:22933.got - 2010.06.03 13:27:54.
