data_PCOD9428678
_publ_section_title
;
Structure prediction by ZEFSAII (Michael W. Deem and Ramdas Pophale) SiO2 
 PCOD9428678
Probable space group: P B A M
;
_chemical_formula_sum "Si O2"
_cell_formula_units_Z 64
_cell_length_a 34.026707
_cell_length_b 11.789635
_cell_length_c 8.571220
_cell_angle_alpha 90.000000
_cell_angle_beta 90.000000
_cell_angle_gamma 90.000000
_cell_volume 3438.451664
_symmetry_space_group_name_H-M "P B A M"
_symmetry_group_IT_number 55
_symmetry_cell_setting 'orthorhombic'
loop_
_space_group_symop_operation_xyz
x,y,z
-x,-y,z
1/2+x,1/2-y,-z
1/2-x,1/2+y,-z
-x,-y,-z
x,y,-z
1/2-x,1/2+y,z
1/2+x,1/2-y,z
loop_
_atom_site_type_symbol
_atom_site_label
_atom_site_fract_x
_atom_site_fract_y
_atom_site_fract_z
Si Si1 0.298250 0.551229 0.186785
Si Si2 0.134975 0.206783 0.686904
Si Si3 0.329872 0.305585 0.188551
Si Si4 0.863235 0.542338 0.813042
Si Si5 0.556836 0.421094 0.689934
Si Si6 0.288405 0.088292 0.685353
Si Si7 0.973208 0.166400 0.312157
Si Si8 0.908784 0.320562 0.812606
O O1 0.325694 0.653788 0.241730
O O2 0.319230 0.433168 0.233573
O O3 0.255245 0.558835 0.260239
O O4 0.294664 0.552803 0.000000
O O5 0.137143 0.199408 0.500000
O O6 0.129839 0.336499 0.736817
O O7 0.097543 0.133014 0.742745
O O8 0.299804 0.215165 0.260612
O O9 0.373397 0.264445 0.236400
O O10 0.327703 0.296528 0.000000
O O11 0.820798 0.493094 0.763999
O O12 0.894700 0.445860 0.763986
O O13 0.864489 0.552242 0.000000
O O14 0.557221 0.421835 0.500000
O O15 0.518504 0.348469 0.737537
O O16 0.548963 0.550610 0.739691
O O17 0.291771 0.079051 0.500000
O O18 0.972746 0.167723 0.500000
O O19 0.949485 0.273811 0.251656
O O20 0.910260 0.319371 0.000000
#
# Coordination Sequence:
#
# PCOD9428678 Si02
#       8
#     8   8   8   8   8   8   8   8
#     4  11  23  38  58  81 110 148 184 222 278 341
#     4  11  22  37  57  83 113 145 188 238 282 329
#     4   9  20  38  57  78 108 145 183 222 271 334
#     4  10  22  41  59  76 109 153 189 227 283 346
#     4   8  17  33  53  82 117 148 180 226 280 335
#     4  11  23  38  58  83 110 139 183 236 278 322
#     4   9  16  31  57  83 111 148 184 222 279 339
#     4   9  18  34  55  80 107 138 183 233 275 322
#
# _framework density 18.613028
#
# number of rings (size 3 to 8) (size 9 to 14) (size 15 to 20)
#    0.000    2.250    0.000    4.500    1.750    3.500 
#    0.000    3.750    0.000    3.750    0.000    0.000 
#    0.000    0.000    0.000    0.000    0.000    0.000 
#
# Total GULP energy -357305.665332 kJ/mol
# GULP energy per Si atom -5582.901021 kJ/mol
# Density = 1.857066 g / cm^3
# Si number density = 18.613028 Si / 1000 Ang^3
#
#
#
# Elastic Constant Matrix: (Units=GPa)
#
#
# Indices 1 2 3 4 5 6 
#
# 1 48.8669 -0.3263 -9.0638 0.0000 0.0000 0.0000
# 2 -0.3263 37.8047 -6.4406 0.0000 0.0000 0.0000
# 3 -9.0638 -6.4406 11.5950 0.0000 0.0000 0.0000
# 4 0.0000 0.0000 0.0000 21.2916 0.0000 0.0000
# 5 0.0000 0.0000 0.0000 0.0000 25.9063 0.0000
# 6 0.0000 0.0000 0.0000 0.0000 0.0000 14.8829
#
#
#
# Elastic Compliance Matrix: (Units=1/GPa)
#
#
# Indices 1 2 3 4 5 6 
#
# 1 0.024425 0.003826 0.021218 0.000000 0.000000 0.000000
# 2 0.003826 0.029816 0.019552 0.000000 0.000000 0.000000
# 3 0.021218 0.019552 0.113691 0.000000 0.000000 0.000000
# 4 0.000000 0.000000 0.000000 0.046967 0.000000 0.000000
# 5 0.000000 0.000000 0.000000 0.000000 0.038601 0.000000
# 6 0.000000 0.000000 0.000000 0.000000 0.000000 0.067191
#
#
# Mechanical properties :
#
#
# Convention : Reuss Voigt Hill
#
# Bulk Modulus (GPa) = 3.88921 7.40058 5.64489
# Shear Modulus (GPa) = 15.76261 20.02264 17.89263
#
# Velocity S-wave (km/s) = 2.91324 3.28339 3.10384
# Velocity P-wave (km/s) = 3.66197 4.28473 3.98553
#
# Compressibility (1/GPa) = 0.25712173
#
# Stress axis : x y z
#
# Youngs Moduli (GPa) = 40.94199 33.53936 8.79581
#
# Poissons Ratio (x) = -0.12831 -0.18663
# Poissons Ratio (y) = -0.15663 -0.17197
# Poissons Ratio (z) = -0.86870 -0.65576
#
# Static dielectric constant tensor:
#      x y z
#    x 1.631140 0.000000 0.000000 
#    y 0.000000 1.632310 0.000000 
#    z 0.000000 0.000000 1.628670 
# 
# From -- ./inp_files/10864.got.cif
#   From: 2010.05.17/outbox.cif.g08.bks.cpg/sg55_6_cif.got.tgz:10864.got - 2010.06.03 13:27:54.
