data_PCOD9428755
_publ_section_title
;
Structure prediction by ZEFSAII (Michael W. Deem and Ramdas Pophale) SiO2 
 PCOD9428755
Probable space group: P B A M
;
_chemical_formula_sum "Si O2"
_cell_formula_units_Z 28
_cell_length_a 8.775472
_cell_length_b 8.564153
_cell_length_c 15.656534
_cell_angle_alpha 90.000000
_cell_angle_beta 90.000000
_cell_angle_gamma 90.000000
_cell_volume 1176.658747
_symmetry_space_group_name_H-M "P B A M"
_symmetry_group_IT_number 55
_symmetry_cell_setting 'orthorhombic'
loop_
_space_group_symop_operation_xyz
x,y,z
-x,-y,z
1/2+x,1/2-y,-z
1/2-x,1/2+y,-z
-x,-y,-z
x,y,-z
1/2-x,1/2+y,z
1/2+x,1/2-y,z
loop_
_atom_site_type_symbol
_atom_site_label
_atom_site_fract_x
_atom_site_fract_y
_atom_site_fract_z
Si Si1 0.099988 0.156619 0.872231
Si Si2 0.881217 0.141397 0.596597
Si Si3 0.878236 0.337429 0.000000
Si Si4 0.089208 0.355027 0.292281
O O1 0.251743 0.120791 0.925536
O O2 0.130183 0.230102 0.780281
O O3 0.002192 0.280528 0.927015
O O4 0.000000 0.000000 0.865455
O O5 0.830205 0.177955 0.500000
O O6 0.740600 0.099692 0.657015
O O7 0.972781 0.282084 0.639449
O O8 0.000000 0.000000 0.593715
O O9 0.000000 0.500000 0.252322
#
# Coordination Sequence:
#
# PCOD9428755 Si02
#       4
#     8   8   4   8
#     4  11  25  45  68  99 138 178 225 283 344 405
#     4  11  25  46  71 100 137 180 228 285 348 413
#     4  10  22  42  70  96 126 172 224 276 332 396
#     4  12  26  43  68 102 139 182 232 285 344 412
#
# _framework density 23.796195000000001
#
# number of rings (size 3 to 8) (size 9 to 14) (size 15 to 20)
#    0.000    0.857    0.000    6.857    0.000   13.714 
#    0.000    8.571    0.000    0.000    0.000    0.000 
#    0.000    0.000    0.000    0.000    0.000    0.000 
#
# Total GULP energy -155957.857631 kJ/mol
# GULP energy per Si atom -5569.923487 kJ/mol
# Density = 2.374203 g / cm^3
# Si number density = 23.796195 Si / 1000 Ang^3
#
#
#
# Elastic Constant Matrix: (Units=GPa)
#
#
# Indices 1 2 3 4 5 6 
#
# 1 97.8385 36.5208 50.9147 0.0000 0.0000 0.0000
# 2 36.5208 30.8421 25.4046 0.0000 0.0000 0.0000
# 3 50.9147 25.4046 183.1321 0.0000 0.0000 0.0000
# 4 0.0000 0.0000 0.0000 28.1084 0.0000 0.0000
# 5 0.0000 0.0000 0.0000 0.0000 34.0153 0.0000
# 6 0.0000 0.0000 0.0000 0.0000 0.0000 -42.4379
#
#
#
# Elastic Compliance Matrix: (Units=1/GPa)
#
#
# Indices 1 2 3 4 5 6 
#
# 1 0.019261 -0.020770 -0.002474 0.000000 0.000000 0.000000
# 2 -0.020770 0.059003 -0.002411 0.000000 0.000000 0.000000
# 3 -0.002474 -0.002411 0.006483 0.000000 0.000000 0.000000
# 4 0.000000 0.000000 0.000000 0.035577 0.000000 0.000000
# 5 0.000000 0.000000 0.000000 0.000000 0.029399 0.000000
# 6 0.000000 0.000000 0.000000 0.000000 0.000000 -0.023564
#
#
# Mechanical properties :
#
#
# Convention : Reuss Voigt Hill
#
# Bulk Modulus (GPa) = 29.90589 59.72143 44.81366
# Shear Modulus (GPa) = 26.50938 17.20200 21.85569
#
# Velocity S-wave (km/s) = 3.34131 2.69158 3.03389
# Velocity P-wave (km/s) = 5.24219 5.90008 5.58084
#
# Compressibility (1/GPa) = 0.03343823
#
# Stress axis : x y z
#
# Youngs Moduli (GPa) = 51.91789 16.94834 154.25672
#
# Poissons Ratio (x) = 0.35202 0.38159
# Poissons Ratio (y) = 1.07833 0.37185
# Poissons Ratio (z) = 0.12843 0.04086
#
# Static dielectric constant tensor:
#      x y z
#    x 1.898130 0.000000 0.000000 
#    y 0.000000 1.999800 0.000000 
#    z 0.000000 0.000000 1.852530 
# 
# From -- ./inp_files/20580.got.cif
#   From: 2010.05.17/outbox.cif.g08.bks.cpg/sg55_11_cif.got.tgz:20580.got - 2010.06.03 13:27:54.
