data_PCOD9428207
_publ_section_title
;
Structure prediction by ZEFSAII (Michael W. Deem and Ramdas Pophale) SiO2 
 PCOD9428207
Probable space group: P B A M
;
_chemical_formula_sum "Si O2"
_cell_formula_units_Z 56
_cell_length_a 14.511454
_cell_length_b 22.127998
_cell_length_c 7.573593
_cell_angle_alpha 90.000000
_cell_angle_beta 90.000000
_cell_angle_gamma 90.000000
_cell_volume 2431.952094
_symmetry_space_group_name_H-M "P B A M"
_symmetry_group_IT_number 55
_symmetry_cell_setting 'orthorhombic'
loop_
_space_group_symop_operation_xyz
x,y,z
-x,-y,z
1/2+x,1/2-y,-z
1/2-x,1/2+y,-z
-x,-y,-z
x,y,-z
1/2-x,1/2+y,z
1/2+x,1/2-y,z
loop_
_atom_site_type_symbol
_atom_site_label
_atom_site_fract_x
_atom_site_fract_y
_atom_site_fract_z
Si Si1 0.685237 0.193882 0.209627
Si Si2 0.644910 0.538845 0.500000
Si Si3 0.443393 0.914775 0.298883
Si Si4 0.051933 0.092479 0.500000
Si Si5 0.720640 0.002919 0.204069
Si Si6 0.870826 0.243455 0.783974
Si Si7 0.353397 0.121141 0.203984
Si Si8 0.067362 0.187919 0.207621
O O1 0.619263 0.145319 0.296259
O O2 0.790049 0.198291 0.271877
O O3 0.644217 0.260900 0.230961
O O4 0.683816 0.179664 0.000000
O O5 0.597534 0.472854 0.500000
O O6 0.559234 0.584293 0.500000
O O7 0.710605 0.539942 0.671290
O O8 0.462687 0.932075 0.500000
O O9 0.540019 0.899507 0.209742
O O10 0.379654 0.965670 0.212617
O O11 0.081119 0.130350 0.328794
O O12 0.706285 0.934611 0.275298
O O13 0.751023 0.002278 0.000000
O O14 0.851718 0.311561 0.718324
O O15 0.971274 0.219642 0.737821
O O16 0.868749 0.246127 0.000000
O O17 0.324260 0.126738 0.000000
O O18 0.062990 0.172447 0.000000
#
# Coordination Sequence:
#
# PCOD9428207 Si02
#       8
#     8   4   8   4   8   8   8   8
#     4  10  21  38  62  93 131 174 222 272 328 393
#     4  11  28  52  65  98 128 170 223 288 332 391
#     4  12  24  38  61  96 138 179 218 267 332 397
#     4  11  28  48  70  90 138 169 216 282 340 391
#     4  11  25  44  71  96 127 176 229 276 330 391
#     4   9  19  37  62  93 129 168 218 272 326 391
#     4  10  21  40  64  93 129 174 219 268 329 391
#     4  10  22  42  69  99 131 173 218 267 331 401
#
# _framework density 23.026769000000002
#
# number of rings (size 3 to 8) (size 9 to 14) (size 15 to 20)
#    0.000    1.571    2.143    1.714    6.000    2.857 
#    0.000    1.429    0.000    0.000    0.000    0.000 
#    0.000    0.000    0.000    0.000    0.000    0.000 
#
# Total GULP energy -313365.734390 kJ/mol
# GULP energy per Si atom -5595.816686 kJ/mol
# Density = 2.297436 g / cm^3
# Si number density = 23.026769 Si / 1000 Ang^3
#
#
#
# Elastic Constant Matrix: (Units=GPa)
#
#
# Indices 1 2 3 4 5 6 
#
# 1 61.8676 -5.2763 -5.9482 0.0000 0.0000 0.0000
# 2 -5.2763 80.4280 18.7338 0.0000 0.0000 0.0000
# 3 -5.9482 18.7338 72.7415 0.0000 0.0000 0.0000
# 4 0.0000 0.0000 0.0000 22.7690 0.0000 0.0000
# 5 0.0000 0.0000 0.0000 0.0000 -70.6375 0.0000
# 6 0.0000 0.0000 0.0000 0.0000 0.0000 20.8913
#
#
#
# Elastic Compliance Matrix: (Units=1/GPa)
#
#
# Indices 1 2 3 4 5 6 
#
# 1 0.016341 0.000809 0.001128 0.000000 0.000000 0.000000
# 2 0.000809 0.013267 -0.003351 0.000000 0.000000 0.000000
# 3 0.001128 -0.003351 0.014702 0.000000 0.000000 0.000000
# 4 0.000000 0.000000 0.000000 0.043919 0.000000 0.000000
# 5 0.000000 0.000000 0.000000 0.000000 -0.014157 0.000000
# 6 0.000000 0.000000 0.000000 0.000000 0.000000 0.047867
#
#
# Mechanical properties :
#
#
# Convention : Reuss Voigt Hill
#
# Bulk Modulus (GPa) = 24.10596 25.56174 24.83385
# Shear Modulus (GPa) = 36.07643 8.43975 22.25809
#
# Velocity S-wave (km/s) = 3.96247 1.91655 3.11242
# Velocity P-wave (km/s) = 5.60592 4.00281 4.87077
#
# Compressibility (1/GPa) = 0.04148352
#
# Stress axis : x y z
#
# Youngs Moduli (GPa) = 61.19575 75.37493 68.01585
#
# Poissons Ratio (x) = -0.06100 -0.07671
# Poissons Ratio (y) = -0.04953 0.22789
# Poissons Ratio (z) = -0.06902 0.25255
#
# Static dielectric constant tensor:
#      x y z
#    x 1.831070 0.000000 0.000000 
#    y 0.000000 1.857730 0.000000 
#    z 0.000000 0.000000 1.851100 
# 
# From -- ./inp_files/6233.got.cif
#   From: 2010.05.17/outbox.cif.g08.bks.cpg/sg55_4_cif.got.tgz:6233.got - 2010.06.03 13:27:54.
