data_PCOD9428011
_publ_section_title
;
Structure prediction by ZEFSAII (Michael W. Deem and Ramdas Pophale) SiO2 
 PCOD9428011
Probable space group: P B A M
;
_chemical_formula_sum "Si O2"
_cell_formula_units_Z 28
_cell_length_a 5.116843
_cell_length_b 25.013506
_cell_length_c 9.873983
_cell_angle_alpha 90.000000
_cell_angle_beta 90.000000
_cell_angle_gamma 90.000000
_cell_volume 1263.772892
_symmetry_space_group_name_H-M "P B A M"
_symmetry_group_IT_number 55
_symmetry_cell_setting 'orthorhombic'
loop_
_space_group_symop_operation_xyz
x,y,z
-x,-y,z
1/2+x,1/2-y,-z
1/2-x,1/2+y,-z
-x,-y,-z
x,y,-z
1/2-x,1/2+y,z
1/2+x,1/2-y,z
loop_
_atom_site_type_symbol
_atom_site_label
_atom_site_fract_x
_atom_site_fract_y
_atom_site_fract_z
Si Si1 0.336153 0.288096 0.846675
Si Si2 0.067330 0.713671 0.500000
Si Si3 0.246156 0.537494 0.154424
Si Si4 0.889019 0.866245 0.347101
O O1 0.071006 0.254791 0.833124
O O2 0.397754 0.334759 0.740942
O O3 0.345408 0.310184 0.000000
O O4 0.278974 0.762333 0.500000
O O5 0.155554 0.675848 0.623128
O O6 0.500000 0.500000 0.156544
O O7 0.285367 0.584283 0.261865
O O8 0.000000 0.500000 0.185541
O O9 0.213582 0.558546 0.000000
O O10 0.982276 0.880677 0.500000
#
# Coordination Sequence:
#
# PCOD9428011 Si02
#       4
#     8   4   8   8
#     4  10  21  37  58  85 119 158 202 247 292 356
#     4  10  22  38  56  86 124 160 192 234 292 352
#     4  10  23  44  66  89 120 157 205 260 308 358
#     4  10  23  39  62  91 120 166 194 255 296 374
#
# _framework density 22.155881000000001
#
# number of rings (size 3 to 8) (size 9 to 14) (size 15 to 20)
#    0.857    1.143    0.000    2.571    0.000    5.714 
#    0.000    8.571    0.000    0.000    0.000    0.000 
#    0.000    0.000    0.000    0.000    0.000    0.000 
#
# Total GULP energy -156588.012420 kJ/mol
# GULP energy per Si atom -5592.429015 kJ/mol
# Density = 2.210545 g / cm^3
# Si number density = 22.155881 Si / 1000 Ang^3
#
#
#
# Elastic Constant Matrix: (Units=GPa)
#
#
# Indices 1 2 3 4 5 6 
#
# 1 103.6126 7.6422 3.3762 0.0000 0.0000 0.0000
# 2 7.6422 84.3410 68.8493 0.0000 0.0000 0.0000
# 3 3.3762 68.8493 153.7241 0.0000 0.0000 0.0000
# 4 0.0000 0.0000 0.0000 71.7480 0.0000 0.0000
# 5 0.0000 0.0000 0.0000 0.0000 18.2866 0.0000
# 6 0.0000 0.0000 0.0000 0.0000 0.0000 9.9706
#
#
#
# Elastic Compliance Matrix: (Units=1/GPa)
#
#
# Indices 1 2 3 4 5 6 
#
# 1 0.009724 -0.001114 0.000285 0.000000 0.000000 0.000000
# 2 -0.001114 0.018817 -0.008403 0.000000 0.000000 0.000000
# 3 0.000285 -0.008403 0.010263 0.000000 0.000000 0.000000
# 4 0.000000 0.000000 0.000000 0.013938 0.000000 0.000000
# 5 0.000000 0.000000 0.000000 0.000000 0.054685 0.000000
# 6 0.000000 0.000000 0.000000 0.000000 0.000000 0.100295
#
#
# Mechanical properties :
#
#
# Convention : Reuss Voigt Hill
#
# Bulk Modulus (GPa) = 49.16414 55.71257 52.43836
# Shear Modulus (GPa) = 21.46238 37.45505 29.45871
#
# Velocity S-wave (km/s) = 3.11577 4.11606 3.65034
# Velocity P-wave (km/s) = 5.93147 6.91300 6.44096
#
# Compressibility (1/GPa) = 0.02034003
#
# Stress axis : x y z
#
# Youngs Moduli (GPa) = 102.83616 53.14219 97.44147
#
# Poissons Ratio (x) = 0.05921 -0.02781
# Poissons Ratio (y) = 0.11457 0.81884
# Poissons Ratio (z) = -0.02935 0.44658
#
# Static dielectric constant tensor:
#      x y z
#    x 1.803630 0.000000 0.000000 
#    y 0.000000 1.761520 0.000000 
#    z 0.000000 0.000000 1.900940 
# 
# From -- ./inp_files/11112.got.cif
#   From: 2010.05.17/outbox.cif.g08.bks.cpg/sg55_6_cif.got.tgz:11112.got - 2010.06.03 13:27:54.
