data_PCOD9428661
_publ_section_title
;
Structure prediction by ZEFSAII (Michael W. Deem and Ramdas Pophale) SiO2 
 PCOD9428661
Probable space group: P B A M
;
_chemical_formula_sum "Si O2"
_cell_formula_units_Z 38
_cell_length_a 5.111809
_cell_length_b 18.481548
_cell_length_c 15.611529
_cell_angle_alpha 90.000000
_cell_angle_beta 90.000000
_cell_angle_gamma 90.000000
_cell_volume 1474.885829
_symmetry_space_group_name_H-M "P B A M"
_symmetry_group_IT_number 55
_symmetry_cell_setting 'orthorhombic'
loop_
_space_group_symop_operation_xyz
x,y,z
-x,-y,z
1/2+x,1/2-y,-z
1/2-x,1/2+y,-z
-x,-y,-z
x,y,-z
1/2-x,1/2+y,z
1/2+x,1/2-y,z
loop_
_atom_site_type_symbol
_atom_site_label
_atom_site_fract_x
_atom_site_fract_y
_atom_site_fract_z
Si Si1 0.745011 0.551319 0.500000
Si Si2 0.914288 0.583599 0.325516
Si Si3 0.328870 0.214232 0.898709
Si Si4 0.666552 0.074463 0.861262
Si Si5 0.500000 0.500000 0.000000
Si Si6 0.748859 0.299697 0.398862
O O1 0.500000 0.500000 0.500000
O O2 0.751760 0.595513 0.412389
O O3 0.000000 0.500000 0.500000
O O4 0.765981 0.592597 0.236546
O O5 0.000000 0.500000 0.325276
O O6 0.166873 0.634287 0.337906
O O7 0.041369 0.228635 0.861908
O O8 0.470123 0.137618 0.889940
O O9 0.292332 0.227207 0.000000
O O10 0.500000 0.000000 0.865588
O O11 0.900935 0.057815 0.925431
O O12 0.760835 0.322404 0.500000
O O13 0.478865 0.258942 0.384408
#
# Coordination Sequence:
#
# PCOD9428661 Si02
#       6
#     4   8   8   8   2   8
#     4  10  22  40  64  94 138 172 213 282 337 390
#     4  10  23  45  68 104 137 186 240 292 348 430
#     4  10  23  42  67  97 132 178 231 287 351 420
#     4  11  26  44  71 103 141 186 240 296 365 438
#     4  12  26  44  72  96 144 180 232 302 378 424
#     4  10  22  42  68 101 143 191 235 288 358 423
#
# _framework density 25.764706
#
# number of rings (size 3 to 8) (size 9 to 14) (size 15 to 20)
#    0.000    1.684    2.105    0.316    4.421    5.053 
#    3.789    0.000    0.000    0.000    0.000    0.000 
#    0.000    0.000    0.000    0.000    0.000    0.000 
#
# Total GULP energy -212312.096684 kJ/mol
# GULP energy per Si atom -5587.160439 kJ/mol
# Density = 2.570606 g / cm^3
# Si number density = 25.764706 Si / 1000 Ang^3
#
#
#
# Elastic Constant Matrix: (Units=GPa)
#
#
# Indices 1 2 3 4 5 6 
#
# 1 92.5027 24.1142 44.4825 0.0000 0.0000 0.0000
# 2 24.1142 127.0754 4.6779 0.0000 0.0000 0.0000
# 3 44.4825 4.6779 144.8130 0.0000 0.0000 0.0000
# 4 0.0000 0.0000 0.0000 -10.2937 0.0000 0.0000
# 5 0.0000 0.0000 0.0000 0.0000 -0.9754 0.0000
# 6 0.0000 0.0000 0.0000 0.0000 0.0000 45.7572
#
#
#
# Elastic Compliance Matrix: (Units=1/GPa)
#
#
# Indices 1 2 3 4 5 6 
#
# 1 0.013371 -0.002389 -0.004030 0.000000 0.000000 0.000000
# 2 -0.002389 0.008306 0.000466 0.000000 0.000000 0.000000
# 3 -0.004030 0.000466 0.008128 0.000000 0.000000 0.000000
# 4 0.000000 0.000000 0.000000 -0.097146 0.000000 0.000000
# 5 0.000000 0.000000 0.000000 0.000000 -1.025193 0.000000
# 6 0.000000 0.000000 0.000000 0.000000 0.000000 0.021854
#
#
# Mechanical properties :
#
#
# Convention : Reuss Voigt Hill
#
# Bulk Modulus (GPa) = 55.87211 56.77115 56.32163
# Shear Modulus (GPa) = -4.74921 26.30539 10.77809
#
# Velocity S-wave (km/s) = -1.35915 3.19875 2.04752
# Velocity P-wave (km/s) = 4.38971 5.97704 5.24378
#
# Compressibility (1/GPa) = 0.01789802
#
# Stress axis : x y z
#
# Youngs Moduli (GPa) = 74.78725 120.40143 123.02617
#
# Poissons Ratio (x) = 0.28764 0.49581
# Poissons Ratio (y) = 0.17867 -0.05727
# Poissons Ratio (z) = 0.30140 -0.05605
#
# Static dielectric constant tensor:
#      x y z
#    x 2.119060 0.000000 0.000000 
#    y 0.000000 2.039170 0.000000 
#    z 0.000000 0.000000 2.067460 
# 
# From -- ./inp_files/20346.got.cif
#   From: 2010.05.17/outbox.cif.g08.bks.cpg/sg55_11_cif.got.tgz:20346.got - 2010.06.03 13:27:54.
