data_PCOD9428601
_publ_section_title
;
Structure prediction by ZEFSAII (Michael W. Deem and Ramdas Pophale) SiO2 
 PCOD9428601
Probable space group: P B A M
;
_chemical_formula_sum "Si O2"
_cell_formula_units_Z 64
_cell_length_a 17.821793
_cell_length_b 12.400857
_cell_length_c 14.607462
_cell_angle_alpha 90.000000
_cell_angle_beta 90.000000
_cell_angle_gamma 90.000000
_cell_volume 3228.329538
_symmetry_space_group_name_H-M "P B A M"
_symmetry_group_IT_number 55
_symmetry_cell_setting 'orthorhombic'
loop_
_space_group_symop_operation_xyz
x,y,z
-x,-y,z
1/2+x,1/2-y,-z
1/2-x,1/2+y,-z
-x,-y,-z
x,y,-z
1/2-x,1/2+y,z
1/2+x,1/2-y,z
loop_
_atom_site_type_symbol
_atom_site_label
_atom_site_fract_x
_atom_site_fract_y
_atom_site_fract_z
Si Si1 0.959985 0.760921 0.711169
Si Si2 0.814167 0.959764 0.897317
Si Si3 0.390422 0.302495 0.391676
Si Si4 0.862606 0.501177 0.102182
Si Si5 0.362253 0.527390 0.701721
Si Si6 0.408869 0.752628 0.901987
Si Si7 0.915049 0.524584 0.697053
Si Si8 0.213704 0.610483 0.607643
O O1 0.921282 0.875395 0.690273
O O2 0.967501 0.758413 0.820699
O O3 0.909119 0.655027 0.693109
O O4 0.037910 0.753256 0.659360
O O5 0.724417 0.968416 0.889260
O O6 0.853106 0.009741 0.807676
O O7 0.844266 0.837037 0.891950
O O8 0.833949 0.000310 0.000000
O O9 0.402934 0.297918 0.500000
O O10 0.381160 0.424165 0.358394
O O11 0.317417 0.229968 0.371729
O O12 0.870962 0.630622 0.099344
O O13 0.903469 0.477526 0.198935
O O14 0.889722 0.462971 0.000000
O O15 0.283549 0.576748 0.668877
O O16 0.445867 0.736342 0.000000
O O17 0.854412 0.469309 0.632614
O O18 0.000000 0.500000 0.669500
O O19 0.232408 0.603349 0.500000
#
# Coordination Sequence:
#
# PCOD9428601 Si02
#       8
#     8   8   8   8   8   8   8   8
#     4  10  22  39  64  91 118 162 200 244 310 364
#     4   9  17  32  55  84 117 155 194 236 292 356
#     4  11  25  44  63  88 122 157 204 257 305 366
#     4   9  17  31  53  83 117 154 196 242 295 353
#     4  11  23  40  65  91 124 157 201 252 307 361
#     4   8  16  31  54  84 118 154 196 242 293 358
#     4  11  21  39  61  85 120 160 200 250 303 361
#     4  11  25  42  61  88 118 157 204 255 304 358
#
# _framework density 19.824494000000001
#
# number of rings (size 3 to 8) (size 9 to 14) (size 15 to 20)
#    0.000    2.000    2.500    0.750    1.750    3.500 
#    0.000    0.625    0.000    3.750    0.000    0.000 
#    0.000    0.000    0.000    0.000    0.000    0.000 
#
# Total GULP energy -356840.854026 kJ/mol
# GULP energy per Si atom -5575.638344 kJ/mol
# Density = 1.977937 g / cm^3
# Si number density = 19.824494 Si / 1000 Ang^3
#
#
#
# Elastic Constant Matrix: (Units=GPa)
#
#
# Indices 1 2 3 4 5 6 
#
# 1 32.9468 -3.9248 21.5476 0.0000 0.0000 0.0000
# 2 -3.9248 60.9641 27.4555 0.0000 0.0000 0.0000
# 3 21.5476 27.4555 72.8598 0.0000 0.0000 0.0000
# 4 0.0000 0.0000 0.0000 21.6801 0.0000 0.0000
# 5 0.0000 0.0000 0.0000 0.0000 22.6648 0.0000
# 6 0.0000 0.0000 0.0000 0.0000 0.0000 19.0152
#
#
#
# Elastic Compliance Matrix: (Units=1/GPa)
#
#
# Indices 1 2 3 4 5 6 
#
# 1 0.042179 0.010036 -0.016256 0.000000 0.000000 0.000000
# 2 0.010036 0.022144 -0.011313 0.000000 0.000000 0.000000
# 3 -0.016256 -0.011313 0.022796 0.000000 0.000000 0.000000
# 4 0.000000 0.000000 0.000000 0.046125 0.000000 0.000000
# 5 0.000000 0.000000 0.000000 0.000000 0.044121 0.000000
# 6 0.000000 0.000000 0.000000 0.000000 0.000000 0.052589
#
#
# Mechanical properties :
#
#
# Convention : Reuss Voigt Hill
#
# Bulk Modulus (GPa) = 19.21077 28.54749 23.87913
# Shear Modulus (GPa) = 17.70721 20.78483 19.24602
#
# Velocity S-wave (km/s) = 2.99189 3.24148 3.11918
# Velocity P-wave (km/s) = 4.65259 5.33301 5.00438
#
# Compressibility (1/GPa) = 0.05205413
#
# Stress axis : x y z
#
# Youngs Moduli (GPa) = 23.70831 45.15911 43.86827
#
# Poissons Ratio (x) = -0.45324 0.71313
# Poissons Ratio (y) = -0.23795 0.49627
# Poissons Ratio (z) = 0.38541 0.51087
#
# Static dielectric constant tensor:
#      x y z
#    x 1.664930 0.000000 0.000000 
#    y 0.000000 1.708570 0.000000 
#    z 0.000000 0.000000 1.742180 
# 
# From -- ./inp_files/19488.got.cif
#   From: 2010.05.17/outbox.cif.g08.bks.cpg/sg55_10_cif.got.tgz:19488.got - 2010.06.03 13:27:54.
