data_PCOD9428599
_publ_section_title
;
Structure prediction by ZEFSAII (Michael W. Deem and Ramdas Pophale) SiO2 
 PCOD9428599
Probable space group: P B A M
;
_chemical_formula_sum "Si O2"
_cell_formula_units_Z 28
_cell_length_a 18.413920
_cell_length_b 5.136166
_cell_length_c 10.863354
_cell_angle_alpha 90.000000
_cell_angle_beta 90.000000
_cell_angle_gamma 90.000000
_cell_volume 1027.422886
_symmetry_space_group_name_H-M "P B A M"
_symmetry_group_IT_number 55
_symmetry_cell_setting 'orthorhombic'
loop_
_space_group_symop_operation_xyz
x,y,z
-x,-y,z
1/2+x,1/2-y,-z
1/2-x,1/2+y,-z
-x,-y,-z
x,y,-z
1/2-x,1/2+y,z
1/2+x,1/2-y,z
loop_
_atom_site_type_symbol
_atom_site_label
_atom_site_fract_x
_atom_site_fract_y
_atom_site_fract_z
Si Si1 0.918206 0.892806 0.864341
Si Si2 0.208104 0.854297 0.353464
Si Si3 0.914091 0.527071 0.635732
Si Si4 0.199846 0.823898 0.000000
O O1 0.899214 0.706199 0.752589
O O2 0.920030 0.755460 0.000000
O O3 0.855686 0.109580 0.888270
O O4 0.000000 0.000000 0.846292
O O5 0.221256 0.879372 0.500000
O O6 0.243090 0.117189 0.303140
O O7 0.125741 0.748991 0.350289
O O8 0.891189 0.632883 0.500000
O O9 0.000000 0.500000 0.632587
O O10 0.262757 0.044257 0.000000
#
# Coordination Sequence:
#
# PCOD9428599 Si02
#       4
#     8   8   8   4
#     4   9  22  44  65  99 136 185 228 279 349 420
#     4   9  19  37  60  88 127 173 218 269 334 399
#     4  10  22  39  64 101 138 181 234 286 339 410
#     4  10  23  44  73 106 136 174 234 296 343 408
#
# _framework density 27.252652000000001
#
# number of rings (size 3 to 8) (size 9 to 14) (size 15 to 20)
#    0.857    1.714    0.000    0.000    0.000    8.000 
#    0.000    5.714    0.000    0.000    0.000    0.000 
#    0.000    0.000    0.000    0.000    0.000    0.000 
#
# Total GULP energy -156761.819437 kJ/mol
# GULP energy per Si atom -5598.636408 kJ/mol
# Density = 2.719062 g / cm^3
# Si number density = 27.252652 Si / 1000 Ang^3
#
#
#
# Elastic Constant Matrix: (Units=GPa)
#
#
# Indices 1 2 3 4 5 6 
#
# 1 205.2809 29.3980 -13.0750 0.0000 0.0000 0.0000
# 2 29.3980 112.1806 25.4931 0.0000 0.0000 0.0000
# 3 -13.0750 25.4931 170.5389 0.0000 0.0000 0.0000
# 4 0.0000 0.0000 0.0000 78.8733 0.0000 0.0000
# 5 0.0000 0.0000 0.0000 0.0000 7.0047 0.0000
# 6 0.0000 0.0000 0.0000 0.0000 0.0000 44.6580
#
#
#
# Elastic Compliance Matrix: (Units=1/GPa)
#
#
# Indices 1 2 3 4 5 6 
#
# 1 0.005123 -0.001482 0.000614 0.000000 0.000000 0.000000
# 2 -0.001482 0.009656 -0.001557 0.000000 0.000000 0.000000
# 3 0.000614 -0.001557 0.006144 0.000000 0.000000 0.000000
# 4 0.000000 0.000000 0.000000 0.012679 0.000000 0.000000
# 5 0.000000 0.000000 0.000000 0.000000 0.142761 0.000000
# 6 0.000000 0.000000 0.000000 0.000000 0.000000 0.022392
#
#
# Mechanical properties :
#
#
# Convention : Reuss Voigt Hill
#
# Bulk Modulus (GPa) = 62.21597 63.51472 62.86534
# Shear Modulus (GPa) = 23.92775 55.85282 39.89029
#
# Velocity S-wave (km/s) = 2.96632 4.53199 3.83001
# Velocity P-wave (km/s) = 5.88311 7.12332 6.53271
#
# Compressibility (1/GPa) = 0.01607304
#
# Stress axis : x y z
#
# Youngs Moduli (GPa) = 195.20786 103.55780 162.77017
#
# Poissons Ratio (x) = 0.15348 -0.09999
# Poissons Ratio (y) = 0.28931 0.25345
# Poissons Ratio (z) = -0.11992 0.16125
#
# Static dielectric constant tensor:
#      x y z
#    x 2.119690 0.000000 0.000000 
#    y 0.000000 2.116650 0.000000 
#    z 0.000000 0.000000 2.331350 
# 
# From -- ./inp_files/15093.got.cif
#   From: 2010.05.17/outbox.cif.g08.bks.cpg/sg55_8_cif.got.tgz:15093.got - 2010.06.03 13:27:54.
