data_PCOD9428627
_publ_section_title
;
Structure prediction by ZEFSAII (Michael W. Deem and Ramdas Pophale) SiO2 
 PCOD9428627
Probable space group: P B A M
;
_chemical_formula_sum "Si O2"
_cell_formula_units_Z 58
_cell_length_a 13.018901
_cell_length_b 27.279231
_cell_length_c 7.386962
_cell_angle_alpha 90.000000
_cell_angle_beta 90.000000
_cell_angle_gamma 90.000000
_cell_volume 2623.447109
_symmetry_space_group_name_H-M "P B A M"
_symmetry_group_IT_number 55
_symmetry_cell_setting 'orthorhombic'
loop_
_space_group_symop_operation_xyz
x,y,z
-x,-y,z
1/2+x,1/2-y,-z
1/2-x,1/2+y,-z
-x,-y,-z
x,y,-z
1/2-x,1/2+y,z
1/2+x,1/2-y,z
loop_
_atom_site_type_symbol
_atom_site_label
_atom_site_fract_x
_atom_site_fract_y
_atom_site_fract_z
Si Si1 0.175277 0.063639 0.218667
Si Si2 0.262794 0.455964 0.780330
Si Si3 0.532622 0.076978 0.219332
Si Si4 0.985069 0.313838 0.795924
Si Si5 0.500000 0.000000 0.500000
Si Si6 0.757655 0.331299 0.290228
Si Si7 0.043000 0.893172 0.221355
Si Si8 0.964256 0.790771 0.790479
O O1 0.243583 0.110211 0.271418
O O2 0.058406 0.076247 0.275262
O O3 0.212670 0.010893 0.283091
O O4 0.175498 0.062304 0.000000
O O5 0.149503 0.438196 0.731589
O O6 0.352890 0.419355 0.720733
O O7 0.265365 0.456555 0.000000
O O8 0.515411 0.133061 0.277742
O O9 0.467599 0.039721 0.339119
O O10 0.515855 0.072417 0.000000
O O11 0.861887 0.313889 0.799941
O O12 0.020816 0.262971 0.708826
O O13 0.028553 0.314527 0.000000
O O14 0.764193 0.318604 0.500000
O O15 0.654151 0.307188 0.214867
O O16 0.026700 0.837314 0.284932
O O17 0.042357 0.892302 0.000000
O O18 0.997235 0.786417 0.000000
#
# Coordination Sequence:
#
# PCOD9428627 Si02
#       8
#     8   8   8   8   2   8   8   8
#     4   9  17  31  54  81 112 152 198 241 289 354
#     4   9  17  31  54  85 118 151 193 248 302 357
#     4  10  24  41  62  92 121 159 206 251 303 365
#     4  10  22  40  62  87 116 152 200 253 297 357
#     4  12  26  44  64  82 126 168 198 260 298 370
#     4  11  23  36  56  84 117 155 195 242 300 362
#     4   8  14  28  55  87 113 144 190 243 296 352
#     4   9  19  38  63  87 113 151 199 247 299 357
#
# _framework density 22.108315000000001
#
# number of rings (size 3 to 8) (size 9 to 14) (size 15 to 20)
#    0.000    2.483    0.000    2.690    2.897    3.310 
#    0.000    4.138    6.069    3.310    0.000    0.000 
#    0.000    0.000    0.000    0.000    0.000    0.000 
#
# Total GULP energy -323406.782666 kJ/mol
# GULP energy per Si atom -5575.979011 kJ/mol
# Density = 2.205800 g / cm^3
# Si number density = 22.108315 Si / 1000 Ang^3
#
#
#
# Elastic Constant Matrix: (Units=GPa)
#
#
# Indices 1 2 3 4 5 6 
#
# 1 69.6539 57.3737 -3.0055 0.0000 0.0000 0.0000
# 2 57.3737 194.0824 11.2282 0.0000 0.0000 0.0000
# 3 -3.0055 11.2282 93.4974 0.0000 0.0000 0.0000
# 4 0.0000 0.0000 0.0000 75.5493 0.0000 0.0000
# 5 0.0000 0.0000 0.0000 0.0000 168.9688 0.0000
# 6 0.0000 0.0000 0.0000 0.0000 0.0000 21.6156
#
#
#
# Elastic Compliance Matrix: (Units=1/GPa)
#
#
# Indices 1 2 3 4 5 6 
#
# 1 0.019134 -0.005732 0.001303 0.000000 0.000000 0.000000
# 2 -0.005732 0.006905 -0.001014 0.000000 0.000000 0.000000
# 3 0.001303 -0.001014 0.010859 0.000000 0.000000 0.000000
# 4 0.000000 0.000000 0.000000 0.013236 0.000000 0.000000
# 5 0.000000 0.000000 0.000000 0.000000 0.005918 0.000000
# 6 0.000000 0.000000 0.000000 0.000000 0.000000 0.046263
#
#
# Mechanical properties :
#
#
# Convention : Reuss Voigt Hill
#
# Bulk Modulus (GPa) = 38.43937 54.26959 46.35448
# Shear Modulus (GPa) = 41.02672 72.66921 56.84796
#
# Velocity S-wave (km/s) = 4.31247 5.73942 5.07634
# Velocity P-wave (km/s) = 6.49778 8.27779 7.44120
#
# Compressibility (1/GPa) = 0.02601500
#
# Stress axis : x y z
#
# Youngs Moduli (GPa) = 52.26252 144.81254 92.08862
#
# Poissons Ratio (x) = 0.83003 -0.12003
# Poissons Ratio (y) = 0.29956 0.09333
# Poissons Ratio (z) = -0.06812 0.14677
#
# Static dielectric constant tensor:
#      x y z
#    x 1.791950 0.000000 0.000000 
#    y 0.000000 1.816110 0.000000 
#    z 0.000000 0.000000 1.861980 
# 
# From -- ./inp_files/4304.got.cif
#   From: 2010.05.17/outbox.cif.g08.bks.cpg/sg55_3_cif.got.tgz:4304.got - 2010.06.03 13:27:54.
