data_PCOD9428918
_publ_section_title
;
Structure prediction by ZEFSAII (Michael W. Deem and Ramdas Pophale) SiO2 
 PCOD9428918
Probable space group: P B A M
;
_chemical_formula_sum "Si O2"
_cell_formula_units_Z 34
_cell_length_a 28.602727
_cell_length_b 5.000116
_cell_length_c 9.771454
_cell_angle_alpha 90.000000
_cell_angle_beta 90.000000
_cell_angle_gamma 90.000000
_cell_volume 1397.483577
_symmetry_space_group_name_H-M "P B A M"
_symmetry_group_IT_number 55
_symmetry_cell_setting 'orthorhombic'
loop_
_space_group_symop_operation_xyz
x,y,z
-x,-y,z
1/2+x,1/2-y,-z
1/2-x,1/2+y,-z
-x,-y,-z
x,y,-z
1/2-x,1/2+y,z
1/2+x,1/2-y,z
loop_
_atom_site_type_symbol
_atom_site_label
_atom_site_fract_x
_atom_site_fract_y
_atom_site_fract_z
Si Si1 0.778191 0.965261 0.299375
Si Si2 0.080734 0.732773 0.500000
Si Si3 0.143564 0.228824 0.500000
Si Si4 0.813015 0.041340 0.000000
Si Si5 0.000000 0.000000 0.000000
Si Si6 0.452660 0.158266 0.800207
Si Si7 0.623991 0.046813 0.000000
O O1 0.736707 0.763268 0.339144
O O2 0.824548 0.854460 0.371006
O O3 0.785227 0.973645 0.137080
O O4 0.125094 0.530565 0.500000
O O5 0.052738 0.682076 0.360820
O O6 0.098819 0.035664 0.500000
O O7 0.857342 0.844616 0.000000
O O8 0.832176 0.343323 0.000000
O O9 0.038997 0.933336 0.879902
O O10 0.408003 0.019067 0.868516
O O11 0.500000 0.000000 0.841068
#
# Coordination Sequence:
#
# PCOD9428918 Si02
#       7
#     8   4   4   4   2   8   4
#     4  12  24  43  70  98 135 179 227 280 339 415
#     4  12  27  46  72 102 145 179 232 298 344 411
#     4  12  26  47  68 104 137 183 228 280 359 410
#     4  12  24  42  65 102 135 175 228 284 346 401
#     4  10  24  42  72  92 138 170 242 264 346 404
#     4  11  26  44  70 102 136 190 237 287 349 411
#     4  11  24  41  67  95 140 181 224 288 345 409
#
# _framework density 24.329446000000001
#
# number of rings (size 3 to 8) (size 9 to 14) (size 15 to 20)
#    0.000    0.471    0.000    8.824    9.882    0.471 
#    0.000    0.000    0.000    0.000    0.000    0.000 
#    0.000    0.000    0.000    0.000    0.000    0.000 
#
# Total GULP energy -190090.941488 kJ/mol
# GULP energy per Si atom -5590.910044 kJ/mol
# Density = 2.427407 g / cm^3
# Si number density = 24.329446 Si / 1000 Ang^3
#
#
#
# Elastic Constant Matrix: (Units=GPa)
#
#
# Indices 1 2 3 4 5 6 
#
# 1 61.6875 3.8862 21.1151 0.0000 0.0000 0.0000
# 2 3.8862 64.1907 -3.6710 0.0000 0.0000 0.0000
# 3 21.1151 -3.6710 203.2410 0.0000 0.0000 0.0000
# 4 0.0000 0.0000 0.0000 3.4513 0.0000 0.0000
# 5 0.0000 0.0000 0.0000 0.0000 120.8462 0.0000
# 6 0.0000 0.0000 0.0000 0.0000 0.0000 60.4585
#
#
#
# Elastic Compliance Matrix: (Units=1/GPa)
#
#
# Indices 1 2 3 4 5 6 
#
# 1 0.016889 -0.001124 -0.001775 0.000000 0.000000 0.000000
# 2 -0.001124 0.015669 0.000400 0.000000 0.000000 0.000000
# 3 -0.001775 0.000400 0.005112 0.000000 0.000000 0.000000
# 4 0.000000 0.000000 0.000000 0.289745 0.000000 0.000000
# 5 0.000000 0.000000 0.000000 0.000000 0.008275 0.000000
# 6 0.000000 0.000000 0.000000 0.000000 0.000000 0.016540
#
#
# Mechanical properties :
#
#
# Convention : Reuss Voigt Hill
#
# Bulk Modulus (GPa) = 30.60704 41.30886 35.95795
# Shear Modulus (GPa) = 13.58255 57.47048 35.52651
#
# Velocity S-wave (km/s) = 2.36535 4.86550 3.82544
# Velocity P-wave (km/s) = 4.47967 6.96993 5.85864
#
# Compressibility (1/GPa) = 0.03267222
#
# Stress axis : x y z
#
# Youngs Moduli (GPa) = 59.20978 63.81830 195.62228
#
# Poissons Ratio (x) = 0.07173 0.34722
# Poissons Ratio (y) = 0.06655 -0.07821
# Poissons Ratio (z) = 0.10509 -0.02551
#
# Static dielectric constant tensor:
#      x y z
#    x 1.888050 0.000000 0.000000 
#    y 0.000000 2.004760 0.000000 
#    z 0.000000 0.000000 1.389300 
# 
# From -- ./inp_files/10377.got.cif
#   From: 2010.05.17/outbox.cif.g08.bks.cpg/sg55_6_cif.got.tgz:10377.got - 2010.06.03 13:27:54.
