data_PCOD9428866
_publ_section_title
;
Structure prediction by ZEFSAII (Michael W. Deem and Ramdas Pophale) SiO2 
 PCOD9428866
Probable space group: P B A M
;
_chemical_formula_sum "Si O2"
_cell_formula_units_Z 64
_cell_length_a 12.791209
_cell_length_b 11.105040
_cell_length_c 21.988802
_cell_angle_alpha 90.000000
_cell_angle_beta 90.000000
_cell_angle_gamma 90.000000
_cell_volume 3123.440886
_symmetry_space_group_name_H-M "P B A M"
_symmetry_group_IT_number 55
_symmetry_cell_setting 'orthorhombic'
loop_
_space_group_symop_operation_xyz
x,y,z
-x,-y,z
1/2+x,1/2-y,-z
1/2-x,1/2+y,-z
-x,-y,-z
x,y,-z
1/2-x,1/2+y,z
1/2+x,1/2-y,z
loop_
_atom_site_type_symbol
_atom_site_label
_atom_site_fract_x
_atom_site_fract_y
_atom_site_fract_z
Si Si1 0.745218 0.975693 0.851773
Si Si2 0.580982 0.849968 0.234813
Si Si3 0.401033 0.079468 0.628242
Si Si4 0.557902 0.121364 0.873253
Si Si5 0.016598 0.819687 0.569846
Si Si6 0.931105 0.880945 0.072586
Si Si7 0.835642 0.976794 0.613139
Si Si8 0.108190 0.931172 0.254099
O O1 0.665119 0.888162 0.816255
O O2 0.817237 0.906877 0.899451
O O3 0.678300 0.084647 0.880132
O O4 0.817446 0.030317 0.799921
O O5 0.599811 0.919209 0.297921
O O6 0.472102 0.870443 0.198698
O O7 0.590827 0.710684 0.251501
O O8 0.429271 0.211076 0.604490
O O9 0.500000 0.000000 0.608606
O O10 0.287208 0.042258 0.602986
O O11 0.531361 0.251373 0.901236
O O12 0.500000 0.000000 0.897398
O O13 0.992507 0.791063 0.500000
O O14 0.101920 0.927037 0.572331
O O15 0.909521 0.859779 0.603703
O O16 0.928872 0.872523 0.000000
O O17 0.000000 0.000000 0.088683
O O18 0.847264 0.025974 0.681450
O O19 0.000000 0.000000 0.246063
#
# Coordination Sequence:
#
# PCOD9428866 Si02
#       8
#     8   8   8   8   8   8   8   8
#     4  11  22  39  64  98 132 175 218 281 344 405
#     4  11  22  40  64  97 138 169 210 276 345 412
#     4  12  26  43  70 105 139 173 229 288 347 415
#     4  10  23  43  66  98 137 177 224 281 354 415
#     4  11  26  49  71  94 135 187 233 283 344 411
#     4  11  25  45  67  95 134 182 234 285 335 409
#     4  11  23  45  68 101 134 179 226 286 349 417
#     4  12  21  36  63  95 131 173 221 268 344 411
#
# _framework density 20.490223
#
# number of rings (size 3 to 8) (size 9 to 14) (size 15 to 20)
#    0.000    0.875    3.750    4.500    1.750    3.000 
#    0.000    4.375    0.000    0.000    0.000    0.000 
#    0.000    0.000    0.000    0.000    0.000    0.000 
#
# Total GULP energy -357416.697131 kJ/mol
# GULP energy per Si atom -5584.635893 kJ/mol
# Density = 2.044359 g / cm^3
# Si number density = 20.490223 Si / 1000 Ang^3
#
#
#
# Elastic Constant Matrix: (Units=GPa)
#
#
# Indices 1 2 3 4 5 6 
#
# 1 132.3334 55.2072 10.7020 0.0000 0.0000 0.0000
# 2 55.2072 112.9981 30.6571 0.0000 0.0000 0.0000
# 3 10.7020 30.6571 64.5446 0.0000 0.0000 0.0000
# 4 0.0000 0.0000 0.0000 10.4938 0.0000 0.0000
# 5 0.0000 0.0000 0.0000 0.0000 14.2937 0.0000
# 6 0.0000 0.0000 0.0000 0.0000 0.0000 20.6655
#
#
#
# Elastic Compliance Matrix: (Units=1/GPa)
#
#
# Indices 1 2 3 4 5 6 
#
# 1 0.009521 -0.004848 0.000724 0.000000 0.000000 0.000000
# 2 -0.004848 0.012627 -0.005194 0.000000 0.000000 0.000000
# 3 0.000724 -0.005194 0.017840 0.000000 0.000000 0.000000
# 4 0.000000 0.000000 0.000000 0.095294 0.000000 0.000000
# 5 0.000000 0.000000 0.000000 0.000000 0.069961 0.000000
# 6 0.000000 0.000000 0.000000 0.000000 0.000000 0.048390
#
#
# Mechanical properties :
#
#
# Convention : Reuss Voigt Hill
#
# Bulk Modulus (GPa) = 46.83276 55.88986 51.36131
# Shear Modulus (GPa) = 17.89638 23.31125 20.60381
#
# Velocity S-wave (km/s) = 2.95856 3.37661 3.17447
# Velocity P-wave (km/s) = 5.88018 6.52208 6.20943
#
# Compressibility (1/GPa) = 0.02135258
#
# Stress axis : x y z
#
# Youngs Moduli (GPa) = 105.03583 79.19328 56.05359
#
# Poissons Ratio (x) = 0.38392 -0.04058
# Poissons Ratio (y) = 0.50920 0.29113
# Poissons Ratio (z) = -0.07605 0.41132
#
# Static dielectric constant tensor:
#      x y z
#    x 1.748440 0.000000 0.000000 
#    y 0.000000 1.870760 0.000000 
#    z 0.000000 0.000000 1.711590 
# 
# From -- ./inp_files/23569.got.cif
#   From: 2010.05.17/outbox.cif.g08.bks.cpg/sg55_12_cif.got.tgz:23569.got - 2010.06.03 13:27:54.
