data_PCOD9428045
_publ_section_title
;
Structure prediction by ZEFSAII (Michael W. Deem and Ramdas Pophale) SiO2 
 PCOD9428045
Probable space group: P B A M
;
_chemical_formula_sum "Si O2"
_cell_formula_units_Z 64
_cell_length_a 16.353459
_cell_length_b 17.109345
_cell_length_c 11.570910
_cell_angle_alpha 90.000000
_cell_angle_beta 90.000000
_cell_angle_gamma 90.000000
_cell_volume 3237.505581
_symmetry_space_group_name_H-M "P B A M"
_symmetry_group_IT_number 55
_symmetry_cell_setting 'orthorhombic'
loop_
_space_group_symop_operation_xyz
x,y,z
-x,-y,z
1/2+x,1/2-y,-z
1/2-x,1/2+y,-z
-x,-y,-z
x,y,-z
1/2-x,1/2+y,z
1/2+x,1/2-y,z
loop_
_atom_site_type_symbol
_atom_site_label
_atom_site_fract_x
_atom_site_fract_y
_atom_site_fract_z
Si Si1 0.742678 0.579648 0.633809
Si Si2 0.743396 0.277546 0.867097
Si Si3 0.210867 0.585255 0.708621
Si Si4 0.381078 0.625536 0.623167
Si Si5 0.951437 0.331402 0.364206
Si Si6 0.465481 0.587664 0.866992
Si Si7 0.621430 0.203907 0.694900
Si Si8 0.112846 0.821428 0.758168
O O1 0.733989 0.556487 0.500000
O O2 0.775702 0.507170 0.708757
O O3 0.808548 0.649633 0.641125
O O4 0.657573 0.610589 0.685815
O O5 0.769195 0.362965 0.821011
O O6 0.662830 0.241790 0.807589
O O7 0.817171 0.219757 0.833650
O O8 0.730461 0.280420 0.000000
O O9 0.283084 0.616339 0.625459
O O10 0.120822 0.608713 0.667270
O O11 0.412701 0.592373 0.500000
O O12 0.411348 0.593052 0.748127
O O13 0.398922 0.717818 0.624102
O O14 0.968157 0.336709 0.500000
O O15 0.918057 0.245968 0.328264
O O16 0.036599 0.342171 0.296153
O O17 0.500000 0.500000 0.870100
O O18 0.539939 0.646112 0.836453
O O19 0.433862 0.603406 0.000000
#
# Coordination Sequence:
#
# PCOD9428045 Si02
#       8
#     8   8   8   8   8   8   8   8
#     4  11  21  37  59  89 128 162 195 248 308 366
#     4   9  20  41  63  83 113 158 210 258 301 351
#     4  10  23  37  57  89 120 160 204 245 303 367
#     4  11  21  38  59  85 120 159 203 248 298 358
#     4  11  20  37  60  88 122 157 200 252 300 357
#     4  11  24  39  58  88 122 155 193 245 309 369
#     4  10  22  36  58  91 120 157 204 246 301 365
#     4  10  21  37  60  88 114 155 205 245 295 367
#
# _framework density 19.768305000000002
#
# number of rings (size 3 to 8) (size 9 to 14) (size 15 to 20)
#    0.000    1.625    1.250    4.500    0.000    3.250 
#    0.000    5.000    0.000    0.000    0.000    5.250 
#    0.000    0.000    0.000    0.000    0.000    0.000 
#
# Total GULP energy -356831.769528 kJ/mol
# GULP energy per Si atom -5575.496399 kJ/mol
# Density = 1.972331 g / cm^3
# Si number density = 19.768305 Si / 1000 Ang^3
#
#
#
# Elastic Constant Matrix: (Units=GPa)
#
#
# Indices 1 2 3 4 5 6 
#
# 1 63.9920 -19.7634 26.0640 0.0000 0.0000 0.0000
# 2 -19.7634 32.4294 4.4604 0.0000 0.0000 0.0000
# 3 26.0640 4.4604 148.2962 0.0000 0.0000 0.0000
# 4 0.0000 0.0000 0.0000 4.0735 0.0000 0.0000
# 5 0.0000 0.0000 0.0000 0.0000 4.7966 0.0000
# 6 0.0000 0.0000 0.0000 0.0000 0.0000 23.0788
#
#
#
# Elastic Compliance Matrix: (Units=1/GPa)
#
#
# Indices 1 2 3 4 5 6 
#
# 1 0.021580 0.013730 -0.004206 0.000000 0.000000 0.000000
# 2 0.013730 0.039700 -0.003607 0.000000 0.000000 0.000000
# 3 -0.004206 -0.003607 0.007591 0.000000 0.000000 0.000000
# 4 0.000000 0.000000 0.000000 0.245490 0.000000 0.000000
# 5 0.000000 0.000000 0.000000 0.000000 0.208479 0.000000
# 6 0.000000 0.000000 0.000000 0.000000 0.000000 0.043330
#
#
# Mechanical properties :
#
#
# Convention : Reuss Voigt Hill
#
# Bulk Modulus (GPa) = 12.39074 29.58218 20.98646
# Shear Modulus (GPa) = 8.60233 21.98689 15.29461
#
# Velocity S-wave (km/s) = 2.08831 3.33863 2.78455
# Velocity P-wave (km/s) = 3.47797 5.46433 4.58013
#
# Compressibility (1/GPa) = 0.08070544
#
# Stress axis : x y z
#
# Youngs Moduli (GPa) = 46.33821 25.18900 131.73552
#
# Poissons Ratio (x) = -0.34585 0.55406
# Poissons Ratio (y) = -0.63623 0.47520
# Poissons Ratio (z) = 0.19489 0.09086
#
# Static dielectric constant tensor:
#      x y z
#    x 1.731910 0.000000 0.000000 
#    y 0.000000 1.726510 0.000000 
#    z 0.000000 0.000000 1.707370 
# 
# From -- ./inp_files/14389.got.cif
#   From: 2010.05.17/outbox.cif.g08.bks.cpg/sg55_8_cif.got.tgz:14389.got - 2010.06.03 13:27:54.
