data_PCOD9428612
_publ_section_title
;
Structure prediction by ZEFSAII (Michael W. Deem and Ramdas Pophale) SiO2 
 PCOD9428612
Probable space group: P B A M
;
_chemical_formula_sum "Si O2"
_cell_formula_units_Z 58
_cell_length_a 14.239674
_cell_length_b 10.885465
_cell_length_c 17.946852
_cell_angle_alpha 90.000000
_cell_angle_beta 90.000000
_cell_angle_gamma 90.000000
_cell_volume 2781.860282
_symmetry_space_group_name_H-M "P B A M"
_symmetry_group_IT_number 55
_symmetry_cell_setting 'orthorhombic'
loop_
_space_group_symop_operation_xyz
x,y,z
-x,-y,z
1/2+x,1/2-y,-z
1/2-x,1/2+y,-z
-x,-y,-z
x,y,-z
1/2-x,1/2+y,z
1/2+x,1/2-y,z
loop_
_atom_site_type_symbol
_atom_site_label
_atom_site_fract_x
_atom_site_fract_y
_atom_site_fract_z
Si Si1 0.663797 0.319867 0.833148
Si Si2 0.081113 0.228190 0.680190
Si Si3 0.244400 0.161924 0.416931
Si Si4 0.986689 0.146614 0.081729
Si Si5 0.000000 0.000000 0.500000
Si Si6 0.616065 0.630974 0.632528
Si Si7 0.104795 0.449204 0.416936
Si Si8 0.679305 0.606760 0.195366
O O1 0.591337 0.304917 0.764803
O O2 0.591513 0.302840 0.901454
O O3 0.739609 0.210534 0.819234
O O4 0.699666 0.463331 0.829753
O O5 0.160182 0.147673 0.639717
O O6 0.111867 0.361965 0.653595
O O7 0.977363 0.210507 0.650133
O O8 0.206423 0.159068 0.500000
O O9 0.301581 0.286440 0.402107
O O10 0.319473 0.054745 0.409880
O O11 0.907927 0.158252 0.145884
O O12 0.953852 0.189781 0.000000
O O13 0.000000 0.000000 0.078849
O O14 0.925914 0.046889 0.433568
O O15 0.651168 0.597587 0.716703
O O16 0.116202 0.391254 0.500000
O O17 0.000000 0.500000 0.416965
#
# Coordination Sequence:
#
# PCOD9428612 Si02
#       8
#     8   8   8   8   2   8   8   8
#     4  11  24  41  69 101 136 176 227 273 337 407
#     4  12  24  38  63  88 121 168 217 280 332 407
#     4  11  24  41  59  88 123 166 224 284 344 406
#     4   9  20  43  74 106 141 182 223 272 342 419
#     4  12  28  36  64  82 126 170 222 306 328 386
#     4  12  24  43  59  89 127 170 231 277 349 390
#     4  10  22  40  60  81 120 165 217 275 347 407
#     4  11  24  46  68 102 141 183 222 287 339 419
#
# _framework density 20.849357000000001
#
# number of rings (size 3 to 8) (size 9 to 14) (size 15 to 20)
#    0.000    1.103    4.828    1.241    4.828    1.655 
#    2.483    0.690    0.000    0.828    0.000    0.000 
#    0.000    0.000    0.000    0.000    0.000    0.000 
#
# Total GULP energy -322874.893750 kJ/mol
# GULP energy per Si atom -5566.808513 kJ/mol
# Density = 2.080190 g / cm^3
# Si number density = 20.849357 Si / 1000 Ang^3
#
#
#
# Elastic Constant Matrix: (Units=GPa)
#
#
# Indices 1 2 3 4 5 6 
#
# 1 75.9358 33.6919 23.7779 0.0000 0.0000 0.0000
# 2 33.6919 90.1604 23.0640 0.0000 0.0000 0.0000
# 3 23.7779 23.0640 107.6661 0.0000 0.0000 0.0000
# 4 0.0000 0.0000 0.0000 13.1311 0.0000 0.0000
# 5 0.0000 0.0000 0.0000 0.0000 37.5403 0.0000
# 6 0.0000 0.0000 0.0000 0.0000 0.0000 35.5666
#
#
#
# Elastic Compliance Matrix: (Units=1/GPa)
#
#
# Indices 1 2 3 4 5 6 
#
# 1 0.016370 -0.005493 -0.002438 0.000000 0.000000 0.000000
# 2 -0.005493 0.013578 -0.001695 0.000000 0.000000 0.000000
# 3 -0.002438 -0.001695 0.010190 0.000000 0.000000 0.000000
# 4 0.000000 0.000000 0.000000 0.076155 0.000000 0.000000
# 5 0.000000 0.000000 0.000000 0.000000 0.026638 0.000000
# 6 0.000000 0.000000 0.000000 0.000000 0.000000 0.028116
#
#
# Mechanical properties :
#
#
# Convention : Reuss Voigt Hill
#
# Bulk Modulus (GPa) = 47.88620 48.31442 48.10031
# Shear Modulus (GPa) = 25.34690 30.12949 27.73820
#
# Velocity S-wave (km/s) = 3.49049 3.80558 3.65144
# Velocity P-wave (km/s) = 6.26596 6.52176 6.39514
#
# Compressibility (1/GPa) = 0.02088284
#
# Stress axis : x y z
#
# Youngs Moduli (GPa) = 61.08743 73.64919 98.13833
#
# Poissons Ratio (x) = 0.40459 0.23931
# Poissons Ratio (y) = 0.33558 0.16638
# Poissons Ratio (z) = 0.14896 0.12486
#
# Static dielectric constant tensor:
#      x y z
#    x 1.737840 0.000000 0.000000 
#    y 0.000000 2.210890 0.000000 
#    z 0.000000 0.000000 1.746140 
# 
# From -- ./inp_files/21608.got.cif
#   From: 2010.05.17/outbox.cif.g08.bks.cpg/sg55_11_cif.got.tgz:21608.got - 2010.06.03 13:27:54.
