data_PCOD9428998
_publ_section_title
;
Structure prediction by ZEFSAII (Michael W. Deem and Ramdas Pophale) SiO2 
 PCOD9428998
Probable space group: P B A M
;
_chemical_formula_sum "Si O2"
_cell_formula_units_Z 42
_cell_length_a 9.641652
_cell_length_b 21.463065
_cell_length_c 7.564201
_cell_angle_alpha 90.000000
_cell_angle_beta 90.000000
_cell_angle_gamma 90.000000
_cell_volume 1565.331244
_symmetry_space_group_name_H-M "P B A M"
_symmetry_group_IT_number 55
_symmetry_cell_setting 'orthorhombic'
loop_
_space_group_symop_operation_xyz
x,y,z
-x,-y,z
1/2+x,1/2-y,-z
1/2-x,1/2+y,-z
-x,-y,-z
x,y,-z
1/2-x,1/2+y,z
1/2+x,1/2-y,z
loop_
_atom_site_type_symbol
_atom_site_label
_atom_site_fract_x
_atom_site_fract_y
_atom_site_fract_z
Si Si1 0.949926 0.849930 0.701384
Si Si2 0.500000 0.000000 0.000000
Si Si3 0.313631 0.440344 0.786850
Si Si4 0.634377 0.175616 0.218084
Si Si5 0.628444 0.764252 0.200577
Si Si6 0.277877 0.070363 0.801201
O O1 0.980943 0.834035 0.500000
O O2 0.021842 0.795341 0.811423
O O3 0.788299 0.868149 0.716726
O O4 0.036552 0.911912 0.752361
O O5 0.433887 0.047921 0.847902
O O6 0.207360 0.387601 0.723908
O O7 0.284840 0.508257 0.712937
O O8 0.286194 0.446198 0.000000
O O9 0.478126 0.185924 0.279656
O O10 0.735000 0.232161 0.278391
O O11 0.635484 0.176287 0.000000
O O12 0.662050 0.784460 0.000000
O O13 0.216613 0.076218 0.000000
#
# Coordination Sequence:
#
# PCOD9428998 Si02
#       6
#     8   2   8   8   8   8
#     4  11  21  32  51  78 107 138 175 215 256 308
#     4   8  20  36  52  80 104 140 166 214 260 314
#     4   9  17  32  55  79 104 127 167 221 264 308
#     4   8  15  29  49  76 100 125 169 217 263 302
#     4   9  17  33  51  77 103 134 174 221 265 309
#     4   9  18  35  53  78 104 132 169 208 265 312
#
# _framework density 26.831382999999999
#
# number of rings (size 3 to 8) (size 9 to 14) (size 15 to 20)
#    0.571    2.286    0.000    3.429    0.000    3.048 
#    3.429    4.286    0.000    0.000    0.000    0.000 
#    0.000    0.000    0.000    0.000    0.000    0.000 
#
# Total GULP energy -233926.354720 kJ/mol
# GULP energy per Si atom -5569.675112 kJ/mol
# Density = 2.677031 g / cm^3
# Si number density = 26.831383 Si / 1000 Ang^3
#
#
#
# Elastic Constant Matrix: (Units=GPa)
#
#
# Indices 1 2 3 4 5 6 
#
# 1 122.2348 19.4146 -38.1703 0.0000 0.0000 0.0000
# 2 19.4146 74.8672 3.3022 0.0000 0.0000 0.0000
# 3 -38.1703 3.3022 73.7036 0.0000 0.0000 0.0000
# 4 0.0000 0.0000 0.0000 -17.9299 0.0000 0.0000
# 5 0.0000 0.0000 0.0000 0.0000 6.2804 0.0000
# 6 0.0000 0.0000 0.0000 0.0000 0.0000 54.4358
#
#
#
# Elastic Compliance Matrix: (Units=1/GPa)
#
#
# Indices 1 2 3 4 5 6 
#
# 1 0.010363 -0.002930 0.005498 0.000000 0.000000 0.000000
# 2 -0.002930 0.014212 -0.002154 0.000000 0.000000 0.000000
# 3 0.005498 -0.002154 0.016512 0.000000 0.000000 0.000000
# 4 0.000000 0.000000 0.000000 -0.055773 0.000000 0.000000
# 5 0.000000 0.000000 0.000000 0.000000 0.159224 0.000000
# 6 0.000000 0.000000 0.000000 0.000000 0.000000 0.018370
#
#
# Mechanical properties :
#
#
# Convention : Reuss Voigt Hill
#
# Bulk Modulus (GPa) = 23.85754 26.65541 25.25647
# Shear Modulus (GPa) = 28.40070 27.64122 28.02096
#
# Velocity S-wave (km/s) = 3.25697 3.21313 3.23512
# Velocity P-wave (km/s) = 4.80154 4.87048 4.83613
#
# Compressibility (1/GPa) = 0.04191548
#
# Stress axis : x y z
#
# Youngs Moduli (GPa) = 96.49428 70.36414 60.56243
#
# Poissons Ratio (x) = 0.20616 -0.33299
# Poissons Ratio (y) = 0.28272 0.13046
# Poissons Ratio (z) = -0.53056 0.15157
#
# Static dielectric constant tensor:
#      x y z
#    x 2.545590 0.000000 0.000000 
#    y 0.000000 2.616350 0.000000 
#    z 0.000000 0.000000 2.696120 
# 
# From -- ./inp_files/3951.got.cif
#   From: 2010.05.17/outbox.cif.g08.bks.cpg/sg55_2_cif.got.tgz:3951.got - 2010.06.03 13:27:54.
