data_PCOD9428937
_publ_section_title
;
Structure prediction by ZEFSAII (Michael W. Deem and Ramdas Pophale) SiO2 
 PCOD9428937
Probable space group: P B A M
;
_chemical_formula_sum "Si O2"
_cell_formula_units_Z 48
_cell_length_a 17.959883
_cell_length_b 8.897837
_cell_length_c 15.001175
_cell_angle_alpha 90.000000
_cell_angle_beta 90.000000
_cell_angle_gamma 90.000000
_cell_volume 2397.249442
_symmetry_space_group_name_H-M "P B A M"
_symmetry_group_IT_number 55
_symmetry_cell_setting 'orthorhombic'
loop_
_space_group_symop_operation_xyz
x,y,z
-x,-y,z
1/2+x,1/2-y,-z
1/2-x,1/2+y,-z
-x,-y,-z
x,y,-z
1/2-x,1/2+y,z
1/2+x,1/2-y,z
loop_
_atom_site_type_symbol
_atom_site_label
_atom_site_fract_x
_atom_site_fract_y
_atom_site_fract_z
Si Si1 0.216621 0.032909 0.000000
Si Si2 0.346730 0.973604 0.393928
Si Si3 0.608756 0.916643 0.000000
Si Si4 0.000000 0.500000 0.289437
Si Si5 0.582072 0.265444 0.000000
Si Si6 0.334127 0.431095 0.190766
Si Si7 0.266527 0.699554 0.699303
Si Si8 0.974971 0.236740 0.846285
O O1 0.166359 0.182470 0.000000
O O2 0.192461 0.946315 0.088918
O O3 0.302855 0.070905 0.000000
O O4 0.352946 0.971467 0.500000
O O5 0.316551 0.814428 0.356956
O O6 0.425719 0.008598 0.348220
O O7 0.287054 0.098291 0.362186
O O8 0.578468 0.831922 0.913235
O O9 0.578008 0.085988 0.000000
O O10 0.004858 0.353297 0.226373
O O11 0.539548 0.321244 0.911894
O O12 0.285744 0.300560 0.237277
O O13 0.314911 0.585441 0.241291
O O14 0.420468 0.386063 0.195316
#
# Coordination Sequence:
#
# PCOD9428937 Si02
#       8
#     4   8   4   4   4   8   8   8
#     4  12  28  36  64  94 136 172 225 277 307 383
#     4  11  24  46  74 102 130 169 221 282 346 407
#     4  11  23  39  64  91 128 177 230 276 310 370
#     4  12  23  41  70 102 136 172 214 275 337 416
#     4  11  25  41  62  87 131 186 221 272 322 375
#     4  11  24  41  64 100 135 174 225 266 325 380
#     4  10  24  44  71 101 131 175 221 276 334 400
#     4  11  22  43  62  93 131 179 224 263 323 393
#
# _framework density 20.022948
#
# number of rings (size 3 to 8) (size 9 to 14) (size 15 to 20)
#    0.000    1.000    3.333    3.250    9.333    1.333 
#    0.000    0.000    0.000    1.000    0.000    0.000 
#    0.000    0.000    0.000    0.000    0.000    0.000 
#
# Total GULP energy -268799.246483 kJ/mol
# GULP energy per Si atom -5599.984302 kJ/mol
# Density = 1.997737 g / cm^3
# Si number density = 20.022948 Si / 1000 Ang^3
#
#
#
# Elastic Constant Matrix: (Units=GPa)
#
#
# Indices 1 2 3 4 5 6 
#
# 1 89.6472 13.3632 24.1629 0.0000 0.0000 0.0000
# 2 13.3632 92.5328 32.7002 0.0000 0.0000 0.0000
# 3 24.1629 32.7002 136.0088 0.0000 0.0000 0.0000
# 4 0.0000 0.0000 0.0000 14.4230 0.0000 0.0000
# 5 0.0000 0.0000 0.0000 0.0000 19.7590 0.0000
# 6 0.0000 0.0000 0.0000 0.0000 0.0000 37.0978
#
#
#
# Elastic Compliance Matrix: (Units=1/GPa)
#
#
# Indices 1 2 3 4 5 6 
#
# 1 0.011809 -0.001054 -0.001845 0.000000 0.000000 0.000000
# 2 -0.001054 0.011904 -0.002675 0.000000 0.000000 0.000000
# 3 -0.001845 -0.002675 0.008323 0.000000 0.000000 0.000000
# 4 0.000000 0.000000 0.000000 0.069334 0.000000 0.000000
# 5 0.000000 0.000000 0.000000 0.000000 0.050610 0.000000
# 6 0.000000 0.000000 0.000000 0.000000 0.000000 0.026956
#
#
# Mechanical properties :
#
#
# Convention : Reuss Voigt Hill
#
# Bulk Modulus (GPa) = 47.86868 50.96015 49.41442
# Shear Modulus (GPa) = 25.37476 30.78679 28.08078
#
# Velocity S-wave (km/s) = 3.56376 3.92545 3.74897
# Velocity P-wave (km/s) = 6.39473 6.78614 6.59334
#
# Compressibility (1/GPa) = 0.02089048
#
# Stress axis : x y z
#
# Youngs Moduli (GPa) = 84.68063 84.00229 120.14437
#
# Poissons Ratio (x) = 0.08850 0.22163
# Poissons Ratio (y) = 0.08921 0.32138
# Poissons Ratio (z) = 0.15621 0.22470
#
# Static dielectric constant tensor:
#      x y z
#    x 1.696550 0.000000 0.000000 
#    y 0.000000 1.717160 0.000000 
#    z 0.000000 0.000000 1.664810 
# 
# From -- ./inp_files/17452.got.cif
#   From: 2010.05.17/outbox.cif.g08.bks.cpg/sg55_9_cif.got.tgz:17452.got - 2010.06.03 13:27:54.
