data_PCOD9428067
_publ_section_title
;
Structure prediction by ZEFSAII (Michael W. Deem and Ramdas Pophale) SiO2 
 PCOD9428067
Probable space group: P B A M
;
_chemical_formula_sum "Si O2"
_cell_formula_units_Z 56
_cell_length_a 19.670584
_cell_length_b 9.288448
_cell_length_c 14.793168
_cell_angle_alpha 90.000000
_cell_angle_beta 90.000000
_cell_angle_gamma 90.000000
_cell_volume 2702.847841
_symmetry_space_group_name_H-M "P B A M"
_symmetry_group_IT_number 55
_symmetry_cell_setting 'orthorhombic'
loop_
_space_group_symop_operation_xyz
x,y,z
-x,-y,z
1/2+x,1/2-y,-z
1/2-x,1/2+y,-z
-x,-y,-z
x,y,-z
1/2-x,1/2+y,z
1/2+x,1/2-y,z
loop_
_atom_site_type_symbol
_atom_site_label
_atom_site_fract_x
_atom_site_fract_y
_atom_site_fract_z
Si Si1 0.266749 0.549723 0.797617
Si Si2 0.834043 0.673623 0.107464
Si Si3 0.605538 0.488998 0.683063
Si Si4 0.564791 0.197437 0.250898
Si Si5 0.451538 0.216705 0.604579
Si Si6 0.662596 0.427126 0.500000
Si Si7 0.748747 0.162563 0.500000
Si Si8 0.331791 0.009058 0.350600
O O1 0.301253 0.680033 0.851333
O O2 0.219103 0.449902 0.859876
O O3 0.327915 0.471678 0.742185
O O4 0.215679 0.598433 0.717719
O O5 0.911114 0.659149 0.148653
O O6 0.836349 0.678132 0.000000
O O7 0.566770 0.370967 0.742455
O O8 0.567829 0.625839 0.642374
O O9 0.625246 0.398033 0.593017
O O10 0.501048 0.159067 0.315201
O O11 0.626382 0.113266 0.298615
O O12 0.478605 0.221139 0.500000
O O13 0.385492 0.115084 0.604241
O O14 0.730034 0.328382 0.500000
O O15 0.676069 0.599234 0.500000
O O16 0.714838 0.084624 0.415436
#
# Coordination Sequence:
#
# PCOD9428067 Si02
#       8
#     8   8   8   8   8   4   4   8
#     4  10  21  37  62  92 120 142 185 246 309 364
#     4  10  21  41  67  88 113 148 190 250 317 366
#     4  11  22  38  55  84 124 160 196 244 290 342
#     4  10  24  40  56  80 118 158 200 252 290 342
#     4  12  25  35  57  84 119 170 216 234 273 342
#     4  12  24  34  55  83 128 164 199 232 284 350
#     4  12  24  34  55  83 128 164 199 232 284 350
#     4  11  22  38  55  84 124 160 196 244 290 342
#
# _framework density 20.718888
#
# number of rings (size 3 to 8) (size 9 to 14) (size 15 to 20)
#    0.000    1.143    4.286    2.143    4.000    1.143 
#    0.000    0.000    0.000   17.143    0.000    0.000 
#    0.000    0.000    0.000    0.000    0.000    0.000 
#
# Total GULP energy -312058.678224 kJ/mol
# GULP energy per Si atom -5572.476397 kJ/mol
# Density = 2.067173 g / cm^3
# Si number density = 20.718888 Si / 1000 Ang^3
#
#
#
# Elastic Constant Matrix: (Units=GPa)
#
#
# Indices 1 2 3 4 5 6 
#
# 1 66.5770 4.9538 39.4114 0.0000 0.0000 0.0000
# 2 4.9538 74.6259 13.7521 0.0000 0.0000 0.0000
# 3 39.4114 13.7521 132.0018 0.0000 0.0000 0.0000
# 4 0.0000 0.0000 0.0000 22.4083 0.0000 0.0000
# 5 0.0000 0.0000 0.0000 0.0000 26.2521 0.0000
# 6 0.0000 0.0000 0.0000 0.0000 0.0000 28.7545
#
#
#
# Elastic Compliance Matrix: (Units=1/GPa)
#
#
# Indices 1 2 3 4 5 6 
#
# 1 0.018248 -0.000211 -0.005426 0.000000 0.000000 0.000000
# 2 -0.000211 0.013665 -0.001361 0.000000 0.000000 0.000000
# 3 -0.005426 -0.001361 0.009337 0.000000 0.000000 0.000000
# 4 0.000000 0.000000 0.000000 0.044626 0.000000 0.000000
# 5 0.000000 0.000000 0.000000 0.000000 0.038092 0.000000
# 6 0.000000 0.000000 0.000000 0.000000 0.000000 0.034777
#
#
# Mechanical properties :
#
#
# Convention : Reuss Voigt Hill
#
# Bulk Modulus (GPa) = 36.69161 43.27104 39.98132
# Shear Modulus (GPa) = 27.49863 29.82213 28.66038
#
# Velocity S-wave (km/s) = 3.64706 3.79802 3.72331
# Velocity P-wave (km/s) = 5.95671 6.33746 6.15004
#
# Compressibility (1/GPa) = 0.02725419
#
# Stress axis : x y z
#
# Youngs Moduli (GPa) = 54.80022 73.18007 107.09510
#
# Poissons Ratio (x) = 0.01547 0.58113
# Poissons Ratio (y) = 0.01158 0.14570
# Poissons Ratio (z) = 0.29736 0.09956
#
# Static dielectric constant tensor:
#      x y z
#    x 1.832930 0.000000 0.000000 
#    y 0.000000 1.768140 0.000000 
#    z 0.000000 0.000000 1.802810 
# 
# From -- ./inp_files/17691.got.cif
#   From: 2010.05.17/outbox.cif.g08.bks.cpg/sg55_9_cif.got.tgz:17691.got - 2010.06.03 13:27:54.
