data_PCOD9428898
_publ_section_title
;
Structure prediction by ZEFSAII (Michael W. Deem and Ramdas Pophale) SiO2 
 PCOD9428898
Probable space group: P B A M
;
_chemical_formula_sum "Si O2"
_cell_formula_units_Z 64
_cell_length_a 15.275609
_cell_length_b 9.332922
_cell_length_c 21.352331
_cell_angle_alpha 90.000000
_cell_angle_beta 90.000000
_cell_angle_gamma 90.000000
_cell_volume 3044.117858
_symmetry_space_group_name_H-M "P B A M"
_symmetry_group_IT_number 55
_symmetry_cell_setting 'orthorhombic'
loop_
_space_group_symop_operation_xyz
x,y,z
-x,-y,z
1/2+x,1/2-y,-z
1/2-x,1/2+y,-z
-x,-y,-z
x,y,-z
1/2-x,1/2+y,z
1/2+x,1/2-y,z
loop_
_atom_site_type_symbol
_atom_site_label
_atom_site_fract_x
_atom_site_fract_y
_atom_site_fract_z
Si Si1 0.932192 0.378679 0.384614
Si Si2 0.281788 0.762063 0.751192
Si Si3 0.025720 0.834907 0.134258
Si Si4 0.013630 0.335151 0.750266
Si Si5 0.153186 0.192084 0.071204
Si Si6 0.712206 0.605811 0.119287
Si Si7 0.247810 0.007886 0.334532
Si Si8 0.095900 0.939447 0.572010
O O1 0.978125 0.326322 0.319975
O O2 0.840122 0.452419 0.366283
O O3 0.911136 0.233492 0.421750
O O4 0.000000 0.500000 0.410722
O O5 0.385561 0.789554 0.756080
O O6 0.237248 0.830189 0.812444
O O7 0.263249 0.600803 0.729206
O O8 0.250833 0.846617 0.689814
O O9 0.037561 0.762191 0.201191
O O10 0.118032 0.830563 0.099896
O O11 0.942828 0.773330 0.097714
O O12 0.000000 0.000000 0.144293
O O13 0.000000 0.500000 0.769061
O O14 0.212175 0.332427 0.075981
O O15 0.197775 0.064971 0.112644
O O16 0.146461 0.140071 0.000000
O O17 0.166911 0.011699 0.382168
O O18 0.116983 0.975267 0.500000
O O19 0.000000 0.000000 0.587174
#
# Coordination Sequence:
#
# PCOD9428898 Si02
#       8
#     8   8   8   8   8   8   8   8
#     4  11  23  43  68 101 135 178 221 276 346 402
#     4  12  23  40  68  99 139 169 220 278 340 406
#     4  10  24  40  60  91 127 172 216 268 332 393
#     4  11  22  38  64  97 137 166 207 272 339 405
#     4  11  24  44  65  91 127 173 228 274 332 405
#     4  11  24  41  65  95 128 172 217 277 336 396
#     4  12  24  43  67 101 133 181 219 275 339 404
#     4  11  27  48  69  97 134 180 233 279 326 401
#
# _framework density 21.024153999999999
#
# number of rings (size 3 to 8) (size 9 to 14) (size 15 to 20)
#    0.000    0.875    5.000    2.625    3.500    4.000 
#    0.000    0.000    0.000    1.875    0.000    0.000 
#    0.000    0.000    0.000    0.000    0.000    0.000 
#
# Total GULP energy -357444.322215 kJ/mol
# GULP energy per Si atom -5585.067535 kJ/mol
# Density = 2.097630 g / cm^3
# Si number density = 21.024154 Si / 1000 Ang^3
#
#
#
# Elastic Constant Matrix: (Units=GPa)
#
#
# Indices 1 2 3 4 5 6 
#
# 1 72.4918 23.8274 19.0264 0.0000 0.0000 0.0000
# 2 23.8274 29.0641 -0.0351 0.0000 0.0000 0.0000
# 3 19.0264 -0.0351 59.0911 0.0000 0.0000 0.0000
# 4 0.0000 0.0000 0.0000 6.2155 0.0000 0.0000
# 5 0.0000 0.0000 0.0000 0.0000 7.8965 0.0000
# 6 0.0000 0.0000 0.0000 0.0000 0.0000 28.1873
#
#
#
# Elastic Compliance Matrix: (Units=1/GPa)
#
#
# Indices 1 2 3 4 5 6 
#
# 1 0.021362 -0.017521 -0.006889 0.000000 0.000000 0.000000
# 2 -0.017521 0.048778 0.005670 0.000000 0.000000 0.000000
# 3 -0.006889 0.005670 0.019144 0.000000 0.000000 0.000000
# 4 0.000000 0.000000 0.000000 0.160889 0.000000 0.000000
# 5 0.000000 0.000000 0.000000 0.000000 0.126639 0.000000
# 6 0.000000 0.000000 0.000000 0.000000 0.000000 0.035477
#
#
# Mechanical properties :
#
#
# Convention : Reuss Voigt Hill
#
# Bulk Modulus (GPa) = 19.30297 27.36494 23.33395
# Shear Modulus (GPa) = 10.70583 16.31508 13.51045
#
# Velocity S-wave (km/s) = 2.25903 2.78873 2.53774
# Velocity P-wave (km/s) = 4.00069 4.83875 4.43954
#
# Compressibility (1/GPa) = 0.05180550
#
# Stress axis : x y z
#
# Youngs Moduli (GPa) = 46.81287 20.50120 52.23463
#
# Poissons Ratio (x) = 0.35920 0.35982
# Poissons Ratio (y) = 0.82021 -0.29620
# Poissons Ratio (z) = 0.32247 -0.11625
#
# Static dielectric constant tensor:
#      x y z
#    x 0.351430 0.000000 0.000000 
#    y 0.000000 1.736510 0.000000 
#    z 0.000000 0.000000 1.765970 
# 
# From -- ./inp_files/23607.got.cif
#   From: 2010.05.17/outbox.cif.g08.bks.cpg/sg55_12_cif.got.tgz:23607.got - 2010.06.03 13:27:54.
