data_PCOD9428560
_publ_section_title
;
Structure prediction by ZEFSAII (Michael W. Deem and Ramdas Pophale) SiO2 
 PCOD9428560
Probable space group: P B A M
;
_chemical_formula_sum "Si O2"
_cell_formula_units_Z 28
_cell_length_a 11.046228
_cell_length_b 4.847244
_cell_length_c 20.591911
_cell_angle_alpha 90.000000
_cell_angle_beta 90.000000
_cell_angle_gamma 90.000000
_cell_volume 1102.568390
_symmetry_space_group_name_H-M "P B A M"
_symmetry_group_IT_number 55
_symmetry_cell_setting 'orthorhombic'
loop_
_space_group_symop_operation_xyz
x,y,z
-x,-y,z
1/2+x,1/2-y,-z
1/2-x,1/2+y,-z
-x,-y,-z
x,y,-z
1/2-x,1/2+y,z
1/2+x,1/2-y,z
loop_
_atom_site_type_symbol
_atom_site_label
_atom_site_fract_x
_atom_site_fract_y
_atom_site_fract_z
Si Si1 0.667975 0.831458 0.574215
Si Si2 0.000000 0.000000 0.106115
Si Si3 0.000000 0.000000 0.669172
Si Si4 0.833430 0.275701 0.000000
Si Si5 0.166017 0.143578 0.782755
O O1 0.624943 0.791546 0.500000
O O2 0.789297 0.644886 0.581729
O O3 0.574234 0.711058 0.624822
O O4 0.083357 0.179789 0.154180
O O5 0.086416 0.813690 0.061438
O O6 0.912130 0.833014 0.717882
O O7 0.788764 0.589345 0.000000
O O8 0.218095 0.835828 0.783604
#
# Coordination Sequence:
#
# PCOD9428560 Si02
#       5
#     8   4   4   4   8
#     4  10  22  39  59  86 118 152 195 245 297 358
#     4  10  24  41  67  90 122 166 196 240 302 346
#     4  11  23  39  63  87 117 158 198 244 303 349
#     4  11  24  41  64  96 126 155 200 247 290 350
#     4  11  25  42  61  89 122 157 202 247 290 351
#
# _framework density 25.395250999999998
#
# number of rings (size 3 to 8) (size 9 to 14) (size 15 to 20)
#    0.000    1.429    0.000    3.857    0.000   12.571 
#    0.000    4.286    0.000    0.000    0.000    0.000 
#    0.000    0.000    0.000    0.000    0.000    0.000 
#
# Total GULP energy -157259.001991 kJ/mol
# GULP energy per Si atom -5616.392928 kJ/mol
# Density = 2.533745 g / cm^3
# Si number density = 25.395251 Si / 1000 Ang^3
#
#
#
# Elastic Constant Matrix: (Units=GPa)
#
#
# Indices 1 2 3 4 5 6 
#
# 1 93.2539 -13.9566 69.6182 0.0000 0.0000 0.0000
# 2 -13.9566 43.9877 5.4315 0.0000 0.0000 0.0000
# 3 69.6182 5.4315 189.3462 0.0000 0.0000 0.0000
# 4 0.0000 0.0000 0.0000 17.5375 0.0000 0.0000
# 5 0.0000 0.0000 0.0000 0.0000 56.3861 0.0000
# 6 0.0000 0.0000 0.0000 0.0000 0.0000 29.3728
#
#
#
# Elastic Compliance Matrix: (Units=1/GPa)
#
#
# Indices 1 2 3 4 5 6 
#
# 1 0.016168 0.005885 -0.006113 0.000000 0.000000 0.000000
# 2 0.005885 0.024956 -0.002880 0.000000 0.000000 0.000000
# 3 -0.006113 -0.002880 0.007612 0.000000 0.000000 0.000000
# 4 0.000000 0.000000 0.000000 0.057021 0.000000 0.000000
# 5 0.000000 0.000000 0.000000 0.000000 0.017735 0.000000
# 6 0.000000 0.000000 0.000000 0.000000 0.000000 0.034045
#
#
# Mechanical properties :
#
#
# Convention : Reuss Voigt Hill
#
# Bulk Modulus (GPa) = 23.51853 49.86375 36.69114
# Shear Modulus (GPa) = 28.10147 38.35892 33.23020
#
# Velocity S-wave (km/s) = 3.33011 3.89070 3.62127
# Velocity P-wave (km/s) = 4.90585 6.31356 5.65369
#
# Compressibility (1/GPa) = 0.04251967
#
# Stress axis : x y z
#
# Youngs Moduli (GPa) = 61.85015 40.06995 131.37661
#
# Poissons Ratio (x) = -0.23580 0.80316
# Poissons Ratio (y) = -0.36397 0.37831
# Poissons Ratio (z) = 0.37812 0.11538
#
# Static dielectric constant tensor:
#      x y z
#    x 2.001440 0.000000 0.000000 
#    y 0.000000 1.913930 0.000000 
#    z 0.000000 0.000000 1.948500 
# 
# From -- ./inp_files/22786.got.cif
#   From: 2010.05.17/outbox.cif.g08.bks.cpg/sg55_12_cif.got.tgz:22786.got - 2010.06.03 13:27:54.
