data_PCOD9428783
_publ_section_title
;
Structure prediction by ZEFSAII (Michael W. Deem and Ramdas Pophale) SiO2 
 PCOD9428783
Probable space group: P B A M
;
_chemical_formula_sum "Si O2"
_cell_formula_units_Z 64
_cell_length_a 12.203664
_cell_length_b 8.966160
_cell_length_c 26.482172
_cell_angle_alpha 90.000000
_cell_angle_beta 90.000000
_cell_angle_gamma 90.000000
_cell_volume 2897.679366
_symmetry_space_group_name_H-M "P B A M"
_symmetry_group_IT_number 55
_symmetry_cell_setting 'orthorhombic'
loop_
_space_group_symop_operation_xyz
x,y,z
-x,-y,z
1/2+x,1/2-y,-z
1/2-x,1/2+y,-z
-x,-y,-z
x,y,-z
1/2-x,1/2+y,z
1/2+x,1/2-y,z
loop_
_atom_site_type_symbol
_atom_site_label
_atom_site_fract_x
_atom_site_fract_y
_atom_site_fract_z
Si Si1 0.930676 0.346647 0.943956
Si Si2 0.816665 0.887564 0.681958
Si Si3 0.295713 0.357805 0.613201
Si Si4 0.011041 0.172811 0.233204
Si Si5 0.279962 0.999307 0.863714
Si Si6 0.122916 0.569444 0.246680
Si Si7 0.595574 0.296803 0.125385
Si Si8 0.116848 0.570924 0.560561
O O1 0.841582 0.392949 0.902962
O O2 0.000000 0.500000 0.947974
O O3 0.011259 0.224516 0.919855
O O4 0.890266 0.307273 0.000000
O O5 0.777974 0.753846 0.646548
O O6 0.895844 0.818842 0.724356
O O7 0.710096 0.958024 0.709767
O O8 0.861569 0.025430 0.648638
O O9 0.214375 0.463797 0.580845
O O10 0.367646 0.239174 0.581665
O O11 0.040529 0.240918 0.179021
O O12 0.900538 0.253614 0.249196
O O13 0.000000 0.000000 0.224910
O O14 0.322398 0.029793 0.806950
O O15 0.153776 0.044444 0.868985
O O16 0.313050 0.833022 0.878565
O O17 0.000000 0.500000 0.251935
O O18 0.121099 0.574878 0.500000
O O19 0.000000 0.500000 0.576257
#
# Coordination Sequence:
#
# PCOD9428783 Si02
#       8
#     8   8   8   8   8   8   8   8
#     4   9  19  40  63  87 117 152 201 261 328 382
#     4  11  24  39  58  92 131 175 216 267 321 391
#     4  10  23  41  64  97 140 169 217 280 330 378
#     4  12  25  37  59  89 125 171 219 262 318 383
#     4  11  22  38  62  86 119 158 205 261 315 385
#     4  12  22  39  62  84 125 174 221 259 319 393
#     4  11  23  38  60  88 118 156 205 261 315 384
#     4  10  22  44  74 100 130 179 228 273 332 393
#
# _framework density 22.086639999999999
#
# number of rings (size 3 to 8) (size 9 to 14) (size 15 to 20)
#    0.000    1.250    3.750    2.250    1.750    5.500 
#    0.000    1.875    0.000    9.375    0.000    0.000 
#    0.000    0.000    0.000    0.000    0.000    0.000 
#
# Total GULP energy -357621.535827 kJ/mol
# GULP energy per Si atom -5587.836497 kJ/mol
# Density = 2.203637 g / cm^3
# Si number density = 22.086640 Si / 1000 Ang^3
#
#
#
# Elastic Constant Matrix: (Units=GPa)
#
#
# Indices 1 2 3 4 5 6 
#
# 1 37.6208 6.3598 18.7563 0.0000 0.0000 0.0000
# 2 6.3598 90.4665 19.4753 0.0000 0.0000 0.0000
# 3 18.7563 19.4753 89.2191 0.0000 0.0000 0.0000
# 4 0.0000 0.0000 0.0000 -86.9286 0.0000 0.0000
# 5 0.0000 0.0000 0.0000 0.0000 72.6926 0.0000
# 6 0.0000 0.0000 0.0000 0.0000 0.0000 45.5302
#
#
#
# Elastic Compliance Matrix: (Units=1/GPa)
#
#
# Indices 1 2 3 4 5 6 
#
# 1 0.029746 -0.000782 -0.006083 0.000000 0.000000 0.000000
# 2 -0.000782 0.011619 -0.002372 0.000000 0.000000 0.000000
# 3 -0.006083 -0.002372 0.013005 0.000000 0.000000 0.000000
# 4 0.000000 0.000000 0.000000 -0.011504 0.000000 0.000000
# 5 0.000000 0.000000 0.000000 0.000000 0.013757 0.000000
# 6 0.000000 0.000000 0.000000 0.000000 0.000000 0.021963
#
#
# Mechanical properties :
#
#
# Convention : Reuss Voigt Hill
#
# Bulk Modulus (GPa) = 27.85731 34.05436 30.95584
# Shear Modulus (GPa) = 45.86104 17.77317 31.81711
#
# Velocity S-wave (km/s) = 4.56171 2.83981 3.79959
# Velocity P-wave (km/s) = 6.35498 5.11905 5.77020
#
# Compressibility (1/GPa) = 0.03589722
#
# Stress axis : x y z
#
# Youngs Moduli (GPa) = 33.61822 86.06292 76.89404
#
# Poissons Ratio (x) = 0.06727 0.46773
# Poissons Ratio (y) = 0.02628 0.18240
# Poissons Ratio (z) = 0.20449 0.20414
#
# Static dielectric constant tensor:
#      x y z
#    x 1.909910 0.000000 0.000000 
#    y 0.000000 1.856240 0.000000 
#    z 0.000000 0.000000 1.821340 
# 
# From -- ./inp_files/23605.got.cif
#   From: 2010.05.17/outbox.cif.g08.bks.cpg/sg55_12_cif.got.tgz:23605.got - 2010.06.03 13:27:54.
