data_PCOD9428906
_publ_section_title
;
Structure prediction by ZEFSAII (Michael W. Deem and Ramdas Pophale) SiO2 
 PCOD9428906
Probable space group: P B A M
;
_chemical_formula_sum "Si O2"
_cell_formula_units_Z 28
_cell_length_a 4.695459
_cell_length_b 10.803570
_cell_length_c 21.692718
_cell_angle_alpha 90.000000
_cell_angle_beta 90.000000
_cell_angle_gamma 90.000000
_cell_volume 1100.422124
_symmetry_space_group_name_H-M "P B A M"
_symmetry_group_IT_number 55
_symmetry_cell_setting 'orthorhombic'
loop_
_space_group_symop_operation_xyz
x,y,z
-x,-y,z
1/2+x,1/2-y,-z
1/2-x,1/2+y,-z
-x,-y,-z
x,y,-z
1/2-x,1/2+y,z
1/2+x,1/2-y,z
loop_
_atom_site_type_symbol
_atom_site_label
_atom_site_fract_x
_atom_site_fract_y
_atom_site_fract_z
Si Si1 0.423646 0.327958 0.000000
Si Si2 0.796196 0.835610 0.500000
Si Si3 0.500000 0.000000 0.807017
Si Si4 0.000000 0.000000 0.891455
Si Si5 0.776131 0.168211 0.703782
Si Si6 0.000000 0.500000 0.601443
O O1 0.359884 0.401734 0.062080
O O2 0.258287 0.199801 0.000000
O O3 0.622396 0.705742 0.500000
O O4 0.698586 0.914547 0.441374
O O5 0.250873 0.055673 0.849623
O O6 0.333630 0.903410 0.763752
O O7 0.607107 0.298714 0.702812
O O8 0.685425 0.088825 0.645033
#
# Coordination Sequence:
#
# PCOD9428906 Si02
#       6
#     4   4   4   4   8   4
#     4  11  24  41  64  90 122 161 198 247 304 354
#     4  11  24  41  64  92 122 161 204 251 304 360
#     4  11  24  40  62  90 122 159 202 250 298 357
#     4  11  24  42  62  92 124 155 204 250 294 361
#     4  11  24  41  62  90 123 161 202 249 303 358
#     4  10  24  41  64  91 124 160 204 252 302 360
#
# _framework density 25.444782
#
# number of rings (size 3 to 8) (size 9 to 14) (size 15 to 20)
#    0.000    1.143    0.000    5.143    0.000   17.143 
#    0.000    0.000    0.000    0.000    0.000    0.000 
#    0.000    0.000    0.000    0.000    0.000    0.000 
#
# Total GULP energy -157184.257849 kJ/mol
# GULP energy per Si atom -5613.723495 kJ/mol
# Density = 2.538687 g / cm^3
# Si number density = 25.444782 Si / 1000 Ang^3
#
#
#
# Elastic Constant Matrix: (Units=GPa)
#
#
# Indices 1 2 3 4 5 6 
#
# 1 90.0698 5.3581 27.4145 0.0000 0.0000 0.0000
# 2 5.3581 69.7209 34.6050 0.0000 0.0000 0.0000
# 3 27.4145 34.6050 151.5363 0.0000 0.0000 0.0000
# 4 0.0000 0.0000 0.0000 -26.0477 0.0000 0.0000
# 5 0.0000 0.0000 0.0000 0.0000 2.9725 0.0000
# 6 0.0000 0.0000 0.0000 0.0000 0.0000 42.9473
#
#
#
# Elastic Compliance Matrix: (Units=1/GPa)
#
#
# Indices 1 2 3 4 5 6 
#
# 1 0.011751 0.000172 -0.002165 0.000000 0.000000 0.000000
# 2 0.000172 0.016179 -0.003726 0.000000 0.000000 0.000000
# 3 -0.002165 -0.003726 0.007842 0.000000 0.000000 0.000000
# 4 0.000000 0.000000 0.000000 -0.038391 0.000000 0.000000
# 5 0.000000 0.000000 0.000000 0.000000 0.336412 0.000000
# 6 0.000000 0.000000 0.000000 0.000000 0.000000 0.023284
#
#
# Mechanical properties :
#
#
# Convention : Reuss Voigt Hill
#
# Bulk Modulus (GPa) = 41.09601 49.56469 45.33035
# Shear Modulus (GPa) = 13.27575 20.23771 16.75673
#
# Velocity S-wave (km/s) = 2.28666 2.82327 2.56901
# Velocity P-wave (km/s) = 4.81226 5.49085 5.16271
#
# Compressibility (1/GPa) = 0.02433326
#
# Stress axis : x y z
#
# Youngs Moduli (GPa) = 85.09702 61.80896 127.52563
#
# Poissons Ratio (x) = -0.01060 0.27611
# Poissons Ratio (y) = -0.01460 0.47512
# Poissons Ratio (z) = 0.18424 0.23028
#
# Static dielectric constant tensor:
#      x y z
#    x 1.916120 0.000000 0.000000 
#    y 0.000000 1.996350 0.000000 
#    z 0.000000 0.000000 1.946200 
# 
# From -- ./inp_files/22191.got.cif
#   From: 2010.05.17/outbox.cif.g08.bks.cpg/sg55_12_cif.got.tgz:22191.got - 2010.06.03 13:27:54.
