data_PCOD9428408
_publ_section_title
;
Structure prediction by ZEFSAII (Michael W. Deem and Ramdas Pophale) SiO2 
 PCOD9428408
Probable space group: P B A M
;
_chemical_formula_sum "Si O2"
_cell_formula_units_Z 48
_cell_length_a 14.872791
_cell_length_b 10.321423
_cell_length_c 16.052722
_cell_angle_alpha 90.000000
_cell_angle_beta 90.000000
_cell_angle_gamma 90.000000
_cell_volume 2464.227142
_symmetry_space_group_name_H-M "P B A M"
_symmetry_group_IT_number 55
_symmetry_cell_setting 'orthorhombic'
loop_
_space_group_symop_operation_xyz
x,y,z
-x,-y,z
1/2+x,1/2-y,-z
1/2-x,1/2+y,-z
-x,-y,-z
x,y,-z
1/2-x,1/2+y,z
1/2+x,1/2-y,z
loop_
_atom_site_type_symbol
_atom_site_label
_atom_site_fract_x
_atom_site_fract_y
_atom_site_fract_z
Si Si1 0.157239 0.269151 0.205474
Si Si2 0.639004 0.472230 0.684213
Si Si3 0.650018 0.002982 0.674867
Si Si4 0.916778 0.595086 0.500000
Si Si5 0.493814 0.843686 0.903945
Si Si6 0.874535 0.242368 0.238496
Si Si7 0.921177 0.897381 0.500000
O O1 0.119996 0.140918 0.250251
O O2 0.119886 0.388955 0.260118
O O3 0.106718 0.293032 0.118727
O O4 0.267277 0.264672 0.211005
O O5 0.744898 0.492036 0.689075
O O6 0.599176 0.609373 0.714221
O O7 0.624007 0.427430 0.589256
O O8 0.612616 0.861534 0.696625
O O9 0.635471 0.057845 0.583327
O O10 0.943000 0.745322 0.500000
O O11 0.000000 0.500000 0.500000
O O12 0.564128 0.775892 0.840872
O O13 0.500000 0.000000 0.893739
O O14 0.515078 0.814609 0.000000
O O15 0.000000 0.000000 0.500000
#
# Coordination Sequence:
#
# PCOD9428408 Si02
#       7
#     8   8   8   4   8   8   4
#     4  10  21  42  67  95 127 169 211 263 320 379
#     4  10  23  41  63  88 127 172 208 262 320 368
#     4  10  21  41  63  88 121 170 218 257 305 375
#     4  12  27  38  58  90 124 168 221 266 304 366
#     4  11  24  42  70  99 128 167 211 265 325 394
#     4  10  23  40  69  97 127 168 216 260 322 384
#     4  12  27  40  54  90 132 166 211 266 318 364
#
# _framework density 19.478724
#
# number of rings (size 3 to 8) (size 9 to 14) (size 15 to 20)
#    0.000    1.500    3.333    0.500    7.000    0.667 
#    0.000    1.667    0.000    0.000    0.000    0.000 
#    0.000    0.000    0.000    0.000    0.000    0.000 
#
# Total GULP energy -267664.297321 kJ/mol
# GULP energy per Si atom -5576.339528 kJ/mol
# Density = 1.943439 g / cm^3
# Si number density = 19.478724 Si / 1000 Ang^3
#
#
#
# Elastic Constant Matrix: (Units=GPa)
#
#
# Indices 1 2 3 4 5 6 
#
# 1 43.2204 26.9617 14.3722 0.0000 0.0000 0.0000
# 2 26.9617 173.7387 54.9157 0.0000 0.0000 0.0000
# 3 14.3722 54.9157 115.5832 0.0000 0.0000 0.0000
# 4 0.0000 0.0000 0.0000 25.9900 0.0000 0.0000
# 5 0.0000 0.0000 0.0000 0.0000 24.7109 0.0000
# 6 0.0000 0.0000 0.0000 0.0000 0.0000 13.9356
#
#
#
# Elastic Compliance Matrix: (Units=1/GPa)
#
#
# Indices 1 2 3 4 5 6 
#
# 1 0.025848 -0.003525 -0.001539 0.000000 0.000000 0.000000
# 2 -0.003525 0.007254 -0.003008 0.000000 0.000000 0.000000
# 3 -0.001539 -0.003008 0.010272 0.000000 0.000000 0.000000
# 4 0.000000 0.000000 0.000000 0.038476 0.000000 0.000000
# 5 0.000000 0.000000 0.000000 0.000000 0.040468 0.000000
# 6 0.000000 0.000000 0.000000 0.000000 0.000000 0.071759
#
#
# Mechanical properties :
#
#
# Convention : Reuss Voigt Hill
#
# Bulk Modulus (GPa) = 36.72475 58.33794 47.53135
# Shear Modulus (GPa) = 22.80009 28.68014 25.74012
#
# Velocity S-wave (km/s) = 3.42499 3.84133 3.63912
# Velocity P-wave (km/s) = 5.87668 7.04904 6.48939
#
# Compressibility (1/GPa) = 0.02722959
#
# Stress axis : x y z
#
# Youngs Moduli (GPa) = 38.68791 137.86412 97.34857
#
# Poissons Ratio (x) = 0.48592 0.14986
# Poissons Ratio (y) = 0.13636 0.29283
# Poissons Ratio (z) = 0.05956 0.41470
#
# Static dielectric constant tensor:
#      x y z
#    x 1.763120 0.000000 0.000000 
#    y 0.000000 1.693870 0.000000 
#    z 0.000000 0.000000 -5.176150 
# 
# From -- ./inp_files/21528.got.cif
#   From: 2010.05.17/outbox.cif.g08.bks.cpg/sg55_11_cif.got.tgz:21528.got - 2010.06.03 13:27:54.
