data_PCOD9428345
_publ_section_title
;
Structure prediction by ZEFSAII (Michael W. Deem and Ramdas Pophale) SiO2 
 PCOD9428345
Probable space group: P B A M
;
_chemical_formula_sum "Si O2"
_cell_formula_units_Z 48
_cell_length_a 9.847634
_cell_length_b 30.624348
_cell_length_c 7.616730
_cell_angle_alpha 90.000000
_cell_angle_beta 90.000000
_cell_angle_gamma 90.000000
_cell_volume 2297.033406
_symmetry_space_group_name_H-M "P B A M"
_symmetry_group_IT_number 55
_symmetry_cell_setting 'orthorhombic'
loop_
_space_group_symop_operation_xyz
x,y,z
-x,-y,z
1/2+x,1/2-y,-z
1/2-x,1/2+y,-z
-x,-y,-z
x,y,-z
1/2-x,1/2+y,z
1/2+x,1/2-y,z
loop_
_atom_site_type_symbol
_atom_site_label
_atom_site_fract_x
_atom_site_fract_y
_atom_site_fract_z
Si Si1 0.326202 0.785072 0.296583
Si Si2 0.023491 0.639456 0.790956
Si Si3 0.320796 0.630470 0.796160
Si Si4 0.893744 0.936148 0.500000
Si Si5 0.519302 0.707809 0.285838
Si Si6 0.696706 0.536299 0.500000
Si Si7 0.418311 0.955574 0.208801
O O1 0.307442 0.773011 0.500000
O O2 0.407229 0.830516 0.288836
O O3 0.426694 0.748207 0.222633
O O4 0.174504 0.788382 0.222008
O O5 0.176993 0.652350 0.741340
O O6 0.002967 0.588292 0.750794
O O7 0.010331 0.644700 0.000000
O O8 0.344552 0.589650 0.670890
O O9 0.443386 0.664124 0.773479
O O10 0.307571 0.617591 0.000000
O O11 0.056797 0.937557 0.500000
O O12 0.839575 0.985172 0.500000
O O13 0.521521 0.707164 0.500000
O O14 0.785656 0.546093 0.671534
O O15 0.500000 0.000000 0.249598
O O16 0.388649 0.955728 0.000000
#
# Coordination Sequence:
#
# PCOD9428345 Si02
#       7
#     8   8   8   4   8   4   8
#     4  10  22  37  64  94 128 171 211 264 323 380
#     4  10  23  39  60  93 127 165 217 267 319 385
#     4  11  24  42  66  92 128 173 212 263 322 376
#     4  11  26  44  64  93 133 165 218 265 314 397
#     4  10  21  40  62  93 130 168 215 262 318 384
#     4  11  25  42  66  95 126 174 211 266 328 382
#     4  10  22  41  66  95 131 168 218 275 323 384
#
# _framework density 20.896519000000001
#
# number of rings (size 3 to 8) (size 9 to 14) (size 15 to 20)
#    0.000    1.667    0.833    2.250    4.667    5.333 
#    0.000    1.667    0.000    0.000    0.000    0.000 
#    0.000    0.000    0.000    0.000    0.000    0.000 
#
# Total GULP energy -268317.954658 kJ/mol
# GULP energy per Si atom -5589.957389 kJ/mol
# Density = 2.084896 g / cm^3
# Si number density = 20.896519 Si / 1000 Ang^3
#
#
#
# Elastic Constant Matrix: (Units=GPa)
#
#
# Indices 1 2 3 4 5 6 
#
# 1 169.7169 23.2679 35.8243 0.0000 0.0000 0.0000
# 2 23.2679 49.2420 10.9133 0.0000 0.0000 0.0000
# 3 35.8243 10.9133 67.8496 0.0000 0.0000 0.0000
# 4 0.0000 0.0000 0.0000 22.2897 0.0000 0.0000
# 5 0.0000 0.0000 0.0000 0.0000 -28.2236 0.0000
# 6 0.0000 0.0000 0.0000 0.0000 0.0000 31.7886
#
#
#
# Elastic Compliance Matrix: (Units=1/GPa)
#
#
# Indices 1 2 3 4 5 6 
#
# 1 0.006928 -0.002554 -0.003247 0.000000 0.000000 0.000000
# 2 -0.002554 0.022000 -0.002190 0.000000 0.000000 0.000000
# 3 -0.003247 -0.002190 0.016805 0.000000 0.000000 0.000000
# 4 0.000000 0.000000 0.000000 0.044864 0.000000 0.000000
# 5 0.000000 0.000000 0.000000 0.000000 -0.035431 0.000000
# 6 0.000000 0.000000 0.000000 0.000000 0.000000 0.031458
#
#
# Mechanical properties :
#
#
# Convention : Reuss Voigt Hill
#
# Bulk Modulus (GPa) = 33.61255 47.42438 40.51847
# Shear Modulus (GPa) = 44.43572 19.62448 32.03010
#
# Velocity S-wave (km/s) = 4.61636 3.06784 3.91934
# Velocity P-wave (km/s) = 6.67342 5.94079 6.31774
#
# Compressibility (1/GPa) = 0.02975079
#
# Stress axis : x y z
#
# Youngs Moduli (GPa) = 144.34840 45.45448 59.50549
#
# Poissons Ratio (x) = 0.11608 0.19321
# Poissons Ratio (y) = 0.36865 0.13033
# Poissons Ratio (z) = 0.46870 0.09955
#
# Static dielectric constant tensor:
#      x y z
#    x 1.744740 0.000000 0.000000 
#    y 0.000000 1.724210 0.000000 
#    z 0.000000 0.000000 1.763940 
# 
# From -- ./inp_files/2927.got.cif
#   From: 2010.05.17/outbox.cif.g08.bks.cpg/sg55_2_cif.got.tgz:2927.got - 2010.06.03 13:27:54.
