data_PCOD9428265
_publ_section_title
;
Structure prediction by ZEFSAII (Michael W. Deem and Ramdas Pophale) SiO2 
 PCOD9428265
Probable space group: P B A M
;
_chemical_formula_sum "Si O2"
_cell_formula_units_Z 56
_cell_length_a 9.458878
_cell_length_b 20.356959
_cell_length_c 15.881456
_cell_angle_alpha 90.000000
_cell_angle_beta 90.000000
_cell_angle_gamma 90.000000
_cell_volume 3058.037746
_symmetry_space_group_name_H-M "P B A M"
_symmetry_group_IT_number 55
_symmetry_cell_setting 'orthorhombic'
loop_
_space_group_symop_operation_xyz
x,y,z
-x,-y,z
1/2+x,1/2-y,-z
1/2-x,1/2+y,-z
-x,-y,-z
x,y,-z
1/2-x,1/2+y,z
1/2+x,1/2-y,z
loop_
_atom_site_type_symbol
_atom_site_label
_atom_site_fract_x
_atom_site_fract_y
_atom_site_fract_z
Si Si1 0.195191 0.233927 0.790509
Si Si2 0.641817 0.328753 0.500000
Si Si3 0.197576 0.625526 0.340654
Si Si4 0.338366 0.989939 0.247624
Si Si5 0.927863 0.193437 0.099297
Si Si6 0.803452 0.190547 0.500000
Si Si7 0.370552 0.852015 0.660673
Si Si8 0.145422 0.960149 0.907160
O O1 0.260315 0.176253 0.733150
O O2 0.307716 0.263851 0.855432
O O3 0.146581 0.291864 0.726461
O O4 0.067226 0.206697 0.846201
O O5 0.692142 0.366231 0.416431
O O6 0.738277 0.263466 0.500000
O O7 0.474240 0.312794 0.500000
O O8 0.199659 0.551514 0.306221
O O9 0.035528 0.642876 0.366678
O O10 0.500000 0.000000 0.221070
O O11 0.331806 0.920494 0.295106
O O12 0.241636 0.986766 0.166496
O O13 0.886114 0.116889 0.104747
O O14 0.945120 0.209525 0.000000
O O15 0.735195 0.158630 0.583140
O O16 0.210449 0.968629 0.000000
O O17 0.000000 0.000000 0.905757
#
# Coordination Sequence:
#
# PCOD9428265 Si02
#       8
#     8   4   8   8   8   4   8   8
#     4  12  22  39  65  92 125 168 213 259 320 378
#     4  12  26  41  64  99 127 165 213 259 328 378
#     4  11  24  42  66  93 129 164 210 265 313 388
#     4  10  23  42  65  93 124 169 214 260 316 379
#     4  11  24  40  62  93 129 167 213 270 319 374
#     4  12  26  41  66  95 131 165 209 265 312 390
#     4  11  23  42  65  93 127 167 212 259 320 372
#     4  10  21  39  61  90 129 169 213 265 322 380
#
# _framework density 18.312396
#
# number of rings (size 3 to 8) (size 9 to 14) (size 15 to 20)
#    0.000    1.000    4.286    2.571    2.000    2.000 
#    0.000    3.571    0.000    0.000    0.000    0.000 
#    0.000    0.000    0.000    0.000    0.000    0.000 
#
# Total GULP energy -312906.314005 kJ/mol
# GULP energy per Si atom -5587.612750 kJ/mol
# Density = 1.827072 g / cm^3
# Si number density = 18.312396 Si / 1000 Ang^3
#
#
#
# Elastic Constant Matrix: (Units=GPa)
#
#
# Indices 1 2 3 4 5 6 
#
# 1 118.6351 16.7339 70.0383 0.0000 0.0000 0.0000
# 2 16.7339 47.1698 15.9454 0.0000 0.0000 0.0000
# 3 70.0383 15.9454 108.3012 0.0000 0.0000 0.0000
# 4 0.0000 0.0000 0.0000 70.6080 0.0000 0.0000
# 5 0.0000 0.0000 0.0000 0.0000 39.4081 0.0000
# 6 0.0000 0.0000 0.0000 0.0000 0.0000 23.5402
#
#
#
# Elastic Compliance Matrix: (Units=1/GPa)
#
#
# Indices 1 2 3 4 5 6 
#
# 1 0.013808 -0.001978 -0.008638 0.000000 0.000000 0.000000
# 2 -0.001978 0.022594 -0.002047 0.000000 0.000000 0.000000
# 3 -0.008638 -0.002047 0.015121 0.000000 0.000000 0.000000
# 4 0.000000 0.000000 0.000000 0.014163 0.000000 0.000000
# 5 0.000000 0.000000 0.000000 0.000000 0.025376 0.000000
# 6 0.000000 0.000000 0.000000 0.000000 0.000000 0.042480
#
#
# Mechanical properties :
#
#
# Convention : Reuss Voigt Hill
#
# Bulk Modulus (GPa) = 38.17451 53.28238 45.72845
# Shear Modulus (GPa) = 29.83263 38.13715 33.98489
#
# Velocity S-wave (km/s) = 4.04058 4.56849 4.31262
# Velocity P-wave (km/s) = 6.53146 7.54901 7.05860
#
# Compressibility (1/GPa) = 0.02619549
#
# Stress axis : x y z
#
# Youngs Moduli (GPa) = 72.42120 44.25981 66.13155
#
# Poissons Ratio (x) = 0.08756 0.57127
# Poissons Ratio (y) = 0.14328 0.13538
# Poissons Ratio (z) = 0.62560 0.09061
#
# Static dielectric constant tensor:
#      x y z
#    x 1.617600 0.000000 0.000000 
#    y 0.000000 1.619420 0.000000 
#    z 0.000000 0.000000 1.635130 
# 
# From -- ./inp_files/17695.got.cif
#   From: 2010.05.17/outbox.cif.g08.bks.cpg/sg55_9_cif.got.tgz:17695.got - 2010.06.03 13:27:54.
