data_PCOD9428453
_publ_section_title
;
Structure prediction by ZEFSAII (Michael W. Deem and Ramdas Pophale) SiO2 
 PCOD9428453
Probable space group: P B A M
;
_chemical_formula_sum "Si O2"
_cell_formula_units_Z 30
_cell_length_a 4.748694
_cell_length_b 18.316102
_cell_length_c 13.393770
_cell_angle_alpha 90.000000
_cell_angle_beta 90.000000
_cell_angle_gamma 90.000000
_cell_volume 1164.957483
_symmetry_space_group_name_H-M "P B A M"
_symmetry_group_IT_number 55
_symmetry_cell_setting 'orthorhombic'
loop_
_space_group_symop_operation_xyz
x,y,z
-x,-y,z
1/2+x,1/2-y,-z
1/2-x,1/2+y,-z
-x,-y,-z
x,y,-z
1/2-x,1/2+y,z
1/2+x,1/2-y,z
loop_
_atom_site_type_symbol
_atom_site_label
_atom_site_fract_x
_atom_site_fract_y
_atom_site_fract_z
Si Si1 0.799909 0.428817 0.179701
Si Si2 0.107548 0.302638 0.500000
Si Si3 0.184175 0.573900 0.394227
Si Si4 0.824750 0.704636 0.119966
Si Si5 0.000000 0.000000 0.000000
O O1 0.661449 0.422898 0.288926
O O2 0.018624 0.363511 0.165354
O O3 0.000000 0.500000 0.174900
O O4 0.592104 0.441139 0.087656
O O5 0.917246 0.229688 0.500000
O O6 0.018225 0.355389 0.408379
O O7 0.349797 0.573287 0.500000
O O8 0.000000 0.500000 0.392685
O O9 0.007939 0.776454 0.147611
O O10 0.842360 0.696522 0.000000
#
# Coordination Sequence:
#
# PCOD9428453 Si02
#       5
#     8   4   8   8   2
#     4  11  24  42  68  97 139 183 236 299 355 422
#     4  10  21  42  71 104 142 180 236 298 349 426
#     4   8  19  45  66  97 136 182 231 283 360 426
#     4  10  23  40  63  92 134 182 228 282 352 422
#     4  12  26  40  66 102 132 176 248 292 354 414
#
# _framework density 25.752013999999999
#
# number of rings (size 3 to 8) (size 9 to 14) (size 15 to 20)
#    0.800    1.333    1.333    0.400    3.733    2.133 
#    9.600    2.000    0.000    0.000    0.000    0.000 
#    0.000    0.000    0.000    0.000    0.000    0.000 
#
# Total GULP energy -167262.308451 kJ/mol
# GULP energy per Si atom -5575.410282 kJ/mol
# Density = 2.569340 g / cm^3
# Si number density = 25.752014 Si / 1000 Ang^3
#
#
#
# Elastic Constant Matrix: (Units=GPa)
#
#
# Indices 1 2 3 4 5 6 
#
# 1 68.2241 16.0826 31.9168 0.0000 0.0000 0.0000
# 2 16.0826 143.3835 15.6278 0.0000 0.0000 0.0000
# 3 31.9168 15.6278 220.6412 0.0000 0.0000 0.0000
# 4 0.0000 0.0000 0.0000 -49.4809 0.0000 0.0000
# 5 0.0000 0.0000 0.0000 0.0000 -5.1793 0.0000
# 6 0.0000 0.0000 0.0000 0.0000 0.0000 48.0656
#
#
#
# Elastic Compliance Matrix: (Units=1/GPa)
#
#
# Indices 1 2 3 4 5 6 
#
# 1 0.016061 -0.001560 -0.002213 0.000000 0.000000 0.000000
# 2 -0.001560 0.007180 -0.000283 0.000000 0.000000 0.000000
# 3 -0.002213 -0.000283 0.004872 0.000000 0.000000 0.000000
# 4 0.000000 0.000000 0.000000 -0.020210 0.000000 0.000000
# 5 0.000000 0.000000 0.000000 0.000000 -0.193077 0.000000
# 6 0.000000 0.000000 0.000000 0.000000 0.000000 0.020805
#
#
# Mechanical properties :
#
#
# Convention : Reuss Voigt Hill
#
# Bulk Modulus (GPa) = 49.99663 62.16702 56.08183
# Shear Modulus (GPa) = -33.42465 23.25585 -5.08440
#
# Velocity S-wave (km/s) = -3.60661 3.00837 -1.40665
# Velocity P-wave (km/s) = 1.45373 6.02164 4.38026
#
# Compressibility (1/GPa) = 0.02000135
#
# Stress axis : x y z
#
# Youngs Moduli (GPa) = 62.26440 139.27304 205.23923
#
# Poissons Ratio (x) = 0.21730 0.45414
# Poissons Ratio (y) = 0.09715 0.05805
# Poissons Ratio (z) = 0.13777 0.03940
#
# Static dielectric constant tensor:
#      x y z
#    x 1.995260 0.000000 0.000000 
#    y 0.000000 2.035070 0.000000 
#    z 0.000000 0.000000 2.034780 
# 
# From -- ./inp_files/16422.got.cif
#   From: 2010.05.17/outbox.cif.g08.bks.cpg/sg55_9_cif.got.tgz:16422.got - 2010.06.03 13:27:54.
