data_PCOD9428130
_publ_section_title
;
Structure prediction by ZEFSAII (Michael W. Deem and Ramdas Pophale) SiO2 
 PCOD9428130
Probable space group: P B A M
;
_chemical_formula_sum "Si O2"
_cell_formula_units_Z 64
_cell_length_a 24.142955
_cell_length_b 15.462946
_cell_length_c 9.410458
_cell_angle_alpha 90.000000
_cell_angle_beta 90.000000
_cell_angle_gamma 90.000000
_cell_volume 3513.123562
_symmetry_space_group_name_H-M "P B A M"
_symmetry_group_IT_number 55
_symmetry_cell_setting 'orthorhombic'
loop_
_space_group_symop_operation_xyz
x,y,z
-x,-y,z
1/2+x,1/2-y,-z
1/2-x,1/2+y,-z
-x,-y,-z
x,y,-z
1/2-x,1/2+y,z
1/2+x,1/2-y,z
loop_
_atom_site_type_symbol
_atom_site_label
_atom_site_fract_x
_atom_site_fract_y
_atom_site_fract_z
Si Si1 0.072785 0.746236 0.827090
Si Si2 0.550541 0.560958 0.827216
Si Si3 0.666258 0.471156 0.170217
Si Si4 0.013728 0.400336 0.170651
Si Si5 0.695251 0.298926 0.335834
Si Si6 0.126338 0.374649 0.663865
Si Si7 0.789529 0.509247 0.836126
Si Si8 0.803769 0.301681 0.166015
O O1 0.048988 0.839050 0.780217
O O2 0.136668 0.732714 0.784915
O O3 0.034682 0.665639 0.784072
O O4 0.073383 0.746322 0.000000
O O5 0.500000 0.500000 0.777799
O O6 0.610567 0.521551 0.790184
O O7 0.547927 0.561879 0.000000
O O8 0.671297 0.381100 0.252337
O O9 0.724290 0.520398 0.197285
O O10 0.665036 0.454864 0.000000
O O11 0.070341 0.377073 0.247285
O O12 0.000000 0.500000 0.202052
O O13 0.020046 0.392733 0.000000
O O14 0.706028 0.321768 0.500000
O O15 0.652865 0.220220 0.330261
O O16 0.752307 0.271639 0.259644
O O17 0.116049 0.397613 0.500000
O O18 0.170552 0.439454 0.733125
O O19 0.802349 0.406544 0.827753
O O20 0.799057 0.535963 0.000000
O O21 0.795722 0.277530 0.000000
#
# Coordination Sequence:
#
# PCOD9428130 Si02
#       8
#     8   8   8   8   8   8   8   8
#     4   9  18  32  55  85 114 144 179 230 284 327
#     4   9  18  31  51  83 115 139 177 231 279 331
#     4   9  19  35  57  83 109 141 184 228 279 334
#     4  10  21  38  60  85 112 146 187 232 282 333
#     4  10  22  37  53  78 113 148 184 225 272 332
#     4  11  24  37  53  80 113 150 189 225 272 335
#     4   9  18  33  54  82 109 140 182 231 280 334
#     4   9  18  35  59  84 110 140 181 227 280 333
#
# _framework density 18.217406
#
# number of rings (size 3 to 8) (size 9 to 14) (size 15 to 20)
#    0.000    2.500    0.000    2.250    3.500    6.250 
#    0.000    0.625    0.000    1.125    0.000    0.000 
#    0.000    0.000    0.000    0.000    0.000    0.000 
#
# Total GULP energy -357094.002387 kJ/mol
# GULP energy per Si atom -5579.593787 kJ/mol
# Density = 1.817594 g / cm^3
# Si number density = 18.217406 Si / 1000 Ang^3
#
#
#
# Elastic Constant Matrix: (Units=GPa)
#
#
# Indices 1 2 3 4 5 6 
#
# 1 129.9287 63.9394 35.4745 0.0000 0.0000 0.0000
# 2 63.9394 80.2544 27.7995 0.0000 0.0000 0.0000
# 3 35.4745 27.7995 31.1523 0.0000 0.0000 0.0000
# 4 0.0000 0.0000 0.0000 27.2825 0.0000 0.0000
# 5 0.0000 0.0000 0.0000 0.0000 -7.8946 0.0000
# 6 0.0000 0.0000 0.0000 0.0000 0.0000 25.6890
#
#
#
# Elastic Compliance Matrix: (Units=1/GPa)
#
#
# Indices 1 2 3 4 5 6 
#
# 1 0.014137 -0.008231 -0.008753 0.000000 0.000000 0.000000
# 2 -0.008231 0.022828 -0.010998 0.000000 0.000000 0.000000
# 3 -0.008753 -0.010998 0.051882 0.000000 0.000000 0.000000
# 4 0.000000 0.000000 0.000000 0.036653 0.000000 0.000000
# 5 0.000000 0.000000 0.000000 0.000000 -0.126669 0.000000
# 6 0.000000 0.000000 0.000000 0.000000 0.000000 0.038927
#
#
# Mechanical properties :
#
#
# Convention : Reuss Voigt Hill
#
# Bulk Modulus (GPa) = 30.41114 55.08469 42.74792
# Shear Modulus (GPa) = 47.76310 16.62353 32.19331
#
# Velocity S-wave (km/s) = 5.12594 3.02405 4.20834
# Velocity P-wave (km/s) = 7.19468 6.51891 6.86512
#
# Compressibility (1/GPa) = 0.03288268
#
# Stress axis : x y z
#
# Youngs Moduli (GPa) = 70.73628 43.80651 19.27447
#
# Poissons Ratio (x) = 0.36057 0.16871
# Poissons Ratio (y) = 0.58223 0.21198
# Poissons Ratio (z) = 0.61917 0.48177
#
# Static dielectric constant tensor:
#      x y z
#    x 1.612560 0.000000 0.000000 
#    y 0.000000 1.618940 0.000000 
#    z 0.000000 0.000000 1.598240 
# 
# From -- ./inp_files/9821.got.cif
#   From: 2010.05.17/outbox.cif.g08.bks.cpg/sg55_5_cif.got.tgz:9821.got - 2010.06.03 13:27:54.
