data_PCOD9428692
_publ_section_title
;
Structure prediction by ZEFSAII (Michael W. Deem and Ramdas Pophale) SiO2 
 PCOD9428692
Probable space group: P B A M
;
_chemical_formula_sum "Si O2"
_cell_formula_units_Z 36
_cell_length_a 4.910234
_cell_length_b 12.130406
_cell_length_c 23.862489
_cell_angle_alpha 90.000000
_cell_angle_beta 90.000000
_cell_angle_gamma 90.000000
_cell_volume 1421.324582
_symmetry_space_group_name_H-M "P B A M"
_symmetry_group_IT_number 55
_symmetry_cell_setting 'orthorhombic'
loop_
_space_group_symop_operation_xyz
x,y,z
-x,-y,z
1/2+x,1/2-y,-z
1/2-x,1/2+y,-z
-x,-y,-z
x,y,-z
1/2-x,1/2+y,z
1/2+x,1/2-y,z
loop_
_atom_site_type_symbol
_atom_site_label
_atom_site_fract_x
_atom_site_fract_y
_atom_site_fract_z
Si Si1 0.854370 0.322988 0.000000
Si Si2 0.000000 0.000000 0.795912
Si Si3 0.239604 0.925301 0.386712
Si Si4 0.327540 0.818909 0.727933
Si Si5 0.474024 0.316703 0.500000
Si Si6 0.711964 0.829696 0.123852
O O1 0.780647 0.374276 0.059693
O O2 0.670928 0.210898 0.000000
O O3 0.800793 0.076450 0.758641
O O4 0.187242 0.075565 0.835547
O O5 0.316069 0.838896 0.338902
O O6 0.120456 0.875771 0.443647
O O7 0.500000 0.000000 0.398756
O O8 0.000000 0.000000 0.361958
O O9 0.632764 0.784267 0.741762
O O10 0.795488 0.295612 0.500000
O O11 0.416557 0.774675 0.131218
#
# Coordination Sequence:
#
# PCOD9428692 Si02
#       6
#     4   4   8   8   4   8
#     4   8  16  35  62  89 128 166 210 271 335 396
#     4  12  26  43  68  95 134 178 230 276 332 402
#     4  12  24  45  70 100 132 176 227 277 335 404
#     4  12  27  46  68  97 134 179 226 279 336 398
#     4  12  24  42  68 102 138 174 218 273 339 404
#     4  10  22  41  64  96 130 171 219 276 336 397
#
# _framework density 25.328482999999999
#
# number of rings (size 3 to 8) (size 9 to 14) (size 15 to 20)
#    0.000    0.889    1.111    6.000    0.000    3.111 
#    0.000    0.000    0.000    8.000    0.000    0.000 
#    0.000    0.000    0.000    0.000    0.000    0.000 
#
# Total GULP energy -201963.444145 kJ/mol
# GULP energy per Si atom -5610.095671 kJ/mol
# Density = 2.527083 g / cm^3
# Si number density = 25.328483 Si / 1000 Ang^3
#
#
#
# Elastic Constant Matrix: (Units=GPa)
#
#
# Indices 1 2 3 4 5 6 
#
# 1 90.8611 6.7341 -11.4940 0.0000 0.0000 0.0000
# 2 6.7341 74.0024 45.0425 0.0000 0.0000 0.0000
# 3 -11.4940 45.0425 149.7466 0.0000 0.0000 0.0000
# 4 0.0000 0.0000 0.0000 61.1795 0.0000 0.0000
# 5 0.0000 0.0000 0.0000 0.0000 -110.8423 0.0000
# 6 0.0000 0.0000 0.0000 0.0000 0.0000 34.5340
#
#
#
# Elastic Compliance Matrix: (Units=1/GPa)
#
#
# Indices 1 2 3 4 5 6 
#
# 1 0.011330 -0.001910 0.001444 0.000000 0.000000 0.000000
# 2 -0.001910 0.016864 -0.005219 0.000000 0.000000 0.000000
# 3 0.001444 -0.005219 0.008359 0.000000 0.000000 0.000000
# 4 0.000000 0.000000 0.000000 0.016345 0.000000 0.000000
# 5 0.000000 0.000000 0.000000 0.000000 -0.009022 0.000000
# 6 0.000000 0.000000 0.000000 0.000000 0.000000 0.028957
#
#
# Mechanical properties :
#
#
# Convention : Reuss Voigt Hill
#
# Bulk Modulus (GPa) = 39.71018 43.90837 41.80927
# Shear Modulus (GPa) = 53.99768 15.26274 34.63021
#
# Velocity S-wave (km/s) = 4.62225 2.45744 3.70164
# Velocity P-wave (km/s) = 6.64824 5.04234 5.90018
#
# Compressibility (1/GPa) = 0.02518246
#
# Stress axis : x y z
#
# Youngs Moduli (GPa) = 88.26082 59.29964 119.63685
#
# Poissons Ratio (x) = 0.11326 -0.17278
# Poissons Ratio (y) = 0.16858 0.62439
# Poissons Ratio (z) = -0.12746 0.30949
#
# Static dielectric constant tensor:
#      x y z
#    x 1.916470 0.000000 0.000000 
#    y 0.000000 1.990180 0.000000 
#    z 0.000000 0.000000 2.016310 
# 
# From -- ./inp_files/23261.got.cif
#   From: 2010.05.17/outbox.cif.g08.bks.cpg/sg55_12_cif.got.tgz:23261.got - 2010.06.03 13:27:54.
