data_PCOD9428973
_publ_section_title
;
Structure prediction by ZEFSAII (Michael W. Deem and Ramdas Pophale) SiO2 
 PCOD9428973
Probable space group: P B A M
;
_chemical_formula_sum "Si O2"
_cell_formula_units_Z 32
_cell_length_a 10.493167
_cell_length_b 14.277535
_cell_length_c 8.507538
_cell_angle_alpha 90.000000
_cell_angle_beta 90.000000
_cell_angle_gamma 90.000000
_cell_volume 1274.570070
_symmetry_space_group_name_H-M "P B A M"
_symmetry_group_IT_number 55
_symmetry_cell_setting 'orthorhombic'
loop_
_space_group_symop_operation_xyz
x,y,z
-x,-y,z
1/2+x,1/2-y,-z
1/2-x,1/2+y,-z
-x,-y,-z
x,y,-z
1/2-x,1/2+y,z
1/2+x,1/2-y,z
loop_
_atom_site_type_symbol
_atom_site_label
_atom_site_fract_x
_atom_site_fract_y
_atom_site_fract_z
Si Si1 0.807673 0.153689 0.180919
Si Si2 0.028414 0.694496 0.315511
Si Si3 0.593479 0.366917 0.821627
Si Si4 0.818868 0.479185 0.316161
O O1 0.844166 0.241395 0.290167
O O2 0.946324 0.100450 0.186291
O O3 0.705417 0.078262 0.234930
O O4 0.792056 0.182811 0.000000
O O5 0.996783 0.692922 0.500000
O O6 0.070654 0.591783 0.260635
O O7 0.926163 0.756328 0.220161
O O8 0.688791 0.420178 0.708792
O O9 0.639790 0.378644 0.000000
O O10 0.839357 0.495463 0.500000
#
# Coordination Sequence:
#
# PCOD9428973 Si02
#       4
#     8   8   8   8
#     4   9  19  32  48  73 100 127 160 198 239 284
#     4   9  19  33  47  71 100 126 161 198 239 287
#     4   9  19  32  48  73 100 127 160 198 239 284
#     4  11  20  30  52  75  97 131 158 196 247 284
#
# _framework density 25.106506
#
# number of rings (size 3 to 8) (size 9 to 14) (size 15 to 20)
#    1.500    1.000    0.000    3.000    0.000    7.000 
#    0.000    0.000    0.000    1.500    0.000   10.500 
#    0.000    0.000    0.000    0.000    0.000    0.000 
#
# Total GULP energy -178800.831877 kJ/mol
# GULP energy per Si atom -5587.525996 kJ/mol
# Density = 2.504936 g / cm^3
# Si number density = 25.106506 Si / 1000 Ang^3
#
#
#
# Elastic Constant Matrix: (Units=GPa)
#
#
# Indices 1 2 3 4 5 6 
#
# 1 105.6605 16.8309 11.0283 0.0000 0.0000 0.0000
# 2 16.8309 134.4141 11.4960 0.0000 0.0000 0.0000
# 3 11.0283 11.4960 64.0208 0.0000 0.0000 0.0000
# 4 0.0000 0.0000 0.0000 13.0089 0.0000 0.0000
# 5 0.0000 0.0000 0.0000 0.0000 10.9836 0.0000
# 6 0.0000 0.0000 0.0000 0.0000 0.0000 54.3284
#
#
#
# Elastic Compliance Matrix: (Units=1/GPa)
#
#
# Indices 1 2 3 4 5 6 
#
# 1 0.009795 -0.001099 -0.001490 0.000000 0.000000 0.000000
# 2 -0.001099 0.007679 -0.001190 0.000000 0.000000 0.000000
# 3 -0.001490 -0.001190 0.016090 0.000000 0.000000 0.000000
# 4 0.000000 0.000000 0.000000 0.076870 0.000000 0.000000
# 5 0.000000 0.000000 0.000000 0.000000 0.091045 0.000000
# 6 0.000000 0.000000 0.000000 0.000000 0.000000 0.018407
#
#
# Mechanical properties :
#
#
# Convention : Reuss Voigt Hill
#
# Bulk Modulus (GPa) = 38.45118 42.53397 40.49257
# Shear Modulus (GPa) = 21.17637 33.31353 27.24495
#
# Velocity S-wave (km/s) = 2.90739 3.64660 3.29777
# Velocity P-wave (km/s) = 5.15936 5.89139 5.53749
#
# Compressibility (1/GPa) = 0.02600700
#
# Stress axis : x y z
#
# Youngs Moduli (GPa) = 102.09444 130.22433 62.14967
#
# Poissons Ratio (x) = 0.14312 0.09260
# Poissons Ratio (y) = 0.11221 0.07393
# Poissons Ratio (z) = 0.15211 0.15491
#
# Static dielectric constant tensor:
#      x y z
#    x 2.161050 0.000000 0.000000 
#    y 0.000000 2.052190 0.000000 
#    z 0.000000 0.000000 1.828720 
# 
# From -- ./inp_files/3328.got.cif
#   From: 2010.05.17/outbox.cif.g08.bks.cpg/sg55_2_cif.got.tgz:3328.got - 2010.06.03 13:27:54.
