data_PCOD9428568
_publ_section_title
;
Structure prediction by ZEFSAII (Michael W. Deem and Ramdas Pophale) SiO2 
 PCOD9428568
Probable space group: P B A M
;
_chemical_formula_sum "Si O2"
_cell_formula_units_Z 64
_cell_length_a 9.383410
_cell_length_b 28.536811
_cell_length_c 11.687836
_cell_angle_alpha 90.000000
_cell_angle_beta 90.000000
_cell_angle_gamma 90.000000
_cell_volume 3129.682207
_symmetry_space_group_name_H-M "P B A M"
_symmetry_group_IT_number 55
_symmetry_cell_setting 'orthorhombic'
loop_
_space_group_symop_operation_xyz
x,y,z
-x,-y,z
1/2+x,1/2-y,-z
1/2-x,1/2+y,-z
-x,-y,-z
x,y,-z
1/2-x,1/2+y,z
1/2+x,1/2-y,z
loop_
_atom_site_type_symbol
_atom_site_label
_atom_site_fract_x
_atom_site_fract_y
_atom_site_fract_z
Si Si1 0.350701 0.412013 0.364670
Si Si2 0.547428 0.802080 0.377368
Si Si3 0.316780 0.067886 0.133976
Si Si4 0.807556 0.762581 0.282441
Si Si5 0.070026 0.139082 0.219139
Si Si6 0.789765 0.178370 0.875692
Si Si7 0.569807 0.116590 0.244889
Si Si8 0.650496 0.526322 0.129274
O O1 0.362100 0.426730 0.500000
O O2 0.482905 0.376798 0.334585
O O3 0.190401 0.392434 0.341961
O O4 0.356490 0.446065 0.250948
O O5 0.501051 0.819156 0.500000
O O6 0.701471 0.780151 0.378253
O O7 0.443322 0.762320 0.333645
O O8 0.538800 0.844799 0.291319
O O9 0.185478 0.099882 0.183035
O O10 0.466833 0.076471 0.198047
O O11 0.268965 0.014000 0.141349
O O12 0.332696 0.080241 0.000000
O O13 0.854262 0.810382 0.221352
O O14 0.728324 0.721937 0.210358
O O15 0.934858 0.149091 0.137508
O O16 0.662638 0.141872 0.852557
O O17 0.779464 0.199330 0.000000
O O18 0.500000 0.500000 0.122095
O O19 0.670259 0.548607 0.000000
#
# Coordination Sequence:
#
# PCOD9428568 Si02
#       8
#     8   8   8   8   8   8   8   8
#     4  11  25  45  70  97 132 173 220 272 331 397
#     4  11  22  39  60  81 120 165 207 260 312 372
#     4  11  22  40  68  99 130 167 214 268 324 398
#     4  11  22  40  55  89 120 157 216 257 313 373
#     4  11  22  41  62  92 126 167 219 268 320 384
#     4  10  22  39  60  86 127 172 209 261 321 378
#     4  10  23  42  61  94 129 163 216 260 323 379
#     4  10  22  43  70 100 134 170 213 265 328 399
#
# _framework density 20.449359000000001
#
# number of rings (size 3 to 8) (size 9 to 14) (size 15 to 20)
#    0.000    1.375    3.750    1.500    0.000    5.250 
#    0.000    3.125    0.000    0.000    0.000    0.000 
#    0.000    0.000    0.000    0.000    0.000    0.000 
#
# Total GULP energy -356281.865064 kJ/mol
# GULP energy per Si atom -5566.904142 kJ/mol
# Density = 2.040282 g / cm^3
# Si number density = 20.449359 Si / 1000 Ang^3
#
#
#
# Elastic Constant Matrix: (Units=GPa)
#
#
# Indices 1 2 3 4 5 6 
#
# 1 136.2224 -3.0607 26.2137 0.0000 0.0000 0.0000
# 2 -3.0607 57.9751 27.1545 0.0000 0.0000 0.0000
# 3 26.2137 27.1545 98.2501 0.0000 0.0000 0.0000
# 4 0.0000 0.0000 0.0000 79.5142 0.0000 0.0000
# 5 0.0000 0.0000 0.0000 0.0000 70.0403 0.0000
# 6 0.0000 0.0000 0.0000 0.0000 0.0000 36.6971
#
#
#
# Elastic Compliance Matrix: (Units=1/GPa)
#
#
# Indices 1 2 3 4 5 6 
#
# 1 0.007866 0.001606 -0.002543 0.000000 0.000000 0.000000
# 2 0.001606 0.020142 -0.005995 0.000000 0.000000 0.000000
# 3 -0.002543 -0.005995 0.012514 0.000000 0.000000 0.000000
# 4 0.000000 0.000000 0.000000 0.012576 0.000000 0.000000
# 5 0.000000 0.000000 0.000000 0.000000 0.014277 0.000000
# 6 0.000000 0.000000 0.000000 0.000000 0.000000 0.027250
#
#
# Mechanical properties :
#
#
# Convention : Reuss Voigt Hill
#
# Bulk Modulus (GPa) = 37.51229 43.67362 40.59295
# Shear Modulus (GPa) = 42.59846 53.39300 47.99573
#
# Velocity S-wave (km/s) = 4.56907 5.11532 4.84990
# Velocity P-wave (km/s) = 6.79846 7.50280 7.15930
#
# Compressibility (1/GPa) = 0.02665793
#
# Stress axis : x y z
#
# Youngs Moduli (GPa) = 127.12407 49.64823 79.91353
#
# Poissons Ratio (x) = -0.07975 0.20320
# Poissons Ratio (y) = -0.20419 0.47911
# Poissons Ratio (z) = 0.32324 0.29766
#
# Static dielectric constant tensor:
#      x y z
#    x 1.729730 0.000000 0.000000 
#    y 0.000000 1.754930 0.000000 
#    z 0.000000 0.000000 2.052630 
# 
# From -- ./inp_files/12596.got.cif
#   From: 2010.05.17/outbox.cif.g08.bks.cpg/sg55_7_cif.got.tgz:12596.got - 2010.06.03 13:27:54.
