data_PCOD9428275
_publ_section_title
;
Structure prediction by ZEFSAII (Michael W. Deem and Ramdas Pophale) SiO2 
 PCOD9428275
Probable space group: P B A M
;
_chemical_formula_sum "Si O2"
_cell_formula_units_Z 56
_cell_length_a 18.783888
_cell_length_b 17.517335
_cell_length_c 8.004263
_cell_angle_alpha 90.000000
_cell_angle_beta 90.000000
_cell_angle_gamma 90.000000
_cell_volume 2633.751983
_symmetry_space_group_name_H-M "P B A M"
_symmetry_group_IT_number 55
_symmetry_cell_setting 'orthorhombic'
loop_
_space_group_symop_operation_xyz
x,y,z
-x,-y,z
1/2+x,1/2-y,-z
1/2-x,1/2+y,-z
-x,-y,-z
x,y,-z
1/2-x,1/2+y,z
1/2+x,1/2-y,z
loop_
_atom_site_type_symbol
_atom_site_label
_atom_site_fract_x
_atom_site_fract_y
_atom_site_fract_z
Si Si1 0.860760 0.437021 0.703261
Si Si2 0.115579 0.819737 0.202688
Si Si3 0.520551 0.816602 0.196402
Si Si4 0.298256 0.602413 0.302828
Si Si5 0.231277 0.265193 0.806342
Si Si6 0.124421 0.388773 0.306190
Si Si7 0.419804 0.490728 0.299451
O O1 0.864425 0.430233 0.500000
O O2 0.915684 0.376804 0.778148
O O3 0.780181 0.420289 0.761071
O O4 0.880714 0.523570 0.749773
O O5 0.050880 0.764874 0.255454
O O6 0.190065 0.783137 0.262205
O O7 0.106986 0.905610 0.263289
O O8 0.117274 0.819983 0.000000
O O9 0.451079 0.847392 0.287540
O O10 0.503478 0.810950 0.000000
O O11 0.295808 0.586004 0.500000
O O12 0.305513 0.692835 0.278943
O O13 0.363080 0.552509 0.232392
O O14 0.183399 0.340036 0.788815
O O15 0.238910 0.244785 0.000000
O O16 0.146085 0.390136 0.500000
O O17 0.500000 0.500000 0.232477
O O18 0.423546 0.500890 0.500000
#
# Coordination Sequence:
#
# PCOD9428275 Si02
#       7
#     8   8   8   8   8   8   8
#     4  10  21  39  62  88 120 160 205 250 304 367
#     4  10  23  42  62  88 123 162 206 250 305 367
#     4  11  23  40  61  91 127 161 200 248 304 367
#     4  10  21  39  62  89 121 160 206 254 308 365
#     4  11  23  41  63  91 123 162 208 254 305 365
#     4  11  24  40  61  91 124 158 201 251 303 362
#     4  10  23  41  63  93 126 162 210 261 308 363
#
# _framework density 21.262443000000001
#
# number of rings (size 3 to 8) (size 9 to 14) (size 15 to 20)
#    0.000    1.571    1.429    2.571    2.000    7.143 
#    0.000    0.000    0.000    0.000    0.000    0.000 
#    0.000    0.000    0.000    0.000    0.000    0.000 
#
# Total GULP energy -313080.192606 kJ/mol
# GULP energy per Si atom -5590.717725 kJ/mol
# Density = 2.121405 g / cm^3
# Si number density = 21.262443 Si / 1000 Ang^3
#
#
#
# Elastic Constant Matrix: (Units=GPa)
#
#
# Indices 1 2 3 4 5 6 
#
# 1 33.3364 -5.5351 -0.6211 0.0000 0.0000 0.0000
# 2 -5.5351 72.5856 -14.6418 0.0000 0.0000 0.0000
# 3 -0.6211 -14.6418 12.6410 0.0000 0.0000 0.0000
# 4 0.0000 0.0000 0.0000 35.8508 0.0000 0.0000
# 5 0.0000 0.0000 0.0000 0.0000 18.7745 0.0000
# 6 0.0000 0.0000 0.0000 0.0000 0.0000 10.7373
#
#
#
# Elastic Compliance Matrix: (Units=1/GPa)
#
#
# Indices 1 2 3 4 5 6 
#
# 1 0.030672 0.003449 0.005502 0.000000 0.000000 0.000000
# 2 0.003449 0.018365 0.021441 0.000000 0.000000 0.000000
# 3 0.005502 0.021441 0.104213 0.000000 0.000000 0.000000
# 4 0.000000 0.000000 0.000000 0.027893 0.000000 0.000000
# 5 0.000000 0.000000 0.000000 0.000000 0.053264 0.000000
# 6 0.000000 0.000000 0.000000 0.000000 0.000000 0.093134
#
#
# Mechanical properties :
#
#
# Convention : Reuss Voigt Hill
#
# Bulk Modulus (GPa) = 4.67217 8.55188 6.61202
# Shear Modulus (GPa) = 14.78845 22.36325 18.57585
#
# Velocity S-wave (km/s) = 2.64013 3.24662 2.95896
# Velocity P-wave (km/s) = 3.39056 4.25263 3.84583
#
# Compressibility (1/GPa) = 0.21403331
#
# Stress axis : x y z
#
# Youngs Moduli (GPa) = 32.60263 54.45176 9.59576
#
# Poissons Ratio (x) = -0.18779 -0.05279
# Poissons Ratio (y) = -0.11244 -0.20574
# Poissons Ratio (z) = -0.17937 -1.16751
#
# Static dielectric constant tensor:
#      x y z
#    x 1.758850 0.000000 0.000000 
#    y 0.000000 1.730800 0.000000 
#    z 0.000000 0.000000 1.779320 
# 
# From -- ./inp_files/8739.got.cif
#   From: 2010.05.17/outbox.cif.g08.bks.cpg/sg55_5_cif.got.tgz:8739.got - 2010.06.03 13:27:54.
