data_PCOD9428399
_publ_section_title
;
Structure prediction by ZEFSAII (Michael W. Deem and Ramdas Pophale) SiO2 
 PCOD9428399
Probable space group: P B A M
;
_chemical_formula_sum "Si O2"
_cell_formula_units_Z 48
_cell_length_a 17.328302
_cell_length_b 8.869848
_cell_length_c 13.745587
_cell_angle_alpha 90.000000
_cell_angle_beta 90.000000
_cell_angle_gamma 90.000000
_cell_volume 2112.688541
_symmetry_space_group_name_H-M "P B A M"
_symmetry_group_IT_number 55
_symmetry_cell_setting 'orthorhombic'
loop_
_space_group_symop_operation_xyz
x,y,z
-x,-y,z
1/2+x,1/2-y,-z
1/2-x,1/2+y,-z
-x,-y,-z
x,y,-z
1/2-x,1/2+y,z
1/2+x,1/2-y,z
loop_
_atom_site_type_symbol
_atom_site_label
_atom_site_fract_x
_atom_site_fract_y
_atom_site_fract_z
Si Si1 0.733213 0.902285 0.610400
Si Si2 0.493169 0.321296 0.610238
Si Si3 0.808908 0.946671 0.108668
Si Si4 0.336917 0.364741 0.705239
Si Si5 0.917582 0.570468 0.681435
Si Si6 0.643863 0.095305 0.891160
O O1 0.734071 0.843872 0.500000
O O2 0.806196 0.006973 0.631978
O O3 0.656537 0.003446 0.627576
O O4 0.725000 0.768815 0.689215
O O5 0.500000 0.500000 0.609559
O O6 0.480750 0.268904 0.500000
O O7 0.417514 0.292579 0.674281
O O8 0.568559 0.243922 0.653457
O O9 0.843042 0.054581 0.191446
O O10 0.717859 0.984855 0.113067
O O11 0.827640 0.769570 0.119222
O O12 0.835231 0.990952 0.000000
O O13 0.906296 0.557414 0.797128
O O14 0.000000 0.500000 0.651538
O O15 0.609559 0.081199 0.000000
#
# Coordination Sequence:
#
# PCOD9428399 Si02
#       6
#     8   8   8   8   8   8
#     4  12  26  42  65  96 132 171 220 275 326 386
#     4  11  25  43  65  93 131 176 222 273 335 397
#     4  10  21  40  68  99 131 167 212 274 335 390
#     4  12  24  43  66  97 129 169 224 273 324 394
#     4  12  25  43  65  91 132 181 214 267 328 399
#     4  10  22  41  66  99 132 168 217 272 333 394
#
# _framework density 22.719864000000001
#
# number of rings (size 3 to 8) (size 9 to 14) (size 15 to 20)
#    0.000    0.833    3.333    4.000    2.333    1.000 
#    0.000    0.833    0.000    3.000    0.000    0.000 
#    0.000    0.000    0.000    0.000    0.000    0.000 
#
# Total GULP energy -268488.833551 kJ/mol
# GULP energy per Si atom -5593.517366 kJ/mol
# Density = 2.266815 g / cm^3
# Si number density = 22.719864 Si / 1000 Ang^3
#
#
#
# Elastic Constant Matrix: (Units=GPa)
#
#
# Indices 1 2 3 4 5 6 
#
# 1 38.5532 5.1941 0.1469 0.0000 0.0000 0.0000
# 2 5.1941 55.9472 -5.4966 0.0000 0.0000 0.0000
# 3 0.1469 -5.4966 118.0285 0.0000 0.0000 0.0000
# 4 0.0000 0.0000 0.0000 34.3288 0.0000 0.0000
# 5 0.0000 0.0000 0.0000 0.0000 29.4811 0.0000
# 6 0.0000 0.0000 0.0000 0.0000 0.0000 40.9692
#
#
#
# Elastic Compliance Matrix: (Units=1/GPa)
#
#
# Indices 1 2 3 4 5 6 
#
# 1 0.026269 -0.002453 -0.000147 0.000000 0.000000 0.000000
# 2 -0.002453 0.018185 0.000850 0.000000 0.000000 0.000000
# 3 -0.000147 0.000850 0.008512 0.000000 0.000000 0.000000
# 4 0.000000 0.000000 0.000000 0.029130 0.000000 0.000000
# 5 0.000000 0.000000 0.000000 0.000000 0.033920 0.000000
# 6 0.000000 0.000000 0.000000 0.000000 0.000000 0.024409
#
#
# Mechanical properties :
#
#
# Convention : Reuss Voigt Hill
#
# Bulk Modulus (GPa) = 20.21579 23.57975 21.89777
# Shear Modulus (GPa) = 31.16920 35.13478 33.15199
#
# Velocity S-wave (km/s) = 3.70792 3.93674 3.82404
# Velocity P-wave (km/s) = 5.22004 5.57359 5.39971
#
# Compressibility (1/GPa) = 0.04946628
#
# Stress axis : x y z
#
# Youngs Moduli (GPa) = 38.06733 54.98962 117.47713
#
# Poissons Ratio (x) = 0.13490 0.01726
# Poissons Ratio (y) = 0.09339 -0.09985
# Poissons Ratio (z) = 0.00559 -0.04674
#
# Static dielectric constant tensor:
#      x y z
#    x 1.825580 0.000000 0.000000 
#    y 0.000000 1.951100 0.000000 
#    z 0.000000 0.000000 1.836820 
# 
# From -- ./inp_files/19347.got.cif
#   From: 2010.05.17/outbox.cif.g08.bks.cpg/sg55_10_cif.got.tgz:19347.got - 2010.06.03 13:27:54.
