data_PCOD9428471
_publ_section_title
;
Structure prediction by ZEFSAII (Michael W. Deem and Ramdas Pophale) SiO2 
 PCOD9428471
Probable space group: P B A M
;
_chemical_formula_sum "Si O2"
_cell_formula_units_Z 44
_cell_length_a 12.704313
_cell_length_b 9.368446
_cell_length_c 15.711424
_cell_angle_alpha 90.000000
_cell_angle_beta 90.000000
_cell_angle_gamma 90.000000
_cell_volume 1869.968505
_symmetry_space_group_name_H-M "P B A M"
_symmetry_group_IT_number 55
_symmetry_cell_setting 'orthorhombic'
loop_
_space_group_symop_operation_xyz
x,y,z
-x,-y,z
1/2+x,1/2-y,-z
1/2-x,1/2+y,-z
-x,-y,-z
x,y,-z
1/2-x,1/2+y,z
1/2+x,1/2-y,z
loop_
_atom_site_type_symbol
_atom_site_label
_atom_site_fract_x
_atom_site_fract_y
_atom_site_fract_z
Si Si1 0.500000 0.500000 0.675456
Si Si2 0.116866 0.327662 0.000000
Si Si3 0.226197 0.411689 0.500000
Si Si4 0.442486 0.801142 0.630715
Si Si5 0.664646 0.507307 0.000000
Si Si6 0.839900 0.016963 0.816172
Si Si7 0.120060 0.321678 0.184755
Si Si8 0.618615 0.816319 0.500000
O O1 0.446727 0.628662 0.625984
O O2 0.586654 0.567477 0.739548
O O3 0.065047 0.345276 0.092925
O O4 0.159757 0.164355 0.000000
O O5 0.216164 0.434896 0.000000
O O6 0.160120 0.357253 0.418193
O O7 0.340184 0.343770 0.500000
O O8 0.281597 0.081049 0.500000
O O9 0.443565 0.843904 0.729074
O O10 0.545862 0.848849 0.580438
O O11 0.617335 0.558594 0.910334
O O12 0.723801 0.080448 0.810063
O O13 0.842650 0.844562 0.812156
#
# Coordination Sequence:
#
# PCOD9428471 Si02
#       8
#     4   4   4   8   4   8   8   4
#     4  10  22  36  58  94 128 162 206 263 302 383
#     4   8  14  28  52  86 123 160 217 248 308 366
#     4  11  27  46  71  95 121 166 203 254 330 372
#     4  10  23  42  64  96 133 159 215 255 314 373
#     4   8  14  27  50  76 120 162 207 270 291 366
#     4   9  18  33  53  87 121 166 218 250 321 356
#     4   9  18  34  59  90 125 172 206 264 309 370
#     4  11  27  48  71  97 127 157 212 259 313 393
#
# _framework density 23.529807999999999
#
# number of rings (size 3 to 8) (size 9 to 14) (size 15 to 20)
#    0.000    2.545    0.000    1.091    5.091    2.545 
#    3.273    0.909    0.000    0.000    0.000    2.545 
#    0.000    1.818    0.000    0.000    0.000    0.000 
#
# Total GULP energy -245808.403768 kJ/mol
# GULP energy per Si atom -5586.554631 kJ/mol
# Density = 2.347625 g / cm^3
# Si number density = 23.529808 Si / 1000 Ang^3
#
#
#
# Elastic Constant Matrix: (Units=GPa)
#
#
# Indices 1 2 3 4 5 6 
#
# 1 55.1868 13.7921 36.7754 0.0000 0.0000 0.0000
# 2 13.7921 49.4810 25.1150 0.0000 0.0000 0.0000
# 3 36.7754 25.1150 158.7316 0.0000 0.0000 0.0000
# 4 0.0000 0.0000 0.0000 77.6807 0.0000 0.0000
# 5 0.0000 0.0000 0.0000 0.0000 18.4049 0.0000
# 6 0.0000 0.0000 0.0000 0.0000 0.0000 41.1294
#
#
#
# Elastic Compliance Matrix: (Units=1/GPa)
#
#
# Indices 1 2 3 4 5 6 
#
# 1 0.022090 -0.003870 -0.004505 0.000000 0.000000 0.000000
# 2 -0.003870 0.022653 -0.002687 0.000000 0.000000 0.000000
# 3 -0.004505 -0.002687 0.007769 0.000000 0.000000 0.000000
# 4 0.000000 0.000000 0.000000 0.012873 0.000000 0.000000
# 5 0.000000 0.000000 0.000000 0.000000 0.054333 0.000000
# 6 0.000000 0.000000 0.000000 0.000000 0.000000 0.024314
#
#
# Mechanical properties :
#
#
# Convention : Reuss Voigt Hill
#
# Bulk Modulus (GPa) = 32.91108 46.08492 39.49800
# Shear Modulus (GPa) = 28.36289 39.95744 34.16016
#
# Velocity S-wave (km/s) = 3.47566 4.12535 3.81436
# Velocity P-wave (km/s) = 5.48856 6.50535 6.01847
#
# Compressibility (1/GPa) = 0.03038491
#
# Stress axis : x y z
#
# Youngs Moduli (GPa) = 45.26957 44.14491 128.71670
#
# Poissons Ratio (x) = 0.17086 0.57993
# Poissons Ratio (y) = 0.17521 0.34592
# Poissons Ratio (z) = 0.20396 0.11864
#
# Static dielectric constant tensor:
#      x y z
#    x 1.841130 0.000000 0.000000 
#    y 0.000000 1.896340 0.000000 
#    z 0.000000 0.000000 1.940700 
# 
# From -- ./inp_files/18862.got.cif
#   From: 2010.05.17/outbox.cif.g08.bks.cpg/sg55_10_cif.got.tgz:18862.got - 2010.06.03 13:27:54.
