data_PCOD9428597
_publ_section_title
;
Structure prediction by ZEFSAII (Michael W. Deem and Ramdas Pophale) SiO2 
 PCOD9428597
Probable space group: P B A M
;
_chemical_formula_sum "Si O2"
_cell_formula_units_Z 64
_cell_length_a 9.514312
_cell_length_b 22.086664
_cell_length_c 16.217635
_cell_angle_alpha 90.000000
_cell_angle_beta 90.000000
_cell_angle_gamma 90.000000
_cell_volume 3407.964288
_symmetry_space_group_name_H-M "P B A M"
_symmetry_group_IT_number 55
_symmetry_cell_setting 'orthorhombic'
loop_
_space_group_symop_operation_xyz
x,y,z
-x,-y,z
1/2+x,1/2-y,-z
1/2-x,1/2+y,-z
-x,-y,-z
x,y,-z
1/2-x,1/2+y,z
1/2+x,1/2-y,z
loop_
_atom_site_type_symbol
_atom_site_label
_atom_site_fract_x
_atom_site_fract_y
_atom_site_fract_z
Si Si1 0.345254 0.496086 0.092366
Si Si2 0.486577 0.070380 0.717162
Si Si3 0.403115 0.169027 0.406778
Si Si4 0.479452 0.680565 0.224146
Si Si5 0.229340 0.383697 0.182612
Si Si6 0.020270 0.292285 0.095116
Si Si7 0.399990 0.721879 0.596262
Si Si8 0.213831 0.615852 0.856768
O O1 0.500000 0.500000 0.131756
O O2 0.250050 0.448364 0.139445
O O3 0.282616 0.563092 0.089856
O O4 0.363476 0.471850 0.000000
O O5 0.408814 0.111392 0.650698
O O6 0.634784 0.102130 0.737729
O O7 0.395311 0.079888 0.799203
O O8 0.500000 0.000000 0.696394
O O9 0.393051 0.147794 0.500000
O O10 0.266565 0.211300 0.392040
O O11 0.541850 0.210016 0.398201
O O12 0.619700 0.643430 0.204137
O O13 0.485997 0.740620 0.165830
O O14 0.469065 0.691651 0.322578
O O15 0.338720 0.646138 0.195422
O O16 0.145662 0.337237 0.123420
O O17 0.877002 0.331761 0.100206
O O18 0.039419 0.271018 0.000000
O O19 0.432935 0.702525 0.500000
#
# Coordination Sequence:
#
# PCOD9428597 Si02
#       8
#     8   8   8   8   8   8   8   8
#     4  11  22  38  61  88 117 159 214 263 307 357
#     4  11  22  40  63  87 122 159 205 250 305 367
#     4  10  22  39  63  94 125 159 202 252 311 369
#     4  12  24  40  65  90 125 164 204 254 315 376
#     4  11  24  40  61  89 122 161 209 258 305 365
#     4  11  26  41  59  89 127 167 205 254 315 371
#     4  10  22  40  64  96 129 160 202 258 310 371
#     4  11  22  41  61  88 120 160 209 254 308 360
#
# _framework density 18.779539
#
# number of rings (size 3 to 8) (size 9 to 14) (size 15 to 20)
#    0.000    1.125    3.750    3.000    3.500    3.250 
#    0.000    1.875    0.000    0.000    0.000    2.625 
#    0.000    0.000    0.000    0.000    0.000    0.000 
#
# Total GULP energy -356946.109945 kJ/mol
# GULP energy per Si atom -5577.282968 kJ/mol
# Density = 1.873680 g / cm^3
# Si number density = 18.779539 Si / 1000 Ang^3
#
#
#
# Elastic Constant Matrix: (Units=GPa)
#
#
# Indices 1 2 3 4 5 6 
#
# 1 80.4345 27.4506 23.1394 0.0000 0.0000 0.0000
# 2 27.4506 84.4624 37.1715 0.0000 0.0000 0.0000
# 3 23.1394 37.1715 93.7337 0.0000 0.0000 0.0000
# 4 0.0000 0.0000 0.0000 14.9666 0.0000 0.0000
# 5 0.0000 0.0000 0.0000 0.0000 10.8230 0.0000
# 6 0.0000 0.0000 0.0000 0.0000 0.0000 32.5960
#
#
#
# Elastic Compliance Matrix: (Units=1/GPa)
#
#
# Indices 1 2 3 4 5 6 
#
# 1 0.014300 -0.003748 -0.002044 0.000000 0.000000 0.000000
# 2 -0.003748 0.015325 -0.005152 0.000000 0.000000 0.000000
# 3 -0.002044 -0.005152 0.013216 0.000000 0.000000 0.000000
# 4 0.000000 0.000000 0.000000 0.066815 0.000000 0.000000
# 5 0.000000 0.000000 0.000000 0.000000 0.092396 0.000000
# 6 0.000000 0.000000 0.000000 0.000000 0.000000 0.030679
#
#
# Mechanical properties :
#
#
# Convention : Reuss Voigt Hill
#
# Bulk Modulus (GPa) = 47.72550 48.23927 47.98239
# Shear Modulus (GPa) = 19.11291 23.06838 21.09064
#
# Velocity S-wave (km/s) = 3.19368 3.50863 3.35485
# Velocity P-wave (km/s) = 6.25046 6.49283 6.37280
#
# Compressibility (1/GPa) = 0.02095316
#
# Stress axis : x y z
#
# Youngs Moduli (GPa) = 69.93245 65.25219 75.66458
#
# Poissons Ratio (x) = 0.24456 0.15464
# Poissons Ratio (y) = 0.26210 0.38984
# Poissons Ratio (z) = 0.14292 0.33619
#
# Static dielectric constant tensor:
#      x y z
#    x 1.675280 0.000000 0.000000 
#    y 0.000000 1.635880 0.000000 
#    z 0.000000 0.000000 1.658880 
# 
# From -- ./inp_files/17857.got.cif
#   From: 2010.05.17/outbox.cif.g08.bks.cpg/sg55_9_cif.got.tgz:17857.got - 2010.06.03 13:27:54.
