data_PCOD9428743
_publ_section_title
;
Structure prediction by ZEFSAII (Michael W. Deem and Ramdas Pophale) SiO2 
 PCOD9428743
Probable space group: P B A M
;
_chemical_formula_sum "Si O2"
_cell_formula_units_Z 32
_cell_length_a 5.229429
_cell_length_b 21.599605
_cell_length_c 10.896958
_cell_angle_alpha 90.000000
_cell_angle_beta 90.000000
_cell_angle_gamma 90.000000
_cell_volume 1230.850644
_symmetry_space_group_name_H-M "P B A M"
_symmetry_group_IT_number 55
_symmetry_cell_setting 'orthorhombic'
loop_
_space_group_symop_operation_xyz
x,y,z
-x,-y,z
1/2+x,1/2-y,-z
1/2-x,1/2+y,-z
-x,-y,-z
x,y,-z
1/2-x,1/2+y,z
1/2+x,1/2-y,z
loop_
_atom_site_type_symbol
_atom_site_label
_atom_site_fract_x
_atom_site_fract_y
_atom_site_fract_z
Si Si1 0.580369 0.212284 0.000000
Si Si2 0.379011 0.569778 0.862927
Si Si3 0.676781 0.602630 0.368616
Si Si4 0.000000 0.500000 0.723518
Si Si5 0.993915 0.708119 0.274067
O O1 0.521128 0.184332 0.867389
O O2 0.377250 0.269081 0.000000
O O3 0.500000 0.500000 0.866955
O O4 0.508381 0.608536 0.754353
O O5 0.100163 0.552903 0.814263
O O6 0.395157 0.595227 0.000000
O O7 0.544485 0.610932 0.500000
O O8 0.789584 0.533318 0.358369
O O9 0.907002 0.651775 0.358931
O O10 0.767534 0.759360 0.291381
#
# Coordination Sequence:
#
# PCOD9428743 Si02
#       5
#     4   8   8   4   8
#     4   8  16  36  62  89 125 165 223 276 340 400
#     4   9  20  40  65  94 128 167 219 278 338 401
#     4  11  25  41  65  97 135 180 226 281 347 416
#     4  10  22  42  66  98 132 178 232 284 342 410
#     4  10  23  43  66  97 133 179 228 288 347 419
#
# _framework density 25.998279
#
# number of rings (size 3 to 8) (size 9 to 14) (size 15 to 20)
#    0.000    2.250    0.000    0.750    5.250    7.500 
#    0.000    0.000    0.000    0.000    0.000    0.000 
#    0.000    0.000    0.000    0.000    0.000    0.000 
#
# Total GULP energy -178906.392318 kJ/mol
# GULP energy per Si atom -5590.824760 kJ/mol
# Density = 2.593911 g / cm^3
# Si number density = 25.998279 Si / 1000 Ang^3
#
#
#
# Elastic Constant Matrix: (Units=GPa)
#
#
# Indices 1 2 3 4 5 6 
#
# 1 84.0561 31.0723 17.2586 0.0000 0.0000 0.0000
# 2 31.0723 103.3201 30.9419 0.0000 0.0000 0.0000
# 3 17.2586 30.9419 200.2048 0.0000 0.0000 0.0000
# 4 0.0000 0.0000 0.0000 8.1543 0.0000 0.0000
# 5 0.0000 0.0000 0.0000 0.0000 15.8948 0.0000
# 6 0.0000 0.0000 0.0000 0.0000 0.0000 39.0802
#
#
#
# Elastic Compliance Matrix: (Units=1/GPa)
#
#
# Indices 1 2 3 4 5 6 
#
# 1 0.013444 -0.003876 -0.000560 0.000000 0.000000 0.000000
# 2 -0.003876 0.011266 -0.001407 0.000000 0.000000 0.000000
# 3 -0.000560 -0.001407 0.005261 0.000000 0.000000 0.000000
# 4 0.000000 0.000000 0.000000 0.122634 0.000000 0.000000
# 5 0.000000 0.000000 0.000000 0.000000 0.062914 0.000000
# 6 0.000000 0.000000 0.000000 0.000000 0.000000 0.025588
#
#
# Mechanical properties :
#
#
# Convention : Reuss Voigt Hill
#
# Bulk Modulus (GPa) = 54.68820 60.68072 57.68446
# Shear Modulus (GPa) = 19.31345 33.17974 26.24659
#
# Velocity S-wave (km/s) = 2.72853 3.57631 3.18079
# Velocity P-wave (km/s) = 5.56844 6.35958 5.97711
#
# Compressibility (1/GPa) = 0.01828548
#
# Stress axis : x y z
#
# Youngs Moduli (GPa) = 74.38017 88.76618 190.09182
#
# Poissons Ratio (x) = 0.34402 0.10645
# Poissons Ratio (y) = 0.28826 0.26746
# Poissons Ratio (z) = 0.04165 0.12490
#
# Static dielectric constant tensor:
#      x y z
#    x 2.104750 0.000000 0.000000 
#    y 0.000000 2.027810 0.000000 
#    z 0.000000 0.000000 2.023220 
# 
# From -- ./inp_files/11158.got.cif
#   From: 2010.05.17/outbox.cif.g08.bks.cpg/sg55_6_cif.got.tgz:11158.got - 2010.06.03 13:27:54.
