data_PCOD9428073
_publ_section_title
;
Structure prediction by ZEFSAII (Michael W. Deem and Ramdas Pophale) SiO2 
 PCOD9428073
Probable space group: P B A M
;
_chemical_formula_sum "Si O2"
_cell_formula_units_Z 52
_cell_length_a 16.272638
_cell_length_b 9.476951
_cell_length_c 17.606451
_cell_angle_alpha 90.000000
_cell_angle_beta 90.000000
_cell_angle_gamma 90.000000
_cell_volume 2715.178717
_symmetry_space_group_name_H-M "P B A M"
_symmetry_group_IT_number 55
_symmetry_cell_setting 'orthorhombic'
loop_
_space_group_symop_operation_xyz
x,y,z
-x,-y,z
1/2+x,1/2-y,-z
1/2-x,1/2+y,-z
-x,-y,-z
x,y,-z
1/2-x,1/2+y,z
1/2+x,1/2-y,z
loop_
_atom_site_type_symbol
_atom_site_label
_atom_site_fract_x
_atom_site_fract_y
_atom_site_fract_z
Si Si1 0.230834 0.610712 0.826299
Si Si2 0.337194 0.385826 0.910436
Si Si3 0.909815 0.513821 0.721788
Si Si4 0.342251 0.151793 0.413166
Si Si5 0.500000 0.500000 0.167889
Si Si6 0.829637 0.016487 0.586814
Si Si7 0.887540 0.835204 0.720124
O O1 0.274660 0.511007 0.887791
O O2 0.192932 0.748921 0.864558
O O3 0.160067 0.528085 0.781395
O O4 0.301659 0.649114 0.765528
O O5 0.427139 0.432886 0.881585
O O6 0.337229 0.360565 0.000000
O O7 0.902329 0.409656 0.650045
O O8 0.896712 0.674192 0.695921
O O9 0.000000 0.500000 0.756514
O O10 0.372704 0.140181 0.500000
O O11 0.323054 0.316382 0.398239
O O12 0.259021 0.059456 0.407844
O O13 0.458477 0.617020 0.222043
O O14 0.858826 0.997898 0.500000
O O15 0.885294 0.940369 0.648970
#
# Coordination Sequence:
#
# PCOD9428073 Si02
#       7
#     8   8   8   8   4   8   8
#     4  11  23  41  66  96 125 165 212 253 307 381
#     4  11  23  44  69  94 128 164 206 257 318 382
#     4  12  25  39  64  94 131 166 209 264 315 369
#     4  10  22  38  59  91 125 167 218 267 314 367
#     4  10  25  40  69  96 128 162 212 258 317 376
#     4  10  21  37  63  91 123 168 220 264 311 368
#     4  11  23  41  65  95 125 170 212 263 309 373
#
# _framework density 19.151593999999999
#
# number of rings (size 3 to 8) (size 9 to 14) (size 15 to 20)
#    0.000    1.231    3.077    2.538    6.462    2.154 
#    0.000    0.385    0.000    1.846    0.000    0.000 
#    0.000    0.000    0.000    0.000    0.000    0.000 
#
# Total GULP energy -290713.313701 kJ/mol
# GULP energy per Si atom -5590.640648 kJ/mol
# Density = 1.910800 g / cm^3
# Si number density = 19.151594 Si / 1000 Ang^3
#
#
#
# Elastic Constant Matrix: (Units=GPa)
#
#
# Indices 1 2 3 4 5 6 
#
# 1 95.8064 34.7195 32.6259 0.0000 0.0000 0.0000
# 2 34.7195 137.1946 48.5049 0.0000 0.0000 0.0000
# 3 32.6259 48.5049 94.5882 0.0000 0.0000 0.0000
# 4 0.0000 0.0000 0.0000 14.3878 0.0000 0.0000
# 5 0.0000 0.0000 0.0000 0.0000 17.9958 0.0000
# 6 0.0000 0.0000 0.0000 0.0000 0.0000 23.4164
#
#
#
# Elastic Compliance Matrix: (Units=1/GPa)
#
#
# Indices 1 2 3 4 5 6 
#
# 1 0.012244 -0.001961 -0.003218 0.000000 0.000000 0.000000
# 2 -0.001961 0.009217 -0.004050 0.000000 0.000000 0.000000
# 3 -0.003218 -0.004050 0.013759 0.000000 0.000000 0.000000
# 4 0.000000 0.000000 0.000000 0.069503 0.000000 0.000000
# 5 0.000000 0.000000 0.000000 0.000000 0.055569 0.000000
# 6 0.000000 0.000000 0.000000 0.000000 0.000000 0.042705
#
#
# Mechanical properties :
#
#
# Convention : Reuss Voigt Hill
#
# Bulk Modulus (GPa) = 59.65705 62.14330 60.90017
# Shear Modulus (GPa) = 22.02230 25.27591 23.64910
#
# Velocity S-wave (km/s) = 3.39469 3.63682 3.51784
# Velocity P-wave (km/s) = 6.82515 7.08194 6.95473
#
# Compressibility (1/GPa) = 0.01676248
#
# Stress axis : x y z
#
# Youngs Moduli (GPa) = 81.67185 108.49400 72.68001
#
# Poissons Ratio (x) = 0.21275 0.23386
# Poissons Ratio (y) = 0.16016 0.29437
# Poissons Ratio (z) = 0.26280 0.43942
#
# Static dielectric constant tensor:
#      x y z
#    x 1.660390 0.000000 0.000000 
#    y 0.000000 1.646560 0.000000 
#    z 0.000000 0.000000 1.640760 
# 
# From -- ./inp_files/21777.got.cif
#   From: 2010.05.17/outbox.cif.g08.bks.cpg/sg55_11_cif.got.tgz:21777.got - 2010.06.03 13:27:54.
