data_PCOD9428179
_publ_section_title
;
Structure prediction by ZEFSAII (Michael W. Deem and Ramdas Pophale) SiO2 
 PCOD9428179
Probable space group: P B A M
;
_chemical_formula_sum "Si O2"
_cell_formula_units_Z 64
_cell_length_a 24.566287
_cell_length_b 14.499914
_cell_length_c 8.856384
_cell_angle_alpha 90.000000
_cell_angle_beta 90.000000
_cell_angle_gamma 90.000000
_cell_volume 3154.724120
_symmetry_space_group_name_H-M "P B A M"
_symmetry_group_IT_number 55
_symmetry_cell_setting 'orthorhombic'
loop_
_space_group_symop_operation_xyz
x,y,z
-x,-y,z
1/2+x,1/2-y,-z
1/2-x,1/2+y,-z
-x,-y,-z
x,y,-z
1/2-x,1/2+y,z
1/2+x,1/2-y,z
loop_
_atom_site_type_symbol
_atom_site_label
_atom_site_fract_x
_atom_site_fract_y
_atom_site_fract_z
Si Si1 0.889700 0.653761 0.174929
Si Si2 0.906054 0.268976 0.677848
Si Si3 0.694694 0.296513 0.320298
Si Si4 0.832566 0.995893 0.180705
Si Si5 0.013248 0.212985 0.827684
Si Si6 0.440167 0.543270 0.674221
Si Si7 0.062719 0.519229 0.319257
Si Si8 0.296535 0.305150 0.820708
O O1 0.850499 0.723227 0.263725
O O2 0.896034 0.552450 0.242998
O O3 0.950698 0.695457 0.182008
O O4 0.872553 0.651932 0.000000
O O5 0.894571 0.258866 0.500000
O O6 0.961565 0.216337 0.719844
O O7 0.919455 0.376083 0.711549
O O8 0.855642 0.232553 0.773561
O O9 0.691903 0.305796 0.500000
O O10 0.686590 0.397650 0.246459
O O11 0.751581 0.252469 0.268180
O O12 0.795467 0.085056 0.214299
O O13 0.891434 0.015134 0.255842
O O14 0.838065 0.988923 0.000000
O O15 0.054113 0.133464 0.776027
O O16 0.995538 0.198617 0.000000
O O17 0.500000 0.500000 0.679777
O O18 0.427651 0.565261 0.500000
O O19 0.064291 0.504984 0.500000
O O20 0.000000 0.500000 0.271333
O O21 0.288306 0.294326 0.000000
#
# Coordination Sequence:
#
# PCOD9428179 Si02
#       8
#     8   8   8   8   8   8   8   8
#     4  11  23  39  63  94 128 167 215 267 319 381
#     4  11  23  40  64  94 132 173 219 272 327 388
#     4  12  26  45  72  98 128 169 217 271 324 382
#     4  11  24  44  69  96 128 169 214 264 323 385
#     4  11  22  36  59  90 127 169 212 263 323 386
#     4  11  23  37  59  93 130 170 214 264 323 387
#     4  10  21  38  61  91 130 175 218 266 324 385
#     4  11  26  47  70  96 131 171 215 267 325 387
#
# _framework density 20.287037000000002
#
# number of rings (size 3 to 8) (size 9 to 14) (size 15 to 20)
#    0.000    1.000    2.500    4.125    0.000    8.250 
#    0.000    0.000    0.000    0.000    0.000    0.000 
#    0.000    0.000    0.000    0.000    0.000    0.000 
#
# Total GULP energy -357832.055580 kJ/mol
# GULP energy per Si atom -5591.125868 kJ/mol
# Density = 2.024086 g / cm^3
# Si number density = 20.287037 Si / 1000 Ang^3
#
#
#
# Elastic Constant Matrix: (Units=GPa)
#
#
# Indices 1 2 3 4 5 6 
#
# 1 71.4368 17.8952 18.5630 0.0000 0.0000 0.0000
# 2 17.8952 83.0578 41.4956 0.0000 0.0000 0.0000
# 3 18.5630 41.4956 54.7270 0.0000 0.0000 0.0000
# 4 0.0000 0.0000 0.0000 28.2979 0.0000 0.0000
# 5 0.0000 0.0000 0.0000 0.0000 34.6689 0.0000
# 6 0.0000 0.0000 0.0000 0.0000 0.0000 28.1218
#
#
#
# Elastic Compliance Matrix: (Units=1/GPa)
#
#
# Indices 1 2 3 4 5 6 
#
# 1 0.015418 -0.001142 -0.004364 0.000000 0.000000 0.000000
# 2 -0.001142 0.019466 -0.014373 0.000000 0.000000 0.000000
# 3 -0.004364 -0.014373 0.030651 0.000000 0.000000 0.000000
# 4 0.000000 0.000000 0.000000 0.035338 0.000000 0.000000
# 5 0.000000 0.000000 0.000000 0.000000 0.028844 0.000000
# 6 0.000000 0.000000 0.000000 0.000000 0.000000 0.035560
#
#
# Mechanical properties :
#
#
# Convention : Reuss Voigt Hill
#
# Bulk Modulus (GPa) = 38.79230 40.56993 39.68111
# Shear Modulus (GPa) = 23.40519 26.96889 25.18704
#
# Velocity S-wave (km/s) = 3.40030 3.65000 3.52736
# Velocity P-wave (km/s) = 5.88042 6.14855 6.01598
#
# Compressibility (1/GPa) = 0.02577831
#
# Stress axis : x y z
#
# Youngs Moduli (GPa) = 64.85756 51.37051 32.62565
#
# Poissons Ratio (x) = 0.05865 0.14238
# Poissons Ratio (y) = 0.07404 0.46892
# Poissons Ratio (z) = 0.28305 0.73834
#
# Static dielectric constant tensor:
#      x y z
#    x 1.709440 0.000000 0.000000 
#    y 0.000000 1.733410 0.000000 
#    z 0.000000 0.000000 1.678820 
# 
# From -- ./inp_files/9781.got.cif
#   From: 2010.05.17/outbox.cif.g08.bks.cpg/sg55_5_cif.got.tgz:9781.got - 2010.06.03 13:27:54.
