data_PCOD9428542
_publ_section_title
;
Structure prediction by ZEFSAII (Michael W. Deem and Ramdas Pophale) SiO2 
 PCOD9428542
Probable space group: P B A M
;
_chemical_formula_sum "Si O2"
_cell_formula_units_Z 58
_cell_length_a 26.990655
_cell_length_b 12.178532
_cell_length_c 7.690446
_cell_angle_alpha 90.000000
_cell_angle_beta 90.000000
_cell_angle_gamma 90.000000
_cell_volume 2527.900016
_symmetry_space_group_name_H-M "P B A M"
_symmetry_group_IT_number 55
_symmetry_cell_setting 'orthorhombic'
loop_
_space_group_symop_operation_xyz
x,y,z
-x,-y,z
1/2+x,1/2-y,-z
1/2-x,1/2+y,-z
-x,-y,-z
x,y,-z
1/2-x,1/2+y,z
1/2+x,1/2-y,z
loop_
_atom_site_type_symbol
_atom_site_label
_atom_site_fract_x
_atom_site_fract_y
_atom_site_fract_z
Si Si1 0.500000 0.500000 0.500000
Si Si2 0.809571 0.990087 0.710246
Si Si3 0.848988 0.222434 0.291333
Si Si4 0.397985 0.934623 0.301339
Si Si5 0.052585 0.647728 0.711000
Si Si6 0.504165 0.345776 0.193064
Si Si7 0.802122 0.439994 0.200833
Si Si8 0.386900 0.688931 0.712753
O O1 0.480141 0.415164 0.347283
O O2 0.810977 0.991790 0.500000
O O3 0.752525 0.983025 0.762669
O O4 0.840143 0.883063 0.767557
O O5 0.835653 0.101718 0.773699
O O6 0.851835 0.217141 0.500000
O O7 0.900573 0.276713 0.232152
O O8 0.806997 0.311185 0.244162
O O9 0.414653 0.915384 0.500000
O O10 0.387817 0.814807 0.225949
O O11 0.436140 0.024378 0.225908
O O12 0.345323 0.997649 0.303800
O O13 0.051327 0.643601 0.500000
O O14 0.005954 0.716361 0.775423
O O15 0.562544 0.363982 0.220269
O O16 0.488112 0.375060 0.000000
O O17 0.814351 0.456114 0.000000
O O18 0.389043 0.685516 0.500000
#
# Coordination Sequence:
#
# PCOD9428542 Si02
#       8
#     2   8   8   8   8   8   8   8
#     4  12  26  48  68  88 144 172 226 264 318 398
#     4  10  22  38  63  88 120 163 212 263 323 393
#     4   9  20  38  63  87 116 161 214 260 313 386
#     4   9  20  40  68  93 124 172 222 264 326 394
#     4   9  18  38  65  93 130 167 214 274 322 388
#     4  12  26  42  69 101 132 178 224 273 335 391
#     4  11  23  38  57  87 126 163 205 269 327 381
#     4  10  22  42  66  95 131 170 215 277 332 390
#
# _framework density 22.943946
#
# number of rings (size 3 to 8) (size 9 to 14) (size 15 to 20)
#    0.000    1.931    1.379    2.276    3.862    4.414 
#    0.000    2.759    0.000    0.000    0.000    0.000 
#    0.000    0.000    0.000    0.000    0.000    0.000 
#
# Total GULP energy -323628.204956 kJ/mol
# GULP energy per Si atom -5579.796637 kJ/mol
# Density = 2.289172 g / cm^3
# Si number density = 22.943946 Si / 1000 Ang^3
#
#
#
# Elastic Constant Matrix: (Units=GPa)
#
#
# Indices 1 2 3 4 5 6 
#
# 1 50.7722 2.2018 -5.5342 0.0000 0.0000 0.0000
# 2 2.2018 130.1718 24.0428 0.0000 0.0000 0.0000
# 3 -5.5342 24.0428 87.4238 0.0000 0.0000 0.0000
# 4 0.0000 0.0000 0.0000 -11.9833 0.0000 0.0000
# 5 0.0000 0.0000 0.0000 0.0000 -3.2062 0.0000
# 6 0.0000 0.0000 0.0000 0.0000 0.0000 24.6010
#
#
#
# Elastic Compliance Matrix: (Units=1/GPa)
#
#
# Indices 1 2 3 4 5 6 
#
# 1 0.019877 -0.000599 0.001423 0.000000 0.000000 0.000000
# 2 -0.000599 0.008111 -0.002269 0.000000 0.000000 0.000000
# 3 0.001423 -0.002269 0.012153 0.000000 0.000000 0.000000
# 4 0.000000 0.000000 0.000000 -0.083450 0.000000 0.000000
# 5 0.000000 0.000000 0.000000 0.000000 -0.311899 0.000000
# 6 0.000000 0.000000 0.000000 0.000000 0.000000 0.040649
#
#
# Mechanical properties :
#
#
# Convention : Reuss Voigt Hill
#
# Bulk Modulus (GPa) = 26.84464 34.42097 30.63280
# Shear Modulus (GPa) = -16.70826 18.39280 0.84227
#
# Velocity S-wave (km/s) = -2.70148 2.83440 0.60655
# Velocity P-wave (km/s) = 1.41238 5.07410 3.72433
#
# Compressibility (1/GPa) = 0.03725139
#
# Stress axis : x y z
#
# Youngs Moduli (GPa) = 50.30964 123.28469 82.28739
#
# Poissons Ratio (x) = 0.07385 -0.11710
# Poissons Ratio (y) = 0.03014 0.18668
# Poissons Ratio (z) = -0.07159 0.27969
#
# Static dielectric constant tensor:
#      x y z
#    x 1.841890 0.000000 0.000000 
#    y 0.000000 1.910050 0.000000 
#    z 0.000000 0.000000 1.862650 
# 
# From -- ./inp_files/10684.got.cif
#   From: 2010.05.17/outbox.cif.g08.bks.cpg/sg55_6_cif.got.tgz:10684.got - 2010.06.03 13:27:54.
