data_PCOD9428472
_publ_section_title
;
Structure prediction by ZEFSAII (Michael W. Deem and Ramdas Pophale) SiO2 
 PCOD9428472
Probable space group: P B A M
;
_chemical_formula_sum "Si O2"
_cell_formula_units_Z 64
_cell_length_a 14.776176
_cell_length_b 22.601841
_cell_length_c 7.617558
_cell_angle_alpha 90.000000
_cell_angle_beta 90.000000
_cell_angle_gamma 90.000000
_cell_volume 2544.026556
_symmetry_space_group_name_H-M "P B A M"
_symmetry_group_IT_number 55
_symmetry_cell_setting 'orthorhombic'
loop_
_space_group_symop_operation_xyz
x,y,z
-x,-y,z
1/2+x,1/2-y,-z
1/2-x,1/2+y,-z
-x,-y,-z
x,y,-z
1/2-x,1/2+y,z
1/2+x,1/2-y,z
loop_
_atom_site_type_symbol
_atom_site_label
_atom_site_fract_x
_atom_site_fract_y
_atom_site_fract_z
Si Si1 0.367068 0.238994 0.286064
Si Si2 0.047384 0.410272 0.786262
Si Si3 0.806602 0.825854 0.299910
Si Si4 0.368811 0.036636 0.786009
Si Si5 0.650032 0.629474 0.699322
Si Si6 0.577412 0.216316 0.206731
Si Si7 0.682174 0.499866 0.206701
Si Si8 0.042145 0.085070 0.799924
O O1 0.366084 0.239590 0.500000
O O2 0.292735 0.190677 0.227874
O O3 0.338465 0.305070 0.223028
O O4 0.469891 0.227971 0.228109
O O5 0.094248 0.471485 0.738371
O O6 0.092813 0.350223 0.726184
O O7 0.943035 0.416404 0.726359
O O8 0.046911 0.408070 0.000000
O O9 0.798224 0.846655 0.500000
O O10 0.861790 0.764267 0.300566
O O11 0.873213 0.869841 0.199369
O O12 0.267056 0.036370 0.720130
O O13 0.367234 0.039222 0.000000
O O14 0.680951 0.632277 0.500000
O O15 0.693600 0.570115 0.776885
O O16 0.542277 0.614875 0.705057
O O17 0.598605 0.219948 0.000000
O O18 0.588390 0.473978 0.277208
O O19 0.678276 0.487445 0.000000
O O20 0.009675 0.074881 0.000000
#
# Coordination Sequence:
#
# PCOD9428472 Si02
#       8
#     8   8   8   8   8   8   8   8
#     4  10  24  43  61  84 119 166 204 240 295 361
#     4   8  16  30  53  83 117 151 187 225 285 351
#     4  11  24  42  62  85 120 164 204 243 298 361
#     4   8  15  32  53  80 118 155 183 229 288 345
#     4  11  23  41  62  83 115 158 199 239 292 359
#     4  11  22  36  62  96 121 151 197 253 302 352
#     4  10  22  36  59  88 117 149 191 247 300 346
#     4  11  23  40  61  89 118 149 194 250 304 351
#
# _framework density 25.156972
#
# number of rings (size 3 to 8) (size 9 to 14) (size 15 to 20)
#    0.000    2.000    1.250    2.625    3.500    4.000 
#    0.000    0.000    0.000    0.000    0.000    4.375 
#    0.000    0.000    0.000    0.000    0.000    0.000 
#
# Total GULP energy -357948.583423 kJ/mol
# GULP energy per Si atom -5592.946616 kJ/mol
# Density = 2.509971 g / cm^3
# Si number density = 25.156972 Si / 1000 Ang^3
#
#
#
# Elastic Constant Matrix: (Units=GPa)
#
#
# Indices 1 2 3 4 5 6 
#
# 1 90.8863 -14.2118 -3.1716 0.0000 0.0000 0.0000
# 2 -14.2118 69.5202 3.4123 0.0000 0.0000 0.0000
# 3 -3.1716 3.4123 69.6983 0.0000 0.0000 0.0000
# 4 0.0000 0.0000 0.0000 27.4026 0.0000 0.0000
# 5 0.0000 0.0000 0.0000 0.0000 30.3144 0.0000
# 6 0.0000 0.0000 0.0000 0.0000 0.0000 40.8974
#
#
#
# Elastic Compliance Matrix: (Units=1/GPa)
#
#
# Indices 1 2 3 4 5 6 
#
# 1 0.011377 0.002306 0.000405 0.000000 0.000000 0.000000
# 2 0.002306 0.014886 -0.000624 0.000000 0.000000 0.000000
# 3 0.000405 -0.000624 0.014397 0.000000 0.000000 0.000000
# 4 0.000000 0.000000 0.000000 0.036493 0.000000 0.000000
# 5 0.000000 0.000000 0.000000 0.000000 0.032988 0.000000
# 6 0.000000 0.000000 0.000000 0.000000 0.000000 0.024451
#
#
# Mechanical properties :
#
#
# Convention : Reuss Voigt Hill
#
# Bulk Modulus (GPa) = 22.30438 22.46250 22.38344
# Shear Modulus (GPa) = 34.39664 35.99463 35.19563
#
# Velocity S-wave (km/s) = 3.70169 3.78670 3.74443
# Velocity P-wave (km/s) = 5.21108 5.29784 5.25464
#
# Compressibility (1/GPa) = 0.04483425
#
# Stress axis : x y z
#
# Youngs Moduli (GPa) = 87.89302 67.17569 69.46122
#
# Poissons Ratio (x) = -0.15491 -0.02812
# Poissons Ratio (y) = -0.20268 0.04333
# Poissons Ratio (z) = -0.03558 0.04191
#
# Static dielectric constant tensor:
#      x y z
#    x 2.004280 0.000000 0.000000 
#    y 0.000000 2.009340 0.000000 
#    z 0.000000 0.000000 1.935310 
# 
# From -- ./inp_files/6598.got.cif
#   From: 2010.05.17/outbox.cif.g08.bks.cpg/sg55_4_cif.got.tgz:6598.got - 2010.06.03 13:27:54.
