data_PCOD9428818
_publ_section_title
;
Structure prediction by ZEFSAII (Michael W. Deem and Ramdas Pophale) SiO2 
 PCOD9428818
Probable space group: P B A M
;
_chemical_formula_sum "Si O2"
_cell_formula_units_Z 58
_cell_length_a 11.747195
_cell_length_b 8.668066
_cell_length_c 26.826029
_cell_angle_alpha 90.000000
_cell_angle_beta 90.000000
_cell_angle_gamma 90.000000
_cell_volume 2731.572785
_symmetry_space_group_name_H-M "P B A M"
_symmetry_group_IT_number 55
_symmetry_cell_setting 'orthorhombic'
loop_
_space_group_symop_operation_xyz
x,y,z
-x,-y,z
1/2+x,1/2-y,-z
1/2-x,1/2+y,-z
-x,-y,-z
x,y,-z
1/2-x,1/2+y,z
1/2+x,1/2-y,z
loop_
_atom_site_type_symbol
_atom_site_label
_atom_site_fract_x
_atom_site_fract_y
_atom_site_fract_z
Si Si1 0.274155 0.508838 0.860873
Si Si2 0.500000 0.500000 0.500000
Si Si3 0.424029 0.199923 0.864174
Si Si4 0.783109 0.473795 0.383560
Si Si5 0.575664 0.344862 0.055722
Si Si6 0.084526 0.802762 0.587350
Si Si7 0.602941 0.251539 0.331861
Si Si8 0.428457 0.653756 0.778598
O O1 0.328345 0.338847 0.863773
O O2 0.140259 0.537984 0.861118
O O3 0.322015 0.601707 0.908803
O O4 0.323150 0.589859 0.811032
O O5 0.506146 0.634336 0.456296
O O6 0.498403 0.225492 0.913654
O O7 0.499354 0.242003 0.816399
O O8 0.692700 0.582309 0.411390
O O9 0.861149 0.366289 0.417997
O O10 0.705498 0.362409 0.349755
O O11 0.862838 0.582631 0.350650
O O12 0.500000 0.500000 0.052208
O O13 0.607839 0.295450 0.000000
O O14 0.011708 0.801988 0.638709
O O15 0.595679 0.262177 0.272756
O O16 0.500000 0.500000 0.766115
#
# Coordination Sequence:
#
# PCOD9428818 Si02
#       8
#     8   2   8   8   8   8   8   8
#     4   9  18  32  50  76 106 141 193 233 293 361
#     4  12  24  44  74  92 128 174 200 256 312 348
#     4   9  18  33  51  77 107 144 189 241 296 362
#     4  10  23  40  66  93 126 165 208 251 305 371
#     4   8  15  30  50  70 100 145 191 234 287 357
#     4  11  23  44  65  96 129 164 207 253 304 360
#     4  11  21  41  63  91 127 164 206 259 307 368
#     4   9  19  34  56  79 112 157 191 240 301 357
#
# _framework density 21.233187999999998
#
# number of rings (size 3 to 8) (size 9 to 14) (size 15 to 20)
#    0.000    2.345    1.379    2.897    0.000    5.517 
#    0.000    5.517    0.000    0.828    0.000    0.000 
#    0.000    0.000    0.000    0.000    0.000    0.000 
#
# Total GULP energy -323346.344018 kJ/mol
# GULP energy per Si atom -5574.936966 kJ/mol
# Density = 2.118486 g / cm^3
# Si number density = 21.233188 Si / 1000 Ang^3
#
#
#
# Elastic Constant Matrix: (Units=GPa)
#
#
# Indices 1 2 3 4 5 6 
#
# 1 34.7027 27.1462 -0.3117 0.0000 0.0000 0.0000
# 2 27.1462 96.9703 29.8068 0.0000 0.0000 0.0000
# 3 -0.3117 29.8068 95.8247 0.0000 0.0000 0.0000
# 4 0.0000 0.0000 0.0000 14.5688 0.0000 0.0000
# 5 0.0000 0.0000 0.0000 0.0000 4.5206 0.0000
# 6 0.0000 0.0000 0.0000 0.0000 0.0000 50.3419
#
#
#
# Elastic Compliance Matrix: (Units=1/GPa)
#
#
# Indices 1 2 3 4 5 6 
#
# 1 0.038112 -0.011839 0.003807 0.000000 0.000000 0.000000
# 2 -0.011839 0.015080 -0.004729 0.000000 0.000000 0.000000
# 3 0.003807 -0.004729 0.011919 0.000000 0.000000 0.000000
# 4 0.000000 0.000000 0.000000 0.068640 0.000000 0.000000
# 5 0.000000 0.000000 0.000000 0.000000 0.221210 0.000000
# 6 0.000000 0.000000 0.000000 0.000000 0.000000 0.019864
#
#
# Mechanical properties :
#
#
# Convention : Reuss Voigt Hill
#
# Bulk Modulus (GPa) = 25.26059 37.86448 31.56253
# Shear Modulus (GPa) = 12.09058 25.27668 18.68363
#
# Velocity S-wave (km/s) = 2.38884 3.45401 2.96957
# Velocity P-wave (km/s) = 4.41942 5.81191 5.16283
#
# Compressibility (1/GPa) = 0.03958736
#
# Stress axis : x y z
#
# Youngs Moduli (GPa) = 26.23877 66.31107 83.89822
#
# Poissons Ratio (x) = 0.78507 -0.31937
# Poissons Ratio (y) = 0.31064 0.39679
# Poissons Ratio (z) = -0.09988 0.31361
#
# Static dielectric constant tensor:
#      x y z
#    x 1.806020 0.000000 0.000000 
#    y 0.000000 2.083900 0.000000 
#    z 0.000000 0.000000 1.708970 
# 
# From -- ./inp_files/23950.got.cif
#   From: 2010.05.17/outbox.cif.g08.bks.cpg/sg55_12_cif.got.tgz:23950.got - 2010.06.03 13:27:54.
