data_PCOD9428725
_publ_section_title
;
Structure prediction by ZEFSAII (Michael W. Deem and Ramdas Pophale) SiO2 
 PCOD9428725
Probable space group: P B A M
;
_chemical_formula_sum "Si O2"
_cell_formula_units_Z 58
_cell_length_a 20.090591
_cell_length_b 17.825131
_cell_length_c 8.620728
_cell_angle_alpha 90.000000
_cell_angle_beta 90.000000
_cell_angle_gamma 90.000000
_cell_volume 3087.232839
_symmetry_space_group_name_H-M "P B A M"
_symmetry_group_IT_number 55
_symmetry_cell_setting 'orthorhombic'
loop_
_space_group_symop_operation_xyz
x,y,z
-x,-y,z
1/2+x,1/2-y,-z
1/2-x,1/2+y,-z
-x,-y,-z
x,y,-z
1/2-x,1/2+y,z
1/2+x,1/2-y,z
loop_
_atom_site_type_symbol
_atom_site_label
_atom_site_fract_x
_atom_site_fract_y
_atom_site_fract_z
Si Si1 0.787412 0.737028 0.188586
Si Si2 0.000000 0.500000 0.500000
Si Si3 0.373103 0.060605 0.670343
Si Si4 0.138710 0.973273 0.314612
Si Si5 0.862736 0.279385 0.815671
Si Si6 0.782290 0.568467 0.814306
Si Si7 0.462646 0.342256 0.315423
Si Si8 0.107590 0.137310 0.185592
O O1 0.712162 0.757504 0.234439
O O2 0.803035 0.652110 0.238243
O O3 0.840236 0.799224 0.239874
O O4 0.788489 0.737328 0.000000
O O5 0.946197 0.471092 0.367457
O O6 0.345041 0.082710 0.500000
O O7 0.374050 0.133869 0.775861
O O8 0.327701 0.995465 0.740337
O O9 0.147092 0.970203 0.500000
O O10 0.206106 0.944896 0.234764
O O11 0.078191 0.917569 0.273192
O O12 0.123640 0.057517 0.262040
O O13 0.916048 0.227336 0.730111
O O14 0.868002 0.266551 0.000000
O O15 0.787079 0.564488 0.000000
O O16 0.474121 0.342998 0.500000
O O17 0.532925 0.339789 0.229861
O O18 0.113771 0.129824 0.000000
#
# Coordination Sequence:
#
# PCOD9428725 Si02
#       8
#     8   2   8   8   8   8   8   8
#     4   9  21  39  60  92 128 156 203 268 318 368
#     4   8  24  44  62  80 132 164 202 272 316 388
#     4  10  22  42  63  90 123 168 209 258 321 380
#     4  11  23  40  62  91 129 169 212 257 319 384
#     4  11  21  40  68  94 123 163 216 265 318 383
#     4  11  21  39  66  94 124 163 213 269 318 372
#     4  11  24  41  60  91 132 173 211 260 321 388
#     4  11  23  40  63  93 127 168 213 263 319 381
#
# _framework density 18.787050000000001
#
# number of rings (size 3 to 8) (size 9 to 14) (size 15 to 20)
#    0.414    1.103    1.379    3.724    0.000    5.517 
#    0.000    6.897    0.000    0.000    0.000    0.000 
#    0.000    0.000    0.000    0.000    0.000    0.000 
#
# Total GULP energy -323437.222366 kJ/mol
# GULP energy per Si atom -5576.503834 kJ/mol
# Density = 1.874429 g / cm^3
# Si number density = 18.787050 Si / 1000 Ang^3
#
#
#
# Elastic Constant Matrix: (Units=GPa)
#
#
# Indices 1 2 3 4 5 6 
#
# 1 44.6926 22.2763 -12.2338 0.0000 0.0000 0.0000
# 2 22.2763 78.3243 -14.2251 0.0000 0.0000 0.0000
# 3 -12.2338 -14.2251 20.1355 0.0000 0.0000 0.0000
# 4 0.0000 0.0000 0.0000 28.0058 0.0000 0.0000
# 5 0.0000 0.0000 0.0000 0.0000 11.8396 0.0000
# 6 0.0000 0.0000 0.0000 0.0000 0.0000 4.7741
#
#
#
# Elastic Compliance Matrix: (Units=1/GPa)
#
#
# Indices 1 2 3 4 5 6 
#
# 1 0.028954 -0.005782 0.013507 0.000000 0.000000 0.000000
# 2 -0.005782 0.015801 0.007650 0.000000 0.000000 0.000000
# 3 0.013507 0.007650 0.063275 0.000000 0.000000 0.000000
# 4 0.000000 0.000000 0.000000 0.035707 0.000000 0.000000
# 5 0.000000 0.000000 0.000000 0.000000 0.084463 0.000000
# 6 0.000000 0.000000 0.000000 0.000000 0.000000 0.209464
#
#
# Mechanical properties :
#
#
# Convention : Reuss Voigt Hill
#
# Bulk Modulus (GPa) = 7.20556 14.97636 11.09096
# Shear Modulus (GPa) = 11.03332 18.74623 14.88977
#
# Velocity S-wave (km/s) = 2.42602 3.16227 2.81829
# Velocity P-wave (km/s) = 3.41923 4.61760 4.06284
#
# Compressibility (1/GPa) = 0.13878168
#
# Stress axis : x y z
#
# Youngs Moduli (GPa) = 34.53727 63.28623 15.80408
#
# Poissons Ratio (x) = 0.36590 -0.21347
# Poissons Ratio (y) = 0.19969 -0.12090
# Poissons Ratio (z) = -0.46650 -0.48415
#
# Static dielectric constant tensor:
#      x y z
#    x 1.619680 0.000000 0.000000 
#    y 0.000000 1.637120 0.000000 
#    z 0.000000 0.000000 1.642530 
# 
# From -- ./inp_files/7705.got.cif
#   From: 2010.05.17/outbox.cif.g08.bks.cpg/sg55_4_cif.got.tgz:7705.got - 2010.06.03 13:27:54.
