data_PCOD9428396
_publ_section_title
;
Structure prediction by ZEFSAII (Michael W. Deem and Ramdas Pophale) SiO2 
 PCOD9428396
Probable space group: P B A M
;
_chemical_formula_sum "Si O2"
_cell_formula_units_Z 48
_cell_length_a 9.656178
_cell_length_b 31.101820
_cell_length_c 7.800542
_cell_angle_alpha 90.000000
_cell_angle_beta 90.000000
_cell_angle_gamma 90.000000
_cell_volume 2342.695514
_symmetry_space_group_name_H-M "P B A M"
_symmetry_group_IT_number 55
_symmetry_cell_setting 'orthorhombic'
loop_
_space_group_symop_operation_xyz
x,y,z
-x,-y,z
1/2+x,1/2-y,-z
1/2-x,1/2+y,-z
-x,-y,-z
x,y,-z
1/2-x,1/2+y,z
1/2+x,1/2-y,z
loop_
_atom_site_type_symbol
_atom_site_label
_atom_site_fract_x
_atom_site_fract_y
_atom_site_fract_z
Si Si1 0.031864 0.636659 0.706184
Si Si2 0.660902 0.369538 0.698085
Si Si3 0.416767 0.955580 0.701946
Si Si4 0.207241 0.970446 0.000000
Si Si5 0.326408 0.791391 0.702359
Si Si6 0.510380 0.710301 0.800473
Si Si7 0.397243 0.564718 0.000000
O O1 0.024328 0.640671 0.500000
O O2 0.188443 0.649309 0.751615
O O3 0.006241 0.586701 0.746650
O O4 0.911529 0.667633 0.774175
O O5 0.671443 0.384365 0.500000
O O6 0.545764 0.332770 0.711626
O O7 0.629176 0.407161 0.830967
O O8 0.378726 0.952552 0.500000
O O9 0.500000 0.000000 0.725280
O O10 0.288633 0.956307 0.830294
O O11 0.055410 0.950631 0.000000
O O12 0.195251 0.022037 0.000000
O O13 0.302285 0.797471 0.500000
O O14 0.426779 0.750765 0.727259
O O15 0.175162 0.784982 0.781139
O O16 0.475629 0.706494 0.000000
#
# Coordination Sequence:
#
# PCOD9428396 Si02
#       7
#     8   8   8   4   8   8   4
#     4   9  21  39  64  96 128 168 223 275 326 393
#     4  11  23  44  69  93 131 177 219 273 331 390
#     4  10  21  40  67  97 130 171 226 279 332 397
#     4  11  25  42  64  93 136 176 211 278 338 390
#     4  11  23  42  67  95 129 176 223 267 330 399
#     4  12  25  43  64  97 136 172 219 275 332 395
#     4  11  26  44  62  97 133 171 228 267 326 409
#
# _framework density 20.489218000000001
#
# number of rings (size 3 to 8) (size 9 to 14) (size 15 to 20)
#    0.000    1.333    0.833    4.250    2.333    4.667 
#    4.500    1.667    0.000    0.000    0.000    0.000 
#    0.000    0.000    0.000    0.000    0.000    0.000 
#
# Total GULP energy -268329.589771 kJ/mol
# GULP energy per Si atom -5590.199787 kJ/mol
# Density = 2.044258 g / cm^3
# Si number density = 20.489218 Si / 1000 Ang^3
#
#
#
# Elastic Constant Matrix: (Units=GPa)
#
#
# Indices 1 2 3 4 5 6 
#
# 1 109.3414 32.7870 7.2187 0.0000 0.0000 0.0000
# 2 32.7870 72.5603 0.2710 0.0000 0.0000 0.0000
# 3 7.2187 0.2710 66.3117 0.0000 0.0000 0.0000
# 4 0.0000 0.0000 0.0000 -825.3111 0.0000 0.0000
# 5 0.0000 0.0000 0.0000 0.0000 24.8001 0.0000
# 6 0.0000 0.0000 0.0000 0.0000 0.0000 27.7556
#
#
#
# Elastic Compliance Matrix: (Units=1/GPa)
#
#
# Indices 1 2 3 4 5 6 
#
# 1 0.010665 -0.004815 -0.001141 0.000000 0.000000 0.000000
# 2 -0.004815 0.015955 0.000459 0.000000 0.000000 0.000000
# 3 -0.001141 0.000459 0.015203 0.000000 0.000000 0.000000
# 4 0.000000 0.000000 0.000000 -0.001212 0.000000 0.000000
# 5 0.000000 0.000000 0.000000 0.000000 0.040322 0.000000
# 6 0.000000 0.000000 0.000000 0.000000 0.000000 0.036029
#
#
# Mechanical properties :
#
#
# Convention : Reuss Voigt Hill
#
# Bulk Modulus (GPa) = 32.43725 36.52966 34.48345
# Shear Modulus (GPa) = 36.17087 -140.68864 -52.25888
#
# Velocity S-wave (km/s) = 4.20618 -8.29541 -5.05578
# Velocity P-wave (km/s) = 6.28132 8.59560 4.14905
#
# Compressibility (1/GPa) = 0.03082875
#
# Stress axis : x y z
#
# Youngs Moduli (GPa) = 93.76694 62.67440 65.77800
#
# Poissons Ratio (x) = 0.30176 0.07507
# Poissons Ratio (y) = 0.45146 -0.03019
# Poissons Ratio (z) = 0.10702 -0.02876
#
# Static dielectric constant tensor:
#      x y z
#    x 1.706660 0.000000 0.000000 
#    y 0.000000 1.721280 0.000000 
#    z 0.000000 0.000000 1.718370 
# 
# From -- ./inp_files/2938.got.cif
#   From: 2010.05.17/outbox.cif.g08.bks.cpg/sg55_2_cif.got.tgz:2938.got - 2010.06.03 13:27:54.
