data_PCOD9428727
_publ_section_title
;
Structure prediction by ZEFSAII (Michael W. Deem and Ramdas Pophale) SiO2 
 PCOD9428727
Probable space group: P B A M
;
_chemical_formula_sum "Si O2"
_cell_formula_units_Z 48
_cell_length_a 15.026578
_cell_length_b 9.131523
_cell_length_c 14.924083
_cell_angle_alpha 90.000000
_cell_angle_beta 90.000000
_cell_angle_gamma 90.000000
_cell_volume 2047.816147
_symmetry_space_group_name_H-M "P B A M"
_symmetry_group_IT_number 55
_symmetry_cell_setting 'orthorhombic'
loop_
_space_group_symop_operation_xyz
x,y,z
-x,-y,z
1/2+x,1/2-y,-z
1/2-x,1/2+y,-z
-x,-y,-z
x,y,-z
1/2-x,1/2+y,z
1/2+x,1/2-y,z
loop_
_atom_site_type_symbol
_atom_site_label
_atom_site_fract_x
_atom_site_fract_y
_atom_site_fract_z
Si Si1 0.882347 0.383835 0.000000
Si Si2 0.227906 0.907174 0.000000
Si Si3 0.570757 0.879346 0.810829
Si Si4 0.238130 0.968164 0.202572
Si Si5 0.142014 0.361889 0.500000
Si Si6 0.424505 0.185608 0.500000
Si Si7 0.328047 0.723702 0.685947
Si Si8 0.528797 0.665335 0.674502
O O1 0.831596 0.540814 0.000000
O O2 0.943745 0.358588 0.915091
O O3 0.802647 0.262355 0.000000
O O4 0.198828 0.962424 0.100791
O O5 0.667751 0.948140 0.804555
O O6 0.574855 0.721963 0.763659
O O7 0.500000 0.000000 0.776310
O O8 0.186462 0.057016 0.280629
O O9 0.272353 0.815252 0.242384
O O10 0.136226 0.539718 0.500000
O O11 0.188407 0.286434 0.413984
O O12 0.033702 0.335671 0.500000
O O13 0.414409 0.275336 0.591323
O O14 0.433943 0.746135 0.687595
O O15 0.500000 0.500000 0.660367
#
# Coordination Sequence:
#
# PCOD9428727 Si02
#       8
#     4   4   8   8   4   4   8   8
#     4  10  23  40  68  96 131 174 222 286 344 415
#     4  10  22  42  63  95 127 177 228 270 352 418
#     4  11  22  43  65  94 129 178 229 277 340 411
#     4  11  23  41  68  92 131 181 224 281 342 420
#     4   9  20  40  66  99 129 171 221 274 337 413
#     4   9  19  40  70  93 132 174 218 269 341 408
#     4  11  24  41  65  96 132 175 223 278 348 409
#     4  11  24  40  66 101 133 173 230 288 338 405
#
# _framework density 23.439606000000001
#
# number of rings (size 3 to 8) (size 9 to 14) (size 15 to 20)
#    0.000    1.500    1.667    3.500    7.000    0.667 
#    0.000    2.083    0.000    0.000    0.000    0.000 
#    0.000    0.000    0.000    0.000    0.000    0.000 
#
# Total GULP energy -267427.325891 kJ/mol
# GULP energy per Si atom -5571.402623 kJ/mol
# Density = 2.338626 g / cm^3
# Si number density = 23.439606 Si / 1000 Ang^3
#
#
#
# Elastic Constant Matrix: (Units=GPa)
#
#
# Indices 1 2 3 4 5 6 
#
# 1 47.3494 0.8926 23.1921 0.0000 0.0000 0.0000
# 2 0.8926 121.8525 57.2427 0.0000 0.0000 0.0000
# 3 23.1921 57.2427 136.7222 0.0000 0.0000 0.0000
# 4 0.0000 0.0000 0.0000 27.9930 0.0000 0.0000
# 5 0.0000 0.0000 0.0000 0.0000 19.5061 0.0000
# 6 0.0000 0.0000 0.0000 0.0000 0.0000 37.3750
#
#
#
# Elastic Compliance Matrix: (Units=1/GPa)
#
#
# Indices 1 2 3 4 5 6 
#
# 1 0.023463 0.002113 -0.004865 0.000000 0.000000 0.000000
# 2 0.002113 0.010406 -0.004715 0.000000 0.000000 0.000000
# 3 -0.004865 -0.004715 0.010114 0.000000 0.000000 0.000000
# 4 0.000000 0.000000 0.000000 0.035723 0.000000 0.000000
# 5 0.000000 0.000000 0.000000 0.000000 0.051266 0.000000
# 6 0.000000 0.000000 0.000000 0.000000 0.000000 0.026756
#
#
# Mechanical properties :
#
#
# Convention : Reuss Voigt Hill
#
# Bulk Modulus (GPa) = 34.42464 52.06433 43.24448
# Shear Modulus (GPa) = 27.42067 31.94792 29.68430
#
# Velocity S-wave (km/s) = 3.42401 3.69587 3.56253
# Velocity P-wave (km/s) = 5.50910 6.36184 5.95076
#
# Compressibility (1/GPa) = 0.02904896
#
# Stress axis : x y z
#
# Youngs Moduli (GPa) = 42.62104 96.09544 98.87710
#
# Poissons Ratio (x) = -0.20310 0.48102
# Poissons Ratio (y) = -0.09008 0.46625
# Poissons Ratio (z) = 0.20734 0.45313
#
# Static dielectric constant tensor:
#      x y z
#    x 1.940860 0.000000 0.000000 
#    y 0.000000 1.953560 0.000000 
#    z 0.000000 0.000000 2.015280 
# 
# From -- ./inp_files/19399.got.cif
#   From: 2010.05.17/outbox.cif.g08.bks.cpg/sg55_10_cif.got.tgz:19399.got - 2010.06.03 13:27:54.
