data_PCOD9428620
_publ_section_title
;
Structure prediction by ZEFSAII (Michael W. Deem and Ramdas Pophale) SiO2 
 PCOD9428620
Probable space group: P B A M
;
_chemical_formula_sum "Si O2"
_cell_formula_units_Z 40
_cell_length_a 8.123733
_cell_length_b 13.874603
_cell_length_c 14.642799
_cell_angle_alpha 90.000000
_cell_angle_beta 90.000000
_cell_angle_gamma 90.000000
_cell_volume 1650.442154
_symmetry_space_group_name_H-M "P B A M"
_symmetry_group_IT_number 55
_symmetry_cell_setting 'orthorhombic'
loop_
_space_group_symop_operation_xyz
x,y,z
-x,-y,z
1/2+x,1/2-y,-z
1/2-x,1/2+y,-z
-x,-y,-z
x,y,-z
1/2-x,1/2+y,z
1/2+x,1/2-y,z
loop_
_atom_site_type_symbol
_atom_site_label
_atom_site_fract_x
_atom_site_fract_y
_atom_site_fract_z
Si Si1 0.007501 0.725133 0.394049
Si Si2 0.811504 0.870828 0.699730
Si Si3 0.216508 0.897715 0.098162
Si Si4 0.662703 0.066978 0.712319
Si Si5 0.835180 0.871020 0.098447
O O1 0.999133 0.748591 0.500000
O O2 0.977528 0.818832 0.331659
O O3 0.871047 0.645221 0.365115
O O4 0.176351 0.672389 0.368370
O O5 0.766717 0.840683 0.803689
O O6 0.803061 0.986671 0.696113
O O7 0.313556 0.879935 0.190841
O O8 0.032226 0.855638 0.101959
O O9 0.192687 0.013671 0.097310
O O10 0.294888 0.873386 0.000000
O O11 0.500000 0.000000 0.720119
O O12 0.771947 0.835332 0.000000
#
# Coordination Sequence:
#
# PCOD9428620 Si02
#       5
#     8   8   8   8   8
#     4  11  24  41  61  85 115 157 205 254 311 357
#     4  10  22  40  61  87 118 156 197 251 300 363
#     4   8  14  28  55  88 119 152 191 232 285 350
#     4   9  20  37  59  88 120 162 201 244 301 362
#     4   8  15  31  56  85 118 154 187 232 292 354
#
# _framework density 24.23593
#
# number of rings (size 3 to 8) (size 9 to 14) (size 15 to 20)
#    0.000    2.800    0.000    1.800    2.800    4.800 
#    0.000    5.000    0.000    2.400    0.000    0.000 
#    0.000    0.000    0.000    0.000    0.000    0.000 
#
# Total GULP energy -223456.940051 kJ/mol
# GULP energy per Si atom -5586.423501 kJ/mol
# Density = 2.418077 g / cm^3
# Si number density = 24.235930 Si / 1000 Ang^3
#
#
#
# Elastic Constant Matrix: (Units=GPa)
#
#
# Indices 1 2 3 4 5 6 
#
# 1 28.0030 5.4692 1.6369 0.0000 0.0000 0.0000
# 2 5.4692 106.7977 14.7276 0.0000 0.0000 0.0000
# 3 1.6369 14.7276 159.5367 0.0000 0.0000 0.0000
# 4 0.0000 0.0000 0.0000 33.6514 0.0000 0.0000
# 5 0.0000 0.0000 0.0000 0.0000 32.7551 0.0000
# 6 0.0000 0.0000 0.0000 0.0000 0.0000 25.1875
#
#
#
# Elastic Compliance Matrix: (Units=1/GPa)
#
#
# Indices 1 2 3 4 5 6 
#
# 1 0.036078 -0.001820 -0.000202 0.000000 0.000000 0.000000
# 2 -0.001820 0.009576 -0.000865 0.000000 0.000000 0.000000
# 3 -0.000202 -0.000865 0.006350 0.000000 0.000000 0.000000
# 4 0.000000 0.000000 0.000000 0.029716 0.000000 0.000000
# 5 0.000000 0.000000 0.000000 0.000000 0.030530 0.000000
# 6 0.000000 0.000000 0.000000 0.000000 0.000000 0.039702
#
#
# Mechanical properties :
#
#
# Convention : Reuss Voigt Hill
#
# Bulk Modulus (GPa) = 21.63125 37.55607 29.59366
# Shear Modulus (GPa) = 28.87899 36.48571 32.68235
#
# Velocity S-wave (km/s) = 3.45567 3.88421 3.67619
# Velocity P-wave (km/s) = 4.98667 5.97041 5.50057
#
# Compressibility (1/GPa) = 0.04622941
#
# Stress axis : x y z
#
# Youngs Moduli (GPa) = 27.71797 104.42755 157.47763
#
# Poissons Ratio (x) = 0.19002 0.03184
# Poissons Ratio (y) = 0.05044 0.13627
# Poissons Ratio (z) = 0.00560 0.09037
#
# Static dielectric constant tensor:
#      x y z
#    x 1.993950 0.000000 0.000000 
#    y 0.000000 1.971340 0.000000 
#    z 0.000000 0.000000 1.893790 
# 
# From -- ./inp_files/17094.got.cif
#   From: 2010.05.17/outbox.cif.g08.bks.cpg/sg55_9_cif.got.tgz:17094.got - 2010.06.03 13:27:54.
