data_PCOD9428671
_publ_section_title
;
Structure prediction by ZEFSAII (Michael W. Deem and Ramdas Pophale) SiO2 
 PCOD9428671
Probable space group: P B A M
;
_chemical_formula_sum "Si O2"
_cell_formula_units_Z 40
_cell_length_a 15.205700
_cell_length_b 9.188172
_cell_length_c 13.790174
_cell_angle_alpha 90.000000
_cell_angle_beta 90.000000
_cell_angle_gamma 90.000000
_cell_volume 1926.660884
_symmetry_space_group_name_H-M "P B A M"
_symmetry_group_IT_number 55
_symmetry_cell_setting 'orthorhombic'
loop_
_space_group_symop_operation_xyz
x,y,z
-x,-y,z
1/2+x,1/2-y,-z
1/2-x,1/2+y,-z
-x,-y,-z
x,y,-z
1/2-x,1/2+y,z
1/2+x,1/2-y,z
loop_
_atom_site_type_symbol
_atom_site_label
_atom_site_fract_x
_atom_site_fract_y
_atom_site_fract_z
Si Si1 0.423898 0.121764 0.775683
Si Si2 0.912256 0.094410 0.112473
Si Si3 0.257356 0.464374 0.737030
Si Si4 0.689306 0.286217 0.608954
Si Si5 0.013487 0.830650 0.389865
O O1 0.432292 0.237182 0.862755
O O2 0.330250 0.042230 0.776079
O O3 0.432312 0.227846 0.681535
O O4 0.500000 0.000000 0.774559
O O5 0.833060 0.045432 0.182672
O O6 0.888140 0.076934 0.000000
O O7 0.000000 0.000000 0.130709
O O8 0.291711 0.550786 0.642943
O O9 0.229329 0.310228 0.693969
O O10 0.721906 0.258339 0.500000
O O11 0.584577 0.264556 0.608731
O O12 0.048229 0.831827 0.500000
O O13 0.000000 0.000000 0.360067
#
# Coordination Sequence:
#
# PCOD9428671 Si02
#       5
#     8   8   8   8   8
#     4  12  24  42  72 103 140 178 227 287 343 412
#     4  11  27  51  76  98 129 177 236 297 360 418
#     4  12  24  44  67 100 141 185 222 285 342 407
#     4  11  23  40  65 100 141 188 233 274 333 404
#     4  10  22  40  65  98 143 193 236 277 332 405
#
# _framework density 20.761309000000001
#
# number of rings (size 3 to 8) (size 9 to 14) (size 15 to 20)
#    0.000    0.800    4.000    3.600    0.000    3.200 
#    0.000    0.000    0.000    0.600    0.000    0.000 
#    0.000    0.000    0.000    0.000    0.000    0.000 
#
# Total GULP energy -223668.660818 kJ/mol
# GULP energy per Si atom -5591.716520 kJ/mol
# Density = 2.071406 g / cm^3
# Si number density = 20.761309 Si / 1000 Ang^3
#
#
#
# Elastic Constant Matrix: (Units=GPa)
#
#
# Indices 1 2 3 4 5 6 
#
# 1 138.3077 59.9447 66.8270 0.0000 0.0000 0.0000
# 2 59.9447 99.8107 41.0602 0.0000 0.0000 0.0000
# 3 66.8270 41.0602 131.8194 0.0000 0.0000 0.0000
# 4 0.0000 0.0000 0.0000 15.4903 0.0000 0.0000
# 5 0.0000 0.0000 0.0000 0.0000 -19.3857 0.0000
# 6 0.0000 0.0000 0.0000 0.0000 0.0000 39.3548
#
#
#
# Elastic Compliance Matrix: (Units=1/GPa)
#
#
# Indices 1 2 3 4 5 6 
#
# 1 0.011516 -0.005178 -0.004225 0.000000 0.000000 0.000000
# 2 -0.005178 0.013820 -0.001680 0.000000 0.000000 0.000000
# 3 -0.004225 -0.001680 0.010251 0.000000 0.000000 0.000000
# 4 0.000000 0.000000 0.000000 0.064556 0.000000 0.000000
# 5 0.000000 0.000000 0.000000 0.000000 -0.051584 0.000000
# 6 0.000000 0.000000 0.000000 0.000000 0.000000 0.025410
#
#
# Mechanical properties :
#
#
# Convention : Reuss Voigt Hill
#
# Bulk Modulus (GPa) = 74.50884 78.40019 76.45451
# Shear Modulus (GPa) = 49.69738 20.56562 35.13150
#
# Velocity S-wave (km/s) = 4.89790 3.15075 4.11805
# Velocity P-wave (km/s) = 8.24331 7.14709 7.71470
#
# Compressibility (1/GPa) = 0.01342123
#
# Stress axis : x y z
#
# Youngs Moduli (GPa) = 86.83496 72.35963 97.54833
#
# Poissons Ratio (x) = 0.37469 0.41216
# Poissons Ratio (y) = 0.44965 0.16384
# Poissons Ratio (z) = 0.36690 0.12153
#
# Static dielectric constant tensor:
#      x y z
#    x 1.766910 0.000000 0.000000 
#    y 0.000000 1.756870 0.000000 
#    z 0.000000 0.000000 1.718320 
# 
# From -- ./inp_files/17079.got.cif
#   From: 2010.05.17/outbox.cif.g08.bks.cpg/sg55_9_cif.got.tgz:17079.got - 2010.06.03 13:27:54.
