data_PCOD9428361
_publ_section_title
;
Structure prediction by ZEFSAII (Michael W. Deem and Ramdas Pophale) SiO2 
 PCOD9428361
Probable space group: P B A M
;
_chemical_formula_sum "Si O2"
_cell_formula_units_Z 48
_cell_length_a 7.570957
_cell_length_b 20.206608
_cell_length_c 13.913781
_cell_angle_alpha 90.000000
_cell_angle_beta 90.000000
_cell_angle_gamma 90.000000
_cell_volume 2128.576972
_symmetry_space_group_name_H-M "P B A M"
_symmetry_group_IT_number 55
_symmetry_cell_setting 'orthorhombic'
loop_
_space_group_symop_operation_xyz
x,y,z
-x,-y,z
1/2+x,1/2-y,-z
1/2-x,1/2+y,-z
-x,-y,-z
x,y,-z
1/2-x,1/2+y,z
1/2+x,1/2-y,z
loop_
_atom_site_type_symbol
_atom_site_label
_atom_site_fract_x
_atom_site_fract_y
_atom_site_fract_z
Si Si1 0.392099 0.812122 0.609669
Si Si2 0.721269 0.654361 0.112659
Si Si3 0.312995 0.113343 0.283737
Si Si4 0.560354 0.597547 0.609885
Si Si5 0.803955 0.019639 0.212686
Si Si6 0.111586 0.224211 0.794244
O O1 0.436051 0.793360 0.500000
O O2 0.523545 0.869371 0.648219
O O3 0.193501 0.840128 0.611943
O O4 0.407422 0.754552 0.687672
O O5 0.769177 0.582491 0.154923
O O6 0.547206 0.678717 0.169594
O O7 0.855378 0.713566 0.136770
O O8 0.689293 0.649758 0.000000
O O9 0.279037 0.175211 0.213050
O O10 0.133429 0.110118 0.347363
O O11 0.314479 0.045312 0.224583
O O12 0.548568 0.576091 0.500000
O O13 0.654534 0.545437 0.679853
O O14 0.000000 0.000000 0.172603
#
# Coordination Sequence:
#
# PCOD9428361 Si02
#       6
#     8   8   8   8   8   8
#     4  11  24  40  67 100 140 186 224 271 339 411
#     4  12  25  45  72  98 129 177 230 288 356 411
#     4  11  23  41  67  96 139 177 227 272 345 395
#     4  10  21  40  63  93 136 180 224 271 328 400
#     4  10  21  42  65  94 133 176 218 288 334 398
#     4  12  22  46  65  99 138 170 223 294 339 405
#
# _framework density 22.550277000000001
#
# number of rings (size 3 to 8) (size 9 to 14) (size 15 to 20)
#    0.000    1.000    6.667    1.000    0.000    6.000 
#    0.000    1.667    0.000    1.000    0.000    0.000 
#    0.000    0.000    0.000    0.000    0.000    0.000 
#
# Total GULP energy -268528.424942 kJ/mol
# GULP energy per Si atom -5594.342186 kJ/mol
# Density = 2.249895 g / cm^3
# Si number density = 22.550277 Si / 1000 Ang^3
#
#
#
# Elastic Constant Matrix: (Units=GPa)
#
#
# Indices 1 2 3 4 5 6 
#
# 1 86.5673 23.2101 19.8813 0.0000 0.0000 0.0000
# 2 23.2101 151.1479 63.4832 0.0000 0.0000 0.0000
# 3 19.8813 63.4832 132.6463 0.0000 0.0000 0.0000
# 4 0.0000 0.0000 0.0000 3.3635 0.0000 0.0000
# 5 0.0000 0.0000 0.0000 0.0000 19.1182 0.0000
# 6 0.0000 0.0000 0.0000 0.0000 0.0000 28.4501
#
#
#
# Elastic Compliance Matrix: (Units=1/GPa)
#
#
# Indices 1 2 3 4 5 6 
#
# 1 0.012190 -0.001382 -0.001165 0.000000 0.000000 0.000000
# 2 -0.001382 0.008437 -0.003831 0.000000 0.000000 0.000000
# 3 -0.001165 -0.003831 0.009547 0.000000 0.000000 0.000000
# 4 0.000000 0.000000 0.000000 0.297313 0.000000 0.000000
# 5 0.000000 0.000000 0.000000 0.000000 0.052306 0.000000
# 6 0.000000 0.000000 0.000000 0.000000 0.000000 0.035149
#
#
# Mechanical properties :
#
#
# Convention : Reuss Voigt Hill
#
# Bulk Modulus (GPa) = 57.41553 64.83453 61.12503
# Shear Modulus (GPa) = 11.53387 27.77215 19.65301
#
# Velocity S-wave (km/s) = 2.26403 3.51317 2.95535
# Velocity P-wave (km/s) = 5.68778 6.72830 6.22980
#
# Compressibility (1/GPa) = 0.01741689
#
# Stress axis : x y z
#
# Youngs Moduli (GPa) = 82.03437 118.52160 104.74586
#
# Poissons Ratio (x) = 0.16384 0.12208
# Poissons Ratio (y) = 0.11340 0.40126
# Poissons Ratio (z) = 0.09561 0.45403
#
# Static dielectric constant tensor:
#      x y z
#    x 1.878920 0.000000 0.000000 
#    y 0.000000 1.897380 0.000000 
#    z 0.000000 0.000000 1.776610 
# 
# From -- ./inp_files/17499.got.cif
#   From: 2010.05.17/outbox.cif.g08.bks.cpg/sg55_9_cif.got.tgz:17499.got - 2010.06.03 13:27:54.
