data_PCOD9428588
_publ_section_title
;
Structure prediction by ZEFSAII (Michael W. Deem and Ramdas Pophale) SiO2 
 PCOD9428588
Probable space group: P B A M
;
_chemical_formula_sum "Si O2"
_cell_formula_units_Z 52
_cell_length_a 16.241567
_cell_length_b 15.937646
_cell_length_c 7.777122
_cell_angle_alpha 90.000000
_cell_angle_beta 90.000000
_cell_angle_gamma 90.000000
_cell_volume 2013.126270
_symmetry_space_group_name_H-M "P B A M"
_symmetry_group_IT_number 55
_symmetry_cell_setting 'orthorhombic'
loop_
_space_group_symop_operation_xyz
x,y,z
-x,-y,z
1/2+x,1/2-y,-z
1/2-x,1/2+y,-z
-x,-y,-z
x,y,-z
1/2-x,1/2+y,z
1/2+x,1/2-y,z
loop_
_atom_site_type_symbol
_atom_site_label
_atom_site_fract_x
_atom_site_fract_y
_atom_site_fract_z
Si Si1 0.930909 0.314706 0.298167
Si Si2 0.365213 0.653430 0.000000
Si Si3 0.779225 0.740472 0.308559
Si Si4 0.115483 0.037381 0.304718
Si Si5 0.905454 0.611401 0.195072
Si Si6 0.887190 0.144975 0.803131
Si Si7 0.188559 0.548035 0.702806
O O1 0.929436 0.297292 0.500000
O O2 0.946129 0.226330 0.206718
O O3 0.846191 0.360706 0.246107
O O4 0.001739 0.380982 0.257172
O O5 0.311379 0.701717 0.846636
O O6 0.412318 0.597611 0.847760
O O7 0.850881 0.670861 0.312151
O O8 0.696574 0.686158 0.273971
O O9 0.629206 0.622531 0.000000
O O10 0.101129 0.066841 0.500000
O O11 0.087455 0.940444 0.289721
O O12 0.215181 0.032535 0.271840
O O13 0.864705 0.520960 0.200845
O O14 0.903150 0.643922 0.000000
O O15 0.726560 0.280560 0.500000
O O16 0.171188 0.538897 0.500000
#
# Coordination Sequence:
#
# PCOD9428588 Si02
#       7
#     8   4   8   8   8   8   8
#     4  11  24  41  64  96 133 177 224 272 332 401
#     4  12  24  40  64  99 124 164 225 283 323 384
#     4  12  24  43  68  95 134 177 223 275 334 398
#     4  11  23  41  66  97 136 176 218 278 339 391
#     4  12  24  41  63  95 135 180 222 271 332 403
#     4  12  23  42  65  97 134 176 224 278 331 399
#     4  10  22  39  61  93 134 179 222 264 325 400
#
# _framework density 25.830469999999998
#
# number of rings (size 3 to 8) (size 9 to 14) (size 15 to 20)
#    0.000    0.615    3.846    5.077    1.077    4.308 
#    0.000    0.000    0.000    1.846    0.000    3.231 
#    0.000    0.000    0.000    0.000    0.000    0.000 
#
# Total GULP energy -290341.151387 kJ/mol
# GULP energy per Si atom -5583.483681 kJ/mol
# Density = 2.577168 g / cm^3
# Si number density = 25.830470 Si / 1000 Ang^3
#
#
#
# Elastic Constant Matrix: (Units=GPa)
#
#
# Indices 1 2 3 4 5 6 
#
# 1 55.2400 15.1115 12.2724 0.0000 0.0000 0.0000
# 2 15.1115 77.4789 59.1622 0.0000 0.0000 0.0000
# 3 12.2724 59.1622 168.1427 0.0000 0.0000 0.0000
# 4 0.0000 0.0000 0.0000 48.6395 0.0000 0.0000
# 5 0.0000 0.0000 0.0000 0.0000 10.6952 0.0000
# 6 0.0000 0.0000 0.0000 0.0000 0.0000 40.3010
#
#
#
# Elastic Compliance Matrix: (Units=1/GPa)
#
#
# Indices 1 2 3 4 5 6 
#
# 1 0.019125 -0.003643 -0.000114 0.000000 0.000000 0.000000
# 2 -0.003643 0.018342 -0.006188 0.000000 0.000000 0.000000
# 3 -0.000114 -0.006188 0.008133 0.000000 0.000000 0.000000
# 4 0.000000 0.000000 0.000000 0.020559 0.000000 0.000000
# 5 0.000000 0.000000 0.000000 0.000000 0.093500 0.000000
# 6 0.000000 0.000000 0.000000 0.000000 0.000000 0.024813
#
#
# Mechanical properties :
#
#
# Convention : Reuss Voigt Hill
#
# Bulk Modulus (GPa) = 38.89547 52.66153 45.77850
# Shear Modulus (GPa) = 23.48156 34.21483 28.84820
#
# Velocity S-wave (km/s) = 3.01834 3.64344 3.34552
# Velocity P-wave (km/s) = 5.21899 6.17505 5.71704
#
# Compressibility (1/GPa) = 0.02570994
#
# Stress axis : x y z
#
# Youngs Moduli (GPa) = 52.28827 54.51850 122.95661
#
# Poissons Ratio (x) = 0.19861 0.01402
# Poissons Ratio (y) = 0.19049 0.76086
# Poissons Ratio (z) = 0.00596 0.33736
#
# Static dielectric constant tensor:
#      x y z
#    x 2.075300 0.000000 0.000000 
#    y 0.000000 2.050410 0.000000 
#    z 0.000000 0.000000 4.303140 
# 
# From -- ./inp_files/7658.got.cif
#   From: 2010.05.17/outbox.cif.g08.bks.cpg/sg55_4_cif.got.tgz:7658.got - 2010.06.03 13:27:54.
