data_PCOD9428965
_publ_section_title
;
Structure prediction by ZEFSAII (Michael W. Deem and Ramdas Pophale) SiO2 
 PCOD9428965
Probable space group: P B A M
;
_chemical_formula_sum "Si O2"
_cell_formula_units_Z 64
_cell_length_a 15.161500
_cell_length_b 8.763789
_cell_length_c 22.794152
_cell_angle_alpha 90.000000
_cell_angle_beta 90.000000
_cell_angle_gamma 90.000000
_cell_volume 3028.708825
_symmetry_space_group_name_H-M "P B A M"
_symmetry_group_IT_number 55
_symmetry_cell_setting 'orthorhombic'
loop_
_space_group_symop_operation_xyz
x,y,z
-x,-y,z
1/2+x,1/2-y,-z
1/2-x,1/2+y,-z
-x,-y,-z
x,y,-z
1/2-x,1/2+y,z
1/2+x,1/2-y,z
loop_
_atom_site_type_symbol
_atom_site_label
_atom_site_fract_x
_atom_site_fract_y
_atom_site_fract_z
Si Si1 0.825510 0.719143 0.735460
Si Si2 0.700079 0.397994 0.142652
Si Si3 0.021260 0.820133 0.739235
Si Si4 0.254664 0.026341 0.340625
Si Si5 0.096879 0.566242 0.564613
Si Si6 0.418929 0.388758 0.609196
Si Si7 0.873918 0.244293 0.852311
Si Si8 0.965936 0.824187 0.933273
O O1 0.807100 0.805060 0.796249
O O2 0.781199 0.558619 0.720328
O O3 0.783819 0.814876 0.682077
O O4 0.931131 0.726289 0.733818
O O5 0.672017 0.575742 0.144864
O O6 0.802188 0.368547 0.128265
O O7 0.628986 0.324458 0.098159
O O8 0.060861 0.828086 0.674877
O O9 0.087519 0.749482 0.786346
O O10 0.000000 0.000000 0.756426
O O11 0.339066 0.026160 0.382147
O O12 0.175436 0.964331 0.380783
O O13 0.128216 0.515357 0.500000
O O14 0.087725 0.748198 0.566220
O O15 0.000000 0.500000 0.574462
O O16 0.500000 0.500000 0.594268
O O17 0.959533 0.254230 0.893715
O O18 0.961535 0.768327 0.000000
O O19 0.000000 0.000000 0.934839
#
# Coordination Sequence:
#
# PCOD9428965 Si02
#       8
#     8   8   8   8   8   8   8   8
#     4  12  21  38  65  94 129 165 202 260 327 382
#     4  11  21  36  61  91 122 167 210 261 318 380
#     4  11  18  36  62  89 127 161 197 255 317 380
#     4  12  24  41  66  97 128 162 208 261 323 381
#     4  11  27  48  65  90 129 170 216 269 315 374
#     4  11  22  40  69  98 123 165 212 257 322 387
#     4  11  21  37  60  89 127 164 211 261 319 371
#     4   9  19  38  62  87 122 171 220 255 304 383
#
# _framework density 21.131117
#
# number of rings (size 3 to 8) (size 9 to 14) (size 15 to 20)
#    0.000    1.000    6.250    2.625    0.000    1.250 
#    0.000    0.625    0.000    0.750    0.000    0.000 
#    0.000    0.000    0.000    0.000    0.000    0.000 
#
# Total GULP energy -357454.112069 kJ/mol
# GULP energy per Si atom -5585.220501 kJ/mol
# Density = 2.108302 g / cm^3
# Si number density = 21.131117 Si / 1000 Ang^3
#
#
#
# Elastic Constant Matrix: (Units=GPa)
#
#
# Indices 1 2 3 4 5 6 
#
# 1 83.8309 6.9638 6.8283 0.0000 0.0000 0.0000
# 2 6.9638 18.3326 3.2102 0.0000 0.0000 0.0000
# 3 6.8283 3.2102 59.5517 0.0000 0.0000 0.0000
# 4 0.0000 0.0000 0.0000 0.7987 0.0000 0.0000
# 5 0.0000 0.0000 0.0000 0.0000 138.9896 0.0000
# 6 0.0000 0.0000 0.0000 0.0000 0.0000 26.6021
#
#
#
# Elastic Compliance Matrix: (Units=1/GPa)
#
#
# Indices 1 2 3 4 5 6 
#
# 1 0.012399 -0.004503 -0.001179 0.000000 0.000000 0.000000
# 2 -0.004503 0.056703 -0.002540 0.000000 0.000000 0.000000
# 3 -0.001179 -0.002540 0.017064 0.000000 0.000000 0.000000
# 4 0.000000 0.000000 0.000000 1.252030 0.000000 0.000000
# 5 0.000000 0.000000 0.000000 0.000000 0.007195 0.000000
# 6 0.000000 0.000000 0.000000 0.000000 0.000000 0.037591
#
#
# Mechanical properties :
#
#
# Convention : Reuss Voigt Hill
#
# Bulk Modulus (GPa) = 14.34287 21.74663 18.04475
# Shear Modulus (GPa) = 3.51452 42.92562 23.22007
#
# Velocity S-wave (km/s) = 1.29105 4.51199 3.31850
# Velocity P-wave (km/s) = 3.00412 6.12027 4.82091
#
# Compressibility (1/GPa) = 0.06972104
#
# Stress axis : x y z
#
# Youngs Moduli (GPa) = 80.65233 17.63576 58.60208
#
# Poissons Ratio (x) = 0.07942 0.06909
# Poissons Ratio (y) = 0.36321 0.14886
# Poissons Ratio (z) = 0.09508 0.04480
#
# Static dielectric constant tensor:
#      x y z
#    x 1.851650 0.000000 0.000000 
#    y 0.000000 1.812480 0.000000 
#    z 0.000000 0.000000 1.756890 
# 
# From -- ./inp_files/23612.got.cif
#   From: 2010.05.17/outbox.cif.g08.bks.cpg/sg55_12_cif.got.tgz:23612.got - 2010.06.03 13:27:54.
