data_PCOD9428237
_publ_section_title
;
Structure prediction by ZEFSAII (Michael W. Deem and Ramdas Pophale) SiO2 
 PCOD9428237
Probable space group: P B A M
;
_chemical_formula_sum "Si O2"
_cell_formula_units_Z 40
_cell_length_a 8.273098
_cell_length_b 14.319345
_cell_length_c 13.662865
_cell_angle_alpha 90.000000
_cell_angle_beta 90.000000
_cell_angle_gamma 90.000000
_cell_volume 1618.576009
_symmetry_space_group_name_H-M "P B A M"
_symmetry_group_IT_number 55
_symmetry_cell_setting 'orthorhombic'
loop_
_space_group_symop_operation_xyz
x,y,z
-x,-y,z
1/2+x,1/2-y,-z
1/2-x,1/2+y,-z
-x,-y,-z
x,y,-z
1/2-x,1/2+y,z
1/2+x,1/2-y,z
loop_
_atom_site_type_symbol
_atom_site_label
_atom_site_fract_x
_atom_site_fract_y
_atom_site_fract_z
Si Si1 0.152509 0.059094 0.826697
Si Si2 0.831425 0.873086 0.390393
Si Si3 0.448456 0.838624 0.393182
Si Si4 0.663896 0.111658 0.191748
Si Si5 0.966286 0.225160 0.886976
O O1 0.135274 0.071666 0.709255
O O2 0.126664 0.160247 0.872907
O O3 0.302993 0.991766 0.847906
O O4 0.000000 0.000000 0.864490
O O5 0.873769 0.909026 0.500000
O O6 0.639005 0.855603 0.390012
O O7 0.915112 0.771480 0.379757
O O8 0.385419 0.866007 0.500000
O O9 0.363892 0.894184 0.307270
O O10 0.517389 0.173110 0.150162
O O11 0.825585 0.173029 0.172642
O O12 0.920851 0.226159 0.000000
#
# Coordination Sequence:
#
# PCOD9428237 Si02
#       5
#     8   8   8   8   8
#     4  10  24  40  64  97 127 171 215 264 320 387
#     4  10  21  39  63  97 136 174 217 260 314 382
#     4  10  21  38  66  95 130 174 212 258 317 380
#     4  11  23  42  67  94 125 168 213 264 324 385
#     4  11  24  44  67  92 126 168 216 270 329 381
#
# _framework density 24.713080999999999
#
# number of rings (size 3 to 8) (size 9 to 14) (size 15 to 20)
#    0.000    1.600    2.000    1.800    2.800    6.400 
#    0.000    2.000    0.000    2.400    0.000    0.000 
#    0.000    0.000    0.000    0.000    0.000    0.000 
#
# Total GULP energy -223884.433817 kJ/mol
# GULP energy per Si atom -5597.110845 kJ/mol
# Density = 2.465683 g / cm^3
# Si number density = 24.713081 Si / 1000 Ang^3
#
#
#
# Elastic Constant Matrix: (Units=GPa)
#
#
# Indices 1 2 3 4 5 6 
#
# 1 68.6287 24.3767 21.2623 0.0000 0.0000 0.0000
# 2 24.3767 92.2888 4.7627 0.0000 0.0000 0.0000
# 3 21.2623 4.7627 87.6438 0.0000 0.0000 0.0000
# 4 0.0000 0.0000 0.0000 -24.5428 0.0000 0.0000
# 5 0.0000 0.0000 0.0000 0.0000 24.4366 0.0000
# 6 0.0000 0.0000 0.0000 0.0000 0.0000 44.1115
#
#
#
# Elastic Compliance Matrix: (Units=1/GPa)
#
#
# Indices 1 2 3 4 5 6 
#
# 1 0.017358 -0.004380 -0.003973 0.000000 0.000000 0.000000
# 2 -0.004380 0.011971 0.000412 0.000000 0.000000 0.000000
# 3 -0.003973 0.000412 0.012351 0.000000 0.000000 0.000000
# 4 0.000000 0.000000 0.000000 -0.040745 0.000000 0.000000
# 5 0.000000 0.000000 0.000000 0.000000 0.040922 0.000000
# 6 0.000000 0.000000 0.000000 0.000000 0.000000 0.022670
#
#
# Mechanical properties :
#
#
# Convention : Reuss Voigt Hill
#
# Bulk Modulus (GPa) = 38.76167 38.81830 38.78998
# Shear Modulus (GPa) = 56.17462 22.01169 39.09315
#
# Velocity S-wave (km/s) = 4.77285 2.98768 3.98160
# Velocity P-wave (km/s) = 6.78912 5.25769 6.07188
#
# Compressibility (1/GPa) = 0.02579868
#
# Stress axis : x y z
#
# Youngs Moduli (GPa) = 57.61116 83.53421 80.96330
#
# Poissons Ratio (x) = 0.36586 0.32167
# Poissons Ratio (y) = 0.25232 -0.03336
# Poissons Ratio (z) = 0.22889 -0.03442
#
# Static dielectric constant tensor:
#      x y z
#    x 1.968520 0.000000 0.000000 
#    y 0.000000 1.958900 0.000000 
#    z 0.000000 0.000000 1.928040 
# 
# From -- ./inp_files/17037.got.cif
#   From: 2010.05.17/outbox.cif.g08.bks.cpg/sg55_9_cif.got.tgz:17037.got - 2010.06.03 13:27:54.
