data_PCOD9428822
_publ_section_title
;
Structure prediction by ZEFSAII (Michael W. Deem and Ramdas Pophale) SiO2 
 PCOD9428822
Probable space group: P B A M
;
_chemical_formula_sum "Si O2"
_cell_formula_units_Z 40
_cell_length_a 17.868905
_cell_length_b 9.189465
_cell_length_c 12.766284
_cell_angle_alpha 90.000000
_cell_angle_beta 90.000000
_cell_angle_gamma 90.000000
_cell_volume 2096.296308
_symmetry_space_group_name_H-M "P B A M"
_symmetry_group_IT_number 55
_symmetry_cell_setting 'orthorhombic'
loop_
_space_group_symop_operation_xyz
x,y,z
-x,-y,z
1/2+x,1/2-y,-z
1/2-x,1/2+y,-z
-x,-y,-z
x,y,-z
1/2-x,1/2+y,z
1/2+x,1/2-y,z
loop_
_atom_site_type_symbol
_atom_site_label
_atom_site_fract_x
_atom_site_fract_y
_atom_site_fract_z
Si Si1 0.336237 0.495900 0.623406
Si Si2 0.054149 0.123680 0.798254
Si Si3 0.083577 0.291268 0.000000
Si Si4 0.906587 0.374662 0.000000
Si Si5 0.822361 0.350789 0.378653
Si Si6 0.558057 0.871798 0.782886
O O1 0.357440 0.516918 0.500000
O O2 0.395458 0.557236 0.706727
O O3 0.323845 0.323266 0.639441
O O4 0.258482 0.580471 0.641538
O O5 0.996213 0.241101 0.751365
O O6 0.098024 0.201630 0.893745
O O7 0.000000 0.000000 0.845381
O O8 0.115390 0.454424 0.000000
O O9 0.994360 0.325512 0.000000
O O10 0.889501 0.325850 0.118176
O O11 0.839549 0.376532 0.500000
O O12 0.886693 0.419442 0.307660
O O13 0.500000 0.000000 0.813141
#
# Coordination Sequence:
#
# PCOD9428822 Si02
#       6
#     8   8   4   4   8   8
#     4  10  23  41  58  80 115 152 185 231 288 335
#     4  11  20  35  59  89 112 145 188 234 276 327
#     4   9  17  32  55  84 115 146 181 225 282 330
#     4   9  16  34  55  82 117 148 177 227 282 328
#     4  10  23  41  58  81 114 151 188 230 284 337
#     4  11  20  36  61  86 114 149 189 229 278 334
#
# _framework density 19.081271000000001
#
# number of rings (size 3 to 8) (size 9 to 14) (size 15 to 20)
#    0.000    1.800    6.000    0.300    2.800    1.600 
#    0.000    1.000    0.000    0.000    0.000    0.000 
#    0.000    0.000    0.000    0.000    0.000    0.000 
#
# Total GULP energy -222702.867010 kJ/mol
# GULP energy per Si atom -5567.571675 kJ/mol
# Density = 1.903784 g / cm^3
# Si number density = 19.081271 Si / 1000 Ang^3
#
#
#
# Elastic Constant Matrix: (Units=GPa)
#
#
# Indices 1 2 3 4 5 6 
#
# 1 37.3363 8.6385 49.2125 0.0000 0.0000 0.0000
# 2 8.6385 36.0310 15.7009 0.0000 0.0000 0.0000
# 3 49.2125 15.7009 94.8510 0.0000 0.0000 0.0000
# 4 0.0000 0.0000 0.0000 29.9906 0.0000 0.0000
# 5 0.0000 0.0000 0.0000 0.0000 -59.4376 0.0000
# 6 0.0000 0.0000 0.0000 0.0000 0.0000 23.7257
#
#
#
# Elastic Compliance Matrix: (Units=1/GPa)
#
#
# Indices 1 2 3 4 5 6 
#
# 1 0.084777 -0.001248 -0.043779 0.000000 0.000000 0.000000
# 2 -0.001248 0.029930 -0.004307 0.000000 0.000000 0.000000
# 3 -0.043779 -0.004307 0.033970 0.000000 0.000000 0.000000
# 4 0.000000 0.000000 0.000000 0.033344 0.000000 0.000000
# 5 0.000000 0.000000 0.000000 0.000000 -0.016824 0.000000
# 6 0.000000 0.000000 0.000000 0.000000 0.000000 0.042148
#
#
# Mechanical properties :
#
#
# Convention : Reuss Voigt Hill
#
# Bulk Modulus (GPa) = 19.99645 35.03578 27.51612
# Shear Modulus (GPa) = 15.49511 5.16685 10.33098
#
# Velocity S-wave (km/s) = 2.85276 1.64733 2.32937
# Velocity P-wave (km/s) = 4.62097 4.69249 4.65687
#
# Compressibility (1/GPa) = 0.05000887
#
# Stress axis : x y z
#
# Youngs Moduli (GPa) = 11.79565 33.41151 29.43764
#
# Poissons Ratio (x) = 0.04170 1.28875
# Poissons Ratio (y) = 0.01472 0.12678
# Poissons Ratio (z) = 0.51640 0.14389
#
# Static dielectric constant tensor:
#      x y z
#    x 1.647000 0.000000 0.000000 
#    y 0.000000 1.722250 0.000000 
#    z 0.000000 0.000000 1.720850 
# 
# From -- ./inp_files/15222.got.cif
#   From: 2010.05.17/outbox.cif.g08.bks.cpg/sg55_8_cif.got.tgz:15222.got - 2010.06.03 13:27:54.
