data_PCOD9428314
_publ_section_title
;
Structure prediction by ZEFSAII (Michael W. Deem and Ramdas Pophale) SiO2 
 PCOD9428314
Probable space group: P B A M
;
_chemical_formula_sum "Si O2"
_cell_formula_units_Z 64
_cell_length_a 7.878274
_cell_length_b 14.017027
_cell_length_c 25.712268
_cell_angle_alpha 90.000000
_cell_angle_beta 90.000000
_cell_angle_gamma 90.000000
_cell_volume 2839.405225
_symmetry_space_group_name_H-M "P B A M"
_symmetry_group_IT_number 55
_symmetry_cell_setting 'orthorhombic'
loop_
_space_group_symop_operation_xyz
x,y,z
-x,-y,z
1/2+x,1/2-y,-z
1/2-x,1/2+y,-z
-x,-y,-z
x,y,-z
1/2-x,1/2+y,z
1/2+x,1/2-y,z
loop_
_atom_site_type_symbol
_atom_site_label
_atom_site_fract_x
_atom_site_fract_y
_atom_site_fract_z
Si Si1 0.798334 0.303941 0.441522
Si Si2 0.932948 0.310075 0.944178
Si Si3 0.432701 0.194460 0.830296
Si Si4 0.330570 0.897500 0.558497
Si Si5 0.691759 0.601061 0.830515
Si Si6 0.817010 0.952071 0.635112
Si Si7 0.187581 0.547276 0.248851
Si Si8 0.687618 0.601952 0.944266
O O1 0.730514 0.322050 0.500000
O O2 0.798110 0.190482 0.435217
O O3 0.689625 0.354645 0.397297
O O4 0.985580 0.348424 0.438611
O O5 0.857407 0.332595 0.887489
O O6 0.933312 0.194962 0.944293
O O7 0.121136 0.354136 0.944516
O O8 0.852796 0.338358 0.000000
O O9 0.431313 0.308454 0.824446
O O10 0.622055 0.151569 0.830139
O O11 0.333125 0.143614 0.784121
O O12 0.311134 0.938579 0.500000
O O13 0.300035 0.975069 0.602255
O O14 0.696816 0.524664 0.784890
O O15 0.669946 0.555109 0.887889
O O16 0.753800 0.937908 0.693445
O O17 0.000000 0.000000 0.635812
O O18 0.000000 0.500000 0.251676
O O19 0.668368 0.551205 0.000000
#
# Coordination Sequence:
#
# PCOD9428314 Si02
#       8
#     8   8   8   8   8   8   8   8
#     4  10  21  39  64  93 123 153 185 224 273 328
#     4   8  13  23  42  69  97 124 159 205 260 323
#     4   9  18  33  53  74  99 135 174 217 271 326
#     4  10  21  39  64  93 123 153 185 224 273 328
#     4   9  18  33  53  74  99 135 174 217 271 326
#     4  12  25  39  58  84 115 153 195 236 279 326
#     4  10  22  39  54  72 104 143 185 230 275 324
#     4   8  13  23  42  69  97 124 159 205 260 323
#
# _framework density 22.539933000000001
#
# number of rings (size 3 to 8) (size 9 to 14) (size 15 to 20)
#    0.000    2.500    0.000    2.250    0.000    5.000 
#    0.000    3.125    0.000    3.750    0.000    0.000 
#    0.000   21.000    0.000    0.000    0.000    0.000 
#
# Total GULP energy -357451.230634 kJ/mol
# GULP energy per Si atom -5585.175479 kJ/mol
# Density = 2.248863 g / cm^3
# Si number density = 22.539933 Si / 1000 Ang^3
#
#
#
# Elastic Constant Matrix: (Units=GPa)
#
#
# Indices 1 2 3 4 5 6 
#
# 1 60.5538 14.2765 37.2917 0.0000 0.0000 0.0000
# 2 14.2765 36.6556 27.2031 0.0000 0.0000 0.0000
# 3 37.2917 27.2031 181.9225 0.0000 0.0000 0.0000
# 4 0.0000 0.0000 0.0000 52.7427 0.0000 0.0000
# 5 0.0000 0.0000 0.0000 0.0000 31.6404 0.0000
# 6 0.0000 0.0000 0.0000 0.0000 0.0000 33.0158
#
#
#
# Elastic Compliance Matrix: (Units=1/GPa)
#
#
# Indices 1 2 3 4 5 6 
#
# 1 0.019768 -0.005278 -0.003263 0.000000 0.000000 0.000000
# 2 -0.005278 0.032095 -0.003717 0.000000 0.000000 0.000000
# 3 -0.003263 -0.003717 0.006722 0.000000 0.000000 0.000000
# 4 0.000000 0.000000 0.000000 0.018960 0.000000 0.000000
# 5 0.000000 0.000000 0.000000 0.000000 0.031605 0.000000
# 6 0.000000 0.000000 0.000000 0.000000 0.000000 0.030288
#
#
# Mechanical properties :
#
#
# Convention : Reuss Voigt Hill
#
# Bulk Modulus (GPa) = 29.35236 48.51937 38.93587
# Shear Modulus (GPa) = 28.52079 36.83717 32.67898
#
# Velocity S-wave (km/s) = 3.56103 4.04704 3.81179
# Velocity P-wave (km/s) = 5.47344 6.58868 6.05679
#
# Compressibility (1/GPa) = 0.03406881
#
# Stress axis : x y z
#
# Youngs Moduli (GPa) = 50.58677 31.15729 148.77443
#
# Poissons Ratio (x) = 0.16444 0.48545
# Poissons Ratio (y) = 0.26698 0.55305
# Poissons Ratio (z) = 0.16507 0.11582
#
# Static dielectric constant tensor:
#      x y z
#    x 1.874040 0.000000 0.000000 
#    y 0.000000 1.837900 0.000000 
#    z 0.000000 0.000000 1.815750 
# 
# From -- ./inp_files/23490.got.cif
#   From: 2010.05.17/outbox.cif.g08.bks.cpg/sg55_12_cif.got.tgz:23490.got - 2010.06.03 13:27:54.
