data_PCOD9428144
_publ_section_title
;
Structure prediction by ZEFSAII (Michael W. Deem and Ramdas Pophale) SiO2 
 PCOD9428144
Probable space group: P B A M
;
_chemical_formula_sum "Si O2"
_cell_formula_units_Z 58
_cell_length_a 11.232416
_cell_length_b 27.264311
_cell_length_c 7.619808
_cell_angle_alpha 90.000000
_cell_angle_beta 90.000000
_cell_angle_gamma 90.000000
_cell_volume 2333.521114
_symmetry_space_group_name_H-M "P B A M"
_symmetry_group_IT_number 55
_symmetry_cell_setting 'orthorhombic'
loop_
_space_group_symop_operation_xyz
x,y,z
-x,-y,z
1/2+x,1/2-y,-z
1/2-x,1/2+y,-z
-x,-y,-z
x,y,-z
1/2-x,1/2+y,z
1/2+x,1/2-y,z
loop_
_atom_site_type_symbol
_atom_site_label
_atom_site_fract_x
_atom_site_fract_y
_atom_site_fract_z
Si Si1 0.927793 0.951506 0.211636
Si Si2 0.918766 0.555864 0.809527
Si Si3 0.500000 0.000000 0.500000
Si Si4 0.819206 0.292052 0.715326
Si Si5 0.192277 0.340721 0.794346
Si Si6 0.572348 0.249069 0.743744
Si Si7 0.969653 0.153866 0.789632
Si Si8 0.170832 0.590655 0.703536
O O1 0.791930 0.939604 0.267437
O O2 0.996562 0.901267 0.259474
O O3 0.925805 0.954597 0.000000
O O4 0.000000 0.000000 0.273976
O O5 0.908920 0.518352 0.654138
O O6 0.055315 0.574724 0.810779
O O7 0.842641 0.603455 0.768966
O O8 0.885118 0.536120 0.000000
O O9 0.820163 0.282721 0.500000
O O10 0.706065 0.265611 0.802949
O O11 0.809726 0.351039 0.736017
O O12 0.939490 0.269310 0.797710
O O13 0.115164 0.304165 0.678908
O O14 0.331117 0.337142 0.765463
O O15 0.162607 0.329191 0.000000
O O16 0.536907 0.303774 0.684943
O O17 0.997550 0.160722 0.000000
O O18 0.130807 0.583634 0.500000
#
# Coordination Sequence:
#
# PCOD9428144 Si02
#       8
#     8   8   2   8   8   8   8   8
#     4  10  22  41  67  95 129 177 232 293 362 428
#     4  11  24  45  73 103 140 185 233 293 368 438
#     4  12  26  48  72 106 138 180 242 304 358 432
#     4  11  24  38  63  94 136 184 238 294 360 433
#     4  10  22  39  63  99 137 181 232 288 359 433
#     4  12  20  40  63  95 135 184 233 293 358 436
#     4  10  21  38  60  94 134 174 232 295 352 425
#     4  11  22  42  67  97 138 177 235 300 351 432
#
# _framework density 24.855142000000001
#
# number of rings (size 3 to 8) (size 9 to 14) (size 15 to 20)
#    0.000    1.241    4.828    1.448    0.000    1.379 
#    1.241    2.759    1.517    0.000    0.000    0.000 
#    0.000    0.000    0.000    0.000    0.000    0.000 
#
# Total GULP energy -322872.604869 kJ/mol
# GULP energy per Si atom -5566.769049 kJ/mol
# Density = 2.479857 g / cm^3
# Si number density = 24.855142 Si / 1000 Ang^3
#
#
#
# Elastic Constant Matrix: (Units=GPa)
#
#
# Indices 1 2 3 4 5 6 
#
# 1 163.6893 20.2218 7.7925 0.0000 0.0000 0.0000
# 2 20.2218 102.2646 35.6464 0.0000 0.0000 0.0000
# 3 7.7925 35.6464 107.8191 0.0000 0.0000 0.0000
# 4 0.0000 0.0000 0.0000 -189.5173 0.0000 0.0000
# 5 0.0000 0.0000 0.0000 0.0000 20.1961 0.0000
# 6 0.0000 0.0000 0.0000 0.0000 0.0000 51.0330
#
#
#
# Elastic Compliance Matrix: (Units=1/GPa)
#
#
# Indices 1 2 3 4 5 6 
#
# 1 0.006262 -0.001221 -0.000049 0.000000 0.000000 0.000000
# 2 -0.001221 0.011290 -0.003644 0.000000 0.000000 0.000000
# 3 -0.000049 -0.003644 0.010483 0.000000 0.000000 0.000000
# 4 0.000000 0.000000 0.000000 -0.005277 0.000000 0.000000
# 5 0.000000 0.000000 0.000000 0.000000 0.049515 0.000000
# 6 0.000000 0.000000 0.000000 0.000000 0.000000 0.019595
#
#
# Mechanical properties :
#
#
# Convention : Reuss Voigt Hill
#
# Bulk Modulus (GPa) = 54.92463 55.67715 55.30089
# Shear Modulus (GPa) = 46.39624 -2.98350 21.70637
#
# Velocity S-wave (km/s) = 4.32518 -1.09680 2.95840
# Velocity P-wave (km/s) = 6.86213 4.56567 5.82813
#
# Compressibility (1/GPa) = 0.01820677
#
# Stress axis : x y z
#
# Youngs Moduli (GPa) = 159.68480 88.57073 95.39043
#
# Poissons Ratio (x) = 0.10817 0.00466
# Poissons Ratio (y) = 0.19502 0.34765
# Poissons Ratio (z) = 0.00780 0.32279
#
# Static dielectric constant tensor:
#      x y z
#    x 1.839160 0.000000 0.000000 
#    y 0.000000 1.580280 0.000000 
#    z 0.000000 0.000000 1.624990 
# 
# From -- ./inp_files/4326.got.cif
#   From: 2010.05.17/outbox.cif.g08.bks.cpg/sg55_3_cif.got.tgz:4326.got - 2010.06.03 13:27:54.
