data_PCOD9428655
_publ_section_title
;
Structure prediction by ZEFSAII (Michael W. Deem and Ramdas Pophale) SiO2 
 PCOD9428655
Probable space group: P B A M
;
_chemical_formula_sum "Si O2"
_cell_formula_units_Z 64
_cell_length_a 23.773450
_cell_length_b 15.065030
_cell_length_c 8.298090
_cell_angle_alpha 90.000000
_cell_angle_beta 90.000000
_cell_angle_gamma 90.000000
_cell_volume 2971.942159
_symmetry_space_group_name_H-M "P B A M"
_symmetry_group_IT_number 55
_symmetry_cell_setting 'orthorhombic'
loop_
_space_group_symop_operation_xyz
x,y,z
-x,-y,z
1/2+x,1/2-y,-z
1/2-x,1/2+y,-z
-x,-y,-z
x,y,-z
1/2-x,1/2+y,z
1/2+x,1/2-y,z
loop_
_atom_site_type_symbol
_atom_site_label
_atom_site_fract_x
_atom_site_fract_y
_atom_site_fract_z
Si Si1 0.682121 0.294985 0.812442
Si Si2 0.608060 0.149169 0.316461
Si Si3 0.808416 0.304728 0.806101
Si Si4 0.798919 0.512450 0.804021
Si Si5 0.493208 0.099611 0.814114
Si Si6 0.326196 0.492202 0.811281
Si Si7 0.924116 0.241076 0.314238
Si Si8 0.551817 0.558723 0.809000
O O1 0.637590 0.243465 0.707150
O O2 0.745915 0.273598 0.761393
O O3 0.675055 0.400713 0.807155
O O4 0.675731 0.267344 0.000000
O O5 0.589326 0.136565 0.500000
O O6 0.554772 0.141287 0.201203
O O7 0.654463 0.076218 0.268843
O O8 0.811607 0.409443 0.763380
O O9 0.858758 0.249012 0.732229
O O10 0.812630 0.299345 0.000000
O O11 0.735277 0.535669 0.747691
O O12 0.799916 0.518679 0.000000
O O13 0.450623 0.163360 0.723406
O O14 0.500000 0.000000 0.749195
O O15 0.474487 0.093327 0.000000
O O16 0.385862 0.462347 0.739610
O O17 0.326200 0.464037 0.000000
O O18 0.930783 0.219475 0.500000
O O19 0.955148 0.163756 0.215476
O O20 0.500000 0.500000 0.743867
O O21 0.554813 0.538776 0.000000
#
# Coordination Sequence:
#
# PCOD9428655 Si02
#       8
#     8   8   8   8   8   8   8   8
#     4   9  19  37  62  88 117 159 206 256 301 354
#     4  12  25  37  56  91 130 161 194 242 310 378
#     4   9  19  38  63  89 118 157 211 259 300 356
#     4   9  18  36  61  88 118 158 204 253 302 359
#     4  11  25  46  70  92 117 160 216 263 305 364
#     4   8  17  36  62  89 115 151 207 261 304 347
#     4  12  26  41  62  94 133 168 201 252 321 384
#     4  10  22  40  64  92 120 161 217 267 308 364
#
# _framework density 21.534738999999998
#
# number of rings (size 3 to 8) (size 9 to 14) (size 15 to 20)
#    0.000    2.000    0.000    4.875    3.500    5.250 
#    0.000    2.500    0.000    0.000    0.000    0.000 
#    0.000    0.000    0.000    0.000    0.000    0.000 
#
# Total GULP energy -357601.392532 kJ/mol
# GULP energy per Si atom -5587.521758 kJ/mol
# Density = 2.148573 g / cm^3
# Si number density = 21.534739 Si / 1000 Ang^3
#
#
#
# Elastic Constant Matrix: (Units=GPa)
#
#
# Indices 1 2 3 4 5 6 
#
# 1 79.9709 13.8856 3.0736 0.0000 0.0000 0.0000
# 2 13.8856 34.5301 -6.7302 0.0000 0.0000 0.0000
# 3 3.0736 -6.7302 12.0467 0.0000 0.0000 0.0000
# 4 0.0000 0.0000 0.0000 10.7146 0.0000 0.0000
# 5 0.0000 0.0000 0.0000 0.0000 -78.6097 0.0000
# 6 0.0000 0.0000 0.0000 0.0000 0.0000 32.7911
#
#
#
# Elastic Compliance Matrix: (Units=1/GPa)
#
#
# Indices 1 2 3 4 5 6 
#
# 1 0.014030 -0.007114 -0.007554 0.000000 0.000000 0.000000
# 2 -0.007114 0.036107 0.021987 0.000000 0.000000 0.000000
# 3 -0.007554 0.021987 0.097222 0.000000 0.000000 0.000000
# 4 0.000000 0.000000 0.000000 0.093331 0.000000 0.000000
# 5 0.000000 0.000000 0.000000 0.000000 -0.012721 0.000000
# 6 0.000000 0.000000 0.000000 0.000000 0.000000 0.030496
#
#
# Mechanical properties :
#
#
# Convention : Reuss Voigt Hill
#
# Bulk Modulus (GPa) = 6.17300 16.33395 11.25347
# Shear Modulus (GPa) = 16.78834 0.73377 8.76105
#
# Velocity S-wave (km/s) = 2.79515 0.58436 2.01920
# Velocity P-wave (km/s) = 3.64553 2.83843 3.26700
#
# Compressibility (1/GPa) = 0.16199584
#
# Stress axis : x y z
#
# Youngs Moduli (GPa) = 71.27497 27.69571 10.28576
#
# Poissons Ratio (x) = 0.19704 0.07770
# Poissons Ratio (y) = 0.50708 -0.22616
# Poissons Ratio (z) = 0.53843 -0.60895
#
# Static dielectric constant tensor:
#      x y z
#    x 1.783080 0.000000 0.000000 
#    y 0.000000 1.783090 0.000000 
#    z 0.000000 0.000000 1.755010 
# 
# From -- ./inp_files/9745.got.cif
#   From: 2010.05.17/outbox.cif.g08.bks.cpg/sg55_5_cif.got.tgz:9745.got - 2010.06.03 13:27:54.
