data_PCOD9428150
_publ_section_title
;
Structure prediction by ZEFSAII (Michael W. Deem and Ramdas Pophale) SiO2 
 PCOD9428150
Probable space group: P B A M
;
_chemical_formula_sum "Si O2"
_cell_formula_units_Z 40
_cell_length_a 9.329451
_cell_length_b 15.371414
_cell_length_c 14.393940
_cell_angle_alpha 90.000000
_cell_angle_beta 90.000000
_cell_angle_gamma 90.000000
_cell_volume 2064.189648
_symmetry_space_group_name_H-M "P B A M"
_symmetry_group_IT_number 55
_symmetry_cell_setting 'orthorhombic'
loop_
_space_group_symop_operation_xyz
x,y,z
-x,-y,z
1/2+x,1/2-y,-z
1/2-x,1/2+y,-z
-x,-y,-z
x,y,-z
1/2-x,1/2+y,z
1/2+x,1/2-y,z
loop_
_atom_site_type_symbol
_atom_site_label
_atom_site_fract_x
_atom_site_fract_y
_atom_site_fract_z
Si Si1 0.109910 0.233209 0.707406
Si Si2 0.846199 0.164163 0.389687
Si Si3 0.607962 0.073706 0.710402
Si Si4 0.724964 0.548792 0.895574
Si Si5 0.075051 0.140118 0.895009
O O1 0.002772 0.168932 0.654826
O O2 0.129573 0.200362 0.812123
O O3 0.254627 0.254161 0.651199
O O4 0.041150 0.329953 0.708981
O O5 0.851448 0.166562 0.500000
O O6 0.751079 0.083623 0.352243
O O7 0.500000 0.000000 0.679108
O O8 0.660571 0.057317 0.814947
O O9 0.592930 0.615991 0.880521
O O10 0.656594 0.452353 0.891519
O O11 0.780796 0.562351 0.000000
O O12 0.092108 0.175293 0.000000
#
# Coordination Sequence:
#
# PCOD9428150 Si02
#       5
#     8   8   8   8   8
#     4  10  21  38  61  87 113 156 196 244 289 350
#     4  10  22  40  60  84 113 151 198 247 297 345
#     4  10  23  36  58  84 119 152 191 243 296 349
#     4   9  18  35  56  83 119 153 186 234 290 349
#     4   9  17  33  61  86 111 150 193 236 288 346
#
# _framework density 19.378063999999998
#
# number of rings (size 3 to 8) (size 9 to 14) (size 15 to 20)
#    1.200    1.200    2.000    1.800    2.800    1.600 
#    0.000    1.000    0.000    1.200    0.000    0.000 
#    0.000    0.000    0.000    0.000    0.000    0.000 
#
# Total GULP energy -222792.103316 kJ/mol
# GULP energy per Si atom -5569.802583 kJ/mol
# Density = 1.933396 g / cm^3
# Si number density = 19.378064 Si / 1000 Ang^3
#
#
#
# Elastic Constant Matrix: (Units=GPa)
#
#
# Indices 1 2 3 4 5 6 
#
# 1 36.0124 -13.8186 4.9594 0.0000 0.0000 0.0000
# 2 -13.8186 24.7517 2.1727 0.0000 0.0000 0.0000
# 3 4.9594 2.1727 103.1615 0.0000 0.0000 0.0000
# 4 0.0000 0.0000 0.0000 -9.4667 0.0000 0.0000
# 5 0.0000 0.0000 0.0000 0.0000 13.0303 0.0000
# 6 0.0000 0.0000 0.0000 0.0000 0.0000 12.0481
#
#
#
# Elastic Compliance Matrix: (Units=1/GPa)
#
#
# Indices 1 2 3 4 5 6 
#
# 1 0.035807 0.020179 -0.002146 0.000000 0.000000 0.000000
# 2 0.020179 0.051848 -0.002062 0.000000 0.000000 0.000000
# 3 -0.002146 -0.002062 0.009840 0.000000 0.000000 0.000000
# 4 0.000000 0.000000 0.000000 -0.105633 0.000000 0.000000
# 5 0.000000 0.000000 0.000000 0.000000 0.076744 0.000000
# 6 0.000000 0.000000 0.000000 0.000000 0.000000 0.083001
#
#
# Mechanical properties :
#
#
# Convention : Reuss Voigt Hill
#
# Bulk Modulus (GPa) = 7.72582 16.72806 12.22694
# Shear Modulus (GPa) = 30.71051 14.49648 22.60349
#
# Velocity S-wave (km/s) = 3.98528 2.73809 3.41903
# Velocity P-wave (km/s) = 5.01719 4.31826 4.68079
#
# Compressibility (1/GPa) = 0.12943605
#
# Stress axis : x y z
#
# Youngs Moduli (GPa) = 27.92767 19.28714 101.62445
#
# Poissons Ratio (x) = -0.38919 0.21812
# Poissons Ratio (y) = -0.56355 0.20956
# Poissons Ratio (z) = 0.05994 0.03977
#
# Static dielectric constant tensor:
#      x y z
#    x 1.684570 0.000000 0.000000 
#    y 0.000000 1.688550 0.000000 
#    z 0.000000 0.000000 1.652620 
# 
# From -- ./inp_files/17039.got.cif
#   From: 2010.05.17/outbox.cif.g08.bks.cpg/sg55_9_cif.got.tgz:17039.got - 2010.06.03 13:27:54.
