data_PCOD9428044
_publ_section_title
;
Structure prediction by ZEFSAII (Michael W. Deem and Ramdas Pophale) SiO2 
 PCOD9428044
Probable space group: P B A M
;
_chemical_formula_sum "Si O2"
_cell_formula_units_Z 64
_cell_length_a 12.389558
_cell_length_b 29.665559
_cell_length_c 9.209547
_cell_angle_alpha 90.000000
_cell_angle_beta 90.000000
_cell_angle_gamma 90.000000
_cell_volume 3384.906042
_symmetry_space_group_name_H-M "P B A M"
_symmetry_group_IT_number 55
_symmetry_cell_setting 'orthorhombic'
loop_
_space_group_symop_operation_xyz
x,y,z
-x,-y,z
1/2+x,1/2-y,-z
1/2-x,1/2+y,-z
-x,-y,-z
x,y,-z
1/2-x,1/2+y,z
1/2+x,1/2-y,z
loop_
_atom_site_type_symbol
_atom_site_label
_atom_site_fract_x
_atom_site_fract_y
_atom_site_fract_z
Si Si1 0.127096 0.996153 0.173802
Si Si2 0.005070 0.553332 0.325801
Si Si3 0.765251 0.175082 0.831660
Si Si4 0.311982 0.679818 0.165406
Si Si5 0.724761 0.916749 0.825992
Si Si6 0.761704 0.582634 0.674435
Si Si7 0.598765 0.239145 0.668263
Si Si8 0.904166 0.260817 0.158092
O O1 0.193594 0.042029 0.202849
O O2 0.188579 0.956999 0.259923
O O3 0.133210 0.987309 0.000000
O O4 0.000000 0.000000 0.211204
O O5 0.018118 0.557147 0.500000
O O6 0.109372 0.574906 0.249354
O O7 0.000000 0.500000 0.289564
O O8 0.888509 0.574500 0.287080
O O9 0.777106 0.129441 0.743085
O O10 0.672206 0.204688 0.757411
O O11 0.866169 0.209178 0.829626
O O12 0.740367 0.165439 0.000000
O O13 0.281950 0.630007 0.217453
O O14 0.384282 0.710630 0.268537
O O15 0.200751 0.707985 0.157110
O O16 0.355867 0.677286 0.000000
O O17 0.707183 0.914168 0.000000
O O18 0.754550 0.583048 0.500000
O O19 0.624467 0.237016 0.500000
O O20 0.477348 0.226425 0.707473
O O21 0.959528 0.266683 0.000000
#
# Coordination Sequence:
#
# PCOD9428044 Si02
#       8
#     8   8   8   8   8   8   8   8
#     4  10  22  40  60  85 119 158 201 246 292 345
#     4  10  21  38  58  84 122 159 189 235 299 355
#     4  10  22  40  61  84 114 153 196 240 287 344
#     4   9  20  38  57  82 113 150 197 242 287 340
#     4  10  21  37  60  88 114 150 202 248 285 342
#     4  11  23  39  60  89 121 154 195 243 300 358
#     4  11  22  36  57  86 118 152 190 236 289 345
#     4   9  19  37  58  79 109 151 193 236 286 340
#
# _framework density 18.907468999999999
#
# number of rings (size 3 to 8) (size 9 to 14) (size 15 to 20)
#    0.000    2.000    1.250    2.625    1.750    5.500 
#    0.000    2.500    0.000    0.000    0.000    0.000 
#    0.000    0.000    0.000    0.000    0.000    0.000 
#
# Total GULP energy -357162.306463 kJ/mol
# GULP energy per Si atom -5580.661038 kJ/mol
# Density = 1.886443 g / cm^3
# Si number density = 18.907469 Si / 1000 Ang^3
#
#
#
# Elastic Constant Matrix: (Units=GPa)
#
#
# Indices 1 2 3 4 5 6 
#
# 1 73.2055 14.4045 35.8950 0.0000 0.0000 0.0000
# 2 14.4045 107.1135 31.4191 0.0000 0.0000 0.0000
# 3 35.8950 31.4191 62.5332 0.0000 0.0000 0.0000
# 4 0.0000 0.0000 0.0000 12.8687 0.0000 0.0000
# 5 0.0000 0.0000 0.0000 0.0000 9.2367 0.0000
# 6 0.0000 0.0000 0.0000 0.0000 0.0000 7.5174
#
#
#
# Elastic Compliance Matrix: (Units=1/GPa)
#
#
# Indices 1 2 3 4 5 6 
#
# 1 0.019063 0.000758 -0.011323 0.000000 0.000000 0.000000
# 2 0.000758 0.010980 -0.005952 0.000000 0.000000 0.000000
# 3 -0.011323 -0.005952 0.025482 0.000000 0.000000 0.000000
# 4 0.000000 0.000000 0.000000 0.077708 0.000000 0.000000
# 5 0.000000 0.000000 0.000000 0.000000 0.108264 0.000000
# 6 0.000000 0.000000 0.000000 0.000000 0.000000 0.133025
#
#
# Mechanical properties :
#
#
# Convention : Reuss Voigt Hill
#
# Bulk Modulus (GPa) = 44.46368 45.14325 44.80347
# Shear Modulus (GPa) = 12.04666 16.66680 14.35673
#
# Velocity S-wave (km/s) = 2.52690 2.97222 2.75856
# Velocity P-wave (km/s) = 5.66402 5.97549 5.82184
#
# Compressibility (1/GPa) = 0.02249027
#
# Stress axis : x y z
#
# Youngs Moduli (GPa) = 52.45697 91.07679 39.24397
#
# Poissons Ratio (x) = -0.06902 0.44437
# Poissons Ratio (y) = -0.03975 0.23357
# Poissons Ratio (z) = 0.59399 0.54206
#
# Static dielectric constant tensor:
#      x y z
#    x 1.666690 0.000000 0.000000 
#    y 0.000000 1.649300 0.000000 
#    z 0.000000 0.000000 1.647220 
# 
# From -- ./inp_files/4585.got.cif
#   From: 2010.05.17/outbox.cif.g08.bks.cpg/sg55_3_cif.got.tgz:4585.got - 2010.06.03 13:27:54.
