data_PCOD9428420
_publ_section_title
;
Structure prediction by ZEFSAII (Michael W. Deem and Ramdas Pophale) SiO2 
 PCOD9428420
Probable space group: P B A M
;
_chemical_formula_sum "Si O2"
_cell_formula_units_Z 48
_cell_length_a 10.928223
_cell_length_b 23.674223
_cell_length_c 8.953878
_cell_angle_alpha 90.000000
_cell_angle_beta 90.000000
_cell_angle_gamma 90.000000
_cell_volume 2316.522141
_symmetry_space_group_name_H-M "P B A M"
_symmetry_group_IT_number 55
_symmetry_cell_setting 'orthorhombic'
loop_
_space_group_symop_operation_xyz
x,y,z
-x,-y,z
1/2+x,1/2-y,-z
1/2-x,1/2+y,-z
-x,-y,-z
x,y,-z
1/2-x,1/2+y,z
1/2+x,1/2-y,z
loop_
_atom_site_type_symbol
_atom_site_label
_atom_site_fract_x
_atom_site_fract_y
_atom_site_fract_z
Si Si1 0.291474 0.189066 0.824261
Si Si2 0.808125 0.981643 0.825984
Si Si3 0.194548 0.414108 0.324678
Si Si4 0.834327 0.179944 0.177878
Si Si5 0.070850 0.122925 0.677417
Si Si6 0.951056 0.416179 0.169569
O O1 0.319711 0.253787 0.789782
O O2 0.184906 0.162719 0.724125
O O3 0.409001 0.148576 0.808701
O O4 0.253884 0.184800 0.000000
O O5 0.902249 0.937599 0.753857
O O6 0.674840 0.950932 0.817911
O O7 0.788904 0.039499 0.738012
O O8 0.836102 0.991483 0.000000
O O9 0.209692 0.407426 0.500000
O O10 0.220612 0.355934 0.238742
O O11 0.057087 0.432316 0.282611
O O12 0.951322 0.152980 0.257988
O O13 0.845569 0.173250 0.000000
O O14 0.063692 0.116475 0.500000
O O15 0.998015 0.424114 0.000000
#
# Coordination Sequence:
#
# PCOD9428420 Si02
#       6
#     8   8   8   8   8   8
#     4   9  21  41  65  88 116 160 209 249 290 356
#     4  10  21  41  66  89 118 162 210 248 292 361
#     4  12  25  38  57  92 129 159 198 253 313 358
#     4  11  24  42  63  87 119 165 212 248 290 358
#     4  11  23  40  63  92 125 155 193 251 314 363
#     4   9  19  38  63  91 119 157 204 251 298 356
#
# _framework density 20.720717
#
# number of rings (size 3 to 8) (size 9 to 14) (size 15 to 20)
#    0.000    1.667    0.000    5.500    2.333    7.333 
#    0.000    3.333    0.000    0.000    0.000    0.000 
#    0.000    0.000    0.000    0.000    0.000    0.000 
#
# Total GULP energy -268524.105298 kJ/mol
# GULP energy per Si atom -5594.252194 kJ/mol
# Density = 2.067356 g / cm^3
# Si number density = 20.720717 Si / 1000 Ang^3
#
#
#
# Elastic Constant Matrix: (Units=GPa)
#
#
# Indices 1 2 3 4 5 6 
#
# 1 49.0306 -7.6718 13.0778 0.0000 0.0000 0.0000
# 2 -7.6718 91.6849 19.1814 0.0000 0.0000 0.0000
# 3 13.0778 19.1814 78.9224 0.0000 0.0000 0.0000
# 4 0.0000 0.0000 0.0000 17.5213 0.0000 0.0000
# 5 0.0000 0.0000 0.0000 0.0000 534.3346 0.0000
# 6 0.0000 0.0000 0.0000 0.0000 0.0000 17.4570
#
#
#
# Elastic Compliance Matrix: (Units=1/GPa)
#
#
# Indices 1 2 3 4 5 6 
#
# 1 0.021973 0.002740 -0.004307 0.000000 0.000000 0.000000
# 2 0.002740 0.011833 -0.003330 0.000000 0.000000 0.000000
# 3 -0.004307 -0.003330 0.014194 0.000000 0.000000 0.000000
# 4 0.000000 0.000000 0.000000 0.057073 0.000000 0.000000
# 5 0.000000 0.000000 0.000000 0.000000 0.001871 0.000000
# 6 0.000000 0.000000 0.000000 0.000000 0.000000 0.057283
#
#
# Mechanical properties :
#
#
# Convention : Reuss Voigt Hill
#
# Bulk Modulus (GPa) = 26.17446 29.86809 28.02128
# Shear Modulus (GPa) = 26.77279 126.86595 76.81937
#
# Velocity S-wave (km/s) = 3.59845 7.83323 6.09542
# Velocity P-wave (km/s) = 5.47033 9.81115 7.94302
#
# Compressibility (1/GPa) = 0.03820518
#
# Stress axis : x y z
#
# Youngs Moduli (GPa) = 45.51068 84.51094 70.45422
#
# Poissons Ratio (x) = -0.23153 0.30344
# Poissons Ratio (y) = -0.12468 0.23460
# Poissons Ratio (z) = 0.19601 0.28141
#
# Static dielectric constant tensor:
#      x y z
#    x 1.770540 0.000000 0.000000 
#    y 0.000000 1.746960 0.000000 
#    z 0.000000 0.000000 1.688000 
# 
# From -- ./inp_files/4080.got.cif
#   From: 2010.05.17/outbox.cif.g08.bks.cpg/sg55_3_cif.got.tgz:4080.got - 2010.06.03 13:27:54.
