data_PCOD9428985
_publ_section_title
;
Structure prediction by ZEFSAII (Michael W. Deem and Ramdas Pophale) SiO2 
 PCOD9428985
Probable space group: P B A M
;
_chemical_formula_sum "Si O2"
_cell_formula_units_Z 60
_cell_length_a 10.278036
_cell_length_b 17.240008
_cell_length_c 17.183486
_cell_angle_alpha 90.000000
_cell_angle_beta 90.000000
_cell_angle_gamma 90.000000
_cell_volume 3044.800701
_symmetry_space_group_name_H-M "P B A M"
_symmetry_group_IT_number 55
_symmetry_cell_setting 'orthorhombic'
loop_
_space_group_symop_operation_xyz
x,y,z
-x,-y,z
1/2+x,1/2-y,-z
1/2-x,1/2+y,-z
-x,-y,-z
x,y,-z
1/2-x,1/2+y,z
1/2+x,1/2-y,z
loop_
_atom_site_type_symbol
_atom_site_label
_atom_site_fract_x
_atom_site_fract_y
_atom_site_fract_z
Si Si1 0.375714 0.201844 0.309306
Si Si2 0.259169 0.844886 0.134508
Si Si3 0.450057 0.912483 0.591207
Si Si4 0.693417 0.629889 0.680819
Si Si5 0.498084 0.258652 0.850942
Si Si6 0.185629 0.109881 0.203571
Si Si7 0.349746 0.012189 0.089879
Si Si8 0.500000 0.500000 0.289974
O O1 0.451305 0.145699 0.366528
O O2 0.337863 0.283393 0.347144
O O3 0.462188 0.224009 0.233815
O O4 0.251729 0.158944 0.272133
O O5 0.233388 0.858437 0.227631
O O6 0.396234 0.801998 0.115811
O O7 0.138329 0.787918 0.111375
O O8 0.271544 0.931083 0.099734
O O9 0.438183 0.894659 0.500000
O O10 0.313602 0.904662 0.634766
O O11 0.500000 0.000000 0.599666
O O12 0.569915 0.573170 0.670030
O O13 0.580104 0.336748 0.837988
O O14 0.291733 0.078799 0.143851
O O15 0.113768 0.036131 0.238454
O O16 0.500000 0.000000 0.112538
O O17 0.345335 0.035454 0.000000
#
# Coordination Sequence:
#
# PCOD9428985 Si02
#       8
#     8   8   8   8   8   8   8   4
#     4  11  21  37  68  97 125 166 218 273 320 374
#     4  11  21  39  64  95 127 163 215 269 321 388
#     4  11  25  43  61  92 131 172 217 263 330 399
#     4  11  22  38  66  97 126 166 215 268 325 383
#     4  11  20  36  63 101 122 157 223 269 316 377
#     4  12  20  36  65  93 128 165 214 271 320 383
#     4  11  26  43  61  92 132 173 215 267 336 403
#     4  12  22  36  62 104 128 156 220 268 316 384
#
# _framework density 19.705725000000001
#
# number of rings (size 3 to 8) (size 9 to 14) (size 15 to 20)
#    0.000    0.800    8.000    1.600    0.000    0.533 
#    0.000    4.667    0.000    0.800    0.000    0.000 
#    0.000    0.000    0.000    0.000    0.000    0.000 
#
# Total GULP energy -335059.180135 kJ/mol
# GULP energy per Si atom -5584.319669 kJ/mol
# Density = 1.966087 g / cm^3
# Si number density = 19.705725 Si / 1000 Ang^3
#
#
#
# Elastic Constant Matrix: (Units=GPa)
#
#
# Indices 1 2 3 4 5 6 
#
# 1 103.8885 23.6658 20.7860 0.0000 0.0000 0.0000
# 2 23.6658 82.0526 16.1760 0.0000 0.0000 0.0000
# 3 20.7860 16.1760 19.3044 0.0000 0.0000 0.0000
# 4 0.0000 0.0000 0.0000 10.6028 0.0000 0.0000
# 5 0.0000 0.0000 0.0000 0.0000 4.1277 0.0000
# 6 0.0000 0.0000 0.0000 0.0000 0.0000 38.0463
#
#
#
# Elastic Compliance Matrix: (Units=1/GPa)
#
#
# Indices 1 2 3 4 5 6 
#
# 1 0.012355 -0.001127 -0.012359 0.000000 0.000000 0.000000
# 2 -0.001127 0.014702 -0.011106 0.000000 0.000000 0.000000
# 3 -0.012359 -0.011106 0.074415 0.000000 0.000000 0.000000
# 4 0.000000 0.000000 0.000000 0.094315 0.000000 0.000000
# 5 0.000000 0.000000 0.000000 0.000000 0.242268 0.000000
# 6 0.000000 0.000000 0.000000 0.000000 0.000000 0.026284
#
#
# Mechanical properties :
#
#
# Convention : Reuss Voigt Hill
#
# Bulk Modulus (GPa) = 19.12466 36.27790 27.70128
# Shear Modulus (GPa) = 9.41704 20.19652 14.80678
#
# Velocity S-wave (km/s) = 2.18843 3.20489 2.74413
# Velocity P-wave (km/s) = 4.01395 5.66965 4.91206
#
# Compressibility (1/GPa) = 0.05228851
#
# Stress axis : x y z
#
# Youngs Moduli (GPa) = 80.93733 68.01898 13.43813
#
# Poissons Ratio (x) = 0.07666 0.16608
# Poissons Ratio (y) = 0.09122 0.14924
# Poissons Ratio (z) = 1.00031 0.75540
#
# Static dielectric constant tensor:
#      x y z
#    x 1.714200 0.000000 0.000000 
#    y 0.000000 1.752530 0.000000 
#    z 0.000000 0.000000 1.651940 
# 
# From -- ./inp_files/21006.got.cif
#   From: 2010.05.17/outbox.cif.g08.bks.cpg/sg55_11_cif.got.tgz:21006.got - 2010.06.03 13:27:54.
