data_PCOD9428260
_publ_section_title
;
Structure prediction by ZEFSAII (Michael W. Deem and Ramdas Pophale) SiO2 
 PCOD9428260
Probable space group: P B A M
;
_chemical_formula_sum "Si O2"
_cell_formula_units_Z 48
_cell_length_a 10.973921
_cell_length_b 23.623927
_cell_length_c 9.235785
_cell_angle_alpha 90.000000
_cell_angle_beta 90.000000
_cell_angle_gamma 90.000000
_cell_volume 2394.350557
_symmetry_space_group_name_H-M "P B A M"
_symmetry_group_IT_number 55
_symmetry_cell_setting 'orthorhombic'
loop_
_space_group_symop_operation_xyz
x,y,z
-x,-y,z
1/2+x,1/2-y,-z
1/2-x,1/2+y,-z
-x,-y,-z
x,y,-z
1/2-x,1/2+y,z
1/2+x,1/2-y,z
loop_
_atom_site_type_symbol
_atom_site_label
_atom_site_fract_x
_atom_site_fract_y
_atom_site_fract_z
Si Si1 0.299812 0.194072 0.670764
Si Si2 0.807330 0.978412 0.668944
Si Si3 0.194279 0.421230 0.170915
Si Si4 0.833633 0.189383 0.169292
Si Si5 0.088537 0.124714 0.829101
Si Si6 0.952355 0.414071 0.334719
O O1 0.270270 0.194901 0.500000
O O2 0.327304 0.255827 0.731337
O O3 0.189034 0.166001 0.758717
O O4 0.413279 0.151090 0.688302
O O5 0.837666 0.984033 0.500000
O O6 0.897989 0.935414 0.748910
O O7 0.673546 0.948475 0.679272
O O8 0.787866 0.037958 0.746599
O O9 0.227860 0.355966 0.200222
O O10 0.058270 0.431966 0.227408
O O11 0.204630 0.431144 0.000000
O O12 0.958592 0.154617 0.187919
O O13 0.825402 0.206533 0.000000
O O14 0.112327 0.117044 0.000000
O O15 0.996667 0.421685 0.500000
#
# Coordination Sequence:
#
# PCOD9428260 Si02
#       6
#     8   8   8   8   8   8
#     4  10  22  39  61  87 117 151 193 244 295 348
#     4  10  21  39  61  86 118 153 193 241 294 347
#     4  11  23  37  57  87 119 153 196 240 288 344
#     4  10  24  41  57  84 119 157 196 240 290 346
#     4  10  21  40  63  84 114 154 196 239 289 348
#     4   9  20  38  58  85 117 151 189 239 295 344
#
# _framework density 20.047190000000001
#
# number of rings (size 3 to 8) (size 9 to 14) (size 15 to 20)
#    0.000    2.000    0.000    3.500    2.333    9.333 
#    0.000    3.333    0.000    0.000    0.000    0.000 
#    0.000    0.000    0.000    0.000    0.000    0.000 
#
# Total GULP energy -268305.113167 kJ/mol
# GULP energy per Si atom -5589.689858 kJ/mol
# Density = 2.000156 g / cm^3
# Si number density = 20.047190 Si / 1000 Ang^3
#
#
#
# Elastic Constant Matrix: (Units=GPa)
#
#
# Indices 1 2 3 4 5 6 
#
# 1 39.3257 -2.3378 20.0280 0.0000 0.0000 0.0000
# 2 -2.3378 80.5003 46.6085 0.0000 0.0000 0.0000
# 3 20.0280 46.6085 89.7285 0.0000 0.0000 0.0000
# 4 0.0000 0.0000 0.0000 39.3546 0.0000 0.0000
# 5 0.0000 0.0000 0.0000 0.0000 82.6460 0.0000
# 6 0.0000 0.0000 0.0000 0.0000 0.0000 12.4158
#
#
#
# Elastic Compliance Matrix: (Units=1/GPa)
#
#
# Indices 1 2 3 4 5 6 
#
# 1 0.031278 0.007080 -0.010659 0.000000 0.000000 0.000000
# 2 0.007080 0.019368 -0.011641 0.000000 0.000000 0.000000
# 3 -0.010659 -0.011641 0.019570 0.000000 0.000000 0.000000
# 4 0.000000 0.000000 0.000000 0.025410 0.000000 0.000000
# 5 0.000000 0.000000 0.000000 0.000000 0.012100 0.000000
# 6 0.000000 0.000000 0.000000 0.000000 0.000000 0.080542
#
#
# Mechanical properties :
#
#
# Convention : Reuss Voigt Hill
#
# Bulk Modulus (GPa) = 25.14048 37.57243 31.35645
# Shear Modulus (GPa) = 21.55484 36.56700 29.06092
#
# Velocity S-wave (km/s) = 3.28259 4.27552 3.81153
# Velocity P-wave (km/s) = 5.18990 6.56933 5.91993
#
# Compressibility (1/GPa) = 0.03977649
#
# Stress axis : x y z
#
# Youngs Moduli (GPa) = 31.97137 51.63264 51.09753
#
# Poissons Ratio (x) = -0.36554 0.54465
# Poissons Ratio (y) = -0.22635 0.59480
# Poissons Ratio (z) = 0.34078 0.60103
#
# Static dielectric constant tensor:
#      x y z
#    x 1.699580 0.000000 0.000000 
#    y 0.000000 1.707370 0.000000 
#    z 0.000000 0.000000 1.671310 
# 
# From -- ./inp_files/4092.got.cif
#   From: 2010.05.17/outbox.cif.g08.bks.cpg/sg55_3_cif.got.tgz:4092.got - 2010.06.03 13:27:54.
