data_PCOD9428726
_publ_section_title
;
Structure prediction by ZEFSAII (Michael W. Deem and Ramdas Pophale) SiO2 
 PCOD9428726
Probable space group: P B A M
;
_chemical_formula_sum "Si O2"
_cell_formula_units_Z 40
_cell_length_a 8.297732
_cell_length_b 16.515764
_cell_length_c 13.413423
_cell_angle_alpha 90.000000
_cell_angle_beta 90.000000
_cell_angle_gamma 90.000000
_cell_volume 1838.220872
_symmetry_space_group_name_H-M "P B A M"
_symmetry_group_IT_number 55
_symmetry_cell_setting 'orthorhombic'
loop_
_space_group_symop_operation_xyz
x,y,z
-x,-y,z
1/2+x,1/2-y,-z
1/2-x,1/2+y,-z
-x,-y,-z
x,y,-z
1/2-x,1/2+y,z
1/2+x,1/2-y,z
loop_
_atom_site_type_symbol
_atom_site_label
_atom_site_fract_x
_atom_site_fract_y
_atom_site_fract_z
Si Si1 0.193514 0.518013 0.696689
Si Si2 0.919067 0.720559 0.500000
Si Si3 0.496729 0.754125 0.820871
Si Si4 0.734249 0.662475 0.304162
Si Si5 0.751870 0.876531 0.500000
Si Si6 0.238327 0.124794 0.891001
O O1 0.287649 0.433201 0.694968
O O2 0.239411 0.570159 0.599620
O O3 0.235237 0.565997 0.797535
O O4 0.000000 0.500000 0.693023
O O5 0.822399 0.688239 0.404472
O O6 0.906298 0.817850 0.500000
O O7 0.095699 0.682182 0.500000
O O8 0.356438 0.813729 0.784830
O O9 0.580689 0.716973 0.721923
O O10 0.621991 0.807565 0.881465
O O11 0.423716 0.677156 0.877005
O O12 0.243270 0.085713 0.000000
#
# Coordination Sequence:
#
# PCOD9428726 Si02
#       6
#     8   4   8   8   4   8
#     4  12  23  41  63  97 130 172 207 263 325 376
#     4  12  21  36  63  94 120 172 214 258 307 378
#     4  10  22  42  63  91 126 167 215 265 316 381
#     4  11  22  40  64  91 129 168 213 263 321 381
#     4  12  24  41  68  93 136 168 216 260 318 382
#     4  11  23  42  67  94 127 167 217 266 320 382
#
# _framework density 21.760171
#
# number of rings (size 3 to 8) (size 9 to 14) (size 15 to 20)
#    0.000    0.800    4.000    5.100    0.000    1.200 
#    0.000    3.000    0.000    4.800    0.000    0.000 
#    0.000    0.000    0.000    0.000    0.000    0.000 
#
# Total GULP energy -223853.725251 kJ/mol
# GULP energy per Si atom -5596.343131 kJ/mol
# Density = 2.171064 g / cm^3
# Si number density = 21.760171 Si / 1000 Ang^3
#
#
#
# Elastic Constant Matrix: (Units=GPa)
#
#
# Indices 1 2 3 4 5 6 
#
# 1 30.9041 16.7289 2.4512 0.0000 0.0000 0.0000
# 2 16.7289 128.3118 47.1812 0.0000 0.0000 0.0000
# 3 2.4512 47.1812 146.0189 0.0000 0.0000 0.0000
# 4 0.0000 0.0000 0.0000 10.3131 0.0000 0.0000
# 5 0.0000 0.0000 0.0000 0.0000 8.1369 0.0000
# 6 0.0000 0.0000 0.0000 0.0000 0.0000 23.8537
#
#
#
# Elastic Compliance Matrix: (Units=1/GPa)
#
#
# Indices 1 2 3 4 5 6 
#
# 1 0.034945 -0.004926 0.001005 0.000000 0.000000 0.000000
# 2 -0.004926 0.009539 -0.002999 0.000000 0.000000 0.000000
# 3 0.001005 -0.002999 0.007801 0.000000 0.000000 0.000000
# 4 0.000000 0.000000 0.000000 0.096964 0.000000 0.000000
# 5 0.000000 0.000000 0.000000 0.000000 0.122896 0.000000
# 6 0.000000 0.000000 0.000000 0.000000 0.000000 0.041922
#
#
# Mechanical properties :
#
#
# Convention : Reuss Voigt Hill
#
# Bulk Modulus (GPa) = 26.01182 48.66194 37.33688
# Shear Modulus (GPa) = 14.67473 24.38563 19.53018
#
# Velocity S-wave (km/s) = 2.59971 3.35125 2.99911
# Velocity P-wave (km/s) = 4.58161 6.11440 5.40264
#
# Compressibility (1/GPa) = 0.03844406
#
# Stress axis : x y z
#
# Youngs Moduli (GPa) = 28.61658 104.83734 128.19338
#
# Poissons Ratio (x) = 0.51638 -0.12882
# Poissons Ratio (y) = 0.14095 0.38450
# Poissons Ratio (z) = -0.02876 0.31445
#
# Static dielectric constant tensor:
#      x y z
#    x 1.821370 0.000000 0.000000 
#    y 0.000000 1.765270 0.000000 
#    z 0.000000 0.000000 1.789500 
# 
# From -- ./inp_files/17127.got.cif
#   From: 2010.05.17/outbox.cif.g08.bks.cpg/sg55_9_cif.got.tgz:17127.got - 2010.06.03 13:27:54.
