data_PCOD9428752
_publ_section_title
;
Structure prediction by ZEFSAII (Michael W. Deem and Ramdas Pophale) SiO2 
 PCOD9428752
Probable space group: P B A M
;
_chemical_formula_sum "Si O2"
_cell_formula_units_Z 32
_cell_length_a 5.052551
_cell_length_b 18.383118
_cell_length_c 14.196308
_cell_angle_alpha 90.000000
_cell_angle_beta 90.000000
_cell_angle_gamma 90.000000
_cell_volume 1318.576387
_symmetry_space_group_name_H-M "P B A M"
_symmetry_group_IT_number 55
_symmetry_cell_setting 'orthorhombic'
loop_
_space_group_symop_operation_xyz
x,y,z
-x,-y,z
1/2+x,1/2-y,-z
1/2-x,1/2+y,-z
-x,-y,-z
x,y,-z
1/2-x,1/2+y,z
1/2+x,1/2-y,z
loop_
_atom_site_type_symbol
_atom_site_label
_atom_site_fract_x
_atom_site_fract_y
_atom_site_fract_z
Si Si1 0.266421 0.709792 0.386210
Si Si2 0.632414 0.705195 0.113568
Si Si3 0.265061 0.950939 0.801293
Si Si4 0.857634 0.077068 0.395714
O O1 0.253081 0.712962 0.500000
O O2 0.971720 0.727479 0.353760
O O3 0.419085 0.635457 0.366753
O O4 0.344611 0.733550 0.143506
O O5 0.709913 0.625711 0.149429
O O6 0.636173 0.702482 0.000000
O O7 0.334000 0.931770 0.692428
O O8 0.500000 0.000000 0.842394
O O9 0.000000 0.000000 0.802607
O O10 0.746583 0.096349 0.500000
O O11 0.000000 0.000000 0.405560
#
# Coordination Sequence:
#
# PCOD9428752 Si02
#       4
#     8   8   8   8
#     4   9  18  32  50  73 100 134 182 237 288 337
#     4  10  22  42  68  96 126 162 203 250 310 378
#     4  11  24  40  61  92 127 164 207 256 310 365
#     4   9  20  38  58  82 117 161 206 250 298 354
#
# _framework density 24.268597
#
# number of rings (size 3 to 8) (size 9 to 14) (size 15 to 20)
#    0.000    2.250    0.000    1.500    0.000    7.500 
#    0.000    7.500    0.000    0.000    0.000    0.000 
#    0.000    0.000    0.000    0.000    0.000    0.000 
#
# Total GULP energy -179060.107939 kJ/mol
# GULP energy per Si atom -5595.628373 kJ/mol
# Density = 2.421336 g / cm^3
# Si number density = 24.268597 Si / 1000 Ang^3
#
#
#
# Elastic Constant Matrix: (Units=GPa)
#
#
# Indices 1 2 3 4 5 6 
#
# 1 102.6379 19.1639 -4.6865 0.0000 0.0000 0.0000
# 2 19.1639 144.5418 -0.1630 0.0000 0.0000 0.0000
# 3 -4.6865 -0.1630 51.0151 0.0000 0.0000 0.0000
# 4 0.0000 0.0000 0.0000 26.4928 0.0000 0.0000
# 5 0.0000 0.0000 0.0000 0.0000 13.8749 0.0000
# 6 0.0000 0.0000 0.0000 0.0000 0.0000 49.0050
#
#
#
# Elastic Compliance Matrix: (Units=1/GPa)
#
#
# Indices 1 2 3 4 5 6 
#
# 1 0.010033 -0.001329 0.000917 0.000000 0.000000 0.000000
# 2 -0.001329 0.007095 -0.000099 0.000000 0.000000 0.000000
# 3 0.000917 -0.000099 0.019686 0.000000 0.000000 0.000000
# 4 0.000000 0.000000 0.000000 0.037746 0.000000 0.000000
# 5 0.000000 0.000000 0.000000 0.000000 0.072073 0.000000
# 6 0.000000 0.000000 0.000000 0.000000 0.000000 0.020406
#
#
# Mechanical properties :
#
#
# Convention : Reuss Voigt Hill
#
# Bulk Modulus (GPa) = 27.93979 36.31372 32.12676
# Shear Modulus (GPa) = 27.77916 36.79991 32.28953
#
# Velocity S-wave (km/s) = 3.38694 3.89827 3.65157
# Velocity P-wave (km/s) = 5.18005 5.93782 5.57183
#
# Compressibility (1/GPa) = 0.03579124
#
# Stress axis : x y z
#
# Youngs Moduli (GPa) = 99.67048 140.95363 50.79748
#
# Poissons Ratio (x) = 0.18735 -0.04660
# Poissons Ratio (y) = 0.13248 0.00505
# Poissons Ratio (z) = -0.09144 0.01402
#
# Static dielectric constant tensor:
#      x y z
#    x 1.910110 0.000000 0.000000 
#    y 0.000000 1.926870 0.000000 
#    z 0.000000 0.000000 1.970700 
# 
# From -- ./inp_files/16403.got.cif
#   From: 2010.05.17/outbox.cif.g08.bks.cpg/sg55_9_cif.got.tgz:16403.got - 2010.06.03 13:27:54.
