data_PCOD9428666
_publ_section_title
;
Structure prediction by ZEFSAII (Michael W. Deem and Ramdas Pophale) SiO2 
 PCOD9428666
Probable space group: P B A M
;
_chemical_formula_sum "Si O2"
_cell_formula_units_Z 48
_cell_length_a 20.714812
_cell_length_b 8.548803
_cell_length_c 11.672343
_cell_angle_alpha 90.000000
_cell_angle_beta 90.000000
_cell_angle_gamma 90.000000
_cell_volume 2067.018419
_symmetry_space_group_name_H-M "P B A M"
_symmetry_group_IT_number 55
_symmetry_cell_setting 'orthorhombic'
loop_
_space_group_symop_operation_xyz
x,y,z
-x,-y,z
1/2+x,1/2-y,-z
1/2-x,1/2+y,-z
-x,-y,-z
x,y,-z
1/2-x,1/2+y,z
1/2+x,1/2-y,z
loop_
_atom_site_type_symbol
_atom_site_label
_atom_site_fract_x
_atom_site_fract_y
_atom_site_fract_z
Si Si1 0.909405 0.902540 0.337838
Si Si2 0.409227 0.106980 0.868756
Si Si3 0.727297 0.459020 0.375488
Si Si4 0.137989 0.248868 0.870655
Si Si5 0.958007 0.254771 0.626800
Si Si6 0.784901 0.244699 0.784326
O O1 0.903150 0.870435 0.203925
O O2 0.966725 0.791880 0.377540
O O3 0.838375 0.858377 0.382487
O O4 0.923882 0.082927 0.366381
O O5 0.444586 0.158164 0.748867
O O6 0.343129 0.207717 0.864449
O O7 0.388793 0.925206 0.855919
O O8 0.437496 0.125445 0.000000
O O9 0.739956 0.528393 0.500000
O O10 0.711241 0.578479 0.274894
O O11 0.785778 0.359947 0.325953
O O12 0.214204 0.245408 0.840102
O O13 0.131556 0.202754 0.000000
O O14 0.940844 0.324331 0.500000
#
# Coordination Sequence:
#
# PCOD9428666 Si02
#       6
#     8   8   8   8   8   8
#     4  10  22  40  65  92 123 167 209 259 319 370
#     4  11  24  42  64  92 128 171 215 263 316 377
#     4  11  21  36  61  91 127 164 206 256 316 381
#     4  10  23  43  63  90 130 169 212 261 316 379
#     4  11  23  43  68  95 129 166 212 267 321 377
#     4  11  21  39  59  91 126 165 208 257 317 380
#
# _framework density 23.221852999999999
#
# number of rings (size 3 to 8) (size 9 to 14) (size 15 to 20)
#    0.000    1.333    3.333    3.000    0.000    2.667 
#    0.000    6.667    0.000    0.000    0.000    0.000 
#    0.000    0.000    0.000    0.000    0.000    0.000 
#
# Total GULP energy -267742.130569 kJ/mol
# GULP energy per Si atom -5577.961054 kJ/mol
# Density = 2.316900 g / cm^3
# Si number density = 23.221853 Si / 1000 Ang^3
#
#
#
# Elastic Constant Matrix: (Units=GPa)
#
#
# Indices 1 2 3 4 5 6 
#
# 1 46.0659 -2.6615 31.3740 0.0000 0.0000 0.0000
# 2 -2.6615 42.0062 35.2167 0.0000 0.0000 0.0000
# 3 31.3740 35.2167 204.0945 0.0000 0.0000 0.0000
# 4 0.0000 0.0000 0.0000 16.0492 0.0000 0.0000
# 5 0.0000 0.0000 0.0000 0.0000 11.8305 0.0000
# 6 0.0000 0.0000 0.0000 0.0000 0.0000 25.0605
#
#
#
# Elastic Compliance Matrix: (Units=1/GPa)
#
#
# Indices 1 2 3 4 5 6 
#
# 1 0.025363 0.005700 -0.004882 0.000000 0.000000 0.000000
# 2 0.005700 0.029113 -0.005900 0.000000 0.000000 0.000000
# 3 -0.004882 -0.005900 0.006668 0.000000 0.000000 0.000000
# 4 0.000000 0.000000 0.000000 0.062309 0.000000 0.000000
# 5 0.000000 0.000000 0.000000 0.000000 0.084527 0.000000
# 6 0.000000 0.000000 0.000000 0.000000 0.000000 0.039903
#
#
# Mechanical properties :
#
#
# Convention : Reuss Voigt Hill
#
# Bulk Modulus (GPa) = 19.61539 46.66945 33.14242
# Shear Modulus (GPa) = 18.17913 25.80387 21.99150
#
# Velocity S-wave (km/s) = 2.80097 3.33707 3.08070
# Velocity P-wave (km/s) = 4.35039 5.91514 5.19205
#
# Compressibility (1/GPa) = 0.05098037
#
# Stress axis : x y z
#
# Youngs Moduli (GPa) = 39.42808 34.34843 149.96438
#
# Poissons Ratio (x) = -0.19580 0.73219
# Poissons Ratio (y) = -0.22475 0.88476
# Poissons Ratio (z) = 0.19250 0.20265
#
# Static dielectric constant tensor:
#      x y z
#    x 1.931010 0.000000 0.000000 
#    y 0.000000 1.872180 0.000000 
#    z 0.000000 0.000000 1.948340 
# 
# From -- ./inp_files/15616.got.cif
#   From: 2010.05.17/outbox.cif.g08.bks.cpg/sg55_8_cif.got.tgz:15616.got - 2010.06.03 13:27:54.
