data_PCOD9428162
_publ_section_title
;
Structure prediction by ZEFSAII (Michael W. Deem and Ramdas Pophale) SiO2 
 PCOD9428162
Probable space group: P B A M
;
_chemical_formula_sum "Si O2"
_cell_formula_units_Z 56
_cell_length_a 15.249075
_cell_length_b 22.027375
_cell_length_c 7.888153
_cell_angle_alpha 90.000000
_cell_angle_beta 90.000000
_cell_angle_gamma 90.000000
_cell_volume 2649.607665
_symmetry_space_group_name_H-M "P B A M"
_symmetry_group_IT_number 55
_symmetry_cell_setting 'orthorhombic'
loop_
_space_group_symop_operation_xyz
x,y,z
-x,-y,z
1/2+x,1/2-y,-z
1/2-x,1/2+y,-z
-x,-y,-z
x,y,-z
1/2-x,1/2+y,z
1/2+x,1/2-y,z
loop_
_atom_site_type_symbol
_atom_site_label
_atom_site_fract_x
_atom_site_fract_y
_atom_site_fract_z
Si Si1 0.789494 0.605014 0.791912
Si Si2 0.966153 0.904844 0.205427
Si Si3 0.637880 0.519114 0.205832
Si Si4 0.913681 0.772380 0.699025
Si Si5 0.726949 0.735543 0.194940
Si Si6 0.564789 0.816071 0.300906
Si Si7 0.980785 0.567185 0.201433
O O1 0.728812 0.548551 0.739794
O O2 0.745001 0.667980 0.733353
O O3 0.888964 0.595076 0.732600
O O4 0.790324 0.608083 0.000000
O O5 0.953873 0.838849 0.279942
O O6 0.058054 0.936116 0.253330
O O7 0.889906 0.951796 0.260268
O O8 0.964775 0.900355 0.000000
O O9 0.638635 0.517655 0.000000
O O10 0.898023 0.760694 0.500000
O O11 0.821314 0.767401 0.792216
O O12 0.983629 0.723882 0.768363
O O13 0.652931 0.777796 0.274664
O O14 0.700175 0.727783 0.000000
O O15 0.551350 0.822401 0.500000
O O16 0.557266 0.883603 0.227763
O O17 0.000000 0.500000 0.270799
O O18 0.968415 0.560444 0.000000
#
# Coordination Sequence:
#
# PCOD9428162 Si02
#       7
#     8   8   8   8   8   8   8
#     4   9  17  32  55  84 114 147 194 248 298 350
#     4   9  17  31  54  82 113 150 193 240 292 348
#     4   8  15  29  51  81 114 147 188 243 297 342
#     4  11  23  38  56  82 120 158 191 237 296 358
#     4  11  22  37  63  89 112 150 202 255 299 353
#     4  11  24  41  60  85 123 162 198 249 308 370
#     4  10  21  38  61  88 119 156 204 256 300 355
#
# _framework density 21.135203000000001
#
# number of rings (size 3 to 8) (size 9 to 14) (size 15 to 20)
#    0.000    2.143    1.429    3.000    0.000    4.286 
#    0.000    4.286    0.000    2.571    0.000    0.000 
#    0.000    0.000    0.000    0.000    0.000    0.000 
#
# Total GULP energy -312662.053517 kJ/mol
# GULP energy per Si atom -5583.250956 kJ/mol
# Density = 2.108710 g / cm^3
# Si number density = 21.135203 Si / 1000 Ang^3
#
#
#
# Elastic Constant Matrix: (Units=GPa)
#
#
# Indices 1 2 3 4 5 6 
#
# 1 75.8970 34.8966 -0.2143 0.0000 0.0000 0.0000
# 2 34.8966 139.4371 2.7706 0.0000 0.0000 0.0000
# 3 -0.2143 2.7706 21.1176 0.0000 0.0000 0.0000
# 4 0.0000 0.0000 0.0000 -10.1601 0.0000 0.0000
# 5 0.0000 0.0000 0.0000 0.0000 -2.9051 0.0000
# 6 0.0000 0.0000 0.0000 0.0000 0.0000 23.1147
#
#
#
# Elastic Compliance Matrix: (Units=1/GPa)
#
#
# Indices 1 2 3 4 5 6 
#
# 1 0.014898 -0.003741 0.000642 0.000000 0.000000 0.000000
# 2 -0.003741 0.008130 -0.001105 0.000000 0.000000 0.000000
# 3 0.000642 -0.001105 0.047505 0.000000 0.000000 0.000000
# 4 0.000000 0.000000 0.000000 -0.098424 0.000000 0.000000
# 5 0.000000 0.000000 0.000000 0.000000 -0.344221 0.000000
# 6 0.000000 0.000000 0.000000 0.000000 0.000000 0.043263
#
#
# Mechanical properties :
#
#
# Convention : Reuss Voigt Hill
#
# Bulk Modulus (GPa) = 16.09648 34.59528 25.34588
# Shear Modulus (GPa) = -16.68149 15.27648 -0.70251
#
# Velocity S-wave (km/s) = -2.81245 2.69141 -0.57716
# Velocity P-wave (km/s) = 1.70705 5.10513 3.40208
#
# Compressibility (1/GPa) = 0.06212538
#
# Stress axis : x y z
#
# Youngs Moduli (GPa) = 67.12437 123.00224 21.05031
#
# Poissons Ratio (x) = 0.46017 -0.01351
# Poissons Ratio (y) = 0.25112 0.02325
# Poissons Ratio (z) = -0.04309 0.13587
#
# Static dielectric constant tensor:
#      x y z
#    x 1.749180 0.000000 0.000000 
#    y 0.000000 1.766290 0.000000 
#    z 0.000000 0.000000 1.784880 
# 
# From -- ./inp_files/5977.got.cif
#   From: 2010.05.17/outbox.cif.g08.bks.cpg/sg55_3_cif.got.tgz:5977.got - 2010.06.03 13:27:54.
