data_PCOD9428386
_publ_section_title
;
Structure prediction by ZEFSAII (Michael W. Deem and Ramdas Pophale) SiO2 
 PCOD9428386
Probable space group: P B A M
;
_chemical_formula_sum "Si O2"
_cell_formula_units_Z 48
_cell_length_a 9.527128
_cell_length_b 15.325968
_cell_length_c 15.632004
_cell_angle_alpha 90.000000
_cell_angle_beta 90.000000
_cell_angle_gamma 90.000000
_cell_volume 2282.467341
_symmetry_space_group_name_H-M "P B A M"
_symmetry_group_IT_number 55
_symmetry_cell_setting 'orthorhombic'
loop_
_space_group_symop_operation_xyz
x,y,z
-x,-y,z
1/2+x,1/2-y,-z
1/2-x,1/2+y,-z
-x,-y,-z
x,y,-z
1/2-x,1/2+y,z
1/2+x,1/2-y,z
loop_
_atom_site_type_symbol
_atom_site_label
_atom_site_fract_x
_atom_site_fract_y
_atom_site_fract_z
Si Si1 0.477817 0.286724 0.597824
Si Si2 0.318172 0.314643 0.000000
Si Si3 0.846090 0.043403 0.344839
Si Si4 0.109353 0.563867 0.834386
Si Si5 0.229210 0.641338 0.667767
Si Si6 0.501142 0.150723 0.000000
Si Si7 0.142978 0.946515 0.148188
O O1 0.525542 0.277982 0.500000
O O2 0.366697 0.367685 0.603178
O O3 0.617799 0.312760 0.652637
O O4 0.392313 0.200865 0.626634
O O5 0.380972 0.220891 0.000000
O O6 0.365266 0.366684 0.915665
O O7 0.152587 0.307915 0.000000
O O8 0.820849 0.073582 0.246952
O O9 0.747408 0.959780 0.365514
O O10 0.000000 0.000000 0.347952
O O11 0.184394 0.627816 0.766980
O O12 0.233455 0.510723 0.879699
O O13 0.000000 0.500000 0.785876
O O14 0.018017 0.602006 0.910731
O O15 0.000000 0.000000 0.147841
#
# Coordination Sequence:
#
# PCOD9428386 Si02
#       7
#     8   4   8   8   8   4   8
#     4  11  23  42  69 101 141 178 221 289 352 417
#     4  12  26  40  60  95 137 177 223 277 333 393
#     4   8  19  40  63  94 128 176 230 271 332 408
#     4  11  23  46  69  91 134 183 231 284 334 403
#     4  10  24  41  69 101 132 180 229 279 347 413
#     4  12  28  41  62 101 135 180 227 279 342 392
#     4  10  21  40  66  90 128 177 228 272 327 394
#
# _framework density 21.029874
#
# number of rings (size 3 to 8) (size 9 to 14) (size 15 to 20)
#    0.000    1.667    1.667    2.500    4.667    7.667 
#    0.000    0.000    0.000    4.000    0.000    0.000 
#    0.000    0.000    0.000    0.000    0.000    0.000 
#
# Total GULP energy -267657.345872 kJ/mol
# GULP energy per Si atom -5576.194706 kJ/mol
# Density = 2.098201 g / cm^3
# Si number density = 21.029874 Si / 1000 Ang^3
#
#
#
# Elastic Constant Matrix: (Units=GPa)
#
#
# Indices 1 2 3 4 5 6 
#
# 1 112.2989 34.3957 32.2817 0.0000 0.0000 0.0000
# 2 34.3957 66.0357 44.5482 0.0000 0.0000 0.0000
# 3 32.2817 44.5482 73.6661 0.0000 0.0000 0.0000
# 4 0.0000 0.0000 0.0000 24.4652 0.0000 0.0000
# 5 0.0000 0.0000 0.0000 0.0000 -5.8985 0.0000
# 6 0.0000 0.0000 0.0000 0.0000 0.0000 50.5287
#
#
#
# Elastic Compliance Matrix: (Units=1/GPa)
#
#
# Indices 1 2 3 4 5 6 
#
# 1 0.010812 -0.004113 -0.002250 0.000000 0.000000 0.000000
# 2 -0.004113 0.027143 -0.014612 0.000000 0.000000 0.000000
# 3 -0.002250 -0.014612 0.023397 0.000000 0.000000 0.000000
# 4 0.000000 0.000000 0.000000 0.040874 0.000000 0.000000
# 5 0.000000 0.000000 0.000000 0.000000 -0.169533 0.000000
# 6 0.000000 0.000000 0.000000 0.000000 0.000000 0.019791
#
#
# Mechanical properties :
#
#
# Convention : Reuss Voigt Hill
#
# Bulk Modulus (GPa) = 51.54399 52.71689 52.13044
# Shear Modulus (GPa) = 5550.78677 23.20407 2786.99542
#
# Velocity S-wave (km/s) = 51.43158 3.32533 36.44355
# Velocity P-wave (km/s) = 59.59451 6.31394 42.37553
#
# Compressibility (1/GPa) = 0.01940091
#
# Stress axis : x y z
#
# Youngs Moduli (GPa) = 92.49385 36.84208 42.74039
#
# Poissons Ratio (x) = 0.15154 0.09618
# Poissons Ratio (y) = 0.38044 0.62451
# Poissons Ratio (z) = 0.20815 0.53832
#
# Static dielectric constant tensor:
#      x y z
#    x 1.736660 0.000000 0.000000 
#    y 0.000000 1.778020 0.000000 
#    z 0.000000 0.000000 1.775210 
# 
# From -- ./inp_files/20852.got.cif
#   From: 2010.05.17/outbox.cif.g08.bks.cpg/sg55_11_cif.got.tgz:20852.got - 2010.06.03 13:27:54.
