data_PCOD9428654
_publ_section_title
;
Structure prediction by ZEFSAII (Michael W. Deem and Ramdas Pophale) SiO2 
 PCOD9428654
Probable space group: P B A M
;
_chemical_formula_sum "Si O2"
_cell_formula_units_Z 32
_cell_length_a 15.178370
_cell_length_b 5.117108
_cell_length_c 19.281994
_cell_angle_alpha 90.000000
_cell_angle_beta 90.000000
_cell_angle_gamma 90.000000
_cell_volume 1497.620106
_symmetry_space_group_name_H-M "P B A M"
_symmetry_group_IT_number 55
_symmetry_cell_setting 'orthorhombic'
loop_
_space_group_symop_operation_xyz
x,y,z
-x,-y,z
1/2+x,1/2-y,-z
1/2-x,1/2+y,-z
-x,-y,-z
x,y,-z
1/2-x,1/2+y,z
1/2+x,1/2-y,z
loop_
_atom_site_type_symbol
_atom_site_label
_atom_site_fract_x
_atom_site_fract_y
_atom_site_fract_z
Si Si1 0.807534 0.379767 0.375994
Si Si2 0.062003 0.747411 0.500000
Si Si3 0.306829 0.536162 0.000000
Si Si4 0.605920 0.491314 0.146267
Si Si5 0.106852 0.511461 0.229205
O O1 0.772220 0.674596 0.384711
O O2 0.877377 0.282891 0.432399
O O3 0.850991 0.386706 0.300091
O O4 0.000000 0.500000 0.500000
O O5 0.000000 0.000000 0.500000
O O6 0.360412 0.580157 0.070481
O O7 0.273136 0.239538 0.000000
O O8 0.500000 0.500000 0.145164
O O9 0.633173 0.779006 0.170687
O O10 0.634514 0.274816 0.202747
O O11 0.000000 0.500000 0.236763
#
# Coordination Sequence:
#
# PCOD9428654 Si02
#       5
#     8   4   4   8   8
#     4  12  25  42  66  98 133 166 205 263 323 374
#     4  12  26  46  70  94 128 174 218 258 302 374
#     4  12  25  38  59  88 122 158 204 262 321 378
#     4  10  22  41  62  86 120 164 210 256 308 376
#     4  10  22  40  64  91 122 164 212 255 307 379
#
# _framework density 21.367232999999999
#
# number of rings (size 3 to 8) (size 9 to 14) (size 15 to 20)
#    0.000    1.000    0.000    6.375    0.000    9.000 
#    0.000    5.000    0.000    0.000    0.000    0.000 
#    0.000    0.000    0.000    0.000    0.000    0.000 
#
# Total GULP energy -179017.847471 kJ/mol
# GULP energy per Si atom -5594.307733 kJ/mol
# Density = 2.131860 g / cm^3
# Si number density = 21.367233 Si / 1000 Ang^3
#
#
#
# Elastic Constant Matrix: (Units=GPa)
#
#
# Indices 1 2 3 4 5 6 
#
# 1 49.0719 17.6253 41.2614 0.0000 0.0000 0.0000
# 2 17.6253 106.3748 23.8488 0.0000 0.0000 0.0000
# 3 41.2614 23.8488 142.6713 0.0000 0.0000 0.0000
# 4 0.0000 0.0000 0.0000 48.4831 0.0000 0.0000
# 5 0.0000 0.0000 0.0000 0.0000 45.8886 0.0000
# 6 0.0000 0.0000 0.0000 0.0000 0.0000 39.1060
#
#
#
# Elastic Compliance Matrix: (Units=1/GPa)
#
#
# Indices 1 2 3 4 5 6 
#
# 1 0.027766 -0.002909 -0.007544 0.000000 0.000000 0.000000
# 2 -0.002909 0.010072 -0.000842 0.000000 0.000000 0.000000
# 3 -0.007544 -0.000842 0.009332 0.000000 0.000000 0.000000
# 4 0.000000 0.000000 0.000000 0.020626 0.000000 0.000000
# 5 0.000000 0.000000 0.000000 0.000000 0.021792 0.000000
# 6 0.000000 0.000000 0.000000 0.000000 0.000000 0.025572
#
#
# Mechanical properties :
#
#
# Convention : Reuss Voigt Hill
#
# Bulk Modulus (GPa) = 40.68541 51.50989 46.09765
# Shear Modulus (GPa) = 34.26011 41.05438 37.65725
#
# Velocity S-wave (km/s) = 4.00859 4.38810 4.20263
# Velocity P-wave (km/s) = 6.36454 7.05926 6.72088
#
# Compressibility (1/GPa) = 0.02457884
#
# Stress axis : x y z
#
# Youngs Moduli (GPa) = 36.01484 99.28934 107.16253
#
# Poissons Ratio (x) = 0.28886 0.80842
# Poissons Ratio (y) = 0.10478 0.09025
# Poissons Ratio (z) = 0.27169 0.08362
#
# Static dielectric constant tensor:
#      x y z
#    x 1.771990 0.000000 0.000000 
#    y 0.000000 1.739180 0.000000 
#    z 0.000000 0.000000 1.464220 
# 
# From -- ./inp_files/21408.got.cif
#   From: 2010.05.17/outbox.cif.g08.bks.cpg/sg55_11_cif.got.tgz:21408.got - 2010.06.03 13:27:54.
