data_PCOD9428301
_publ_section_title
;
Structure prediction by ZEFSAII (Michael W. Deem and Ramdas Pophale) SiO2 
 PCOD9428301
Probable space group: P B A M
;
_chemical_formula_sum "Si O2"
_cell_formula_units_Z 48
_cell_length_a 20.199316
_cell_length_b 14.444115
_cell_length_c 8.810467
_cell_angle_alpha 90.000000
_cell_angle_beta 90.000000
_cell_angle_gamma 90.000000
_cell_volume 2570.552805
_symmetry_space_group_name_H-M "P B A M"
_symmetry_group_IT_number 55
_symmetry_cell_setting 'orthorhombic'
loop_
_space_group_symop_operation_xyz
x,y,z
-x,-y,z
1/2+x,1/2-y,-z
1/2-x,1/2+y,-z
-x,-y,-z
x,y,-z
1/2-x,1/2+y,z
1/2+x,1/2-y,z
loop_
_atom_site_type_symbol
_atom_site_label
_atom_site_fract_x
_atom_site_fract_y
_atom_site_fract_z
Si Si1 0.422094 0.351455 0.318965
Si Si2 0.565293 0.279042 0.318970
Si Si3 0.625070 0.465428 0.819929
Si Si4 0.768848 0.468771 0.680319
Si Si5 0.835848 0.639690 0.820011
Si Si6 0.285347 0.247724 0.680332
O O1 0.422475 0.371287 0.500000
O O2 0.487946 0.293710 0.284275
O O3 0.419695 0.448222 0.231012
O O4 0.355458 0.294833 0.284060
O O5 0.573844 0.272163 0.500000
O O6 0.601768 0.371573 0.260630
O O7 0.599288 0.191549 0.240801
O O8 0.699168 0.487362 0.762764
O O9 0.623929 0.453532 0.000000
O O10 0.759954 0.482118 0.500000
O O11 0.822035 0.541134 0.742435
O O12 0.787110 0.361955 0.708237
O O13 0.773754 0.704331 0.771424
O O14 0.837746 0.630296 0.000000
O O15 0.272291 0.261459 0.500000
#
# Coordination Sequence:
#
# PCOD9428301 Si02
#       6
#     8   8   8   8   8   8
#     4  10  22  40  62  88 119 158 206 248 298 360
#     4  11  23  40  61  86 120 163 203 247 298 360
#     4  12  23  35  57  91 127 157 194 247 306 361
#     4  11  22  38  62  89 119 155 200 246 296 357
#     4  12  24  38  60  89 121 157 198 248 301 355
#     4  10  21  39  64  88 115 155 200 249 296 352
#
# _framework density 18.673024999999999
#
# number of rings (size 3 to 8) (size 9 to 14) (size 15 to 20)
#    0.000    1.000    3.333    4.500    0.000    4.000 
#    0.000    0.833    0.000    5.000    0.000    0.000 
#    0.000    0.000    0.000    0.000    0.000    0.000 
#
# Total GULP energy -268496.013104 kJ/mol
# GULP energy per Si atom -5593.666940 kJ/mol
# Density = 1.863052 g / cm^3
# Si number density = 18.673025 Si / 1000 Ang^3
#
#
#
# Elastic Constant Matrix: (Units=GPa)
#
#
# Indices 1 2 3 4 5 6 
#
# 1 39.3242 -7.7474 8.6265 0.0000 0.0000 0.0000
# 2 -7.7474 62.2229 15.2999 0.0000 0.0000 0.0000
# 3 8.6265 15.2999 51.4879 0.0000 0.0000 0.0000
# 4 0.0000 0.0000 0.0000 1.2113 0.0000 0.0000
# 5 0.0000 0.0000 0.0000 0.0000 -10.1187 0.0000
# 6 0.0000 0.0000 0.0000 0.0000 0.0000 29.9415
#
#
#
# Elastic Compliance Matrix: (Units=1/GPa)
#
#
# Indices 1 2 3 4 5 6 
#
# 1 0.027750 0.004961 -0.006124 0.000000 0.000000 0.000000
# 2 0.004961 0.018225 -0.006247 0.000000 0.000000 0.000000
# 3 -0.006124 -0.006247 0.022304 0.000000 0.000000 0.000000
# 4 0.000000 0.000000 0.000000 0.825577 0.000000 0.000000
# 5 0.000000 0.000000 0.000000 0.000000 -0.098827 0.000000
# 6 0.000000 0.000000 0.000000 0.000000 0.000000 0.033398
#
#
# Mechanical properties :
#
#
# Convention : Reuss Voigt Hill
#
# Bulk Modulus (GPa) = 18.70535 20.59922 19.65229
# Shear Modulus (GPa) = 5.80675 13.33054 9.56865
#
# Velocity S-wave (km/s) = 1.76535 2.67478 2.26615
# Velocity P-wave (km/s) = 3.76754 4.53814 4.17067
#
# Compressibility (1/GPa) = 0.05346063
#
# Stress axis : x y z
#
# Youngs Moduli (GPa) = 36.03563 54.86977 44.83439
#
# Poissons Ratio (x) = -0.27221 0.27455
# Poissons Ratio (y) = -0.17877 0.28007
# Poissons Ratio (z) = 0.22067 0.34276
#
# Static dielectric constant tensor:
#      x y z
#    x 1.641430 0.000000 0.000000 
#    y 0.000000 1.632080 0.000000 
#    z 0.000000 0.000000 1.627480 
# 
# From -- ./inp_files/5586.got.cif
#   From: 2010.05.17/outbox.cif.g08.bks.cpg/sg55_3_cif.got.tgz:5586.got - 2010.06.03 13:27:54.
