data_PCOD9428129
_publ_section_title
;
Structure prediction by ZEFSAII (Michael W. Deem and Ramdas Pophale) SiO2 
 PCOD9428129
Probable space group: P B A M
;
_chemical_formula_sum "Si O2"
_cell_formula_units_Z 48
_cell_length_a 7.975133
_cell_length_b 14.550176
_cell_length_c 17.186317
_cell_angle_alpha 90.000000
_cell_angle_beta 90.000000
_cell_angle_gamma 90.000000
_cell_volume 1994.293157
_symmetry_space_group_name_H-M "P B A M"
_symmetry_group_IT_number 55
_symmetry_cell_setting 'orthorhombic'
loop_
_space_group_symop_operation_xyz
x,y,z
-x,-y,z
1/2+x,1/2-y,-z
1/2-x,1/2+y,-z
-x,-y,-z
x,y,-z
1/2-x,1/2+y,z
1/2+x,1/2-y,z
loop_
_atom_site_type_symbol
_atom_site_label
_atom_site_fract_x
_atom_site_fract_y
_atom_site_fract_z
Si Si1 0.190112 0.620004 0.091565
Si Si2 0.674823 0.047731 0.627946
Si Si3 0.812410 0.038027 0.799681
Si Si4 0.329929 0.627729 0.588805
Si Si5 0.372866 0.790189 0.165096
Si Si6 0.995266 0.279281 0.340870
O O1 0.226467 0.526261 0.136548
O O2 0.315250 0.695548 0.127817
O O3 0.005823 0.657161 0.111649
O O4 0.214314 0.610374 0.000000
O O5 0.709833 0.032756 0.719409
O O6 0.633016 0.154751 0.616810
O O7 0.500000 0.000000 0.604221
O O8 0.813395 0.982239 0.590244
O O9 0.789100 0.143436 0.825220
O O10 0.000000 0.000000 0.787910
O O11 0.309996 0.657744 0.500000
O O12 0.491658 0.676543 0.625725
O O13 0.180108 0.670832 0.641704
O O14 0.456841 0.779111 0.250244
#
# Coordination Sequence:
#
# PCOD9428129 Si02
#       6
#     8   8   8   8   8   8
#     4  12  25  41  64  93 126 159 199 257 316 366
#     4   9  20  39  61  83 113 158 205 247 296 358
#     4  11  23  40  64  91 121 161 209 254 301 365
#     4  11  22  36  58  88 121 154 194 248 306 358
#     4  11  23  42  65  90 122 164 210 253 301 366
#     4  10  21  38  60  84 115 157 201 243 292 358
#
# _framework density 24.068677999999998
#
# number of rings (size 3 to 8) (size 9 to 14) (size 15 to 20)
#    0.000    1.333    0.000    7.500    0.000   10.000 
#    0.000    0.000    0.000    2.500    0.000    0.000 
#    0.000    0.000    0.000    0.000    0.000    0.000 
#
# Total GULP energy -268689.041863 kJ/mol
# GULP energy per Si atom -5597.688372 kJ/mol
# Density = 2.401390 g / cm^3
# Si number density = 24.068678 Si / 1000 Ang^3
#
#
#
# Elastic Constant Matrix: (Units=GPa)
#
#
# Indices 1 2 3 4 5 6 
#
# 1 84.4818 -9.4509 -15.3115 0.0000 0.0000 0.0000
# 2 -9.4509 91.6101 18.6622 0.0000 0.0000 0.0000
# 3 -15.3115 18.6622 107.2107 0.0000 0.0000 0.0000
# 4 0.0000 0.0000 0.0000 -95.1462 0.0000 0.0000
# 5 0.0000 0.0000 0.0000 0.0000 -17.3876 0.0000
# 6 0.0000 0.0000 0.0000 0.0000 0.0000 40.5197
#
#
#
# Elastic Compliance Matrix: (Units=1/GPa)
#
#
# Indices 1 2 3 4 5 6 
#
# 1 0.012229 0.000939 0.001583 0.000000 0.000000 0.000000
# 2 0.000939 0.011389 -0.001848 0.000000 0.000000 0.000000
# 3 0.001583 -0.001848 0.009875 0.000000 0.000000 0.000000
# 4 0.000000 0.000000 0.000000 -0.010510 0.000000 0.000000
# 5 0.000000 0.000000 0.000000 0.000000 -0.057512 0.000000
# 6 0.000000 0.000000 0.000000 0.000000 0.000000 0.024679
#
#
# Mechanical properties :
#
#
# Convention : Reuss Voigt Hill
#
# Bulk Modulus (GPa) = 28.70200 30.12245 29.41223
# Shear Modulus (GPa) = 12007.30929 4.89071 6006.10000
#
# Velocity S-wave (km/s) = 70.70785 1.42702 50.00818
# Velocity P-wave (km/s) = 81.71955 3.90609 57.85042
#
# Compressibility (1/GPa) = 0.03484077
#
# Stress axis : x y z
#
# Youngs Moduli (GPa) = 81.77393 87.80203 101.26307
#
# Poissons Ratio (x) = -0.08246 -0.16030
# Poissons Ratio (y) = -0.07679 0.18718
# Poissons Ratio (z) = -0.12945 0.16229
#
# Static dielectric constant tensor:
#      x y z
#    x 1.990090 0.000000 0.000000 
#    y 0.000000 1.758710 0.000000 
#    z 0.000000 0.000000 1.834780 
# 
# From -- ./inp_files/20766.got.cif
#   From: 2010.05.17/outbox.cif.g08.bks.cpg/sg55_11_cif.got.tgz:20766.got - 2010.06.03 13:27:54.
