data_PCOD9428684
_publ_section_title
;
Structure prediction by ZEFSAII (Michael W. Deem and Ramdas Pophale) SiO2 
 PCOD9428684
Probable space group: P B A M
;
_chemical_formula_sum "Si O2"
_cell_formula_units_Z 40
_cell_length_a 21.318916
_cell_length_b 10.601312
_cell_length_c 8.429831
_cell_angle_alpha 90.000000
_cell_angle_beta 90.000000
_cell_angle_gamma 90.000000
_cell_volume 1905.213291
_symmetry_space_group_name_H-M "P B A M"
_symmetry_group_IT_number 55
_symmetry_cell_setting 'orthorhombic'
loop_
_space_group_symop_operation_xyz
x,y,z
-x,-y,z
1/2+x,1/2-y,-z
1/2-x,1/2+y,-z
-x,-y,-z
x,y,-z
1/2-x,1/2+y,z
1/2+x,1/2-y,z
loop_
_atom_site_type_symbol
_atom_site_label
_atom_site_fract_x
_atom_site_fract_y
_atom_site_fract_z
Si Si1 0.694436 0.029110 0.691615
Si Si2 0.783790 0.805255 0.691598
Si Si3 0.050723 0.835038 0.314885
Si Si4 0.934002 0.439909 0.810528
Si Si5 0.416857 0.600214 0.185572
O O1 0.690185 0.024976 0.500000
O O2 0.732811 0.906783 0.746857
O O3 0.624663 0.024635 0.760426
O O4 0.728061 0.160016 0.736056
O O5 0.785496 0.811730 0.500000
O O6 0.851616 0.844393 0.755884
O O7 0.062472 0.857384 0.500000
O O8 0.074006 0.697884 0.265233
O O9 0.976307 0.843259 0.279082
O O10 0.080950 0.950144 0.218067
O O11 0.000000 0.500000 0.757721
O O12 0.935933 0.427136 0.000000
O O13 0.426313 0.625548 0.000000
#
# Coordination Sequence:
#
# PCOD9428684 Si02
#       5
#     8   8   8   8   8
#     4  10  23  41  64  93 126 168 216 262 310 374
#     4  10  22  41  63  91 126 167 214 260 310 372
#     4  11  22  38  63  92 123 164 211 259 313 375
#     4  11  24  41  62  91 128 165 208 263 322 379
#     4  11  22  38  61  92 128 164 205 258 318 376
#
# _framework density 20.995024999999998
#
# number of rings (size 3 to 8) (size 9 to 14) (size 15 to 20)
#    0.000    1.400    0.000    6.600    2.800    6.400 
#    0.000    0.000    0.000    0.000    0.000    0.000 
#    0.000    0.000    0.000    0.000    0.000    0.000 
#
# Total GULP energy -223792.633117 kJ/mol
# GULP energy per Si atom -5594.815828 kJ/mol
# Density = 2.094724 g / cm^3
# Si number density = 20.995025 Si / 1000 Ang^3
#
#
#
# Elastic Constant Matrix: (Units=GPa)
#
#
# Indices 1 2 3 4 5 6 
#
# 1 63.2045 39.8730 4.4514 0.0000 0.0000 0.0000
# 2 39.8730 94.9930 11.8675 0.0000 0.0000 0.0000
# 3 4.4514 11.8675 23.2617 0.0000 0.0000 0.0000
# 4 0.0000 0.0000 0.0000 22.2995 0.0000 0.0000
# 5 0.0000 0.0000 0.0000 0.0000 82.9739 0.0000
# 6 0.0000 0.0000 0.0000 0.0000 0.0000 29.7645
#
#
#
# Elastic Compliance Matrix: (Units=1/GPa)
#
#
# Indices 1 2 3 4 5 6 
#
# 1 0.021526 -0.009101 0.000524 0.000000 0.000000 0.000000
# 2 -0.009101 0.015091 -0.005958 0.000000 0.000000 0.000000
# 3 0.000524 -0.005958 0.045928 0.000000 0.000000 0.000000
# 4 0.000000 0.000000 0.000000 0.044844 0.000000 0.000000
# 5 0.000000 0.000000 0.000000 0.000000 0.012052 0.000000
# 6 0.000000 0.000000 0.000000 0.000000 0.000000 0.033597
#
#
# Mechanical properties :
#
#
# Convention : Reuss Voigt Hill
#
# Bulk Modulus (GPa) = 18.69989 32.64923 25.67456
# Shear Modulus (GPa) = 22.73403 35.35871 29.04637
#
# Velocity S-wave (km/s) = 3.29421 4.10829 3.72356
# Velocity P-wave (km/s) = 4.83686 6.17161 5.54455
#
# Compressibility (1/GPa) = 0.05347625
#
# Stress axis : x y z
#
# Youngs Moduli (GPa) = 46.45507 66.26249 21.77301
#
# Poissons Ratio (x) = 0.60305 -0.01140
# Poissons Ratio (y) = 0.42279 0.12972
# Poissons Ratio (z) = -0.02433 0.39477
#
# Static dielectric constant tensor:
#      x y z
#    x 1.727070 0.000000 0.000000 
#    y 0.000000 1.783920 0.000000 
#    z 0.000000 0.000000 1.707430 
# 
# From -- ./inp_files/8486.got.cif
#   From: 2010.05.17/outbox.cif.g08.bks.cpg/sg55_5_cif.got.tgz:8486.got - 2010.06.03 13:27:54.
