data_PCOD9428688
_publ_section_title
;
Structure prediction by ZEFSAII (Michael W. Deem and Ramdas Pophale) SiO2 
 PCOD9428688
Probable space group: P B A M
;
_chemical_formula_sum "Si O2"
_cell_formula_units_Z 64
_cell_length_a 9.515353
_cell_length_b 22.666837
_cell_length_c 14.909755
_cell_angle_alpha 90.000000
_cell_angle_beta 90.000000
_cell_angle_gamma 90.000000
_cell_volume 3215.780023
_symmetry_space_group_name_H-M "P B A M"
_symmetry_group_IT_number 55
_symmetry_cell_setting 'orthorhombic'
loop_
_space_group_symop_operation_xyz
x,y,z
-x,-y,z
1/2+x,1/2-y,-z
1/2-x,1/2+y,-z
-x,-y,-z
x,y,-z
1/2-x,1/2+y,z
1/2+x,1/2-y,z
loop_
_atom_site_type_symbol
_atom_site_label
_atom_site_fract_x
_atom_site_fract_y
_atom_site_fract_z
Si Si1 0.846015 0.678054 0.635450
Si Si2 0.235170 0.316807 0.840634
Si Si3 0.642307 0.425832 0.894307
Si Si4 0.951254 0.276248 0.897352
Si Si5 0.973306 0.431136 0.604701
Si Si6 0.696327 0.856497 0.751567
Si Si7 0.846866 0.273762 0.596673
Si Si8 0.692750 0.555032 0.102509
O O1 0.812758 0.685126 0.739021
O O2 0.708316 0.707345 0.593760
O O3 0.889424 0.611471 0.610815
O O4 0.987179 0.715265 0.611040
O O5 0.382277 0.284762 0.863150
O O6 0.238042 0.386284 0.860333
O O7 0.119349 0.279452 0.894645
O O8 0.683418 0.381061 0.815984
O O9 0.475019 0.434528 0.894327
O O10 0.713896 0.488168 0.865016
O O11 0.679689 0.412637 0.000000
O O12 0.904147 0.326133 0.826028
O O13 0.905969 0.287040 0.000000
O O14 0.923171 0.426384 0.500000
O O15 0.875892 0.404374 0.684649
O O16 0.000000 0.500000 0.621131
O O17 0.730649 0.805904 0.679076
O O18 0.810868 0.300588 0.500000
O O19 0.737675 0.552691 0.000000
#
# Coordination Sequence:
#
# PCOD9428688 Si02
#       8
#     8   8   8   8   8   8   8   8
#     4  11  21  40  63  93 122 159 205 257 311 374
#     4  12  23  41  59  89 123 166 207 255 302 369
#     4   9  20  38  61  89 119 163 209 253 303 363
#     4  12  25  39  57  88 129 166 201 248 312 367
#     4  10  22  41  64  90 121 159 204 260 322 379
#     4  11  21  36  59  88 120 155 202 248 304 370
#     4  11  22  40  63  88 120 156 199 254 311 373
#     4   9  20  39  60  84 119 162 213 254 298 358
#
# _framework density 19.901858000000001
#
# number of rings (size 3 to 8) (size 9 to 14) (size 15 to 20)
#    0.000    1.375    3.750    4.500    3.500    1.000 
#    0.000    0.000    0.000    3.000    0.000    3.500 
#    0.000    0.000    0.000    0.000    0.000    0.000 
#
# Total GULP energy -356353.154482 kJ/mol
# GULP energy per Si atom -5568.018039 kJ/mol
# Density = 1.985656 g / cm^3
# Si number density = 19.901858 Si / 1000 Ang^3
#
#
#
# Elastic Constant Matrix: (Units=GPa)
#
#
# Indices 1 2 3 4 5 6 
#
# 1 23.1604 25.0718 11.9978 0.0000 0.0000 0.0000
# 2 25.0718 73.7564 22.7263 0.0000 0.0000 0.0000
# 3 11.9978 22.7263 141.9207 0.0000 0.0000 0.0000
# 4 0.0000 0.0000 0.0000 58.4690 0.0000 0.0000
# 5 0.0000 0.0000 0.0000 0.0000 30.7107 0.0000
# 6 0.0000 0.0000 0.0000 0.0000 0.0000 13.2948
#
#
#
# Elastic Compliance Matrix: (Units=1/GPa)
#
#
# Indices 1 2 3 4 5 6 
#
# 1 0.068954 -0.022767 -0.002184 0.000000 0.000000 0.000000
# 2 -0.022767 0.021779 -0.001563 0.000000 0.000000 0.000000
# 3 -0.002184 -0.001563 0.007481 0.000000 0.000000 0.000000
# 4 0.000000 0.000000 0.000000 0.017103 0.000000 0.000000
# 5 0.000000 0.000000 0.000000 0.000000 0.032562 0.000000
# 6 0.000000 0.000000 0.000000 0.000000 0.000000 0.075218
#
#
# Mechanical properties :
#
#
# Convention : Reuss Voigt Hill
#
# Bulk Modulus (GPa) = 22.12992 39.82549 30.97771
# Shear Modulus (GPa) = 17.17122 32.43098 24.80110
#
# Velocity S-wave (km/s) = 2.94052 4.04114 3.53394
# Velocity P-wave (km/s) = 4.76157 6.46752 5.67897
#
# Compressibility (1/GPa) = 0.04518769
#
# Stress axis : x y z
#
# Youngs Moduli (GPa) = 14.50244 45.91646 133.67100
#
# Poissons Ratio (x) = 1.04536 0.29189
# Poissons Ratio (y) = 0.33017 0.20891
# Poissons Ratio (z) = 0.03167 0.07176
#
# Static dielectric constant tensor:
#      x y z
#    x 1.759120 0.000000 0.000000 
#    y 0.000000 1.797630 0.000000 
#    z 0.000000 0.000000 -0.111910 
# 
# From -- ./inp_files/17798.got.cif
#   From: 2010.05.17/outbox.cif.g08.bks.cpg/sg55_9_cif.got.tgz:17798.got - 2010.06.03 13:27:54.
