data_PCOD9428916
_publ_section_title
;
Structure prediction by ZEFSAII (Michael W. Deem and Ramdas Pophale) SiO2 
 PCOD9428916
Probable space group: P B A M
;
_chemical_formula_sum "Si O2"
_cell_formula_units_Z 30
_cell_length_a 4.957158
_cell_length_b 12.182582
_cell_length_c 22.478918
_cell_angle_alpha 90.000000
_cell_angle_beta 90.000000
_cell_angle_gamma 90.000000
_cell_volume 1357.523973
_symmetry_space_group_name_H-M "P B A M"
_symmetry_group_IT_number 55
_symmetry_cell_setting 'orthorhombic'
loop_
_space_group_symop_operation_xyz
x,y,z
-x,-y,z
1/2+x,1/2-y,-z
1/2-x,1/2+y,-z
-x,-y,-z
x,y,-z
1/2-x,1/2+y,z
1/2+x,1/2-y,z
loop_
_atom_site_type_symbol
_atom_site_label
_atom_site_fract_x
_atom_site_fract_y
_atom_site_fract_z
Si Si1 0.500000 0.000000 0.716707
Si Si2 0.500000 0.500000 0.000000
Si Si3 0.246917 0.419827 0.500000
Si Si4 0.839413 0.171590 0.894683
Si Si5 0.000000 0.000000 0.204735
Si Si6 0.625897 0.181546 0.626859
O O1 0.656577 0.084394 0.673515
O O2 0.256939 0.043282 0.757875
O O3 0.602961 0.587504 0.948248
O O4 0.500000 0.500000 0.500000
O O5 0.000000 0.500000 0.500000
O O6 0.213807 0.352258 0.439608
O O7 0.044566 0.274531 0.897639
O O8 0.890082 0.099974 0.835610
O O9 0.816490 0.285327 0.636254
#
# Coordination Sequence:
#
# PCOD9428916 Si02
#       6
#     4   2   4   8   4   8
#     4  12  26  45  68  97 136 176 228 288 328 398
#     4  10  24  42  68 108 136 172 224 276 332 402
#     4  12  24  44  72  95 135 174 212 278 346 413
#     4  11  24  43  69  98 137 179 222 275 335 393
#     4  11  26  43  66  97 132 179 232 274 330 397
#     4  12  26  44  69 100 131 174 221 276 344 409
#
# _framework density 22.099059
#
# number of rings (size 3 to 8) (size 9 to 14) (size 15 to 20)
#    0.000    0.533    1.333    6.400    1.867   10.667 
#    0.000    0.000    0.000    0.000    0.000    0.000 
#    0.000    0.000    0.000    0.000    0.000    0.000 
#
# Total GULP energy -167199.815806 kJ/mol
# GULP energy per Si atom -5573.327194 kJ/mol
# Density = 2.204876 g / cm^3
# Si number density = 22.099059 Si / 1000 Ang^3
#
#
#
# Elastic Constant Matrix: (Units=GPa)
#
#
# Indices 1 2 3 4 5 6 
#
# 1 76.4132 -17.6363 12.0969 0.0000 0.0000 0.0000
# 2 -17.6363 47.6682 20.5123 0.0000 0.0000 0.0000
# 3 12.0969 20.5123 125.4578 0.0000 0.0000 0.0000
# 4 0.0000 0.0000 0.0000 44.5727 0.0000 0.0000
# 5 0.0000 0.0000 0.0000 0.0000 -31.6663 0.0000
# 6 0.0000 0.0000 0.0000 0.0000 0.0000 40.1764
#
#
#
# Elastic Compliance Matrix: (Units=1/GPa)
#
#
# Indices 1 2 3 4 5 6 
#
# 1 0.015023 0.006649 -0.002536 0.000000 0.000000 0.000000
# 2 0.006649 0.025509 -0.004812 0.000000 0.000000 0.000000
# 3 -0.002536 -0.004812 0.009002 0.000000 0.000000 0.000000
# 4 0.000000 0.000000 0.000000 0.022435 0.000000 0.000000
# 5 0.000000 0.000000 0.000000 0.000000 -0.031579 0.000000
# 6 0.000000 0.000000 0.000000 0.000000 0.000000 0.024890
#
#
# Mechanical properties :
#
#
# Convention : Reuss Voigt Hill
#
# Bulk Modulus (GPa) = 20.77385 31.05388 25.91387
# Shear Modulus (GPa) = 60.44310 26.25432 43.34871
#
# Velocity S-wave (km/s) = 5.23549 3.45052 4.43376
# Velocity P-wave (km/s) = 6.77996 5.47334 6.16138
#
# Compressibility (1/GPa) = 0.04813744
#
# Stress axis : x y z
#
# Youngs Moduli (GPa) = 66.56535 39.20175 111.08596
#
# Poissons Ratio (x) = -0.26066 0.28168
# Poissons Ratio (y) = -0.44261 0.53453
# Poissons Ratio (z) = 0.16879 0.18863
#
# Static dielectric constant tensor:
#      x y z
#    x 1.798510 0.000000 0.000000 
#    y 0.000000 2.054680 0.000000 
#    z 0.000000 0.000000 1.712550 
# 
# From -- ./inp_files/22195.got.cif
#   From: 2010.05.17/outbox.cif.g08.bks.cpg/sg55_12_cif.got.tgz:22195.got - 2010.06.03 13:27:54.
