data_PCOD9428733
_publ_section_title
;
Structure prediction by ZEFSAII (Michael W. Deem and Ramdas Pophale) SiO2 
 PCOD9428733
Probable space group: P B A M
;
_chemical_formula_sum "Si O2"
_cell_formula_units_Z 56
_cell_length_a 21.477427
_cell_length_b 8.855816
_cell_length_c 13.824555
_cell_angle_alpha 90.000000
_cell_angle_beta 90.000000
_cell_angle_gamma 90.000000
_cell_volume 2629.432319
_symmetry_space_group_name_H-M "P B A M"
_symmetry_group_IT_number 55
_symmetry_cell_setting 'orthorhombic'
loop_
_space_group_symop_operation_xyz
x,y,z
-x,-y,z
1/2+x,1/2-y,-z
1/2-x,1/2+y,-z
-x,-y,-z
x,y,-z
1/2-x,1/2+y,z
1/2+x,1/2-y,z
loop_
_atom_site_type_symbol
_atom_site_label
_atom_site_fract_x
_atom_site_fract_y
_atom_site_fract_z
Si Si1 0.837481 0.643462 0.000000
Si Si2 0.704546 0.486194 0.000000
Si Si3 0.186209 0.106342 0.604500
Si Si4 0.366149 0.002890 0.814235
Si Si5 0.741551 0.126085 0.290831
Si Si6 0.637757 0.662624 0.829275
Si Si7 0.065264 0.921249 0.343170
Si Si8 0.930355 0.433965 0.391363
O O1 0.777576 0.529905 0.000000
O O2 0.876771 0.614343 0.901756
O O3 0.806455 0.807876 0.000000
O O4 0.668512 0.560129 0.909726
O O5 0.192322 0.177139 0.500000
O O6 0.198004 0.234375 0.683209
O O7 0.239441 0.981103 0.620997
O O8 0.120461 0.023524 0.614065
O O9 0.378412 0.167730 0.858691
O O10 0.398372 0.002010 0.707324
O O11 0.294211 0.973956 0.787030
O O12 0.807156 0.182274 0.249988
O O13 0.580901 0.589261 0.771266
O O14 0.068074 0.748541 0.380508
O O15 0.000000 0.000000 0.363145
O O16 0.903908 0.468777 0.500000
O O17 0.000000 0.500000 0.390735
#
# Coordination Sequence:
#
# PCOD9428733 Si02
#       8
#     4   4   8   8   8   8   8   8
#     4  12  26  36  67 100 133 172 219 281 340 417
#     4  12  24  38  67  98 129 172 223 274 343 414
#     4  11  24  39  60  91 131 178 224 279 334 398
#     4  11  23  42  64  95 135 172 220 275 341 399
#     4  11  22  38  60  90 129 170 216 269 338 402
#     4  10  22  42  64  94 131 172 214 277 335 404
#     4  10  24  43  67  95 134 179 229 282 334 399
#     4  10  24  45  69  96 132 181 232 283 335 399
#
# _framework density 21.297374000000001
#
# number of rings (size 3 to 8) (size 9 to 14) (size 15 to 20)
#    0.000    1.286    2.857    2.143    6.000    2.286 
#    0.000    0.714    0.000    0.000    0.000    0.000 
#    0.000    0.000    0.000    0.000    0.000    0.000 
#
# Total GULP energy -312475.838031 kJ/mol
# GULP energy per Si atom -5579.925679 kJ/mol
# Density = 2.124890 g / cm^3
# Si number density = 21.297374 Si / 1000 Ang^3
#
#
#
# Elastic Constant Matrix: (Units=GPa)
#
#
# Indices 1 2 3 4 5 6 
#
# 1 58.3859 21.0499 29.3662 0.0000 0.0000 0.0000
# 2 21.0499 93.3530 38.8389 0.0000 0.0000 0.0000
# 3 29.3662 38.8389 124.4756 0.0000 0.0000 0.0000
# 4 0.0000 0.0000 0.0000 10.1168 0.0000 0.0000
# 5 0.0000 0.0000 0.0000 0.0000 16.3821 0.0000
# 6 0.0000 0.0000 0.0000 0.0000 0.0000 33.2918
#
#
#
# Elastic Compliance Matrix: (Units=1/GPa)
#
#
# Indices 1 2 3 4 5 6 
#
# 1 0.020113 -0.002943 -0.003827 0.000000 0.000000 0.000000
# 2 -0.002943 0.012741 -0.003281 0.000000 0.000000 0.000000
# 3 -0.003827 -0.003281 0.009960 0.000000 0.000000 0.000000
# 4 0.000000 0.000000 0.000000 0.098845 0.000000 0.000000
# 5 0.000000 0.000000 0.000000 0.000000 0.061042 0.000000
# 6 0.000000 0.000000 0.000000 0.000000 0.000000 0.030037
#
#
# Mechanical properties :
#
#
# Convention : Reuss Voigt Hill
#
# Bulk Modulus (GPa) = 44.02897 50.52494 47.27695
# Shear Modulus (GPa) = 19.20034 24.42211 21.81123
#
# Velocity S-wave (km/s) = 3.00582 3.39000 3.20367
# Velocity P-wave (km/s) = 5.72406 6.25283 5.99428
#
# Compressibility (1/GPa) = 0.02271232
#
# Stress axis : x y z
#
# Youngs Moduli (GPa) = 49.71843 78.48855 100.39911
#
# Poissons Ratio (x) = 0.23101 0.38420
# Poissons Ratio (y) = 0.14633 0.32941
# Poissons Ratio (z) = 0.19026 0.25752
#
# Static dielectric constant tensor:
#      x y z
#    x 1.733600 0.000000 0.000000 
#    y 0.000000 1.795470 0.000000 
#    z 0.000000 0.000000 1.848210 
# 
# From -- ./inp_files/19785.got.cif
#   From: 2010.05.17/outbox.cif.g08.bks.cpg/sg55_10_cif.got.tgz:19785.got - 2010.06.03 13:27:54.
