data_PCOD9428575
_publ_section_title
;
Structure prediction by ZEFSAII (Michael W. Deem and Ramdas Pophale) SiO2 
 PCOD9428575
Probable space group: P B A M
;
_chemical_formula_sum "Si O2"
_cell_formula_units_Z 40
_cell_length_a 9.211816
_cell_length_b 10.209534
_cell_length_c 17.304237
_cell_angle_alpha 90.000000
_cell_angle_beta 90.000000
_cell_angle_gamma 90.000000
_cell_volume 1627.434915
_symmetry_space_group_name_H-M "P B A M"
_symmetry_group_IT_number 55
_symmetry_cell_setting 'orthorhombic'
loop_
_space_group_symop_operation_xyz
x,y,z
-x,-y,z
1/2+x,1/2-y,-z
1/2-x,1/2+y,-z
-x,-y,-z
x,y,-z
1/2-x,1/2+y,z
1/2+x,1/2-y,z
loop_
_atom_site_type_symbol
_atom_site_label
_atom_site_fract_x
_atom_site_fract_y
_atom_site_fract_z
Si Si1 0.166926 0.659488 0.176830
Si Si2 0.658740 0.563868 0.908785
Si Si3 0.061250 0.145655 0.583746
Si Si4 0.605944 0.191540 0.719867
Si Si5 0.172392 0.489427 0.414275
O O1 0.226804 0.528983 0.135728
O O2 0.013484 0.642225 0.219675
O O3 0.287245 0.709265 0.237532
O O4 0.156158 0.786068 0.120129
O O5 0.500000 0.500000 0.895604
O O6 0.689830 0.560703 0.000000
O O7 0.023730 0.200717 0.500000
O O8 0.015949 0.230507 0.655019
O O9 0.234365 0.121516 0.588713
O O10 0.000000 0.000000 0.588909
O O11 0.693838 0.088116 0.666430
O O12 0.215277 0.433064 0.500000
O O13 0.000000 0.500000 0.416577
#
# Coordination Sequence:
#
# PCOD9428575 Si02
#       5
#     8   8   8   8   8
#     4  12  27  45  77 112 143 193 238 299 378 441
#     4  11  26  54  79 109 150 188 236 299 373 462
#     4  10  22  40  63  90 131 190 244 294 358 421
#     4  12  25  39  67  99 145 178 241 305 361 428
#     4  10  22  39  60  90 132 185 240 293 354 418
#
# _framework density 24.578555000000001
#
# number of rings (size 3 to 8) (size 9 to 14) (size 15 to 20)
#    0.000    1.000    2.000    3.600    8.400    0.000 
#    0.000    9.000    0.000    0.000    0.000    0.000 
#    0.000    0.000    0.000    0.000    0.000    0.000 
#
# Total GULP energy -223851.808161 kJ/mol
# GULP energy per Si atom -5596.295204 kJ/mol
# Density = 2.452261 g / cm^3
# Si number density = 24.578555 Si / 1000 Ang^3
#
#
#
# Elastic Constant Matrix: (Units=GPa)
#
#
# Indices 1 2 3 4 5 6 
#
# 1 106.3147 23.6543 48.0932 0.0000 0.0000 0.0000
# 2 23.6543 104.9767 54.1459 0.0000 0.0000 0.0000
# 3 48.0932 54.1459 156.0229 0.0000 0.0000 0.0000
# 4 0.0000 0.0000 0.0000 38.1634 0.0000 0.0000
# 5 0.0000 0.0000 0.0000 0.0000 27.8360 0.0000
# 6 0.0000 0.0000 0.0000 0.0000 0.0000 41.3777
#
#
#
# Elastic Compliance Matrix: (Units=1/GPa)
#
#
# Indices 1 2 3 4 5 6 
#
# 1 0.010998 -0.000889 -0.003082 0.000000 0.000000 0.000000
# 2 -0.000889 0.011675 -0.003778 0.000000 0.000000 0.000000
# 3 -0.003082 -0.003778 0.008670 0.000000 0.000000 0.000000
# 4 0.000000 0.000000 0.000000 0.026203 0.000000 0.000000
# 5 0.000000 0.000000 0.000000 0.000000 0.035925 0.000000
# 6 0.000000 0.000000 0.000000 0.000000 0.000000 0.024168
#
#
# Mechanical properties :
#
#
# Convention : Reuss Voigt Hill
#
# Bulk Modulus (GPa) = 63.10418 68.78903 65.94660
# Shear Modulus (GPa) = 36.12298 37.57014 36.84656
#
# Velocity S-wave (km/s) = 3.83782 3.91394 3.87607
# Velocity P-wave (km/s) = 6.73563 6.96228 6.84989
#
# Compressibility (1/GPa) = 0.01584681
#
# Stress axis : x y z
#
# Youngs Moduli (GPa) = 90.92749 85.65589 115.33785
#
# Poissons Ratio (x) = 0.07612 0.35543
# Poissons Ratio (y) = 0.08080 0.43570
# Poissons Ratio (z) = 0.28020 0.32357
#
# Static dielectric constant tensor:
#      x y z
#    x 1.977370 0.000000 0.000000 
#    y 0.000000 2.005970 0.000000 
#    z 0.000000 0.000000 1.931900 
# 
# From -- ./inp_files/20599.got.cif
#   From: 2010.05.17/outbox.cif.g08.bks.cpg/sg55_11_cif.got.tgz:20599.got - 2010.06.03 13:27:54.
