data_PCOD9428103
_publ_section_title
;
Structure prediction by ZEFSAII (Michael W. Deem and Ramdas Pophale) SiO2 
 PCOD9428103
Probable space group: P B A M
;
_chemical_formula_sum "Si O2"
_cell_formula_units_Z 52
_cell_length_a 24.365734
_cell_length_b 4.976512
_cell_length_c 19.610611
_cell_angle_alpha 90.000000
_cell_angle_beta 90.000000
_cell_angle_gamma 90.000000
_cell_volume 2377.911457
_symmetry_space_group_name_H-M "P B A M"
_symmetry_group_IT_number 55
_symmetry_cell_setting 'orthorhombic'
loop_
_space_group_symop_operation_xyz
x,y,z
-x,-y,z
1/2+x,1/2-y,-z
1/2-x,1/2+y,-z
-x,-y,-z
x,y,-z
1/2-x,1/2+y,z
1/2+x,1/2-y,z
loop_
_atom_site_type_symbol
_atom_site_label
_atom_site_fract_x
_atom_site_fract_y
_atom_site_fract_z
Si Si1 0.285490 0.111416 0.725586
Si Si2 0.937549 0.077653 0.581470
Si Si3 0.387522 0.915713 0.651414
Si Si4 0.434716 0.021917 0.797747
Si Si5 0.065587 0.021796 0.880993
Si Si6 0.712911 0.995311 0.880127
Si Si7 0.137871 0.751609 0.000000
O O1 0.268047 0.420647 0.721479
O O2 0.326348 0.020605 0.666303
O O3 0.307689 0.055256 0.802601
O O4 0.933745 0.058849 0.500000
O O5 0.895936 0.871074 0.617189
O O6 0.921683 0.372668 0.606571
O O7 0.000000 0.000000 0.601465
O O8 0.411942 0.918970 0.727133
O O9 0.423091 0.329490 0.816233
O O10 0.500000 0.000000 0.792561
O O11 0.420143 0.824075 0.860064
O O12 0.101839 0.911313 0.941423
O O13 0.000000 0.000000 0.896483
O O14 0.766792 0.801773 0.886427
O O15 0.673509 0.903611 0.940017
#
# Coordination Sequence:
#
# PCOD9428103 Si02
#       7
#     8   8   8   8   8   8   4
#     4  10  22  41  63  90 122 157 207 268 317 360
#     4  11  24  41  64 100 140 170 200 244 302 375
#     4  12  22  39  69  94 123 171 215 252 311 376
#     4  10  21  38  58  86 117 149 199 256 302 359
#     4  10  23  38  54  80 116 153 197 251 306 366
#     4  10  23  40  58  84 115 148 196 256 314 367
#     4  12  23  38  60  80 112 158 201 244 311 382
#
# _framework density 21.867930000000001
#
# number of rings (size 3 to 8) (size 9 to 14) (size 15 to 20)
#    0.000    1.385    0.000    5.308    0.000    9.231 
#    0.000    2.308    0.000    9.231    0.000    0.000 
#    0.000    0.000    0.000    0.000    0.000    0.000 
#
# Total GULP energy -289942.516171 kJ/mol
# GULP energy per Si atom -5575.817619 kJ/mol
# Density = 2.181816 g / cm^3
# Si number density = 21.867930 Si / 1000 Ang^3
#
#
#
# Elastic Constant Matrix: (Units=GPa)
#
#
# Indices 1 2 3 4 5 6 
#
# 1 46.5321 1.8831 30.1858 0.0000 0.0000 0.0000
# 2 1.8831 62.4467 -8.8247 0.0000 0.0000 0.0000
# 3 30.1858 -8.8247 70.4935 0.0000 0.0000 0.0000
# 4 0.0000 0.0000 0.0000 -27.5598 0.0000 0.0000
# 5 0.0000 0.0000 0.0000 0.0000 5.5816 0.0000
# 6 0.0000 0.0000 0.0000 0.0000 0.0000 33.7700
#
#
#
# Elastic Compliance Matrix: (Units=1/GPa)
#
#
# Indices 1 2 3 4 5 6 
#
# 1 0.030226 -0.002790 -0.013292 0.000000 0.000000 0.000000
# 2 -0.002790 0.016560 0.003268 0.000000 0.000000 0.000000
# 3 -0.013292 0.003268 0.020287 0.000000 0.000000 0.000000
# 4 0.000000 0.000000 0.000000 -0.036285 0.000000 0.000000
# 5 0.000000 0.000000 0.000000 0.000000 0.179159 0.000000
# 6 0.000000 0.000000 0.000000 0.000000 0.000000 0.029612
#
#
# Mechanical properties :
#
#
# Convention : Reuss Voigt Hill
#
# Bulk Modulus (GPa) = 24.12937 25.10676 24.61806
# Shear Modulus (GPa) = 17.92099 12.77357 15.34728
#
# Velocity S-wave (km/s) = 2.86581 2.41949 2.65206
# Velocity P-wave (km/s) = 4.69133 4.39445 4.54532
#
# Compressibility (1/GPa) = 0.04144327
#
# Stress axis : x y z
#
# Youngs Moduli (GPa) = 33.08373 60.38806 49.29344
#
# Poissons Ratio (x) = 0.16848 0.65523
# Poissons Ratio (y) = 0.09230 -0.16108
# Poissons Ratio (z) = 0.43976 -0.19733
#
# Static dielectric constant tensor:
#      x y z
#    x 1.859010 0.000000 0.000000 
#    y 0.000000 1.789930 0.000000 
#    z 0.000000 0.000000 1.728990 
# 
# From -- ./inp_files/22079.got.cif
#   From: 2010.05.17/outbox.cif.g08.bks.cpg/sg55_12_cif.got.tgz:22079.got - 2010.06.03 13:27:54.
