data_PCOD9428833
_publ_section_title
;
Structure prediction by ZEFSAII (Michael W. Deem and Ramdas Pophale) SiO2 
 PCOD9428833
Probable space group: P B A M
;
_chemical_formula_sum "Si O2"
_cell_formula_units_Z 36
_cell_length_a 22.735793
_cell_length_b 5.755646
_cell_length_c 12.306690
_cell_angle_alpha 90.000000
_cell_angle_beta 90.000000
_cell_angle_gamma 90.000000
_cell_volume 1610.443313
_symmetry_space_group_name_H-M "P B A M"
_symmetry_group_IT_number 55
_symmetry_cell_setting 'orthorhombic'
loop_
_space_group_symop_operation_xyz
x,y,z
-x,-y,z
1/2+x,1/2-y,-z
1/2-x,1/2+y,-z
-x,-y,-z
x,y,-z
1/2-x,1/2+y,z
1/2+x,1/2-y,z
loop_
_atom_site_type_symbol
_atom_site_label
_atom_site_fract_x
_atom_site_fract_y
_atom_site_fract_z
Si Si1 0.000000 0.000000 0.310397
Si Si2 0.110835 0.736019 0.376422
Si Si3 0.222521 0.923179 0.745632
Si Si4 0.136586 0.437575 0.000000
Si Si5 0.200982 0.935873 0.000000
Si Si6 0.435567 0.887498 0.783595
O O1 0.952753 0.875731 0.234076
O O2 0.044123 0.838976 0.377836
O O3 0.131988 0.719317 0.500000
O O4 0.157296 0.879010 0.303021
O O5 0.101396 0.490091 0.316384
O O6 0.255540 0.681694 0.710748
O O7 0.227799 0.931480 0.877635
O O8 0.098181 0.437456 0.107807
O O9 0.169402 0.684249 0.000000
O O10 0.169234 0.188071 0.000000
O O11 0.500000 0.000000 0.787091
#
# Coordination Sequence:
#
# PCOD9428833 Si02
#       6
#     4   8   8   4   4   8
#     4  10  23  43  72 104 144 187 243 294 370 428
#     4  11  25  45  71 103 143 190 246 302 360 432
#     4  12  27  48  75 105 143 187 240 298 364 429
#     4  12  23  40  74 102 148 184 232 293 364 424
#     4  12  24  45  74 104 136 187 235 296 355 434
#     4  10  23  41  64 103 142 188 232 292 355 434
#
# _framework density 22.354092000000001
#
# number of rings (size 3 to 8) (size 9 to 14) (size 15 to 20)
#    0.000    0.889    2.222    4.000    6.222    6.222 
#    0.000    0.000    0.000    0.000    0.000    0.000 
#    0.000    0.000    0.000    0.000    0.000    0.000 
#
# Total GULP energy -200673.273984 kJ/mol
# GULP energy per Si atom -5574.257611 kJ/mol
# Density = 2.230321 g / cm^3
# Si number density = 22.354092 Si / 1000 Ang^3
#
#
#
# Elastic Constant Matrix: (Units=GPa)
#
#
# Indices 1 2 3 4 5 6 
#
# 1 93.9260 43.5931 21.0540 0.0000 0.0000 0.0000
# 2 43.5931 109.2260 9.3856 0.0000 0.0000 0.0000
# 3 21.0540 9.3856 95.5620 0.0000 0.0000 0.0000
# 4 0.0000 0.0000 0.0000 17.9334 0.0000 0.0000
# 5 0.0000 0.0000 0.0000 0.0000 30.1317 0.0000
# 6 0.0000 0.0000 0.0000 0.0000 0.0000 44.6604
#
#
#
# Elastic Compliance Matrix: (Units=1/GPa)
#
#
# Indices 1 2 3 4 5 6 
#
# 1 0.013630 -0.005226 -0.002490 0.000000 0.000000 0.000000
# 2 -0.005226 0.011237 0.000048 0.000000 0.000000 0.000000
# 3 -0.002490 0.000048 0.011008 0.000000 0.000000 0.000000
# 4 0.000000 0.000000 0.000000 0.055762 0.000000 0.000000
# 5 0.000000 0.000000 0.000000 0.000000 0.033188 0.000000
# 6 0.000000 0.000000 0.000000 0.000000 0.000000 0.022391
#
#
# Mechanical properties :
#
#
# Convention : Reuss Voigt Hill
#
# Bulk Modulus (GPa) = 48.68665 49.64216 49.16440
# Shear Modulus (GPa) = 29.51615 33.52385 31.52000
#
# Velocity S-wave (km/s) = 3.63766 3.87676 3.75911
# Velocity P-wave (km/s) = 6.28255 6.50342 6.39394
#
# Compressibility (1/GPa) = 0.02053951
#
# Stress axis : x y z
#
# Youngs Moduli (GPa) = 73.36610 88.99182 90.84093
#
# Poissons Ratio (x) = 0.46507 0.22617
# Poissons Ratio (y) = 0.38341 -0.00434
# Poissons Ratio (z) = 0.18266 -0.00425
#
# Static dielectric constant tensor:
#      x y z
#    x 1.860840 0.000000 0.000000 
#    y 0.000000 1.969780 0.000000 
#    z 0.000000 0.000000 1.767480 
# 
# From -- ./inp_files/15546.got.cif
#   From: 2010.05.17/outbox.cif.g08.bks.cpg/sg55_8_cif.got.tgz:15546.got - 2010.06.03 13:27:54.
