data_PCOD9428181
_publ_section_title
;
Structure prediction by ZEFSAII (Michael W. Deem and Ramdas Pophale) SiO2 
 PCOD9428181
Probable space group: P B A M
;
_chemical_formula_sum "Si O2"
_cell_formula_units_Z 56
_cell_length_a 19.480005
_cell_length_b 9.810227
_cell_length_c 15.243483
_cell_angle_alpha 90.000000
_cell_angle_beta 90.000000
_cell_angle_gamma 90.000000
_cell_volume 2913.079463
_symmetry_space_group_name_H-M "P B A M"
_symmetry_group_IT_number 55
_symmetry_cell_setting 'orthorhombic'
loop_
_space_group_symop_operation_xyz
x,y,z
-x,-y,z
1/2+x,1/2-y,-z
1/2-x,1/2+y,-z
-x,-y,-z
x,y,-z
1/2-x,1/2+y,z
1/2+x,1/2-y,z
loop_
_atom_site_type_symbol
_atom_site_label
_atom_site_fract_x
_atom_site_fract_y
_atom_site_fract_z
Si Si1 0.852079 0.147429 0.841667
Si Si2 0.013389 0.858840 0.729924
Si Si3 0.618020 0.342152 0.156628
Si Si4 0.914293 0.326527 0.000000
Si Si5 0.726818 0.218571 0.285290
Si Si6 0.696915 0.945695 0.604511
Si Si7 0.540010 0.859861 0.595907
Si Si8 0.580836 0.153068 0.000000
O O1 0.910149 0.147568 0.766644
O O2 0.781800 0.187280 0.792746
O O3 0.852823 0.989347 0.873830
O O4 0.878965 0.251681 0.916361
O O5 0.004482 0.731918 0.667937
O O6 0.959755 0.861079 0.809530
O O7 0.000000 0.000000 0.680388
O O8 0.662130 0.286962 0.237639
O O9 0.614439 0.227366 0.082963
O O10 0.905342 0.490872 0.000000
O O11 0.998146 0.314639 0.000000
O O12 0.756849 0.327315 0.353885
O O13 0.709342 0.081678 0.338663
O O14 0.708941 0.966714 0.500000
O O15 0.618717 0.895216 0.615628
O O16 0.537677 0.792717 0.500000
O O17 0.500000 0.000000 0.592038
#
# Coordination Sequence:
#
# PCOD9428181 Si02
#       8
#     8   8   8   4   8   8   8   4
#     4  11  23  42  66  93 131 170 214 267 322 383
#     4  10  21  38  63  92 123 169 214 264 321 384
#     4  11  24  42  67  94 131 172 214 263 326 389
#     4  11  25  42  67 102 129 163 215 268 321 388
#     4  12  24  43  65  99 131 174 223 266 325 391
#     4  11  24  43  67  93 132 177 221 274 325 388
#     4  10  21  38  61  93 129 168 215 271 330 379
#     4  11  25  42  67 102 127 165 215 266 323 392
#
# _framework density 19.223642000000002
#
# number of rings (size 3 to 8) (size 9 to 14) (size 15 to 20)
#    0.000    1.143    4.286    1.714    2.000    2.571 
#    0.000    0.714    0.000    0.000    0.000    0.000 
#    0.000    0.000    0.000    0.000    0.000    0.000 
#
# Total GULP energy -312562.864457 kJ/mol
# GULP energy per Si atom -5581.479722 kJ/mol
# Density = 1.917989 g / cm^3
# Si number density = 19.223642 Si / 1000 Ang^3
#
#
#
# Elastic Constant Matrix: (Units=GPa)
#
#
# Indices 1 2 3 4 5 6 
#
# 1 42.7056 0.5036 13.5680 0.0000 0.0000 0.0000
# 2 0.5036 127.7467 54.2647 0.0000 0.0000 0.0000
# 3 13.5680 54.2647 76.3165 0.0000 0.0000 0.0000
# 4 0.0000 0.0000 0.0000 85.6584 0.0000 0.0000
# 5 0.0000 0.0000 0.0000 0.0000 30.5665 0.0000
# 6 0.0000 0.0000 0.0000 0.0000 0.0000 22.6096
#
#
#
# Elastic Compliance Matrix: (Units=1/GPa)
#
#
# Indices 1 2 3 4 5 6 
#
# 1 0.025409 0.002606 -0.006370 0.000000 0.000000 0.000000
# 2 0.002606 0.011483 -0.008628 0.000000 0.000000 0.000000
# 3 -0.006370 -0.008628 0.020371 0.000000 0.000000 0.000000
# 4 0.000000 0.000000 0.000000 0.011674 0.000000 0.000000
# 5 0.000000 0.000000 0.000000 0.000000 0.032716 0.000000
# 6 0.000000 0.000000 0.000000 0.000000 0.000000 0.044229
#
#
# Mechanical properties :
#
#
# Convention : Reuss Voigt Hill
#
# Bulk Modulus (GPa) = 30.79021 42.60461 36.69741
# Shear Modulus (GPa) = 27.54929 39.66239 33.60584
#
# Velocity S-wave (km/s) = 3.78973 4.54718 4.18563
# Velocity P-wave (km/s) = 5.93304 7.05549 6.51847
#
# Compressibility (1/GPa) = 0.03247786
#
# Stress axis : x y z
#
# Youngs Moduli (GPa) = 39.35562 87.08679 49.08971
#
# Poissons Ratio (x) = -0.22693 0.31272
# Poissons Ratio (y) = -0.10255 0.42355
# Poissons Ratio (z) = 0.25071 0.75139
#
# Static dielectric constant tensor:
#      x y z
#    x 1.799090 0.000000 0.000000 
#    y 0.000000 1.671640 0.000000 
#    z 0.000000 0.000000 1.649270 
# 
# From -- ./inp_files/19773.got.cif
#   From: 2010.05.17/outbox.cif.g08.bks.cpg/sg55_10_cif.got.tgz:19773.got - 2010.06.03 13:27:54.
