data_PCOD9428695
_publ_section_title
;
Structure prediction by ZEFSAII (Michael W. Deem and Ramdas Pophale) SiO2 
 PCOD9428695
Probable space group: P B A M
;
_chemical_formula_sum "Si O2"
_cell_formula_units_Z 56
_cell_length_a 15.165794
_cell_length_b 21.601100
_cell_length_c 8.937341
_cell_angle_alpha 90.000000
_cell_angle_beta 90.000000
_cell_angle_gamma 90.000000
_cell_volume 2927.853542
_symmetry_space_group_name_H-M "P B A M"
_symmetry_group_IT_number 55
_symmetry_cell_setting 'orthorhombic'
loop_
_space_group_symop_operation_xyz
x,y,z
-x,-y,z
1/2+x,1/2-y,-z
1/2-x,1/2+y,-z
-x,-y,-z
x,y,-z
1/2-x,1/2+y,z
1/2+x,1/2-y,z
loop_
_atom_site_type_symbol
_atom_site_label
_atom_site_fract_x
_atom_site_fract_y
_atom_site_fract_z
Si Si1 0.593318 0.278900 0.824283
Si Si2 0.472344 0.931242 0.679523
Si Si3 0.463844 0.598793 0.674290
Si Si4 0.355026 0.476614 0.674157
Si Si5 0.552900 0.805279 0.678960
Si Si6 0.714331 0.103954 0.176993
Si Si7 0.731886 0.733420 0.679059
O O1 0.549990 0.344153 0.782316
O O2 0.527145 0.226626 0.765219
O O3 0.684485 0.271923 0.735967
O O4 0.608286 0.272453 0.000000
O O5 0.458406 0.933106 0.500000
O O6 0.546332 0.878704 0.708706
O O7 0.381731 0.909066 0.754509
O O8 0.500000 0.000000 0.728671
O O9 0.457658 0.618970 0.500000
O O10 0.390734 0.545767 0.699801
O O11 0.558996 0.566935 0.692755
O O12 0.327204 0.471787 0.500000
O O13 0.277876 0.452741 0.778677
O O14 0.540133 0.796790 0.500000
O O15 0.642786 0.770059 0.719800
O O16 0.757247 0.165718 0.248451
O O17 0.708070 0.111796 0.000000
O O18 0.733962 0.726711 0.500000
#
# Coordination Sequence:
#
# PCOD9428695 Si02
#       7
#     8   8   8   8   8   8   8
#     4  12  24  37  58  90 126 160 193 246 315 373
#     4  10  22  42  67  91 118 159 210 261 311 371
#     4   9  19  37  60  86 117 157 206 253 300 355
#     4   9  19  37  61  86 115 158 207 252 295 356
#     4  10  22  41  65  90 119 160 210 263 312 365
#     4  12  24  38  59  91 125 162 202 251 319 379
#     4  11  23  40  63  88 117 161 214 259 303 367
#
# _framework density 19.126639999999998
#
# number of rings (size 3 to 8) (size 9 to 14) (size 15 to 20)
#    0.000    1.571    1.429    4.714    0.000    7.143 
#    0.000    4.286    0.000    0.000    0.000    0.000 
#    0.000    0.000    0.000    0.000    0.000    0.000 
#
# Total GULP energy -312941.920278 kJ/mol
# GULP energy per Si atom -5588.248576 kJ/mol
# Density = 1.908311 g / cm^3
# Si number density = 19.126640 Si / 1000 Ang^3
#
#
#
# Elastic Constant Matrix: (Units=GPa)
#
#
# Indices 1 2 3 4 5 6 
#
# 1 90.9565 43.8059 42.7023 0.0000 0.0000 0.0000
# 2 43.8059 102.2212 43.1261 0.0000 0.0000 0.0000
# 3 42.7023 43.1261 53.0589 0.0000 0.0000 0.0000
# 4 0.0000 0.0000 0.0000 -25.2020 0.0000 0.0000
# 5 0.0000 0.0000 0.0000 0.0000 54.4197 0.0000
# 6 0.0000 0.0000 0.0000 0.0000 0.0000 395.6516
#
#
#
# Elastic Compliance Matrix: (Units=1/GPa)
#
#
# Indices 1 2 3 4 5 6 
#
# 1 0.018065 -0.002447 -0.012550 0.000000 0.000000 0.000000
# 2 -0.002447 0.015219 -0.010401 0.000000 0.000000 0.000000
# 3 -0.012550 -0.010401 0.037401 0.000000 0.000000 0.000000
# 4 0.000000 0.000000 0.000000 -0.039679 0.000000 0.000000
# 5 0.000000 0.000000 0.000000 0.000000 0.018376 0.000000
# 6 0.000000 0.000000 0.000000 0.000000 0.000000 0.002527
#
#
# Mechanical properties :
#
#
# Convention : Reuss Voigt Hill
#
# Bulk Modulus (GPa) = 50.27704 56.16723 53.22213
# Shear Modulus (GPa) = 45.73151 92.74736 69.23943
#
# Velocity S-wave (km/s) = 4.89507 6.97112 6.02321
# Velocity P-wave (km/s) = 7.63495 9.70696 8.73262
#
# Compressibility (1/GPa) = 0.01988980
#
# Stress axis : x y z
#
# Youngs Moduli (GPa) = 55.35712 65.70589 26.73718
#
# Poissons Ratio (x) = 0.16077 0.33555
# Poissons Ratio (y) = 0.13545 0.27809
# Poissons Ratio (z) = 0.69472 0.68341
#
# Static dielectric constant tensor:
#      x y z
#    x 1.649990 0.000000 0.000000 
#    y 0.000000 1.681430 0.000000 
#    z 0.000000 0.000000 1.639150 
# 
# From -- ./inp_files/6148.got.cif
#   From: 2010.05.17/outbox.cif.g08.bks.cpg/sg55_4_cif.got.tgz:6148.got - 2010.06.03 13:27:54.
