data_PCOD9428672
_publ_section_title
;
Structure prediction by ZEFSAII (Michael W. Deem and Ramdas Pophale) SiO2 
 PCOD9428672
Probable space group: P B A M
;
_chemical_formula_sum "Si O2"
_cell_formula_units_Z 56
_cell_length_a 5.148289
_cell_length_b 24.088422
_cell_length_c 18.381957
_cell_angle_alpha 90.000000
_cell_angle_beta 90.000000
_cell_angle_gamma 90.000000
_cell_volume 2279.622920
_symmetry_space_group_name_H-M "P B A M"
_symmetry_group_IT_number 55
_symmetry_cell_setting 'orthorhombic'
loop_
_space_group_symop_operation_xyz
x,y,z
-x,-y,z
1/2+x,1/2-y,-z
1/2-x,1/2+y,-z
-x,-y,-z
x,y,-z
1/2-x,1/2+y,z
1/2+x,1/2-y,z
loop_
_atom_site_type_symbol
_atom_site_label
_atom_site_fract_x
_atom_site_fract_y
_atom_site_fract_z
Si Si1 0.392947 0.940072 0.668380
Si Si2 0.428646 0.717850 0.208846
Si Si3 0.183763 0.830091 0.918108
Si Si4 0.070416 0.621217 0.195676
Si Si5 0.601422 0.405695 0.586203
Si Si6 0.346744 0.557185 0.920274
Si Si7 0.330344 0.720700 0.587840
O O1 0.401592 0.899743 0.737650
O O2 0.112736 0.939085 0.631389
O O3 0.606758 0.920232 0.609688
O O4 0.500000 0.000000 0.691718
O O5 0.484191 0.711559 0.121677
O O6 0.312534 0.657189 0.225968
O O7 0.431395 0.659495 0.396091
O O8 0.206115 0.760035 0.234041
O O9 0.419613 0.840265 0.862295
O O10 0.040626 0.890099 0.920711
O O11 0.255740 0.814752 0.000000
O O12 0.163550 0.569336 0.147527
O O13 0.566272 0.414186 0.500000
O O14 0.500000 0.500000 0.912957
O O15 0.212285 0.557276 0.000000
O O16 0.317189 0.723535 0.500000
O O17 0.541309 0.765423 0.613121
#
# Coordination Sequence:
#
# PCOD9428672 Si02
#       7
#     8   8   8   8   8   8   8
#     4  12  29  46  73 105 140 190 242 294 371 438
#     4  11  23  45  68  97 136 187 235 288 349 419
#     4  10  22  40  66 100 137 181 237 298 347 412
#     4  11  25  43  69  98 147 182 236 296 355 434
#     4  11  25  48  74 106 146 186 240 302 355 434
#     4   9  20  37  63  97 135 182 233 286 348 409
#     4   9  17  34  66 103 136 171 212 267 337 407
#
# _framework density 24.565465
#
# number of rings (size 3 to 8) (size 9 to 14) (size 15 to 20)
#    0.000    1.571    1.429    2.143    6.000    5.143 
#    0.000    6.429    0.000    0.000    0.000    0.000 
#    0.000    0.000    0.000    0.000    0.000    0.000 
#
# Total GULP energy -313329.347440 kJ/mol
# GULP energy per Si atom -5595.166919 kJ/mol
# Density = 2.450955 g / cm^3
# Si number density = 24.565465 Si / 1000 Ang^3
#
#
#
# Elastic Constant Matrix: (Units=GPa)
#
#
# Indices 1 2 3 4 5 6 
#
# 1 109.5122 16.8013 30.9648 0.0000 0.0000 0.0000
# 2 16.8013 73.4620 17.0274 0.0000 0.0000 0.0000
# 3 30.9648 17.0274 145.0352 0.0000 0.0000 0.0000
# 4 0.0000 0.0000 0.0000 5.6851 0.0000 0.0000
# 5 0.0000 0.0000 0.0000 0.0000 28.5800 0.0000
# 6 0.0000 0.0000 0.0000 0.0000 0.0000 34.7813
#
#
#
# Elastic Compliance Matrix: (Units=1/GPa)
#
#
# Indices 1 2 3 4 5 6 
#
# 1 0.009953 -0.001834 -0.001910 0.000000 0.000000 0.000000
# 2 -0.001834 0.014331 -0.001291 0.000000 0.000000 0.000000
# 3 -0.001910 -0.001291 0.007454 0.000000 0.000000 0.000000
# 4 0.000000 0.000000 0.000000 0.175900 0.000000 0.000000
# 5 0.000000 0.000000 0.000000 0.000000 0.034990 0.000000
# 6 0.000000 0.000000 0.000000 0.000000 0.000000 0.028751
#
#
# Mechanical properties :
#
#
# Convention : Reuss Voigt Hill
#
# Bulk Modulus (GPa) = 46.14808 50.84405 48.49607
# Shear Modulus (GPa) = 17.32082 31.35699 24.33891
#
# Velocity S-wave (km/s) = 2.65823 3.57664 3.15108
# Velocity P-wave (km/s) = 5.31490 6.14807 5.74660
#
# Compressibility (1/GPa) = 0.02166937
#
# Stress axis : x y z
#
# Youngs Moduli (GPa) = 100.47567 69.77843 134.15363
#
# Poissons Ratio (x) = 0.12795 0.25618
# Poissons Ratio (y) = 0.18424 0.17319
# Poissons Ratio (z) = 0.19187 0.09009
#
# Static dielectric constant tensor:
#      x y z
#    x 1.935420 0.000000 0.000000 
#    y 0.000000 1.965780 0.000000 
#    z 0.000000 0.000000 1.959040 
# 
# From -- ./inp_files/16747.got.cif
#   From: 2010.05.17/outbox.cif.g08.bks.cpg/sg55_9_cif.got.tgz:16747.got - 2010.06.03 13:27:54.
