data_PCOD9428831
_publ_section_title
;
Structure prediction by ZEFSAII (Michael W. Deem and Ramdas Pophale) SiO2 
 PCOD9428831
Probable space group: P B A M
;
_chemical_formula_sum "Si O2"
_cell_formula_units_Z 40
_cell_length_a 8.408939
_cell_length_b 24.320236
_cell_length_c 8.281138
_cell_angle_alpha 90.000000
_cell_angle_beta 90.000000
_cell_angle_gamma 90.000000
_cell_volume 1693.553844
_symmetry_space_group_name_H-M "P B A M"
_symmetry_group_IT_number 55
_symmetry_cell_setting 'orthorhombic'
loop_
_space_group_symop_operation_xyz
x,y,z
-x,-y,z
1/2+x,1/2-y,-z
1/2-x,1/2+y,-z
-x,-y,-z
x,y,-z
1/2-x,1/2+y,z
1/2+x,1/2-y,z
loop_
_atom_site_type_symbol
_atom_site_label
_atom_site_fract_x
_atom_site_fract_y
_atom_site_fract_z
Si Si1 0.138301 0.324988 0.186424
Si Si2 0.339522 0.030715 0.309186
Si Si3 0.330084 0.233133 0.317249
Si Si4 0.167089 0.927889 0.804310
Si Si5 0.159740 0.131039 0.189294
O O1 0.289065 0.284129 0.202854
O O2 0.195167 0.384645 0.243088
O O3 0.996313 0.296538 0.281941
O O4 0.090029 0.328758 0.000000
O O5 0.350537 0.042051 0.500000
O O6 0.201724 0.986378 0.273276
O O7 0.500000 0.000000 0.254793
O O8 0.299401 0.086709 0.217767
O O9 0.323860 0.252909 0.500000
O O10 0.199258 0.185866 0.285978
O O11 0.000962 0.899701 0.759128
O O12 0.167850 0.933715 0.000000
O O13 0.148509 0.144738 0.000000
#
# Coordination Sequence:
#
# PCOD9428831 Si02
#       5
#     8   8   8   8   8
#     4  11  23  42  66  91 123 165 209 251 305 372
#     4  11  24  40  60  89 124 160 201 252 309 367
#     4  12  25  41  63  94 128 161 204 258 313 364
#     4  10  23  41  63  90 119 157 205 253 301 363
#     4  11  23  41  64  90 122 161 207 254 304 368
#
# _framework density 23.618970999999998
#
# number of rings (size 3 to 8) (size 9 to 14) (size 15 to 20)
#    0.000    1.000    0.000    6.600    0.000   12.000 
#    0.000    0.000    0.000    0.000    0.000    0.000 
#    0.000    0.000    0.000    0.000    0.000    0.000 
#
# Total GULP energy -224173.792303 kJ/mol
# GULP energy per Si atom -5604.344808 kJ/mol
# Density = 2.356521 g / cm^3
# Si number density = 23.618971 Si / 1000 Ang^3
#
#
#
# Elastic Constant Matrix: (Units=GPa)
#
#
# Indices 1 2 3 4 5 6 
#
# 1 71.1361 -10.8222 -1.2685 0.0000 0.0000 0.0000
# 2 -10.8222 87.3328 -4.1379 0.0000 0.0000 0.0000
# 3 -1.2685 -4.1379 36.4120 0.0000 0.0000 0.0000
# 4 0.0000 0.0000 0.0000 22.0118 0.0000 0.0000
# 5 0.0000 0.0000 0.0000 0.0000 42.2922 0.0000
# 6 0.0000 0.0000 0.0000 0.0000 0.0000 37.3886
#
#
#
# Elastic Compliance Matrix: (Units=1/GPa)
#
#
# Indices 1 2 3 4 5 6 
#
# 1 0.014346 0.001811 0.000706 0.000000 0.000000 0.000000
# 2 0.001811 0.011741 0.001397 0.000000 0.000000 0.000000
# 3 0.000706 0.001397 0.027647 0.000000 0.000000 0.000000
# 4 0.000000 0.000000 0.000000 0.045430 0.000000 0.000000
# 5 0.000000 0.000000 0.000000 0.000000 0.023645 0.000000
# 6 0.000000 0.000000 0.000000 0.000000 0.000000 0.026746
#
#
# Mechanical properties :
#
#
# Convention : Reuss Voigt Hill
#
# Bulk Modulus (GPa) = 16.24383 18.04706 17.14544
# Shear Modulus (GPa) = 30.81716 34.41250 32.61483
#
# Velocity S-wave (km/s) = 3.61607 3.82119 3.72004
# Velocity P-wave (km/s) = 4.93224 5.20828 5.07214
#
# Compressibility (1/GPa) = 0.06156184
#
# Stress axis : x y z
#
# Youngs Moduli (GPa) = 69.70736 85.17089 36.17051
#
# Poissons Ratio (x) = -0.15426 -0.02552
# Poissons Ratio (y) = -0.12625 -0.05054
# Poissons Ratio (z) = -0.04919 -0.11902
#
# Static dielectric constant tensor:
#      x y z
#    x 1.964710 0.000000 0.000000 
#    y 0.000000 1.840200 0.000000 
#    z 0.000000 0.000000 1.796730 
# 
# From -- ./inp_files/2313.got.cif
#   From: 2010.05.17/outbox.cif.g08.bks.cpg/sg55_2_cif.got.tgz:2313.got - 2010.06.03 13:27:54.
