data_PCOD9428430
_publ_section_title
;
Structure prediction by ZEFSAII (Michael W. Deem and Ramdas Pophale) SiO2 
 PCOD9428430
Probable space group: P B A M
;
_chemical_formula_sum "Si O2"
_cell_formula_units_Z 38
_cell_length_a 10.968762
_cell_length_b 15.797991
_cell_length_c 10.719006
_cell_angle_alpha 90.000000
_cell_angle_beta 90.000000
_cell_angle_gamma 90.000000
_cell_volume 1857.436559
_symmetry_space_group_name_H-M "P B A M"
_symmetry_group_IT_number 55
_symmetry_cell_setting 'orthorhombic'
loop_
_space_group_symop_operation_xyz
x,y,z
-x,-y,z
1/2+x,1/2-y,-z
1/2-x,1/2+y,-z
-x,-y,-z
x,y,-z
1/2-x,1/2+y,z
1/2+x,1/2-y,z
loop_
_atom_site_type_symbol
_atom_site_label
_atom_site_fract_x
_atom_site_fract_y
_atom_site_fract_z
Si Si1 0.741279 0.444635 0.646408
Si Si2 0.000000 0.000000 0.220516
Si Si3 0.883433 0.597962 0.775754
Si Si4 0.129488 0.833832 0.860916
Si Si5 0.077586 0.706177 0.643952
Si Si6 0.500000 0.000000 0.000000
O O1 0.742321 0.462955 0.500000
O O2 0.605465 0.455420 0.698420
O O3 0.823454 0.514283 0.715818
O O4 0.803273 0.353120 0.663715
O O5 0.933896 0.074002 0.144036
O O6 0.771519 0.652343 0.829527
O O7 0.961466 0.647289 0.673115
O O8 0.966302 0.569187 0.890382
O O9 0.077429 0.778247 0.748292
O O10 0.113664 0.797649 0.000000
O O11 0.076554 0.735786 0.500000
#
# Coordination Sequence:
#
# PCOD9428430 Si02
#       6
#     8   4   8   8   8   2
#     4  10  21  41  67  97 130 172 221 270 326 394
#     4  10  24  44  66  94 131 179 218 272 333 406
#     4  11  23  42  69  99 129 172 223 276 332 397
#     4  11  26  44  66  97 134 172 222 276 338 398
#     4  11  25  42  66 100 136 176 221 277 333 394
#     4  12  20  40  70  98 132 166 220 274 334 394
#
# _framework density 20.458302
#
# number of rings (size 3 to 8) (size 9 to 14) (size 15 to 20)
#    0.000    1.263    3.158    1.263    4.421    6.737 
#    0.000    0.000    0.000    0.000    0.000    0.000 
#    0.000    0.000    0.000    0.000    0.000    0.000 
#
# Total GULP energy -211769.908790 kJ/mol
# GULP energy per Si atom -5572.892337 kJ/mol
# Density = 2.041174 g / cm^3
# Si number density = 20.458302 Si / 1000 Ang^3
#
#
#
# Elastic Constant Matrix: (Units=GPa)
#
#
# Indices 1 2 3 4 5 6 
#
# 1 77.2378 18.7926 30.9525 0.0000 0.0000 0.0000
# 2 18.7926 53.2349 43.2412 0.0000 0.0000 0.0000
# 3 30.9525 43.2412 152.8464 0.0000 0.0000 0.0000
# 4 0.0000 0.0000 0.0000 25.2713 0.0000 0.0000
# 5 0.0000 0.0000 0.0000 0.0000 -4.2914 0.0000
# 6 0.0000 0.0000 0.0000 0.0000 0.0000 6.5845
#
#
#
# Elastic Compliance Matrix: (Units=1/GPa)
#
#
# Indices 1 2 3 4 5 6 
#
# 1 0.014596 -0.003573 -0.001945 0.000000 0.000000 0.000000
# 2 -0.003573 0.025264 -0.006424 0.000000 0.000000 0.000000
# 3 -0.001945 -0.006424 0.008754 0.000000 0.000000 0.000000
# 4 0.000000 0.000000 0.000000 0.039571 0.000000 0.000000
# 5 0.000000 0.000000 0.000000 0.000000 -0.233025 0.000000
# 6 0.000000 0.000000 0.000000 0.000000 0.000000 0.151871
#
#
# Mechanical properties :
#
#
# Convention : Reuss Voigt Hill
#
# Bulk Modulus (GPa) = 40.43614 52.14354 46.28984
# Shear Modulus (GPa) = 127.69535 18.20174 72.94855
#
# Velocity S-wave (km/s) = 7.90904 2.98602 5.97784
# Velocity P-wave (km/s) = 10.15933 6.11813 8.38580
#
# Compressibility (1/GPa) = 0.02473035
#
# Stress axis : x y z
#
# Youngs Moduli (GPa) = 68.51321 39.58249 114.23696
#
# Poissons Ratio (x) = 0.14141 0.22220
# Poissons Ratio (y) = 0.24477 0.73383
# Poissons Ratio (z) = 0.13326 0.25427
#
# Static dielectric constant tensor:
#      x y z
#    x 1.741020 0.000000 0.000000 
#    y 0.000000 1.738250 0.000000 
#    z 0.000000 0.000000 1.682180 
# 
# From -- ./inp_files/3648.got.cif
#   From: 2010.05.17/outbox.cif.g08.bks.cpg/sg55_2_cif.got.tgz:3648.got - 2010.06.03 13:27:54.
