data_PCOD9428851
_publ_section_title
;
Structure prediction by ZEFSAII (Michael W. Deem and Ramdas Pophale) SiO2 
 PCOD9428851
Probable space group: P B A M
;
_chemical_formula_sum "Si O2"
_cell_formula_units_Z 56
_cell_length_a 21.079937
_cell_length_b 14.829320
_cell_length_c 8.975078
_cell_angle_alpha 90.000000
_cell_angle_beta 90.000000
_cell_angle_gamma 90.000000
_cell_volume 2805.619537
_symmetry_space_group_name_H-M "P B A M"
_symmetry_group_IT_number 55
_symmetry_cell_setting 'orthorhombic'
loop_
_space_group_symop_operation_xyz
x,y,z
-x,-y,z
1/2+x,1/2-y,-z
1/2-x,1/2+y,-z
-x,-y,-z
x,y,-z
1/2-x,1/2+y,z
1/2+x,1/2-y,z
loop_
_atom_site_type_symbol
_atom_site_label
_atom_site_fract_x
_atom_site_fract_y
_atom_site_fract_z
Si Si1 0.897514 0.239276 0.674628
Si Si2 0.651360 0.167741 0.678226
Si Si3 0.522457 0.232006 0.177165
Si Si4 0.743935 0.820250 0.675283
Si Si5 0.275564 0.989112 0.169560
Si Si6 0.367193 0.445781 0.169783
Si Si7 0.448422 0.580190 0.671904
O O1 0.912574 0.229013 0.500000
O O2 0.826777 0.278393 0.688147
O O3 0.894776 0.141831 0.751429
O O4 0.954299 0.294113 0.752513
O O5 0.645351 0.170754 0.500000
O O6 0.583477 0.182454 0.754645
O O7 0.701700 0.247821 0.720800
O O8 0.679259 0.071805 0.729530
O O9 0.533163 0.335439 0.228489
O O10 0.520804 0.224000 0.000000
O O11 0.754834 0.840512 0.500000
O O12 0.739850 0.911969 0.768163
O O13 0.208195 0.938208 0.166709
O O14 0.299654 0.994972 0.000000
O O15 0.385991 0.533542 0.263346
O O16 0.390871 0.454039 0.000000
O O17 0.500000 0.500000 0.678547
O O18 0.441014 0.608313 0.500000
#
# Coordination Sequence:
#
# PCOD9428851 Si02
#       7
#     8   8   8   8   8   8   8
#     4  11  22  40  63  90 122 163 210 257 308 374
#     4  11  23  43  68  94 127 169 214 262 314 376
#     4  12  25  40  60  90 128 166 206 260 321 380
#     4  10  23  42  67  95 124 165 215 262 312 372
#     4  11  24  40  63  95 129 163 206 262 320 375
#     4  11  22  36  58  89 123 162 201 253 315 373
#     4  11  22  35  55  84 120 162 205 250 302 373
#
# _framework density 19.95994
#
# number of rings (size 3 to 8) (size 9 to 14) (size 15 to 20)
#    0.000    1.000    2.857    4.286    0.000    6.857 
#    0.000    0.714    0.000    4.286    0.000    0.000 
#    0.000    0.000    0.000    0.000    0.000    0.000 
#
# Total GULP energy -312977.817848 kJ/mol
# GULP energy per Si atom -5588.889604 kJ/mol
# Density = 1.991451 g / cm^3
# Si number density = 19.959940 Si / 1000 Ang^3
#
#
#
# Elastic Constant Matrix: (Units=GPa)
#
#
# Indices 1 2 3 4 5 6 
#
# 1 71.0299 -11.1539 34.5288 0.0000 0.0000 0.0000
# 2 -11.1539 33.8090 15.6254 0.0000 0.0000 0.0000
# 3 34.5288 15.6254 102.8957 0.0000 0.0000 0.0000
# 4 0.0000 0.0000 0.0000 34.2110 0.0000 0.0000
# 5 0.0000 0.0000 0.0000 0.0000 30.3566 0.0000
# 6 0.0000 0.0000 0.0000 0.0000 0.0000 26.4692
#
#
#
# Elastic Compliance Matrix: (Units=1/GPa)
#
#
# Indices 1 2 3 4 5 6 
#
# 1 0.019650 0.010250 -0.008151 0.000000 0.000000 0.000000
# 2 0.010250 0.037157 -0.009082 0.000000 0.000000 0.000000
# 3 -0.008151 -0.009082 0.013833 0.000000 0.000000 0.000000
# 4 0.000000 0.000000 0.000000 0.029230 0.000000 0.000000
# 5 0.000000 0.000000 0.000000 0.000000 0.032942 0.000000
# 6 0.000000 0.000000 0.000000 0.000000 0.000000 0.037780
#
#
# Mechanical properties :
#
#
# Convention : Reuss Voigt Hill
#
# Bulk Modulus (GPa) = 17.64472 31.74834 24.69653
# Shear Modulus (GPa) = 24.57622 29.45632 27.01627
#
# Velocity S-wave (km/s) = 3.51276 3.84575 3.68302
# Velocity P-wave (km/s) = 5.03110 5.97162 5.52142
#
# Compressibility (1/GPa) = 0.05667418
#
# Stress axis : x y z
#
# Youngs Moduli (GPa) = 50.89008 26.91299 72.29190
#
# Poissons Ratio (x) = -0.27585 0.58922
# Poissons Ratio (y) = -0.52161 0.65655
# Poissons Ratio (z) = 0.41478 0.24442
#
# Static dielectric constant tensor:
#      x y z
#    x 1.755600 0.000000 0.000000 
#    y 0.000000 1.684470 0.000000 
#    z 0.000000 0.000000 1.683450 
# 
# From -- ./inp_files/8666.got.cif
#   From: 2010.05.17/outbox.cif.g08.bks.cpg/sg55_5_cif.got.tgz:8666.got - 2010.06.03 13:27:54.
