data_PCOD9428989
_publ_section_title
;
Structure prediction by ZEFSAII (Michael W. Deem and Ramdas Pophale) SiO2 
 PCOD9428989
Probable space group: P B A M
;
_chemical_formula_sum "Si O2"
_cell_formula_units_Z 48
_cell_length_a 9.504692
_cell_length_b 16.354218
_cell_length_c 14.696982
_cell_angle_alpha 90.000000
_cell_angle_beta 90.000000
_cell_angle_gamma 90.000000
_cell_volume 2284.525410
_symmetry_space_group_name_H-M "P B A M"
_symmetry_group_IT_number 55
_symmetry_cell_setting 'orthorhombic'
loop_
_space_group_symop_operation_xyz
x,y,z
-x,-y,z
1/2+x,1/2-y,-z
1/2-x,1/2+y,-z
-x,-y,-z
x,y,-z
1/2-x,1/2+y,z
1/2+x,1/2-y,z
loop_
_atom_site_type_symbol
_atom_site_label
_atom_site_fract_x
_atom_site_fract_y
_atom_site_fract_z
Si Si1 0.552974 0.730340 0.290011
Si Si2 0.651895 0.490458 0.168633
Si Si3 0.823564 0.681202 0.607542
Si Si4 0.422938 0.587212 0.597307
Si Si5 0.025783 0.851893 0.101760
Si Si6 0.833505 0.499526 0.658054
O O1 0.464069 0.803584 0.333428
O O2 0.704572 0.730280 0.337256
O O3 0.474972 0.649473 0.327712
O O4 0.551748 0.713987 0.181590
O O5 0.500000 0.500000 0.220130
O O6 0.619044 0.405297 0.117421
O O7 0.641725 0.574084 0.110585
O O8 0.779197 0.491940 0.237922
O O9 0.833984 0.700113 0.500000
O O10 0.784494 0.586363 0.618163
O O11 0.500000 0.500000 0.596974
O O12 0.454737 0.626631 0.500000
O O13 0.257512 0.568997 0.607626
O O14 0.027549 0.818439 0.000000
O O15 0.000000 0.500000 0.648545
#
# Coordination Sequence:
#
# PCOD9428989 Si02
#       6
#     8   8   8   8   8   8
#     4  12  24  42  62  90 124 163 211 257 310 382
#     4   8  15  35  61  93 117 150 202 253 311 370
#     4  12  26  43  59  87 130 174 211 254 310 371
#     4  11  20  38  64  85 115 163 213 258 302 366
#     4   9  17  35  70  94 113 154 210 260 310 379
#     4  12  23  37  61  94 131 161 208 263 310 366
#
# _framework density 21.010928
#
# number of rings (size 3 to 8) (size 9 to 14) (size 15 to 20)
#    1.000    0.167    5.000    3.500    2.333    1.333 
#    0.000    0.833    0.000    2.000    0.000    0.000 
#    0.000    0.000    0.000    0.000    0.000    0.000 
#
# Total GULP energy -267430.445442 kJ/mol
# GULP energy per Si atom -5571.467613 kJ/mol
# Density = 2.096311 g / cm^3
# Si number density = 21.010928 Si / 1000 Ang^3
#
#
#
# Elastic Constant Matrix: (Units=GPa)
#
#
# Indices 1 2 3 4 5 6 
#
# 1 83.3185 -14.4938 4.3301 0.0000 0.0000 0.0000
# 2 -14.4938 42.5502 5.4824 0.0000 0.0000 0.0000
# 3 4.3301 5.4824 172.6580 0.0000 0.0000 0.0000
# 4 0.0000 0.0000 0.0000 -53.5127 0.0000 0.0000
# 5 0.0000 0.0000 0.0000 0.0000 34.4779 0.0000
# 6 0.0000 0.0000 0.0000 0.0000 0.0000 26.8075
#
#
#
# Elastic Compliance Matrix: (Units=1/GPa)
#
#
# Indices 1 2 3 4 5 6 
#
# 1 0.012795 0.004418 -0.000461 0.000000 0.000000 0.000000
# 2 0.004418 0.025123 -0.000909 0.000000 0.000000 0.000000
# 3 -0.000461 -0.000909 0.005832 0.000000 0.000000 0.000000
# 4 0.000000 0.000000 0.000000 -0.018687 0.000000 0.000000
# 5 0.000000 0.000000 0.000000 0.000000 0.029004 0.000000
# 6 0.000000 0.000000 0.000000 0.000000 0.000000 0.037303
#
#
# Mechanical properties :
#
#
# Convention : Reuss Voigt Hill
#
# Bulk Modulus (GPa) = 20.06174 32.12935 26.09555
# Shear Modulus (GPa) = 49.07266 21.76840 35.42053
#
# Velocity S-wave (km/s) = 4.83802 3.22227 4.11032
# Velocity P-wave (km/s) = 6.38574 5.40083 5.91382
#
# Compressibility (1/GPa) = 0.04984611
#
# Stress axis : x y z
#
# Youngs Moduli (GPa) = 78.15814 39.80342 171.46158
#
# Poissons Ratio (x) = -0.17584 0.07907
# Poissons Ratio (y) = -0.34527 0.15578
# Poissons Ratio (z) = 0.03604 0.03616
#
# Static dielectric constant tensor:
#      x y z
#    x 1.799530 0.000000 0.000000 
#    y 0.000000 1.841920 0.000000 
#    z 0.000000 0.000000 1.780980 
# 
# From -- ./inp_files/17326.got.cif
#   From: 2010.05.17/outbox.cif.g08.bks.cpg/sg55_9_cif.got.tgz:17326.got - 2010.06.03 13:27:54.
