data_PCOD9428843
_publ_section_title
;
Structure prediction by ZEFSAII (Michael W. Deem and Ramdas Pophale) SiO2 
 PCOD9428843
Probable space group: P B A M
;
_chemical_formula_sum "Si O2"
_cell_formula_units_Z 48
_cell_length_a 11.778703
_cell_length_b 16.679812
_cell_length_c 12.272942
_cell_angle_alpha 90.000000
_cell_angle_beta 90.000000
_cell_angle_gamma 90.000000
_cell_volume 2411.222593
_symmetry_space_group_name_H-M "P B A M"
_symmetry_group_IT_number 55
_symmetry_cell_setting 'orthorhombic'
loop_
_space_group_symop_operation_xyz
x,y,z
-x,-y,z
1/2+x,1/2-y,-z
1/2-x,1/2+y,-z
-x,-y,-z
x,y,-z
1/2-x,1/2+y,z
1/2+x,1/2-y,z
loop_
_atom_site_type_symbol
_atom_site_label
_atom_site_fract_x
_atom_site_fract_y
_atom_site_fract_z
Si Si1 0.226904 0.297586 0.871687
Si Si2 0.749596 0.015049 0.626477
Si Si3 0.916731 0.147133 0.702917
Si Si4 0.321376 0.642219 0.261368
Si Si5 0.548450 0.084222 0.759538
Si Si6 0.880182 0.314769 0.617578
O O1 0.337254 0.327906 0.805162
O O2 0.204060 0.205004 0.835845
O O3 0.123263 0.356303 0.834807
O O4 0.243301 0.302697 0.000000
O O5 0.747262 0.988793 0.500000
O O6 0.853102 0.075976 0.642264
O O7 0.633242 0.058357 0.661552
O O8 0.769629 0.945848 0.716974
O O9 0.921811 0.224723 0.627055
O O10 0.045015 0.129609 0.734443
O O11 0.254973 0.687045 0.360066
O O12 0.445418 0.135272 0.709618
O O13 0.500000 0.000000 0.806936
O O14 0.906435 0.348954 0.500000
#
# Coordination Sequence:
#
# PCOD9428843 Si02
#       6
#     8   8   8   8   8   8
#     4  10  24  46  69  92 124 171 218 276 332 369
#     4  11  23  38  63  95 136 176 209 258 323 385
#     4  10  23  42  60  92 130 164 219 268 310 387
#     4  11  22  40  60  93 126 170 215 260 305 393
#     4  11  22  42  66  98 132 162 216 277 314 384
#     4  11  22  37  62  94 132 173 207 253 321 382
#
# _framework density 19.906911999999998
#
# number of rings (size 3 to 8) (size 9 to 14) (size 15 to 20)
#    0.000    1.333    3.333    2.000    0.000    5.000 
#    0.000    3.333    0.000    5.000    0.000    0.000 
#    0.000    0.000    0.000    0.000    0.000    0.000 
#
# Total GULP energy -267495.530445 kJ/mol
# GULP energy per Si atom -5572.823551 kJ/mol
# Density = 1.986160 g / cm^3
# Si number density = 19.906912 Si / 1000 Ang^3
#
#
#
# Elastic Constant Matrix: (Units=GPa)
#
#
# Indices 1 2 3 4 5 6 
#
# 1 121.2254 21.2764 32.0188 0.0000 0.0000 0.0000
# 2 21.2764 99.3695 39.9314 0.0000 0.0000 0.0000
# 3 32.0188 39.9314 99.6352 0.0000 0.0000 0.0000
# 4 0.0000 0.0000 0.0000 -110.4618 0.0000 0.0000
# 5 0.0000 0.0000 0.0000 0.0000 1.7997 0.0000
# 6 0.0000 0.0000 0.0000 0.0000 0.0000 24.6564
#
#
#
# Elastic Compliance Matrix: (Units=1/GPa)
#
#
# Indices 1 2 3 4 5 6 
#
# 1 0.009084 -0.000920 -0.002551 0.000000 0.000000 0.000000
# 2 -0.000920 0.012088 -0.004549 0.000000 0.000000 0.000000
# 3 -0.002551 -0.004549 0.012679 0.000000 0.000000 0.000000
# 4 0.000000 0.000000 0.000000 -0.009053 0.000000 0.000000
# 5 0.000000 0.000000 0.000000 0.000000 0.555634 0.000000
# 6 0.000000 0.000000 0.000000 0.000000 0.000000 0.040557
#
#
# Mechanical properties :
#
#
# Convention : Reuss Voigt Hill
#
# Bulk Modulus (GPa) = 56.13991 56.29814 56.21902
# Shear Modulus (GPa) = 7.77644 -1.66756 3.05444
#
# Velocity S-wave (km/s) = 1.97861 -0.91624 1.24004
# Velocity P-wave (km/s) = 5.78639 5.21754 5.50931
#
# Compressibility (1/GPa) = 0.01781264
#
# Stress axis : x y z
#
# Youngs Moduli (GPa) = 110.08050 82.72329 78.86798
#
# Poissons Ratio (x) = 0.07612 0.20116
# Poissons Ratio (y) = 0.10129 0.35878
# Poissons Ratio (z) = 0.28077 0.37631
#
# Static dielectric constant tensor:
#      x y z
#    x 1.701300 0.000000 0.000000 
#    y 0.000000 1.775130 0.000000 
#    z 0.000000 0.000000 1.664880 
# 
# From -- ./inp_files/13195.got.cif
#   From: 2010.05.17/outbox.cif.g08.bks.cpg/sg55_7_cif.got.tgz:13195.got - 2010.06.03 13:27:54.
