data_PCOD9428131
_publ_section_title
;
Structure prediction by ZEFSAII (Michael W. Deem and Ramdas Pophale) SiO2 
 PCOD9428131
Probable space group: P B A M
;
_chemical_formula_sum "Si O2"
_cell_formula_units_Z 40
_cell_length_a 11.730457
_cell_length_b 13.407616
_cell_length_c 12.760427
_cell_angle_alpha 90.000000
_cell_angle_beta 90.000000
_cell_angle_gamma 90.000000
_cell_volume 2006.927585
_symmetry_space_group_name_H-M "P B A M"
_symmetry_group_IT_number 55
_symmetry_cell_setting 'orthorhombic'
loop_
_space_group_symop_operation_xyz
x,y,z
-x,-y,z
1/2+x,1/2-y,-z
1/2-x,1/2+y,-z
-x,-y,-z
x,y,-z
1/2-x,1/2+y,z
1/2+x,1/2-y,z
loop_
_atom_site_type_symbol
_atom_site_label
_atom_site_fract_x
_atom_site_fract_y
_atom_site_fract_z
Si Si1 0.234243 0.054636 0.383023
Si Si2 0.907087 0.075514 0.784026
Si Si3 0.789007 0.259595 0.122196
Si Si4 0.097471 0.220935 0.291772
Si Si5 0.047770 0.600542 0.259284
O O1 0.219908 0.015359 0.500000
O O2 0.177641 0.164785 0.373720
O O3 0.364038 0.067919 0.348702
O O4 0.171155 0.987262 0.295665
O O5 0.832110 0.146195 0.857835
O O6 0.986048 0.152125 0.719248
O O7 0.000000 0.000000 0.834544
O O8 0.671609 0.276971 0.184855
O O9 0.881743 0.332773 0.176204
O O10 0.777362 0.279387 0.000000
O O11 0.052401 0.331918 0.307435
O O12 0.000000 0.500000 0.209078
#
# Coordination Sequence:
#
# PCOD9428131 Si02
#       5
#     8   8   8   8   8
#     4  10  21  38  61  86 113 150 192 233 283 342
#     4   9  19  37  58  85 117 146 186 238 284 337
#     4  10  21  38  60  85 115 153 194 235 283 339
#     4   9  20  37  56  83 118 149 186 234 281 337
#     4  10  21  39  58  83 119 150 188 240 285 335
#
# _framework density 19.930962000000001
#
# number of rings (size 3 to 8) (size 9 to 14) (size 15 to 20)
#    0.000    2.400    0.000    1.200    0.000    8.800 
#    0.000   28.000    0.000    0.000    0.000    0.000 
#    0.000    0.000    0.000    0.000    0.000    0.000 
#
# Total GULP energy -223036.374615 kJ/mol
# GULP energy per Si atom -5575.909365 kJ/mol
# Density = 1.988560 g / cm^3
# Si number density = 19.930962 Si / 1000 Ang^3
#
#
#
# Elastic Constant Matrix: (Units=GPa)
#
#
# Indices 1 2 3 4 5 6 
#
# 1 72.0084 36.8791 25.8560 0.0000 0.0000 0.0000
# 2 36.8791 116.4993 10.5449 0.0000 0.0000 0.0000
# 3 25.8560 10.5449 51.7321 0.0000 0.0000 0.0000
# 4 0.0000 0.0000 0.0000 14.8534 0.0000 0.0000
# 5 0.0000 0.0000 0.0000 0.0000 -1.4402 0.0000
# 6 0.0000 0.0000 0.0000 0.0000 0.0000 11.7359
#
#
#
# Elastic Compliance Matrix: (Units=1/GPa)
#
#
# Indices 1 2 3 4 5 6 
#
# 1 0.019862 -0.005490 -0.008808 0.000000 0.000000 0.000000
# 2 -0.005490 0.010263 0.000652 0.000000 0.000000 0.000000
# 3 -0.008808 0.000652 0.023600 0.000000 0.000000 0.000000
# 4 0.000000 0.000000 0.000000 0.067325 0.000000 0.000000
# 5 0.000000 0.000000 0.000000 0.000000 -0.694343 0.000000
# 6 0.000000 0.000000 0.000000 0.000000 0.000000 0.085209
#
#
# Mechanical properties :
#
#
# Convention : Reuss Voigt Hill
#
# Bulk Modulus (GPa) = 37.83277 42.97777 40.40527
# Shear Modulus (GPa) = -11.06238 16.16045 2.54904
#
# Velocity S-wave (km/s) = -2.35847 2.85058 1.13213
# Velocity P-wave (km/s) = 3.40684 5.69601 4.69314
#
# Compressibility (1/GPa) = 0.02643211
#
# Stress axis : x y z
#
# Youngs Moduli (GPa) = 50.34809 97.44027 42.37348
#
# Poissons Ratio (x) = 0.53497 0.37322
# Poissons Ratio (y) = 0.27642 -0.02763
# Poissons Ratio (z) = 0.44346 -0.06354
#
# Static dielectric constant tensor:
#      x y z
#    x 1.718030 0.000000 0.000000 
#    y 0.000000 1.766760 0.000000 
#    z 0.000000 0.000000 1.652590 
# 
# From -- ./inp_files/12997.got.cif
#   From: 2010.05.17/outbox.cif.g08.bks.cpg/sg55_7_cif.got.tgz:12997.got - 2010.06.03 13:27:54.
