data_PCOD9428433
_publ_section_title
;
Structure prediction by ZEFSAII (Michael W. Deem and Ramdas Pophale) SiO2 
 PCOD9428433
Probable space group: P B A M
;
_chemical_formula_sum "Si O2"
_cell_formula_units_Z 64
_cell_length_a 22.608485
_cell_length_b 9.420426
_cell_length_c 13.998211
_cell_angle_alpha 90.000000
_cell_angle_beta 90.000000
_cell_angle_gamma 90.000000
_cell_volume 2981.360815
_symmetry_space_group_name_H-M "P B A M"
_symmetry_group_IT_number 55
_symmetry_cell_setting 'orthorhombic'
loop_
_space_group_symop_operation_xyz
x,y,z
-x,-y,z
1/2+x,1/2-y,-z
1/2-x,1/2+y,-z
-x,-y,-z
x,y,-z
1/2-x,1/2+y,z
1/2+x,1/2-y,z
loop_
_atom_site_type_symbol
_atom_site_label
_atom_site_fract_x
_atom_site_fract_y
_atom_site_fract_z
Si Si1 0.929259 0.084868 0.609096
Si Si2 0.210857 0.912120 0.603202
Si Si3 0.362409 0.465224 0.109696
Si Si4 0.553052 0.764094 0.789762
Si Si5 0.232841 0.337297 0.107887
Si Si6 0.626578 0.029003 0.222926
Si Si7 0.573675 0.322807 0.753818
Si Si8 0.733237 0.854240 0.283989
O O1 0.951877 0.090856 0.500000
O O2 0.858964 0.097378 0.600419
O O3 0.945826 0.215239 0.678325
O O4 0.939518 0.935817 0.667814
O O5 0.233847 0.958029 0.500000
O O6 0.237655 0.763934 0.634938
O O7 0.224828 0.019933 0.686560
O O8 0.398844 0.332640 0.155087
O O9 0.292627 0.431808 0.108602
O O10 0.382419 0.596411 0.174359
O O11 0.380788 0.485017 0.000000
O O12 0.485969 0.717656 0.812169
O O13 0.572269 0.926609 0.805820
O O14 0.173607 0.419084 0.142069
O O15 0.249267 0.218382 0.185290
O O16 0.224772 0.283169 0.000000
O O17 0.603223 0.172105 0.273465
O O18 0.668158 0.922865 0.283233
#
# Coordination Sequence:
#
# PCOD9428433 Si02
#       8
#     8   8   8   8   8   8   8   8
#     4  10  21  41  68  97 127 167 222 275 325 384
#     4  11  23  39  64  97 132 171 213 266 335 400
#     4  10  22  42  69  99 127 167 220 269 325 385
#     4  11  23  44  67  92 131 175 222 270 324 383
#     4  11  25  42  69  99 133 170 215 273 336 402
#     4  12  25  42  66  95 135 173 213 264 337 387
#     4  11  25  42  64  96 131 174 223 270 318 387
#     4  12  22  42  64  93 134 171 212 268 325 400
#
# _framework density 21.466707
#
# number of rings (size 3 to 8) (size 9 to 14) (size 15 to 20)
#    0.000    1.000    3.750    3.750    1.750    3.500 
#    0.000    1.250    0.000    3.750    0.000    0.000 
#    0.000    0.000    0.000    0.000    0.000    0.000 
#
# Total GULP energy -357367.404989 kJ/mol
# GULP energy per Si atom -5583.865703 kJ/mol
# Density = 2.141785 g / cm^3
# Si number density = 21.466707 Si / 1000 Ang^3
#
#
#
# Elastic Constant Matrix: (Units=GPa)
#
#
# Indices 1 2 3 4 5 6 
#
# 1 63.4748 6.2013 1.6927 0.0000 0.0000 0.0000
# 2 6.2013 115.6943 28.9969 0.0000 0.0000 0.0000
# 3 1.6927 28.9969 94.5410 0.0000 0.0000 0.0000
# 4 0.0000 0.0000 0.0000 11.6911 0.0000 0.0000
# 5 0.0000 0.0000 0.0000 0.0000 -3.2460 0.0000
# 6 0.0000 0.0000 0.0000 0.0000 0.0000 32.7390
#
#
#
# Elastic Compliance Matrix: (Units=1/GPa)
#
#
# Indices 1 2 3 4 5 6 
#
# 1 0.015837 -0.000843 -0.000025 0.000000 0.000000 0.000000
# 2 -0.000843 0.009408 -0.002870 0.000000 0.000000 0.000000
# 3 -0.000025 -0.002870 0.011458 0.000000 0.000000 0.000000
# 4 0.000000 0.000000 0.000000 0.085535 0.000000 0.000000
# 5 0.000000 0.000000 0.000000 0.000000 -0.308073 0.000000
# 6 0.000000 0.000000 0.000000 0.000000 0.000000 0.030545
#
#
# Mechanical properties :
#
#
# Convention : Reuss Voigt Hill
#
# Bulk Modulus (GPa) = 34.21468 38.61021 36.41245
# Shear Modulus (GPa) = -36.21324 24.02478 -6.09423
#
# Velocity S-wave (km/s) = -4.11170 3.34902 -1.68674
# Velocity P-wave (km/s) = 2.56289 5.74280 3.63396
#
# Compressibility (1/GPa) = 0.02922722
#
# Stress axis : x y z
#
# Youngs Moduli (GPa) = 63.14220 106.29166 87.27311
#
# Poissons Ratio (x) = 0.08956 0.00219
# Poissons Ratio (y) = 0.05320 0.25052
# Poissons Ratio (z) = 0.00159 0.30511
#
# Static dielectric constant tensor:
#      x y z
#    x 1.860910 0.000000 0.000000 
#    y 0.000000 1.800140 0.000000 
#    z 0.000000 0.000000 1.806160 
# 
# From -- ./inp_files/19972.got.cif
#   From: 2010.05.17/outbox.cif.g08.bks.cpg/sg55_10_cif.got.tgz:19972.got - 2010.06.03 13:27:54.
