data_PCOD9428884
_publ_section_title
;
Structure prediction by ZEFSAII (Michael W. Deem and Ramdas Pophale) SiO2 
 PCOD9428884
Probable space group: P B A M
;
_chemical_formula_sum "Si O2"
_cell_formula_units_Z 32
_cell_length_a 24.509912
_cell_length_b 4.829567
_cell_length_c 11.216952
_cell_angle_alpha 90.000000
_cell_angle_beta 90.000000
_cell_angle_gamma 90.000000
_cell_volume 1327.775983
_symmetry_space_group_name_H-M "P B A M"
_symmetry_group_IT_number 55
_symmetry_cell_setting 'orthorhombic'
loop_
_space_group_symop_operation_xyz
x,y,z
-x,-y,z
1/2+x,1/2-y,-z
1/2-x,1/2+y,-z
-x,-y,-z
x,y,-z
1/2-x,1/2+y,z
1/2+x,1/2-y,z
loop_
_atom_site_type_symbol
_atom_site_label
_atom_site_fract_x
_atom_site_fract_y
_atom_site_fract_z
Si Si1 0.712533 0.247424 0.500000
Si Si2 0.925623 0.095793 0.500000
Si Si3 0.362972 0.023422 0.304355
Si Si4 0.537517 0.268065 0.735122
Si Si5 0.213191 0.868680 0.863550
O O1 0.732540 0.562283 0.500000
O O2 0.676325 0.166192 0.386549
O O3 0.899358 0.298039 0.604007
O O4 0.948794 0.886700 0.395719
O O5 0.328809 0.241382 0.228239
O O6 0.403197 0.837378 0.223149
O O7 0.500000 0.500000 0.797923
O O8 0.500000 0.000000 0.726536
O O9 0.268185 0.683679 0.847823
O O10 0.195171 0.828815 0.000000
#
# Coordination Sequence:
#
# PCOD9428884 Si02
#       5
#     4   4   8   8   8
#     4  11  25  36  53  85 126 160 191 241 312 371
#     4  11  23  37  57  92 124 167 197 243 306 364
#     4  11  25  38  64  89 129 162 208 253 314 371
#     4  12  25  39  59  90 131 168 212 255 298 374
#     4  10  23  44  69  93 120 162 213 261 310 370
#
# _framework density 24.100453999999999
#
# number of rings (size 3 to 8) (size 9 to 14) (size 15 to 20)
#    0.000    1.000    2.500    3.750   10.500    0.000 
#    0.000    0.000    0.000    1.500    0.000    0.000 
#    0.000    1.000    0.000    0.000    0.000    0.000 
#
# Total GULP energy -178196.863041 kJ/mol
# GULP energy per Si atom -5568.651970 kJ/mol
# Density = 2.404560 g / cm^3
# Si number density = 24.100454 Si / 1000 Ang^3
#
#
#
# Elastic Constant Matrix: (Units=GPa)
#
#
# Indices 1 2 3 4 5 6 
#
# 1 75.5842 32.5886 9.6086 0.0000 0.0000 0.0000
# 2 32.5886 101.2931 17.1286 0.0000 0.0000 0.0000
# 3 9.6086 17.1286 52.9746 0.0000 0.0000 0.0000
# 4 0.0000 0.0000 0.0000 23.7016 0.0000 0.0000
# 5 0.0000 0.0000 0.0000 0.0000 -13.6301 0.0000
# 6 0.0000 0.0000 0.0000 0.0000 0.0000 28.9452
#
#
#
# Elastic Compliance Matrix: (Units=1/GPa)
#
#
# Indices 1 2 3 4 5 6 
#
# 1 0.015441 -0.004754 -0.001263 0.000000 0.000000 0.000000
# 2 -0.004754 0.011907 -0.002988 0.000000 0.000000 0.000000
# 3 -0.001263 -0.002988 0.020072 0.000000 0.000000 0.000000
# 4 0.000000 0.000000 0.000000 0.042191 0.000000 0.000000
# 5 0.000000 0.000000 0.000000 0.000000 -0.073367 0.000000
# 6 0.000000 0.000000 0.000000 0.000000 0.000000 0.034548
#
#
# Mechanical properties :
#
#
# Convention : Reuss Voigt Hill
#
# Bulk Modulus (GPa) = 34.00265 38.72261 36.36263
# Shear Modulus (GPa) = 63.60852 19.17174 41.39013
#
# Velocity S-wave (km/s) = 5.14299 2.82351 4.14865
# Velocity P-wave (km/s) = 7.02898 5.17027 6.17001
#
# Compressibility (1/GPa) = 0.02940947
#
# Stress axis : x y z
#
# Youngs Moduli (GPa) = 64.76430 83.98391 49.82023
#
# Poissons Ratio (x) = 0.39926 0.06295
# Poissons Ratio (y) = 0.30789 0.14885
# Poissons Ratio (z) = 0.08183 0.25092
#
# Static dielectric constant tensor:
#      x y z
#    x 2.107270 0.000000 0.000000 
#    y 0.000000 1.951150 0.000000 
#    z 0.000000 0.000000 2.355720 
# 
# From -- ./inp_files/15509.got.cif
#   From: 2010.05.17/outbox.cif.g08.bks.cpg/sg55_8_cif.got.tgz:15509.got - 2010.06.03 13:27:54.
