data_PCOD9428171
_publ_section_title
;
Structure prediction by ZEFSAII (Michael W. Deem and Ramdas Pophale) SiO2 
 PCOD9428171
Probable space group: P B A M
;
_chemical_formula_sum "Si O2"
_cell_formula_units_Z 48
_cell_length_a 21.200828
_cell_length_b 15.409396
_cell_length_c 7.605237
_cell_angle_alpha 90.000000
_cell_angle_beta 90.000000
_cell_angle_gamma 90.000000
_cell_volume 2484.569738
_symmetry_space_group_name_H-M "P B A M"
_symmetry_group_IT_number 55
_symmetry_cell_setting 'orthorhombic'
loop_
_space_group_symop_operation_xyz
x,y,z
-x,-y,z
1/2+x,1/2-y,-z
1/2-x,1/2+y,-z
-x,-y,-z
x,y,-z
1/2-x,1/2+y,z
1/2+x,1/2-y,z
loop_
_atom_site_type_symbol
_atom_site_label
_atom_site_fract_x
_atom_site_fract_y
_atom_site_fract_z
Si Si1 0.603707 0.031136 0.500000
Si Si2 0.155983 0.204209 0.787215
Si Si3 0.804297 0.605185 0.787463
Si Si4 0.183066 0.009992 0.788202
Si Si5 0.950970 0.072636 0.293145
Si Si6 0.988031 0.754890 0.802742
Si Si7 0.527917 0.868383 0.500000
O O1 0.640542 0.062143 0.326837
O O2 0.536167 0.076529 0.500000
O O3 0.588728 0.929315 0.500000
O O4 0.194382 0.291779 0.741232
O O5 0.181277 0.110512 0.723928
O O6 0.082454 0.219247 0.736248
O O7 0.155960 0.199621 0.000000
O O8 0.741833 0.550849 0.738016
O O9 0.813382 0.598836 0.000000
O O10 0.118720 0.963405 0.732807
O O11 0.183888 0.013772 0.000000
O O12 0.961935 0.088481 0.500000
O O13 0.969027 0.159929 0.195645
O O14 0.000000 0.000000 0.232326
O O15 0.021916 0.689569 0.672657
O O16 0.980456 0.719678 0.000000
#
# Coordination Sequence:
#
# PCOD9428171 Si02
#       7
#     4   8   8   8   8   8   4
#     4  11  24  42  66  88 123 160 203 267 311 355
#     4   9  18  36  62  87 116 162 211 252 304 372
#     4  10  22  42  64  90 124 165 214 255 310 380
#     4  10  21  38  61  89 124 164 210 262 313 372
#     4  11  22  35  57  92 131 160 203 263 318 373
#     4  11  21  38  63  88 124 166 206 256 314 372
#     4  11  24  42  61  94 122 154 214 258 308 374
#
# _framework density 19.319239
#
# number of rings (size 3 to 8) (size 9 to 14) (size 15 to 20)
#    0.000    1.667    4.167    0.500    1.167    1.333 
#    4.500    1.667    0.000    0.000    0.000    0.000 
#    0.000    0.000    0.000    0.000    0.000    0.000 
#
# Total GULP energy -267883.143704 kJ/mol
# GULP energy per Si atom -5580.898827 kJ/mol
# Density = 1.927527 g / cm^3
# Si number density = 19.319239 Si / 1000 Ang^3
#
#
#
# Elastic Constant Matrix: (Units=GPa)
#
#
# Indices 1 2 3 4 5 6 
#
# 1 87.6634 66.5500 17.5749 0.0000 0.0000 0.0000
# 2 66.5500 156.4600 35.6953 0.0000 0.0000 0.0000
# 3 17.5749 35.6953 61.5209 0.0000 0.0000 0.0000
# 4 0.0000 0.0000 0.0000 1.5269 0.0000 0.0000
# 5 0.0000 0.0000 0.0000 0.0000 25.5369 0.0000
# 6 0.0000 0.0000 0.0000 0.0000 0.0000 34.3851
#
#
#
# Elastic Compliance Matrix: (Units=1/GPa)
#
#
# Indices 1 2 3 4 5 6 
#
# 1 0.016878 -0.007006 -0.000756 0.000000 0.000000 0.000000
# 2 -0.007006 0.010275 -0.003960 0.000000 0.000000 0.000000
# 3 -0.000756 -0.003960 0.018768 0.000000 0.000000 0.000000
# 4 0.000000 0.000000 0.000000 0.654907 0.000000 0.000000
# 5 0.000000 0.000000 0.000000 0.000000 0.039159 0.000000
# 6 0.000000 0.000000 0.000000 0.000000 0.000000 0.029082
#
#
# Mechanical properties :
#
#
# Convention : Reuss Voigt Hill
#
# Bulk Modulus (GPa) = 44.49290 60.58719 52.54005
# Shear Modulus (GPa) = 6.24994 24.67805 15.46400
#
# Velocity S-wave (km/s) = 1.80059 3.57793 2.83228
# Velocity P-wave (km/s) = 5.23480 6.96404 6.16040
#
# Compressibility (1/GPa) = 0.02247549
#
# Stress axis : x y z
#
# Youngs Moduli (GPa) = 59.24930 97.32305 53.28085
#
# Poissons Ratio (x) = 0.68188 0.04030
# Poissons Ratio (y) = 0.41512 0.21100
# Poissons Ratio (z) = 0.04481 0.38542
#
# Static dielectric constant tensor:
#      x y z
#    x 1.643090 0.000000 0.000000 
#    y 0.000000 1.731910 0.000000 
#    z 0.000000 0.000000 1.692520 
# 
# From -- ./inp_files/7448.got.cif
#   From: 2010.05.17/outbox.cif.g08.bks.cpg/sg55_4_cif.got.tgz:7448.got - 2010.06.03 13:27:54.
