data_PCOD9428490
_publ_section_title
;
Structure prediction by ZEFSAII (Michael W. Deem and Ramdas Pophale) SiO2 
 PCOD9428490
Probable space group: P B A M
;
_chemical_formula_sum "Si O2"
_cell_formula_units_Z 36
_cell_length_a 11.486007
_cell_length_b 22.594894
_cell_length_c 7.547285
_cell_angle_alpha 90.000000
_cell_angle_beta 90.000000
_cell_angle_gamma 90.000000
_cell_volume 1958.709975
_symmetry_space_group_name_H-M "P B A M"
_symmetry_group_IT_number 55
_symmetry_cell_setting 'orthorhombic'
loop_
_space_group_symop_operation_xyz
x,y,z
-x,-y,z
1/2+x,1/2-y,-z
1/2-x,1/2+y,-z
-x,-y,-z
x,y,-z
1/2-x,1/2+y,z
1/2+x,1/2-y,z
loop_
_atom_site_type_symbol
_atom_site_label
_atom_site_fract_x
_atom_site_fract_y
_atom_site_fract_z
Si Si1 0.233214 0.415026 0.500000
Si Si2 0.785578 0.446932 0.500000
Si Si3 0.488938 0.147897 0.500000
Si Si4 0.857376 0.280960 0.790841
Si Si5 0.841943 0.874061 0.208558
Si Si6 0.385895 0.355909 0.789924
O O1 0.197744 0.483393 0.500000
O O2 0.120231 0.373489 0.500000
O O3 0.310775 0.399456 0.670855
O O4 0.712474 0.424817 0.669995
O O5 0.904921 0.409634 0.500000
O O6 0.452855 0.186642 0.329441
O O7 0.736228 0.315482 0.757864
O O8 0.851141 0.211793 0.747957
O O9 0.885067 0.286178 0.000000
O O10 0.976917 0.863224 0.248537
O O11 0.831302 0.887907 0.000000
O O12 0.368448 0.365474 0.000000
#
# Coordination Sequence:
#
# PCOD9428490 Si02
#       6
#     4   4   4   8   8   8
#     4  12  25  37  55  85 116 150 192 233 274 326
#     4  10  22  41  58  76 112 154 194 237 275 321
#     4  10  22  38  59  83 110 151 195 229 275 333
#     4   9  19  37  60  84 113 146 180 230 288 338
#     4   9  19  37  60  82 109 148 191 231 282 339
#     4  10  22  37  57  88 117 145 184 233 287 339
#
# _framework density 18.379445
#
# number of rings (size 3 to 8) (size 9 to 14) (size 15 to 20)
#    0.000    2.222    0.000    1.667    3.111    3.556 
#    0.000    2.222    0.000    6.667    0.000    0.000 
#    0.000    0.000    0.000    0.000    0.000    0.000 
#
# Total GULP energy -201066.419158 kJ/mol
# GULP energy per Si atom -5585.178310 kJ/mol
# Density = 1.833761 g / cm^3
# Si number density = 18.379445 Si / 1000 Ang^3
#
#
#
# Elastic Constant Matrix: (Units=GPa)
#
#
# Indices 1 2 3 4 5 6 
#
# 1 54.9977 -19.3084 18.6329 0.0000 0.0000 0.0000
# 2 -19.3084 30.0696 5.3854 0.0000 0.0000 0.0000
# 3 18.6329 5.3854 41.9705 0.0000 0.0000 0.0000
# 4 0.0000 0.0000 0.0000 64.2221 0.0000 0.0000
# 5 0.0000 0.0000 0.0000 0.0000 17.4553 0.0000
# 6 0.0000 0.0000 0.0000 0.0000 0.0000 6.5904
#
#
#
# Elastic Compliance Matrix: (Units=1/GPa)
#
#
# Indices 1 2 3 4 5 6 
#
# 1 0.032575 0.024060 -0.017549 0.000000 0.000000 0.000000
# 2 0.024060 0.051810 -0.017330 0.000000 0.000000 0.000000
# 3 -0.017549 -0.017330 0.033841 0.000000 0.000000 0.000000
# 4 0.000000 0.000000 0.000000 0.015571 0.000000 0.000000
# 5 0.000000 0.000000 0.000000 0.000000 0.057289 0.000000
# 6 0.000000 0.000000 0.000000 0.000000 0.000000 0.151736
#
#
# Mechanical properties :
#
#
# Convention : Reuss Voigt Hill
#
# Bulk Modulus (GPa) = 10.35316 15.16195 12.75755
# Shear Modulus (GPa) = 12.60544 25.80874 19.20709
#
# Velocity S-wave (km/s) = 2.62170 3.75135 3.23620
# Velocity P-wave (km/s) = 3.84833 5.19912 4.57387
#
# Compressibility (1/GPa) = 0.09658889
#
# Stress axis : x y z
#
# Youngs Moduli (GPa) = 30.69826 19.30146 29.55009
#
# Poissons Ratio (x) = -0.46440 0.51858
# Poissons Ratio (y) = -0.73861 0.51209
# Poissons Ratio (z) = 0.53873 0.33448
#
# Static dielectric constant tensor:
#      x y z
#    x 1.609930 0.000000 0.000000 
#    y 0.000000 1.598910 0.000000 
#    z 0.000000 0.000000 1.638060 
# 
# From -- ./inp_files/2170.got.cif
#   From: 2010.05.17/outbox.cif.g08.bks.cpg/sg55_2_cif.got.tgz:2170.got - 2010.06.03 13:27:54.
