data_PCOD9428762
_publ_section_title
;
Structure prediction by ZEFSAII (Michael W. Deem and Ramdas Pophale) SiO2 
 PCOD9428762
Probable space group: P B A M
;
_chemical_formula_sum "Si O2"
_cell_formula_units_Z 40
_cell_length_a 9.956149
_cell_length_b 14.526356
_cell_length_c 15.025498
_cell_angle_alpha 90.000000
_cell_angle_beta 90.000000
_cell_angle_gamma 90.000000
_cell_volume 2173.086160
_symmetry_space_group_name_H-M "P B A M"
_symmetry_group_IT_number 55
_symmetry_cell_setting 'orthorhombic'
loop_
_space_group_symop_operation_xyz
x,y,z
-x,-y,z
1/2+x,1/2-y,-z
1/2-x,1/2+y,-z
-x,-y,-z
x,y,-z
1/2-x,1/2+y,z
1/2+x,1/2-y,z
loop_
_atom_site_type_symbol
_atom_site_label
_atom_site_fract_x
_atom_site_fract_y
_atom_site_fract_z
Si Si1 0.590000 0.590557 0.602121
Si Si2 0.597127 0.083542 0.605309
Si Si3 0.503652 0.246857 0.729393
Si Si4 0.643304 0.630552 0.000000
Si Si5 0.241675 0.723810 0.853154
Si Si6 0.676025 0.413206 0.000000
O O1 0.500000 0.500000 0.605948
O O2 0.582886 0.627480 0.500000
O O3 0.745134 0.565023 0.619696
O O4 0.536468 0.662714 0.673918
O O5 0.577475 0.099054 0.500000
O O6 0.557891 0.172764 0.660148
O O7 0.500000 0.000000 0.631734
O O8 0.617433 0.261897 0.803599
O O9 0.371282 0.212045 0.779044
O O10 0.697503 0.689380 0.915451
O O11 0.687720 0.523525 0.000000
O O12 0.480552 0.620777 0.000000
O O13 0.255754 0.634595 0.915183
#
# Coordination Sequence:
#
# PCOD9428762 Si02
#       6
#     8   8   8   4   8   4
#     4  10  23  41  62  90 125 169 213 253 305 365
#     4  10  23  41  61  90 128 168 209 256 308 360
#     4  12  23  41  62  92 128 162 205 259 304 362
#     4  10  22  43  66  89 122 159 198 247 312 378
#     4  11  24  40  63  95 123 155 205 256 304 369
#     4  10  22  43  68  87 118 165 197 246 314 372
#
# _framework density 18.407001999999999
#
# number of rings (size 3 to 8) (size 9 to 14) (size 15 to 20)
#    0.000    1.400    4.000    0.600    2.800    3.200 
#    0.000    1.000    0.000    0.000    0.000    0.000 
#    0.000    0.000    0.000    0.000    0.000    0.000 
#
# Total GULP energy -223371.007339 kJ/mol
# GULP energy per Si atom -5584.275183 kJ/mol
# Density = 1.836511 g / cm^3
# Si number density = 18.407002 Si / 1000 Ang^3
#
#
#
# Elastic Constant Matrix: (Units=GPa)
#
#
# Indices 1 2 3 4 5 6 
#
# 1 74.9898 49.8187 39.3270 0.0000 0.0000 0.0000
# 2 49.8187 88.4167 43.6434 0.0000 0.0000 0.0000
# 3 39.3270 43.6434 60.5892 0.0000 0.0000 0.0000
# 4 0.0000 0.0000 0.0000 11.0413 0.0000 0.0000
# 5 0.0000 0.0000 0.0000 0.0000 59.0690 0.0000
# 6 0.0000 0.0000 0.0000 0.0000 0.0000 30.7330
#
#
#
# Elastic Compliance Matrix: (Units=1/GPa)
#
#
# Indices 1 2 3 4 5 6 
#
# 1 0.024179 -0.009120 -0.009125 0.000000 0.000000 0.000000
# 2 -0.009120 0.020990 -0.009200 0.000000 0.000000 0.000000
# 3 -0.009125 -0.009200 0.029054 0.000000 0.000000 0.000000
# 4 0.000000 0.000000 0.000000 0.090569 0.000000 0.000000
# 5 0.000000 0.000000 0.000000 0.000000 0.016929 0.000000
# 6 0.000000 0.000000 0.000000 0.000000 0.000000 0.032538
#
#
# Mechanical properties :
#
#
# Convention : Reuss Voigt Hill
#
# Bulk Modulus (GPa) = 51.72247 54.39707 53.05977
# Shear Modulus (GPa) = 18.14261 26.24909 22.19585
#
# Velocity S-wave (km/s) = 3.14289 3.78039 3.47628
# Velocity P-wave (km/s) = 6.42890 6.97651 6.70829
#
# Compressibility (1/GPa) = 0.01933396
#
# Stress axis : x y z
#
# Youngs Moduli (GPa) = 41.35797 47.64234 34.41823
#
# Poissons Ratio (x) = 0.43448 0.31407
# Poissons Ratio (y) = 0.37717 0.31665
# Poissons Ratio (z) = 0.37740 0.43831
#
# Static dielectric constant tensor:
#      x y z
#    x 1.632140 0.000000 0.000000 
#    y 0.000000 1.593840 0.000000 
#    z 0.000000 0.000000 1.631450 
# 
# From -- ./inp_files/17103.got.cif
#   From: 2010.05.17/outbox.cif.g08.bks.cpg/sg55_9_cif.got.tgz:17103.got - 2010.06.03 13:27:54.
