data_PCOD9428378
_publ_section_title
;
Structure prediction by ZEFSAII (Michael W. Deem and Ramdas Pophale) SiO2 
 PCOD9428378
Probable space group: P B A M
;
_chemical_formula_sum "Si O2"
_cell_formula_units_Z 64
_cell_length_a 12.068738
_cell_length_b 14.508585
_cell_length_c 17.238239
_cell_angle_alpha 90.000000
_cell_angle_beta 90.000000
_cell_angle_gamma 90.000000
_cell_volume 3018.421012
_symmetry_space_group_name_H-M "P B A M"
_symmetry_group_IT_number 55
_symmetry_cell_setting 'orthorhombic'
loop_
_space_group_symop_operation_xyz
x,y,z
-x,-y,z
1/2+x,1/2-y,-z
1/2-x,1/2+y,-z
-x,-y,-z
x,y,-z
1/2-x,1/2+y,z
1/2+x,1/2-y,z
loop_
_atom_site_type_symbol
_atom_site_label
_atom_site_fract_x
_atom_site_fract_y
_atom_site_fract_z
Si Si1 0.976191 0.216999 0.907544
Si Si2 0.279673 0.422569 0.913045
Si Si3 0.258712 0.590075 0.652761
Si Si4 0.017571 0.099461 0.412080
Si Si5 0.899741 0.574022 0.667491
Si Si6 0.106120 0.068216 0.808485
Si Si7 0.447643 0.898588 0.842454
Si Si8 0.056132 0.707112 0.592985
O O1 0.063671 0.153015 0.861012
O O2 0.971956 0.316432 0.867086
O O3 0.860735 0.163029 0.899155
O O4 0.000585 0.223236 0.000000
O O5 0.308590 0.504719 0.855449
O O6 0.154594 0.393149 0.900744
O O7 0.301248 0.455604 0.000000
O O8 0.350687 0.611739 0.588792
O O9 0.209281 0.485844 0.649365
O O10 0.328332 0.600522 0.732109
O O11 0.154685 0.656902 0.639044
O O12 0.975260 0.093780 0.500000
O O13 0.958706 0.188484 0.377681
O O14 0.000000 0.000000 0.374619
O O15 0.901376 0.612060 0.755007
O O16 0.000000 0.500000 0.663774
O O17 0.940635 0.653864 0.610312
O O18 0.000000 0.000000 0.795198
O O19 0.500000 0.000000 0.846939
O O20 0.075962 0.704119 0.500000
#
# Coordination Sequence:
#
# PCOD9428378 Si02
#       8
#     8   8   8   8   8   8   8   8
#     4  10  23  41  62  93 131 174 222 269 326 393
#     4  10  21  41  66  91 125 173 221 268 328 392
#     4  11  21  40  66  95 127 169 213 266 332 382
#     4  10  23  42  62  92 131 167 212 263 315 386
#     4   9  21  40  62  94 128 160 207 266 318 388
#     4  10  21  40  64  96 130 169 218 271 328 392
#     4  11  23  42  64  94 134 169 218 277 328 380
#     4  10  23  43  68  98 129 169 216 262 319 388
#
# _framework density 21.203137999999999
#
# number of rings (size 3 to 8) (size 9 to 14) (size 15 to 20)
#    0.000    1.875    1.250    1.500    1.750    7.250 
#    0.000    3.750    0.000    0.000    0.000    0.000 
#    0.000    0.000    0.000    0.000    0.000    0.000 
#
# Total GULP energy -357238.521060 kJ/mol
# GULP energy per Si atom -5581.851892 kJ/mol
# Density = 2.115488 g / cm^3
# Si number density = 21.203138 Si / 1000 Ang^3
#
#
#
# Elastic Constant Matrix: (Units=GPa)
#
#
# Indices 1 2 3 4 5 6 
#
# 1 62.0335 25.3876 14.4248 0.0000 0.0000 0.0000
# 2 25.3876 124.5479 48.1919 0.0000 0.0000 0.0000
# 3 14.4248 48.1919 79.9164 0.0000 0.0000 0.0000
# 4 0.0000 0.0000 0.0000 259.9783 0.0000 0.0000
# 5 0.0000 0.0000 0.0000 0.0000 31.1283 0.0000
# 6 0.0000 0.0000 0.0000 0.0000 0.0000 22.5649
#
#
#
# Elastic Compliance Matrix: (Units=1/GPa)
#
#
# Indices 1 2 3 4 5 6 
#
# 1 0.017695 -0.003093 -0.001329 0.000000 0.000000 0.000000
# 2 -0.003093 0.011013 -0.006083 0.000000 0.000000 0.000000
# 3 -0.001329 -0.006083 0.016421 0.000000 0.000000 0.000000
# 4 0.000000 0.000000 0.000000 0.003846 0.000000 0.000000
# 5 0.000000 0.000000 0.000000 0.000000 0.032125 0.000000
# 6 0.000000 0.000000 0.000000 0.000000 0.000000 0.044317
#
#
# Mechanical properties :
#
#
# Convention : Reuss Voigt Hill
#
# Bulk Modulus (GPa) = 41.45929 49.16740 45.31335
# Shear Modulus (GPa) = 32.36934 74.63386 53.50160
#
# Velocity S-wave (km/s) = 3.91145 5.93935 5.02868
# Velocity P-wave (km/s) = 6.32417 8.38293 7.42525
#
# Compressibility (1/GPa) = 0.02412004
#
# Stress axis : x y z
#
# Youngs Moduli (GPa) = 56.51295 90.80012 60.89686
#
# Poissons Ratio (x) = 0.28082 0.08093
# Poissons Ratio (y) = 0.17478 0.37044
# Poissons Ratio (z) = 0.07510 0.55234
#
# Static dielectric constant tensor:
#      x y z
#    x 1.898490 0.000000 0.000000 
#    y 0.000000 1.779420 0.000000 
#    z 0.000000 0.000000 1.780740 
# 
# From -- ./inp_files/21344.got.cif
#   From: 2010.05.17/outbox.cif.g08.bks.cpg/sg55_11_cif.got.tgz:21344.got - 2010.06.03 13:27:54.
