data_PCOD9428085
_publ_section_title
;
Structure prediction by ZEFSAII (Michael W. Deem and Ramdas Pophale) SiO2 
 PCOD9428085
Probable space group: P B A M
;
_chemical_formula_sum "Si O2"
_cell_formula_units_Z 48
_cell_length_a 9.147883
_cell_length_b 23.001063
_cell_length_c 11.302865
_cell_angle_alpha 90.000000
_cell_angle_beta 90.000000
_cell_angle_gamma 90.000000
_cell_volume 2378.247503
_symmetry_space_group_name_H-M "P B A M"
_symmetry_group_IT_number 55
_symmetry_cell_setting 'orthorhombic'
loop_
_space_group_symop_operation_xyz
x,y,z
-x,-y,z
1/2+x,1/2-y,-z
1/2-x,1/2+y,-z
-x,-y,-z
x,y,-z
1/2-x,1/2+y,z
1/2+x,1/2-y,z
loop_
_atom_site_type_symbol
_atom_site_label
_atom_site_fract_x
_atom_site_fract_y
_atom_site_fract_z
Si Si1 0.428366 0.823369 0.363006
Si Si2 0.172567 0.750112 0.256291
Si Si3 0.670609 0.512786 0.633629
Si Si4 0.426849 0.060491 0.358189
Si Si5 0.577984 0.320040 0.864390
Si Si6 0.410810 0.439309 0.866633
O O1 0.392376 0.831197 0.500000
O O2 0.283502 0.799494 0.301026
O O3 0.560621 0.776939 0.350993
O O4 0.496284 0.882500 0.309674
O O5 0.060518 0.778192 0.162687
O O6 0.282829 0.700224 0.211117
O O7 0.500000 0.500000 0.624329
O O8 0.718217 0.532992 0.500000
O O9 0.756770 0.453136 0.661079
O O10 0.687661 0.554210 0.748061
O O11 0.441987 0.065096 0.500000
O O12 0.500000 0.000000 0.319906
O O13 0.519031 0.385197 0.846316
O O14 0.621109 0.313645 0.000000
O O15 0.500000 0.500000 0.871683
O O16 0.344963 0.431471 0.000000
#
# Coordination Sequence:
#
# PCOD9428085 Si02
#       6
#     8   8   8   8   8   8
#     4  10  21  38  56  81 119 151 189 237 286 348
#     4  10  22  37  58  83 106 152 195 235 289 341
#     4   9  18  32  53  83 110 140 186 227 272 336
#     4   9  19  34  53  79 112 150 183 227 287 343
#     4  10  21  39  60  82 110 145 193 246 287 342
#     4   9  19  34  55  82 114 147 182 230 290 342
#
# _framework density 20.182929999999999
#
# number of rings (size 3 to 8) (size 9 to 14) (size 15 to 20)
#    0.000    2.500    0.000    1.000    7.000    0.000 
#    0.000    3.333    0.000    1.500    0.000    0.000 
#    0.000    0.000    0.000    0.000    0.000    0.000 
#
# Total GULP energy -267230.293610 kJ/mol
# GULP energy per Si atom -5567.297784 kJ/mol
# Density = 2.013699 g / cm^3
# Si number density = 20.182930 Si / 1000 Ang^3
#
#
#
# Elastic Constant Matrix: (Units=GPa)
#
#
# Indices 1 2 3 4 5 6 
#
# 1 80.1257 -1.2839 -9.3083 0.0000 0.0000 0.0000
# 2 -1.2839 65.4709 -8.9517 0.0000 0.0000 0.0000
# 3 -9.3083 -8.9517 90.9577 0.0000 0.0000 0.0000
# 4 0.0000 0.0000 0.0000 21.3676 0.0000 0.0000
# 5 0.0000 0.0000 0.0000 0.0000 7.2292 0.0000
# 6 0.0000 0.0000 0.0000 0.0000 0.0000 31.3016
#
#
#
# Elastic Compliance Matrix: (Units=1/GPa)
#
#
# Indices 1 2 3 4 5 6 
#
# 1 0.012643 0.000431 0.001336 0.000000 0.000000 0.000000
# 2 0.000431 0.015497 0.001569 0.000000 0.000000 0.000000
# 3 0.001336 0.001569 0.011285 0.000000 0.000000 0.000000
# 4 0.000000 0.000000 0.000000 0.046800 0.000000 0.000000
# 5 0.000000 0.000000 0.000000 0.000000 0.138327 0.000000
# 6 0.000000 0.000000 0.000000 0.000000 0.000000 0.031947
#
#
# Mechanical properties :
#
#
# Convention : Reuss Voigt Hill
#
# Bulk Modulus (GPa) = 21.69349 21.94073 21.81711
# Shear Modulus (GPa) = 18.85423 29.05292 23.95357
#
# Velocity S-wave (km/s) = 3.05973 3.79816 3.44877
# Velocity P-wave (km/s) = 4.82228 5.48901 5.16641
#
# Compressibility (1/GPa) = 0.04609677
#
# Stress axis : x y z
#
# Youngs Moduli (GPa) = 79.09822 64.52877 88.61089
#
# Poissons Ratio (x) = -0.02779 -0.11840
# Poissons Ratio (y) = -0.03406 -0.13905
# Poissons Ratio (z) = -0.10569 -0.10126
#
# Static dielectric constant tensor:
#      x y z
#    x 1.723970 0.000000 0.000000 
#    y 0.000000 1.749790 0.000000 
#    z 0.000000 0.000000 1.762040 
# 
# From -- ./inp_files/12252.got.cif
#   From: 2010.05.17/outbox.cif.g08.bks.cpg/sg55_7_cif.got.tgz:12252.got - 2010.06.03 13:27:54.
