data_PCOD9428913
_publ_section_title
;
Structure prediction by ZEFSAII (Michael W. Deem and Ramdas Pophale) SiO2 
 PCOD9428913
Probable space group: P B A M
;
_chemical_formula_sum "Si O2"
_cell_formula_units_Z 36
_cell_length_a 9.832942
_cell_length_b 9.322747
_cell_length_c 17.713848
_cell_angle_alpha 90.000000
_cell_angle_beta 90.000000
_cell_angle_gamma 90.000000
_cell_volume 1623.828987
_symmetry_space_group_name_H-M "P B A M"
_symmetry_group_IT_number 55
_symmetry_cell_setting 'orthorhombic'
loop_
_space_group_symop_operation_xyz
x,y,z
-x,-y,z
1/2+x,1/2-y,-z
1/2-x,1/2+y,-z
-x,-y,-z
x,y,-z
1/2-x,1/2+y,z
1/2+x,1/2-y,z
loop_
_atom_site_type_symbol
_atom_site_label
_atom_site_fract_x
_atom_site_fract_y
_atom_site_fract_z
Si Si1 0.454803 0.255068 0.500000
Si Si2 0.545770 0.164210 0.089012
Si Si3 0.319267 0.329297 0.824715
Si Si4 0.500000 0.500000 0.616185
Si Si5 0.000000 0.500000 0.377867
Si Si6 0.258070 0.578066 0.719983
O O1 0.429321 0.380336 0.564629
O O2 0.488622 0.136542 0.433291
O O3 0.700318 0.184465 0.113989
O O4 0.455578 0.273214 0.137365
O O5 0.500000 0.000000 0.106592
O O6 0.527515 0.187031 0.000000
O O7 0.308874 0.487820 0.791929
O O8 0.289769 0.229390 0.752201
O O9 0.385810 0.580035 0.664515
O O10 0.132252 0.504725 0.323854
#
# Coordination Sequence:
#
# PCOD9428913 Si02
#       6
#     4   8   8   4   4   8
#     4  10  24  42  64  88 132 168 224 266 336 390
#     4  11  24  45  69 100 139 178 222 275 334 395
#     4  12  23  44  68 101 134 180 222 280 328 403
#     4  11  24  40  60  96 125 172 220 282 315 402
#     4  11  24  42  64  94 125 180 212 274 331 402
#     4  12  24  41  67  96 134 168 226 272 336 388
#
# _framework density 22.169820999999999
#
# number of rings (size 3 to 8) (size 9 to 14) (size 15 to 20)
#    0.000    0.667    2.222    6.000    0.000    5.333 
#    0.000    1.111    0.000    0.000    0.000    0.000 
#    0.000    0.000    0.000    0.000    0.000    0.000 
#
# Total GULP energy -200426.361014 kJ/mol
# GULP energy per Si atom -5567.398917 kJ/mol
# Density = 2.211936 g / cm^3
# Si number density = 22.169821 Si / 1000 Ang^3
#
#
#
# Elastic Constant Matrix: (Units=GPa)
#
#
# Indices 1 2 3 4 5 6 
#
# 1 58.7260 -16.6144 25.3182 0.0000 0.0000 0.0000
# 2 -16.6144 56.2739 6.3653 0.0000 0.0000 0.0000
# 3 25.3182 6.3653 84.3644 0.0000 0.0000 0.0000
# 4 0.0000 0.0000 0.0000 12.0556 0.0000 0.0000
# 5 0.0000 0.0000 0.0000 0.0000 -69.5826 0.0000
# 6 0.0000 0.0000 0.0000 0.0000 0.0000 12.6078
#
#
#
# Elastic Compliance Matrix: (Units=1/GPa)
#
#
# Indices 1 2 3 4 5 6 
#
# 1 0.022233 0.007382 -0.007229 0.000000 0.000000 0.000000
# 2 0.007382 0.020374 -0.003753 0.000000 0.000000 0.000000
# 3 -0.007229 -0.003753 0.014306 0.000000 0.000000 0.000000
# 4 0.000000 0.000000 0.000000 0.082949 0.000000 0.000000
# 5 0.000000 0.000000 0.000000 0.000000 -0.014371 0.000000
# 6 0.000000 0.000000 0.000000 0.000000 0.000000 0.079316
#
#
# Mechanical properties :
#
#
# Convention : Reuss Voigt Hill
#
# Bulk Modulus (GPa) = 20.11518 25.50026 22.80772
# Shear Modulus (GPa) = 21.87433 3.30251 12.58842
#
# Velocity S-wave (km/s) = 3.14454 1.22183 2.38548
# Velocity P-wave (km/s) = 4.71986 3.67664 4.23053
#
# Compressibility (1/GPa) = 0.04971370
#
# Stress axis : x y z
#
# Youngs Moduli (GPa) = 44.97733 49.08178 69.90057
#
# Poissons Ratio (x) = -0.36232 0.50533
# Poissons Ratio (y) = -0.33202 0.26231
# Poissons Ratio (z) = 0.32516 0.18418
#
# Static dielectric constant tensor:
#      x y z
#    x 1.801340 0.000000 0.000000 
#    y 0.000000 1.739570 0.000000 
#    z 0.000000 0.000000 1.773910 
# 
# From -- ./inp_files/22515.got.cif
#   From: 2010.05.17/outbox.cif.g08.bks.cpg/sg55_12_cif.got.tgz:22515.got - 2010.06.03 13:27:54.
