data_PCOD9428435
_publ_section_title
;
Structure prediction by ZEFSAII (Michael W. Deem and Ramdas Pophale) SiO2 
 PCOD9428435
Probable space group: P B A M
;
_chemical_formula_sum "Si O2"
_cell_formula_units_Z 64
_cell_length_a 25.565960
_cell_length_b 7.489736
_cell_length_c 13.894918
_cell_angle_alpha 90.000000
_cell_angle_beta 90.000000
_cell_angle_gamma 90.000000
_cell_volume 2660.630732
_symmetry_space_group_name_H-M "P B A M"
_symmetry_group_IT_number 55
_symmetry_cell_setting 'orthorhombic'
loop_
_space_group_symop_operation_xyz
x,y,z
-x,-y,z
1/2+x,1/2-y,-z
1/2-x,1/2+y,-z
-x,-y,-z
x,y,-z
1/2-x,1/2+y,z
1/2+x,1/2-y,z
loop_
_atom_site_type_symbol
_atom_site_label
_atom_site_fract_x
_atom_site_fract_y
_atom_site_fract_z
Si Si1 0.098926 0.235787 0.391365
Si Si2 0.016822 0.314322 0.246217
Si Si3 0.068229 0.832936 0.392382
Si Si4 0.569639 0.462085 0.109412
Si Si5 0.794815 0.678470 0.312583
Si Si6 0.334313 0.805252 0.107307
Si Si7 0.636923 0.786580 0.110565
Si Si8 0.680474 0.768813 0.315060
O O1 0.097415 0.306629 0.500000
O O2 0.068336 0.351143 0.312517
O O3 0.159153 0.205198 0.360229
O O4 0.068187 0.048028 0.388888
O O5 0.032470 0.153347 0.176651
O O6 0.000000 0.500000 0.197885
O O7 0.971174 0.252206 0.317441
O O8 0.054464 0.774927 0.500000
O O9 0.128148 0.788429 0.368105
O O10 0.624603 0.354893 0.116492
O O11 0.415470 0.331030 0.127142
O O12 0.552492 0.443626 0.000000
O O13 0.796055 0.711093 0.197582
O O14 0.735964 0.693293 0.348791
O O15 0.814345 0.479390 0.328397
O O16 0.364379 0.997136 0.114721
O O17 0.310484 0.799494 0.000000
O O18 0.672809 0.732192 0.200745
O O19 0.653533 0.743107 0.000000
#
# Coordination Sequence:
#
# PCOD9428435 Si02
#       8
#     8   8   8   8   8   8   8   8
#     4  11  24  45  70  96 129 169 224 285 344 410
#     4  12  25  42  68 100 135 176 226 279 338 408
#     4  11  26  47  69  94 127 175 227 281 341 408
#     4  10  21  41  69  98 137 181 223 276 335 395
#     4  11  23  40  65 100 132 173 217 276 341 398
#     4   9  19  38  65  97 135 177 225 273 327 399
#     4   9  20  39  65  96 133 179 226 273 327 392
#     4  11  24  40  67  97 135 175 222 274 337 409
#
# _framework density 24.054449000000002
#
# number of rings (size 3 to 8) (size 9 to 14) (size 15 to 20)
#    0.000    1.500    1.250    3.000    3.500    4.750 
#    0.000    0.625    0.000    3.750    0.000    0.000 
#    0.000    0.000    0.000    0.000    0.000    0.000 
#
# Total GULP energy -358117.664335 kJ/mol
# GULP energy per Si atom -5595.588505 kJ/mol
# Density = 2.399970 g / cm^3
# Si number density = 24.054449 Si / 1000 Ang^3
#
#
#
# Elastic Constant Matrix: (Units=GPa)
#
#
# Indices 1 2 3 4 5 6 
#
# 1 102.7551 14.2638 16.6020 0.0000 0.0000 0.0000
# 2 14.2638 56.5027 20.6353 0.0000 0.0000 0.0000
# 3 16.6020 20.6353 80.7929 0.0000 0.0000 0.0000
# 4 0.0000 0.0000 0.0000 26.5479 0.0000 0.0000
# 5 0.0000 0.0000 0.0000 0.0000 -9.3478 0.0000
# 6 0.0000 0.0000 0.0000 0.0000 0.0000 36.1987
#
#
#
# Elastic Compliance Matrix: (Units=1/GPa)
#
#
# Indices 1 2 3 4 5 6 
#
# 1 0.010269 -0.002009 -0.001597 0.000000 0.000000 0.000000
# 2 -0.002009 0.019912 -0.004673 0.000000 0.000000 0.000000
# 3 -0.001597 -0.004673 0.013899 0.000000 0.000000 0.000000
# 4 0.000000 0.000000 0.000000 0.037668 0.000000 0.000000
# 5 0.000000 0.000000 0.000000 0.000000 -0.106977 0.000000
# 6 0.000000 0.000000 0.000000 0.000000 0.000000 0.027625
#
#
# Mechanical properties :
#
#
# Convention : Reuss Voigt Hill
#
# Bulk Modulus (GPa) = 36.33465 38.11697 37.22581
# Shear Modulus (GPa) = 177.76033 23.24972 100.50502
#
# Velocity S-wave (km/s) = 8.60579 3.11230 6.47094
# Velocity P-wave (km/s) = 10.67165 5.36617 8.44630
#
# Compressibility (1/GPa) = 0.02752194
#
# Stress axis : x y z
#
# Youngs Moduli (GPa) = 97.38249 50.22095 71.94775
#
# Poissons Ratio (x) = 0.10090 0.11490
# Poissons Ratio (y) = 0.19565 0.33620
# Poissons Ratio (z) = 0.15552 0.23468
#
# Static dielectric constant tensor:
#      x y z
#    x 1.948460 0.000000 0.000000 
#    y 0.000000 1.939580 0.000000 
#    z 0.000000 0.000000 1.919200 
# 
# From -- ./inp_files/19976.got.cif
#   From: 2010.05.17/outbox.cif.g08.bks.cpg/sg55_10_cif.got.tgz:19976.got - 2010.06.03 13:27:54.
