data_PCOD9428622
_publ_section_title
;
Structure prediction by ZEFSAII (Michael W. Deem and Ramdas Pophale) SiO2 
 PCOD9428622
Probable space group: P B A M
;
_chemical_formula_sum "Si O2"
_cell_formula_units_Z 26
_cell_length_a 4.782823
_cell_length_b 10.879475
_cell_length_c 18.798332
_cell_angle_alpha 90.000000
_cell_angle_beta 90.000000
_cell_angle_gamma 90.000000
_cell_volume 978.163748
_symmetry_space_group_name_H-M "P B A M"
_symmetry_group_IT_number 55
_symmetry_cell_setting 'orthorhombic'
loop_
_space_group_symop_operation_xyz
x,y,z
-x,-y,z
1/2+x,1/2-y,-z
1/2-x,1/2+y,-z
-x,-y,-z
x,y,-z
1/2-x,1/2+y,z
1/2+x,1/2-y,z
loop_
_atom_site_type_symbol
_atom_site_label
_atom_site_fract_x
_atom_site_fract_y
_atom_site_fract_z
Si Si1 0.000000 0.500000 0.000000
Si Si2 0.000000 0.500000 0.380351
Si Si3 0.842488 0.832294 0.723980
Si Si4 0.823098 0.835744 0.111607
Si Si5 0.764589 0.168299 0.500000
O O1 0.796988 0.438179 0.061256
O O2 0.782959 0.426335 0.331418
O O3 0.831101 0.592245 0.431696
O O4 0.662178 0.706883 0.715398
O O5 0.797207 0.871685 0.805678
O O6 0.634421 0.713312 0.098177
O O7 0.588375 0.295588 0.500000
#
# Coordination Sequence:
#
# PCOD9428622 Si02
#       5
#     2   4   8   8   4
#     4  12  22  38  62  84 116 160 200 234 294 356
#     4  11  23  40  67  89 116 160 198 233 293 350
#     4  10  22  40  61  88 119 151 195 246 291 342
#     4  10  23  40  58  86 120 152 194 246 293 343
#     4  11  26  43  60  90 126 155 192 241 288 344
#
# _framework density 26.580414000000001
#
# number of rings (size 3 to 8) (size 9 to 14) (size 15 to 20)
#    0.000    1.538    0.000    3.692    0.000    8.615 
#    0.000    9.231    0.000    0.000    0.000    0.000 
#    0.000    0.000    0.000    0.000    0.000    0.000 
#
# Total GULP energy -145661.799915 kJ/mol
# GULP energy per Si atom -5602.376920 kJ/mol
# Density = 2.651992 g / cm^3
# Si number density = 26.580414 Si / 1000 Ang^3
#
#
#
# Elastic Constant Matrix: (Units=GPa)
#
#
# Indices 1 2 3 4 5 6 
#
# 1 101.6514 18.4053 23.9233 0.0000 0.0000 0.0000
# 2 18.4053 91.9770 62.7444 0.0000 0.0000 0.0000
# 3 23.9233 62.7444 150.7707 0.0000 0.0000 0.0000
# 4 0.0000 0.0000 0.0000 45.7082 0.0000 0.0000
# 5 0.0000 0.0000 0.0000 0.0000 -138.8936 0.0000
# 6 0.0000 0.0000 0.0000 0.0000 0.0000 48.4467
#
#
#
# Elastic Compliance Matrix: (Units=1/GPa)
#
#
# Indices 1 2 3 4 5 6 
#
# 1 0.010334 -0.001326 -0.001088 0.000000 0.000000 0.000000
# 2 -0.001326 0.015353 -0.006179 0.000000 0.000000 0.000000
# 3 -0.001088 -0.006179 0.009377 0.000000 0.000000 0.000000
# 4 0.000000 0.000000 0.000000 0.021878 0.000000 0.000000
# 5 0.000000 0.000000 0.000000 0.000000 -0.007200 0.000000
# 6 0.000000 0.000000 0.000000 0.000000 0.000000 0.020641
#
#
# Mechanical properties :
#
#
# Convention : Reuss Voigt Hill
#
# Bulk Modulus (GPa) = 55.93474 61.61613 58.77543
# Shear Modulus (GPa) = 53.46098 7.00734 30.23416
#
# Velocity S-wave (km/s) = 4.48961 1.62542 3.37628
# Velocity P-wave (km/s) = 6.92566 5.17243 6.11223
#
# Compressibility (1/GPa) = 0.01787798
#
# Stress axis : x y z
#
# Youngs Moduli (GPa) = 96.77152 65.13585 106.64900
#
# Poissons Ratio (x) = 0.08635 0.11603
# Poissons Ratio (y) = 0.12828 0.65896
# Poissons Ratio (z) = 0.10529 0.40246
#
# Static dielectric constant tensor:
#      x y z
#    x 1.987550 0.000000 0.000000 
#    y 0.000000 2.141410 0.000000 
#    z 0.000000 0.000000 1.967700 
# 
# From -- ./inp_files/20245.got.cif
#   From: 2010.05.17/outbox.cif.g08.bks.cpg/sg55_11_cif.got.tgz:20245.got - 2010.06.03 13:27:54.
