data_PCOD9428708
_publ_section_title
;
Structure prediction by ZEFSAII (Michael W. Deem and Ramdas Pophale) SiO2 
 PCOD9428708
Probable space group: P B A M
;
_chemical_formula_sum "Si O2"
_cell_formula_units_Z 56
_cell_length_a 12.245755
_cell_length_b 11.432517
_cell_length_c 14.824907
_cell_angle_alpha 90.000000
_cell_angle_beta 90.000000
_cell_angle_gamma 90.000000
_cell_volume 2075.484048
_symmetry_space_group_name_H-M "P B A M"
_symmetry_group_IT_number 55
_symmetry_cell_setting 'orthorhombic'
loop_
_space_group_symop_operation_xyz
x,y,z
-x,-y,z
1/2+x,1/2-y,-z
1/2-x,1/2+y,-z
-x,-y,-z
x,y,-z
1/2-x,1/2+y,z
1/2+x,1/2-y,z
loop_
_atom_site_type_symbol
_atom_site_label
_atom_site_fract_x
_atom_site_fract_y
_atom_site_fract_z
Si Si1 0.157360 0.259673 0.751744
Si Si2 0.723382 0.587117 0.599117
Si Si3 0.997282 0.331935 0.099065
Si Si4 0.994793 0.839177 0.602440
Si Si5 0.400986 0.085664 0.631312
Si Si6 0.104586 0.924702 0.893777
Si Si7 0.196129 0.563124 0.172751
O O1 0.224006 0.336078 0.678679
O O2 0.228137 0.178397 0.816994
O O3 0.080576 0.335475 0.817524
O O4 0.085669 0.176792 0.685979
O O5 0.737107 0.643241 0.500000
O O6 0.595077 0.571098 0.615169
O O7 0.788872 0.466212 0.594031
O O8 0.933342 0.208563 0.113869
O O9 0.899112 0.425336 0.099849
O O10 0.049835 0.325593 0.000000
O O11 0.950893 0.849641 0.500000
O O12 0.061614 0.714357 0.605968
O O13 0.374270 0.072462 0.736325
O O14 0.500000 0.000000 0.606261
O O15 0.214828 0.962342 0.843354
O O16 0.122542 0.951317 0.000000
O O17 0.000000 0.000000 0.863039
#
# Coordination Sequence:
#
# PCOD9428708 Si02
#       7
#     8   8   8   8   8   8   8
#     4  12  22  42  65  97 129 175 218 270 332 391
#     4  11  24  42  65  95 135 174 225 276 328 396
#     4  11  24  43  67  99 133 171 222 276 334 399
#     4  11  24  43  65  96 133 173 221 276 334 391
#     4  12  24  40  67  97 129 173 223 271 327 397
#     4  10  22  41  66  94 126 173 224 268 326 399
#     4  12  25  40  68  98 135 175 219 280 332 396
#
# _framework density 26.981655
#
# number of rings (size 3 to 8) (size 9 to 14) (size 15 to 20)
#    0.000    0.714    5.714    1.286    4.000    1.143 
#    0.000    0.000    0.000    3.429    0.000    0.000 
#    0.000    0.000    0.000    0.000    0.000    0.000 
#
# Total GULP energy -314002.575125 kJ/mol
# GULP energy per Si atom -5607.188842 kJ/mol
# Density = 2.692024 g / cm^3
# Si number density = 26.981655 Si / 1000 Ang^3
#
#
#
# Elastic Constant Matrix: (Units=GPa)
#
#
# Indices 1 2 3 4 5 6 
#
# 1 160.0883 17.4531 57.4588 0.0000 0.0000 0.0000
# 2 17.4531 63.1288 1.0915 0.0000 0.0000 0.0000
# 3 57.4588 1.0915 162.8958 0.0000 0.0000 0.0000
# 4 0.0000 0.0000 0.0000 34.9020 0.0000 0.0000
# 5 0.0000 0.0000 0.0000 0.0000 17.1045 0.0000
# 6 0.0000 0.0000 0.0000 0.0000 0.0000 56.7719
#
#
#
# Elastic Compliance Matrix: (Units=1/GPa)
#
#
# Indices 1 2 3 4 5 6 
#
# 1 0.007396 -0.002000 -0.002595 0.000000 0.000000 0.000000
# 2 -0.002000 0.016383 0.000596 0.000000 0.000000 0.000000
# 3 -0.002595 0.000596 0.007050 0.000000 0.000000 0.000000
# 4 0.000000 0.000000 0.000000 0.028652 0.000000 0.000000
# 5 0.000000 0.000000 0.000000 0.000000 0.058464 0.000000
# 6 0.000000 0.000000 0.000000 0.000000 0.000000 0.017614
#
#
# Mechanical properties :
#
#
# Convention : Reuss Voigt Hill
#
# Bulk Modulus (GPa) = 43.80133 59.79107 51.79620
# Shear Modulus (GPa) = 33.07545 42.42964 37.75255
#
# Velocity S-wave (km/s) = 3.50501 3.96982 3.74464
# Velocity P-wave (km/s) = 5.71394 6.57424 6.15913
#
# Compressibility (1/GPa) = 0.02283036
#
# Stress axis : x y z
#
# Youngs Moduli (GPa) = 135.20546 61.03792 141.83569
#
# Poissons Ratio (x) = 0.12207 0.36813
# Poissons Ratio (y) = 0.27040 -0.08449
# Poissons Ratio (z) = 0.35092 -0.03636
#
# Static dielectric constant tensor:
#      x y z
#    x 2.086410 0.000000 0.000000 
#    y 0.000000 2.224090 0.000000 
#    z 0.000000 0.000000 2.091060 
# 
# From -- ./inp_files/18377.got.cif
#   From: 2010.05.17/outbox.cif.g08.bks.cpg/sg55_10_cif.got.tgz:18377.got - 2010.06.03 13:27:54.
