data_PCOD9428978
_publ_section_title
;
Structure prediction by ZEFSAII (Michael W. Deem and Ramdas Pophale) SiO2 
 PCOD9428978
Probable space group: P B A M
;
_chemical_formula_sum "Si O2"
_cell_formula_units_Z 52
_cell_length_a 8.340726
_cell_length_b 26.837347
_cell_length_c 13.166666
_cell_angle_alpha 90.000000
_cell_angle_beta 90.000000
_cell_angle_gamma 90.000000
_cell_volume 2947.265463
_symmetry_space_group_name_H-M "P B A M"
_symmetry_group_IT_number 55
_symmetry_cell_setting 'orthorhombic'
loop_
_space_group_symop_operation_xyz
x,y,z
-x,-y,z
1/2+x,1/2-y,-z
1/2-x,1/2+y,-z
-x,-y,-z
x,y,-z
1/2-x,1/2+y,z
1/2+x,1/2-y,z
loop_
_atom_site_type_symbol
_atom_site_label
_atom_site_fract_x
_atom_site_fract_y
_atom_site_fract_z
Si Si1 0.911957 0.685584 0.883741
Si Si2 0.838369 0.582849 0.199307
Si Si3 0.500000 0.000000 0.331938
Si Si4 0.968333 0.208122 0.118537
Si Si5 0.071592 0.056259 0.000000
Si Si6 0.351438 0.539054 0.385408
Si Si7 0.018531 0.108309 0.784398
Si Si8 0.677188 0.017021 0.000000
O O1 0.929962 0.633755 0.826430
O O2 0.721249 0.696988 0.883668
O O3 0.998381 0.735571 0.847301
O O4 0.963279 0.677497 0.000000
O O5 0.666630 0.597800 0.247211
O O6 0.793551 0.551373 0.098078
O O7 0.947483 0.547212 0.265541
O O8 0.672173 0.985022 0.382193
O O9 0.043667 0.166746 0.192648
O O10 0.025851 0.203573 0.000000
O O11 0.035883 0.084657 0.896891
O O12 0.250659 0.038269 0.000000
O O13 0.000000 0.000000 0.000000
O O14 0.500000 0.500000 0.367444
O O15 0.374996 0.558785 0.500000
O O16 0.371363 0.580317 0.297186
O O17 0.500000 0.000000 0.000000
#
# Coordination Sequence:
#
# PCOD9428978 Si02
#       8
#     8   8   4   8   4   8   8   4
#     4   9  18  32  49  73 113 156 192 236 277 339
#     4  11  20  33  52  78 116 154 192 232 284 336
#     4  12  23  37  58  88 116 147 200 242 287 346
#     4   9  18  33  51  76 110 151 195 233 286 336
#     4  12  20  30  53  74 114 148 181 217 279 342
#     4  11  24  42  61  84 116 152 193 241 288 344
#     4  11  20  37  56  81 109 154 193 233 287 349
#     4  12  22  30  39  72 114 154 179 220 268 333
#
# _framework density 17.643474000000001
#
# number of rings (size 3 to 8) (size 9 to 14) (size 15 to 20)
#    0.000    1.385    5.385    1.615    0.000    1.231 
#    0.000    0.000    0.000    0.000    0.000   10.769 
#    0.000    0.000    0.000    0.000    0.000    0.000 
#
# Total GULP energy -289615.377124 kJ/mol
# GULP energy per Si atom -5569.526483 kJ/mol
# Density = 1.760332 g / cm^3
# Si number density = 17.643474 Si / 1000 Ang^3
#
#
#
# Elastic Constant Matrix: (Units=GPa)
#
#
# Indices 1 2 3 4 5 6 
#
# 1 62.6369 18.8117 12.1095 0.0000 0.0000 0.0000
# 2 18.8117 127.3396 42.8933 0.0000 0.0000 0.0000
# 3 12.1095 42.8933 72.4075 0.0000 0.0000 0.0000
# 4 0.0000 0.0000 0.0000 6.4599 0.0000 0.0000
# 5 0.0000 0.0000 0.0000 0.0000 18.2064 0.0000
# 6 0.0000 0.0000 0.0000 0.0000 0.0000 29.3538
#
#
#
# Elastic Compliance Matrix: (Units=1/GPa)
#
#
# Indices 1 2 3 4 5 6 
#
# 1 0.016868 -0.001926 -0.001680 0.000000 0.000000 0.000000
# 2 -0.001926 0.010031 -0.005620 0.000000 0.000000 0.000000
# 3 -0.001680 -0.005620 0.017421 0.000000 0.000000 0.000000
# 4 0.000000 0.000000 0.000000 0.154800 0.000000 0.000000
# 5 0.000000 0.000000 0.000000 0.000000 0.054926 0.000000
# 6 0.000000 0.000000 0.000000 0.000000 0.000000 0.034067
#
#
# Mechanical properties :
#
#
# Convention : Reuss Voigt Hill
#
# Bulk Modulus (GPa) = 38.65828 45.55703 42.10765
# Shear Modulus (GPa) = 15.86359 23.37533 19.61946
#
# Velocity S-wave (km/s) = 3.00179 3.64383 3.33828
# Velocity P-wave (km/s) = 5.82861 6.60153 6.22707
#
# Compressibility (1/GPa) = 0.02586768
#
# Stress axis : x y z
#
# Youngs Moduli (GPa) = 59.28285 99.69541 57.40244
#
# Poissons Ratio (x) = 0.19201 0.09644
# Poissons Ratio (y) = 0.11418 0.32259
# Poissons Ratio (z) = 0.09960 0.56028
#
# Static dielectric constant tensor:
#      x y z
#    x 1.606420 0.000000 0.000000 
#    y 0.000000 1.586680 0.000000 
#    z 0.000000 0.000000 1.606030 
# 
# From -- ./inp_files/12425.got.cif
#   From: 2010.05.17/outbox.cif.g08.bks.cpg/sg55_7_cif.got.tgz:12425.got - 2010.06.03 13:27:54.
