data_PCOD9428293
_publ_section_title
;
Structure prediction by ZEFSAII (Michael W. Deem and Ramdas Pophale) SiO2 
 PCOD9428293
Probable space group: P B A M
;
_chemical_formula_sum "Si O2"
_cell_formula_units_Z 64
_cell_length_a 14.737867
_cell_length_b 24.827005
_cell_length_c 8.345436
_cell_angle_alpha 90.000000
_cell_angle_beta 90.000000
_cell_angle_gamma 90.000000
_cell_volume 3053.570811
_symmetry_space_group_name_H-M "P B A M"
_symmetry_group_IT_number 55
_symmetry_cell_setting 'orthorhombic'
loop_
_space_group_symop_operation_xyz
x,y,z
-x,-y,z
1/2+x,1/2-y,-z
1/2-x,1/2+y,-z
-x,-y,-z
x,y,-z
1/2-x,1/2+y,z
1/2+x,1/2-y,z
loop_
_atom_site_type_symbol
_atom_site_label
_atom_site_fract_x
_atom_site_fract_y
_atom_site_fract_z
Si Si1 0.407207 0.853983 0.317220
Si Si2 0.474466 0.350291 0.312776
Si Si3 0.227335 0.828883 0.189398
Si Si4 0.431938 0.545390 0.188504
Si Si5 0.255508 0.091287 0.806218
Si Si6 0.515548 0.762279 0.815779
Si Si7 0.287487 0.211051 0.310730
Si Si8 0.040813 0.559510 0.811225
O O1 0.410902 0.834961 0.500000
O O2 0.304620 0.865547 0.267651
O O3 0.440353 0.807301 0.199248
O O4 0.476069 0.902369 0.290711
O O5 0.485599 0.361597 0.500000
O O6 0.369091 0.342693 0.267801
O O7 0.518249 0.397715 0.211371
O O8 0.515640 0.292322 0.268528
O O9 0.247574 0.765869 0.228254
O O10 0.222896 0.836702 0.000000
O O11 0.500000 0.500000 0.257853
O O12 0.330014 0.555835 0.253157
O O13 0.421091 0.532637 0.000000
O O14 0.251089 0.153346 0.747829
O O15 0.354010 0.066872 0.762603
O O16 0.251064 0.092684 0.000000
O O17 0.604839 0.786235 0.729928
O O18 0.539135 0.750562 0.000000
O O19 0.273760 0.215808 0.500000
O O20 0.000000 0.500000 0.798748
O O21 0.035469 0.575655 0.000000
#
# Coordination Sequence:
#
# PCOD9428293 Si02
#       8
#     8   8   8   8   8   8   8   8
#     4  12  24  39  60  93 132 169 211 265 323 378
#     4  11  23  41  63  92 128 165 209 269 328 381
#     4  11  23  40  63  91 128 174 215 260 318 391
#     4  10  23  43  66  92 124 170 224 272 319 381
#     4  10  21  39  63  90 124 165 214 266 317 380
#     4  11  21  37  61  89 125 167 210 257 313 383
#     4  11  21  36  59  91 128 164 207 263 321 380
#     4  10  22  41  65  94 128 172 221 265 315 381
#
# _framework density 20.959067999999998
#
# number of rings (size 3 to 8) (size 9 to 14) (size 15 to 20)
#    0.000    1.250    1.250    7.125    1.750    2.000 
#    0.000    2.500    0.000    0.000    0.000    0.000 
#    0.000    0.000    0.000    0.000    0.000    0.000 
#
# Total GULP energy -357680.211479 kJ/mol
# GULP energy per Si atom -5588.753304 kJ/mol
# Density = 2.091136 g / cm^3
# Si number density = 20.959068 Si / 1000 Ang^3
#
#
#
# Elastic Constant Matrix: (Units=GPa)
#
#
# Indices 1 2 3 4 5 6 
#
# 1 82.0069 25.4631 -4.0663 0.0000 0.0000 0.0000
# 2 25.4631 31.9457 -11.1404 0.0000 0.0000 0.0000
# 3 -4.0663 -11.1404 41.3317 0.0000 0.0000 0.0000
# 4 0.0000 0.0000 0.0000 -159.2780 0.0000 0.0000
# 5 0.0000 0.0000 0.0000 0.0000 7.0271 0.0000
# 6 0.0000 0.0000 0.0000 0.0000 0.0000 27.3125
#
#
#
# Elastic Compliance Matrix: (Units=1/GPa)
#
#
# Indices 1 2 3 4 5 6 
#
# 1 0.016369 -0.013781 -0.002104 0.000000 0.000000 0.000000
# 2 -0.013781 0.046153 0.011084 0.000000 0.000000 0.000000
# 3 -0.002104 0.011084 0.026975 0.000000 0.000000 0.000000
# 4 0.000000 0.000000 0.000000 -0.006278 0.000000 0.000000
# 5 0.000000 0.000000 0.000000 0.000000 0.142305 0.000000
# 6 0.000000 0.000000 0.000000 0.000000 0.000000 0.036613
#
#
# Mechanical properties :
#
#
# Convention : Reuss Voigt Hill
#
# Bulk Modulus (GPa) = 12.51643 19.53301 16.02472
# Shear Modulus (GPa) = 16.75770 -15.31915 0.71928
#
# Velocity S-wave (km/s) = 2.83069 -2.70646 0.58645
# Velocity P-wave (km/s) = 4.08271 0.65327 2.84972
#
# Compressibility (1/GPa) = 0.07989498
#
# Stress axis : x y z
#
# Youngs Moduli (GPa) = 61.09209 21.66712 37.07130
#
# Poissons Ratio (x) = 0.29859 0.07800
# Poissons Ratio (y) = 0.84190 -0.41090
# Poissons Ratio (z) = 0.12854 -0.24016
#
# Static dielectric constant tensor:
#      x y z
#    x 1.801280 0.000000 0.000000 
#    y 0.000000 1.729970 0.000000 
#    z 0.000000 0.000000 1.729030 
# 
# From -- ./inp_files/6668.got.cif
#   From: 2010.05.17/outbox.cif.g08.bks.cpg/sg55_4_cif.got.tgz:6668.got - 2010.06.03 13:27:54.
