data_PCOD9428573
_publ_section_title
;
Structure prediction by ZEFSAII (Michael W. Deem and Ramdas Pophale) SiO2 
 PCOD9428573
Probable space group: P B A M
;
_chemical_formula_sum "Si O2"
_cell_formula_units_Z 48
_cell_length_a 12.970466
_cell_length_b 8.656904
_cell_length_c 18.880281
_cell_angle_alpha 90.000000
_cell_angle_beta 90.000000
_cell_angle_gamma 90.000000
_cell_volume 2119.954963
_symmetry_space_group_name_H-M "P B A M"
_symmetry_group_IT_number 55
_symmetry_cell_setting 'orthorhombic'
loop_
_space_group_symop_operation_xyz
x,y,z
-x,-y,z
1/2+x,1/2-y,-z
1/2-x,1/2+y,-z
-x,-y,-z
x,y,-z
1/2-x,1/2+y,z
1/2+x,1/2-y,z
loop_
_atom_site_type_symbol
_atom_site_label
_atom_site_fract_x
_atom_site_fract_y
_atom_site_fract_z
Si Si1 0.532516 0.663440 0.080654
Si Si2 0.238631 0.030412 0.376765
Si Si3 0.276279 0.145108 0.083232
Si Si4 0.589789 0.728651 0.577947
Si Si5 0.615274 0.145493 0.846154
Si Si6 0.896731 0.720018 0.684193
O O1 0.500000 0.500000 0.113934
O O2 0.652667 0.700302 0.081575
O O3 0.489570 0.819583 0.113823
O O4 0.494854 0.659414 0.000000
O O5 0.314157 0.151780 0.415479
O O6 0.172913 0.124805 0.318347
O O7 0.147679 0.936542 0.416202
O O8 0.321151 0.906314 0.350102
O O9 0.178842 0.205547 0.126141
O O10 0.326965 0.005561 0.126826
O O11 0.259743 0.103917 0.000000
O O12 0.541365 0.745507 0.500000
O O13 0.502332 0.756600 0.638548
O O14 0.589589 0.161072 0.763724
#
# Coordination Sequence:
#
# PCOD9428573 Si02
#       6
#     8   8   8   8   8   8
#     4  10  22  39  60  89 124 163 212 270 332 399
#     4  10  24  44  66  96 136 174 226 282 338 409
#     4  11  23  40  65  94 127 172 224 278 337 402
#     4  11  24  44  71 101 133 175 227 285 347 412
#     4  12  24  40  64  92 129 171 218 275 337 406
#     4  11  25  42  65  97 136 181 227 279 345 414
#
# _framework density 22.64199
#
# number of rings (size 3 to 8) (size 9 to 14) (size 15 to 20)
#    0.000    1.167    0.000    5.500    0.000   14.667 
#    0.000    0.000    0.000    0.000    0.000    0.000 
#    0.000    0.000    0.000    0.000    0.000    0.000 
#
# Total GULP energy -267737.302374 kJ/mol
# GULP energy per Si atom -5577.860466 kJ/mol
# Density = 2.259046 g / cm^3
# Si number density = 22.641990 Si / 1000 Ang^3
#
#
#
# Elastic Constant Matrix: (Units=GPa)
#
#
# Indices 1 2 3 4 5 6 
#
# 1 114.8436 44.9589 47.4977 0.0000 0.0000 0.0000
# 2 44.9589 107.7688 24.0458 0.0000 0.0000 0.0000
# 3 47.4977 24.0458 117.9505 0.0000 0.0000 0.0000
# 4 0.0000 0.0000 0.0000 9.3516 0.0000 0.0000
# 5 0.0000 0.0000 0.0000 0.0000 42.6127 0.0000
# 6 0.0000 0.0000 0.0000 0.0000 0.0000 50.5881
#
#
#
# Elastic Compliance Matrix: (Units=1/GPa)
#
#
# Indices 1 2 3 4 5 6 
#
# 1 0.011959 -0.004101 -0.003980 0.000000 0.000000 0.000000
# 2 -0.004101 0.011128 -0.000617 0.000000 0.000000 0.000000
# 3 -0.003980 -0.000617 0.010207 0.000000 0.000000 0.000000
# 4 0.000000 0.000000 0.000000 0.106933 0.000000 0.000000
# 5 0.000000 0.000000 0.000000 0.000000 0.023467 0.000000
# 6 0.000000 0.000000 0.000000 0.000000 0.000000 0.019767
#
#
# Mechanical properties :
#
#
# Convention : Reuss Voigt Hill
#
# Bulk Modulus (GPa) = 62.90305 63.72974 63.31639
# Shear Modulus (GPa) = 24.25348 35.44787 29.85067
#
# Velocity S-wave (km/s) = 3.27643 3.96103 3.63488
# Velocity P-wave (km/s) = 6.49270 7.00910 6.75584
#
# Compressibility (1/GPa) = 0.01589748
#
# Stress axis : x y z
#
# Youngs Moduli (GPa) = 83.61958 89.86600 97.97661
#
# Poissons Ratio (x) = 0.36855 0.38992
# Poissons Ratio (y) = 0.34293 0.06046
# Poissons Ratio (z) = 0.33278 0.05545
#
# Static dielectric constant tensor:
#      x y z
#    x 2.810720 0.000000 0.000000 
#    y 0.000000 1.992790 0.000000 
#    z 0.000000 0.000000 1.829230 
# 
# From -- ./inp_files/21505.got.cif
#   From: 2010.05.17/outbox.cif.g08.bks.cpg/sg55_11_cif.got.tgz:21505.got - 2010.06.03 13:27:54.
