data_PCOD9428626
_publ_section_title
;
Structure prediction by ZEFSAII (Michael W. Deem and Ramdas Pophale) SiO2 
 PCOD9428626
Probable space group: P B A M
;
_chemical_formula_sum "Si O2"
_cell_formula_units_Z 64
_cell_length_a 28.345352
_cell_length_b 12.829717
_cell_length_c 9.007112
_cell_angle_alpha 90.000000
_cell_angle_beta 90.000000
_cell_angle_gamma 90.000000
_cell_volume 3275.551970
_symmetry_space_group_name_H-M "P B A M"
_symmetry_group_IT_number 55
_symmetry_cell_setting 'orthorhombic'
loop_
_space_group_symop_operation_xyz
x,y,z
-x,-y,z
1/2+x,1/2-y,-z
1/2-x,1/2+y,-z
-x,-y,-z
x,y,-z
1/2-x,1/2+y,z
1/2+x,1/2-y,z
loop_
_atom_site_type_symbol
_atom_site_label
_atom_site_fract_x
_atom_site_fract_y
_atom_site_fract_z
Si Si1 0.381868 0.953063 0.323175
Si Si2 0.561937 0.400327 0.328126
Si Si3 0.199016 0.925601 0.324037
Si Si4 0.672992 0.341042 0.667820
Si Si5 0.705754 0.138150 0.825319
Si Si6 0.407724 0.379410 0.680206
Si Si7 0.945468 0.348084 0.322487
Si Si8 0.540270 0.191203 0.176092
O O1 0.380391 0.937255 0.500000
O O2 0.406715 0.063603 0.292993
O O3 0.330049 0.940926 0.255973
O O4 0.415024 0.864811 0.251011
O O5 0.545157 0.395082 0.500000
O O6 0.617699 0.370710 0.327647
O O7 0.561601 0.519847 0.272826
O O8 0.537750 0.310474 0.233333
O O9 0.202937 0.901825 0.500000
O O10 0.241721 0.875267 0.236427
O O11 0.146790 0.891174 0.272645
O O12 0.200159 0.050816 0.308271
O O13 0.682860 0.302627 0.500000
O O14 0.686944 0.252640 0.782103
O O15 0.704056 0.121949 0.000000
O O16 0.407177 0.386857 0.500000
O O17 0.427045 0.266589 0.719703
O O18 0.955244 0.349136 0.500000
O O19 0.993648 0.366282 0.235025
O O20 0.544216 0.187299 0.000000
#
# Coordination Sequence:
#
# PCOD9428626 Si02
#       8
#     8   8   8   8   8   8   8   8
#     4  11  23  40  61  84 113 154 205 251 292 344
#     4   9  17  34  62  87 111 146 193 243 285 336
#     4   9  19  37  61  87 114 150 198 244 288 345
#     4   9  18  35  59  82 108 148 196 243 285 333
#     4  12  24  36  56  88 122 155 190 237 301 361
#     4   8  17  37  63  89 113 147 197 248 293 338
#     4  10  22  40  62  86 116 154 197 245 294 350
#     4  12  24  37  57  87 120 155 194 242 300 357
#
# _framework density 19.538692999999999
#
# number of rings (size 3 to 8) (size 9 to 14) (size 15 to 20)
#    0.000    2.000    1.250    4.500    0.000    4.500 
#    0.000    8.125    0.000    0.000    0.000    0.000 
#    0.000    0.000    0.000    0.000    0.000    0.000 
#
# Total GULP energy -357552.773564 kJ/mol
# GULP energy per Si atom -5586.762087 kJ/mol
# Density = 1.949422 g / cm^3
# Si number density = 19.538693 Si / 1000 Ang^3
#
#
#
# Elastic Constant Matrix: (Units=GPa)
#
#
# Indices 1 2 3 4 5 6 
#
# 1 60.3974 13.4601 20.2209 0.0000 0.0000 0.0000
# 2 13.4601 86.7322 26.9470 0.0000 0.0000 0.0000
# 3 20.2209 26.9470 67.3701 0.0000 0.0000 0.0000
# 4 0.0000 0.0000 0.0000 -19.5381 0.0000 0.0000
# 5 0.0000 0.0000 0.0000 0.0000 -17.7165 0.0000
# 6 0.0000 0.0000 0.0000 0.0000 0.0000 22.7072
#
#
#
# Elastic Compliance Matrix: (Units=1/GPa)
#
#
# Indices 1 2 3 4 5 6 
#
# 1 0.018536 -0.001311 -0.005039 0.000000 0.000000 0.000000
# 2 -0.001311 0.013259 -0.004910 0.000000 0.000000 0.000000
# 3 -0.005039 -0.004910 0.018320 0.000000 0.000000 0.000000
# 4 0.000000 0.000000 0.000000 -0.051182 0.000000 0.000000
# 5 0.000000 0.000000 0.000000 0.000000 -0.056445 0.000000
# 6 0.000000 0.000000 0.000000 0.000000 0.000000 0.044039
#
#
# Mechanical properties :
#
#
# Convention : Reuss Voigt Hill
#
# Bulk Modulus (GPa) = 36.23892 37.30620 36.77256
# Shear Modulus (GPa) = 274.04757 7.34864 140.69811
#
# Velocity S-wave (km/s) = 11.85594 1.94145 8.49508
# Velocity P-wave (km/s) = 14.35289 4.91534 10.72767
#
# Compressibility (1/GPa) = 0.02759464
#
# Stress axis : x y z
#
# Youngs Moduli (GPa) = 53.94825 75.42264 54.58604
#
# Poissons Ratio (x) = 0.09888 0.27507
# Poissons Ratio (y) = 0.07073 0.26800
# Poissons Ratio (z) = 0.27186 0.37031
#
# Static dielectric constant tensor:
#      x y z
#    x 1.684050 0.000000 0.000000 
#    y 0.000000 1.703160 0.000000 
#    z 0.000000 0.000000 1.649130 
# 
# From -- ./inp_files/10789.got.cif
#   From: 2010.05.17/outbox.cif.g08.bks.cpg/sg55_6_cif.got.tgz:10789.got - 2010.06.03 13:27:54.
