data_PCOD9428836
_publ_section_title
;
Structure prediction by ZEFSAII (Michael W. Deem and Ramdas Pophale) SiO2 
 PCOD9428836
Probable space group: P B A M
;
_chemical_formula_sum "Si O2"
_cell_formula_units_Z 24
_cell_length_a 9.122230
_cell_length_b 11.308143
_cell_length_c 9.185689
_cell_angle_alpha 90.000000
_cell_angle_beta 90.000000
_cell_angle_gamma 90.000000
_cell_volume 947.554170
_symmetry_space_group_name_H-M "P B A M"
_symmetry_group_IT_number 55
_symmetry_cell_setting 'orthorhombic'
loop_
_space_group_symop_operation_xyz
x,y,z
-x,-y,z
1/2+x,1/2-y,-z
1/2-x,1/2+y,-z
-x,-y,-z
x,y,-z
1/2-x,1/2+y,z
1/2+x,1/2-y,z
loop_
_atom_site_type_symbol
_atom_site_label
_atom_site_fract_x
_atom_site_fract_y
_atom_site_fract_z
Si Si1 0.324491 0.894436 0.500000
Si Si2 0.274231 0.526412 0.749648
Si Si3 0.471468 0.647210 0.500000
Si Si4 0.094219 0.622716 0.000000
Si Si5 0.598869 0.616783 0.000000
O O1 0.342433 0.974689 0.360542
O O2 0.422865 0.781147 0.500000
O O3 0.147909 0.861483 0.500000
O O4 0.395754 0.588444 0.644811
O O5 0.199973 0.616667 0.860122
O O6 0.316396 0.413046 0.850701
O O7 0.026146 0.754313 0.000000
O O8 0.000000 0.500000 0.000000
O O9 0.500000 0.500000 0.000000
#
# Coordination Sequence:
#
# PCOD9428836 Si02
#       5
#     4   8   4   4   4
#     4  11  23  41  68 100 137 184 236 295 356 425
#     4  10  23  41  64  95 136 189 235 281 350 434
#     4  11  23  43  68 102 139 184 239 291 356 431
#     4  11  26  44  67 107 145 180 241 308 359 421
#     4  11  22  40  67  95 133 186 230 284 358 425
#
# _framework density 25.328365999999999
#
# number of rings (size 3 to 8) (size 9 to 14) (size 15 to 20)
#    0.000    1.333    0.000    6.000    0.000   13.333 
#    0.000    3.333    0.000    0.000    0.000    0.000 
#    0.000    0.000    0.000    0.000    0.000    0.000 
#
# Total GULP energy -134086.020092 kJ/mol
# GULP energy per Si atom -5586.917504 kJ/mol
# Density = 2.527072 g / cm^3
# Si number density = 25.328366 Si / 1000 Ang^3
#
#
#
# Elastic Constant Matrix: (Units=GPa)
#
#
# Indices 1 2 3 4 5 6 
#
# 1 116.5695 26.9725 31.5216 0.0000 0.0000 0.0000
# 2 26.9725 145.4756 26.6374 0.0000 0.0000 0.0000
# 3 31.5216 26.6374 178.2466 0.0000 0.0000 0.0000
# 4 0.0000 0.0000 0.0000 -16.2359 0.0000 0.0000
# 5 0.0000 0.0000 0.0000 0.0000 -10.3383 0.0000
# 6 0.0000 0.0000 0.0000 0.0000 0.0000 48.6264
#
#
#
# Elastic Compliance Matrix: (Units=1/GPa)
#
#
# Indices 1 2 3 4 5 6 
#
# 1 0.009303 -0.001464 -0.001426 0.000000 0.000000 0.000000
# 2 -0.001464 0.007298 -0.000832 0.000000 0.000000 0.000000
# 3 -0.001426 -0.000832 0.005987 0.000000 0.000000 0.000000
# 4 0.000000 0.000000 0.000000 -0.061592 0.000000 0.000000
# 5 0.000000 0.000000 0.000000 0.000000 -0.096728 0.000000
# 6 0.000000 0.000000 0.000000 0.000000 0.000000 0.020565
#
#
# Mechanical properties :
#
#
# Convention : Reuss Voigt Hill
#
# Bulk Modulus (GPa) = 66.03390 67.83940 66.93665
# Shear Modulus (GPa) = -48.69697 28.08779 -10.30459
#
# Velocity S-wave (km/s) = -4.38953 3.33370 -2.01922
# Velocity P-wave (km/s) = 0.66111 6.45447 4.58788
#
# Compressibility (1/GPa) = 0.01514374
#
# Stress axis : x y z
#
# Youngs Moduli (GPa) = 107.49256 137.02991 167.03543
#
# Poissons Ratio (x) = 0.20057 0.23826
# Poissons Ratio (y) = 0.15733 0.13893
# Poissons Ratio (z) = 0.15333 0.11397
#
# Static dielectric constant tensor:
#      x y z
#    x 2.150680 0.000000 0.000000 
#    y 0.000000 1.969670 0.000000 
#    z 0.000000 0.000000 1.845970 
# 
# From -- ./inp_files/3173.got.cif
#   From: 2010.05.17/outbox.cif.g08.bks.cpg/sg55_2_cif.got.tgz:3173.got - 2010.06.03 13:27:54.
