data_PCOD9428664
_publ_section_title
;
Structure prediction by ZEFSAII (Michael W. Deem and Ramdas Pophale) SiO2 
 PCOD9428664
Probable space group: P B A M
;
_chemical_formula_sum "Si O2"
_cell_formula_units_Z 40
_cell_length_a 7.424849
_cell_length_b 30.001207
_cell_length_c 8.561011
_cell_angle_alpha 90.000000
_cell_angle_beta 90.000000
_cell_angle_gamma 90.000000
_cell_volume 1907.003141
_symmetry_space_group_name_H-M "P B A M"
_symmetry_group_IT_number 55
_symmetry_cell_setting 'orthorhombic'
loop_
_space_group_symop_operation_xyz
x,y,z
-x,-y,z
1/2+x,1/2-y,-z
1/2-x,1/2+y,-z
-x,-y,-z
x,y,-z
1/2-x,1/2+y,z
1/2+x,1/2-y,z
loop_
_atom_site_type_symbol
_atom_site_label
_atom_site_fract_x
_atom_site_fract_y
_atom_site_fract_z
Si Si1 0.400446 0.401578 0.816137
Si Si2 0.280055 0.715431 0.321578
Si Si3 0.801096 0.189451 0.678164
Si Si4 0.582962 0.047214 0.688578
Si Si5 0.293316 0.120742 0.689030
O O1 0.292188 0.356429 0.770113
O O2 0.279829 0.441990 0.753733
O O3 0.597593 0.397111 0.740013
O O4 0.421936 0.404085 0.000000
O O5 0.211412 0.722181 0.500000
O O6 0.485991 0.700110 0.330067
O O7 0.276911 0.764848 0.251019
O O8 0.181073 0.671979 0.253312
O O9 0.732588 0.182224 0.500000
O O10 0.592736 0.047838 0.500000
O O11 0.445941 0.086326 0.738357
O O12 0.500000 0.000000 0.737098
O O13 0.293007 0.123365 0.500000
#
# Coordination Sequence:
#
# PCOD9428664 Si02
#       5
#     8   8   8   8   8
#     4  11  23  38  56  82 121 160 190 230 289 353
#     4   8  15  27  50  80 105 139 187 236 279 325
#     4   9  17  31  52  79 109 145 194 239 279 332
#     4  10  22  40  65  92 113 143 194 252 300 341
#     4   9  19  38  62  85 113 149 193 242 286 337
#
# _framework density 20.97532
#
# number of rings (size 3 to 8) (size 9 to 14) (size 15 to 20)
#    0.000    2.600    0.000    3.000    2.800    2.000 
#    0.000    8.000    0.000    0.000    0.000    0.000 
#    0.000    0.000    0.000    0.000    0.000    0.000 
#
# Total GULP energy -223164.314025 kJ/mol
# GULP energy per Si atom -5579.107851 kJ/mol
# Density = 2.092758 g / cm^3
# Si number density = 20.975320 Si / 1000 Ang^3
#
#
#
# Elastic Constant Matrix: (Units=GPa)
#
#
# Indices 1 2 3 4 5 6 
#
# 1 57.5334 15.5337 5.5891 0.0000 0.0000 0.0000
# 2 15.5337 48.2263 6.5245 0.0000 0.0000 0.0000
# 3 5.5891 6.5245 11.4148 0.0000 0.0000 0.0000
# 4 0.0000 0.0000 0.0000 -8.5081 0.0000 0.0000
# 5 0.0000 0.0000 0.0000 0.0000 -0.2164 0.0000
# 6 0.0000 0.0000 0.0000 0.0000 0.0000 35.9982
#
#
#
# Elastic Compliance Matrix: (Units=1/GPa)
#
#
# Indices 1 2 3 4 5 6 
#
# 1 0.019465 -0.005398 -0.006445 0.000000 0.000000 0.000000
# 2 -0.005398 0.023970 -0.011058 0.000000 0.000000 0.000000
# 3 -0.006445 -0.011058 0.097082 0.000000 0.000000 0.000000
# 4 0.000000 0.000000 0.000000 -0.117535 0.000000 0.000000
# 5 0.000000 0.000000 0.000000 0.000000 -4.620354 0.000000
# 6 0.000000 0.000000 0.000000 0.000000 0.000000 0.027779
#
#
# Mechanical properties :
#
#
# Convention : Reuss Voigt Hill
#
# Bulk Modulus (GPa) = 10.55803 19.16325 14.86064
# Shear Modulus (GPa) = -1.11304 11.42321 5.15509
#
# Velocity S-wave (km/s) = -0.72924 2.33620 1.56940
# Velocity P-wave (km/s) = 2.08217 4.05377 3.22246
#
# Compressibility (1/GPa) = 0.09471468
#
# Stress axis : x y z
#
# Youngs Moduli (GPa) = 51.37516 41.71856 10.30057
#
# Poissons Ratio (x) = 0.22518 0.06639
# Poissons Ratio (y) = 0.27730 0.11390
# Poissons Ratio (z) = 0.33114 0.46133
#
# Static dielectric constant tensor:
#      x y z
#    x 1.778000 0.000000 0.000000 
#    y 0.000000 1.812450 0.000000 
#    z 0.000000 0.000000 1.720250 
# 
# From -- ./inp_files/2514.got.cif
#   From: 2010.05.17/outbox.cif.g08.bks.cpg/sg55_2_cif.got.tgz:2514.got - 2010.06.03 13:27:54.
