data_PCOD9428056
_publ_section_title
;
Structure prediction by ZEFSAII (Michael W. Deem and Ramdas Pophale) SiO2 
 PCOD9428056
Probable space group: P B A M
;
_chemical_formula_sum "Si O2"
_cell_formula_units_Z 48
_cell_length_a 11.970155
_cell_length_b 22.130007
_cell_length_c 9.141157
_cell_angle_alpha 90.000000
_cell_angle_beta 90.000000
_cell_angle_gamma 90.000000
_cell_volume 2421.488960
_symmetry_space_group_name_H-M "P B A M"
_symmetry_group_IT_number 55
_symmetry_cell_setting 'orthorhombic'
loop_
_space_group_symop_operation_xyz
x,y,z
-x,-y,z
1/2+x,1/2-y,-z
1/2-x,1/2+y,-z
-x,-y,-z
x,y,-z
1/2-x,1/2+y,z
1/2+x,1/2-y,z
loop_
_atom_site_type_symbol
_atom_site_label
_atom_site_fract_x
_atom_site_fract_y
_atom_site_fract_z
Si Si1 0.713574 0.378599 0.177557
Si Si2 0.974405 0.070054 0.174844
Si Si3 0.053010 0.335191 0.163906
Si Si4 0.860415 0.277413 0.669862
Si Si5 0.220935 0.860181 0.330355
Si Si6 0.091198 0.543323 0.834912
O O1 0.584948 0.391012 0.212591
O O2 0.768553 0.319541 0.249728
O O3 0.788716 0.436921 0.225702
O O4 0.724435 0.374676 0.000000
O O5 0.867294 0.094646 0.258759
O O6 0.956010 0.075335 0.000000
O O7 0.000000 0.000000 0.206283
O O8 0.163907 0.357148 0.242732
O O9 0.980508 0.287747 0.255388
O O10 0.971951 0.392959 0.153717
O O11 0.077000 0.312976 0.000000
O O12 0.866093 0.295773 0.500000
O O13 0.827628 0.207717 0.678528
O O14 0.240369 0.875005 0.500000
O O15 0.000000 0.500000 0.760212
O O16 0.111088 0.518191 0.000000
#
# Coordination Sequence:
#
# PCOD9428056 Si02
#       6
#     8   8   8   8   8   8
#     4   9  19  36  59  89 119 152 197 247 295 351
#     4  10  23  41  63  91 123 161 208 256 304 359
#     4  10  21  37  61  89 116 149 196 251 300 351
#     4  10  22  40  61  86 120 159 196 243 306 364
#     4  11  25  41  60  86 122 164 200 243 303 370
#     4   8  15  29  55  85 112 143 180 231 291 344
#
# _framework density 19.822514000000002
#
# number of rings (size 3 to 8) (size 9 to 14) (size 15 to 20)
#    0.000    2.333    0.000    2.500    4.667    3.667 
#    0.000    0.000    0.000    2.500    0.000    0.000 
#    0.000    0.000    0.000    0.000    0.000    0.000 
#
# Total GULP energy -267823.597907 kJ/mol
# GULP energy per Si atom -5579.658290 kJ/mol
# Density = 1.977740 g / cm^3
# Si number density = 19.822514 Si / 1000 Ang^3
#
#
#
# Elastic Constant Matrix: (Units=GPa)
#
#
# Indices 1 2 3 4 5 6 
#
# 1 125.9547 6.5304 63.3272 0.0000 0.0000 0.0000
# 2 6.5304 30.6675 24.7186 0.0000 0.0000 0.0000
# 3 63.3272 24.7186 89.9074 0.0000 0.0000 0.0000
# 4 0.0000 0.0000 0.0000 17.9812 0.0000 0.0000
# 5 0.0000 0.0000 0.0000 0.0000 18.8547 0.0000
# 6 0.0000 0.0000 0.0000 0.0000 0.0000 8.7548
#
#
#
# Elastic Compliance Matrix: (Units=1/GPa)
#
#
# Indices 1 2 3 4 5 6 
#
# 1 0.013091 0.005967 -0.010861 0.000000 0.000000 0.000000
# 2 0.005967 0.044610 -0.016468 0.000000 0.000000 0.000000
# 3 -0.010861 -0.016468 0.023300 0.000000 0.000000 0.000000
# 4 0.000000 0.000000 0.000000 0.055614 0.000000 0.000000
# 5 0.000000 0.000000 0.000000 0.000000 0.053037 0.000000
# 6 0.000000 0.000000 0.000000 0.000000 0.000000 0.114223
#
#
# Mechanical properties :
#
#
# Convention : Reuss Voigt Hill
#
# Bulk Modulus (GPa) = 26.12513 48.40909 37.26711
# Shear Modulus (GPa) = 13.91369 19.24836 16.58103
#
# Velocity S-wave (km/s) = 2.65224 3.11952 2.89532
# Velocity P-wave (km/s) = 4.75261 6.11960 5.47891
#
# Compressibility (1/GPa) = 0.03827733
#
# Stress axis : x y z
#
# Youngs Moduli (GPa) = 76.39044 22.41630 42.91838
#
# Poissons Ratio (x) = -0.13375 0.46613
# Poissons Ratio (y) = -0.45579 0.70676
# Poissons Ratio (z) = 0.82967 0.36914
#
# Static dielectric constant tensor:
#      x y z
#    x 1.704760 0.000000 0.000000 
#    y 0.000000 1.701630 0.000000 
#    z 0.000000 0.000000 1.692260 
# 
# From -- ./inp_files/4098.got.cif
#   From: 2010.05.17/outbox.cif.g08.bks.cpg/sg55_3_cif.got.tgz:4098.got - 2010.06.03 13:27:54.
