data_PCOD9428266
_publ_section_title
;
Structure prediction by ZEFSAII (Michael W. Deem and Ramdas Pophale) SiO2 
 PCOD9428266
Probable space group: P B A M
;
_chemical_formula_sum "Si O2"
_cell_formula_units_Z 56
_cell_length_a 21.756935
_cell_length_b 14.933973
_cell_length_c 8.874221
_cell_angle_alpha 90.000000
_cell_angle_beta 90.000000
_cell_angle_gamma 90.000000
_cell_volume 2883.389523
_symmetry_space_group_name_H-M "P B A M"
_symmetry_group_IT_number 55
_symmetry_cell_setting 'orthorhombic'
loop_
_space_group_symop_operation_xyz
x,y,z
-x,-y,z
1/2+x,1/2-y,-z
1/2-x,1/2+y,-z
-x,-y,-z
x,y,-z
1/2-x,1/2+y,z
1/2+x,1/2-y,z
loop_
_atom_site_type_symbol
_atom_site_label
_atom_site_fract_x
_atom_site_fract_y
_atom_site_fract_z
Si Si1 0.121622 0.796000 0.178762
Si Si2 0.648194 0.989607 0.824144
Si Si3 0.528873 0.866415 0.828565
Si Si4 0.276948 0.170769 0.320362
Si Si5 0.570577 0.512336 0.816475
Si Si6 0.857501 0.833173 0.819297
Si Si7 0.094443 0.342630 0.323570
O O1 0.064364 0.727520 0.192779
O O2 0.178557 0.750482 0.263402
O O3 0.100913 0.893939 0.231902
O O4 0.136610 0.799641 0.000000
O O5 0.581626 0.941016 0.816983
O O6 0.694005 0.921503 0.742561
O O7 0.641207 0.084853 0.745235
O O8 0.664754 0.998519 0.000000
O O9 0.474303 0.876167 0.711766
O O10 0.503623 0.869797 0.000000
O O11 0.275480 0.169762 0.500000
O O12 0.209287 0.178959 0.252639
O O13 0.500000 0.500000 0.765829
O O14 0.611318 0.426918 0.773425
O O15 0.568959 0.515337 0.000000
O O16 0.898211 0.750879 0.762129
O O17 0.853078 0.831548 0.000000
O O18 0.104771 0.331792 0.500000
#
# Coordination Sequence:
#
# PCOD9428266 Si02
#       7
#     8   8   8   8   8   8   8
#     4   9  18  36  62  88 115 151 196 239 285 348
#     4  10  21  39  62  85 112 151 196 235 280 345
#     4   9  18  34  58  86 116 150 188 230 278 344
#     4  11  23  40  59  84 119 152 191 242 295 347
#     4   9  18  35  62  92 116 145 192 246 293 341
#     4  11  23  40  61  83 113 154 199 244 290 349
#     4  12  24  36  54  84 119 151 186 235 295 346
#
# _framework density 19.421586999999999
#
# number of rings (size 3 to 8) (size 9 to 14) (size 15 to 20)
#    0.000    1.857    0.000    5.571    0.000    8.000 
#    0.000    5.714    0.000    3.000    0.000    0.000 
#    0.000    0.000    0.000    0.000    0.000    0.000 
#
# Total GULP energy -312953.184559 kJ/mol
# GULP energy per Si atom -5588.449724 kJ/mol
# Density = 1.937738 g / cm^3
# Si number density = 19.421587 Si / 1000 Ang^3
#
#
#
# Elastic Constant Matrix: (Units=GPa)
#
#
# Indices 1 2 3 4 5 6 
#
# 1 52.7322 -0.8916 25.5874 0.0000 0.0000 0.0000
# 2 -0.8916 94.2079 18.4801 0.0000 0.0000 0.0000
# 3 25.5874 18.4801 88.0047 0.0000 0.0000 0.0000
# 4 0.0000 0.0000 0.0000 14.9477 0.0000 0.0000
# 5 0.0000 0.0000 0.0000 0.0000 114.4731 0.0000
# 6 0.0000 0.0000 0.0000 0.0000 0.0000 8.1477
#
#
#
# Elastic Compliance Matrix: (Units=1/GPa)
#
#
# Indices 1 2 3 4 5 6 
#
# 1 0.022292 0.001546 -0.006806 0.000000 0.000000 0.000000
# 2 0.001546 0.011178 -0.002797 0.000000 0.000000 0.000000
# 3 -0.006806 -0.002797 0.013929 0.000000 0.000000 0.000000
# 4 0.000000 0.000000 0.000000 0.066900 0.000000 0.000000
# 5 0.000000 0.000000 0.000000 0.000000 0.008736 0.000000
# 6 0.000000 0.000000 0.000000 0.000000 0.000000 0.122734
#
#
# Mechanical properties :
#
#
# Convention : Reuss Voigt Hill
#
# Bulk Modulus (GPa) = 31.96320 35.69961 33.83141
# Shear Modulus (GPa) = 18.36130 40.29831 29.32980
#
# Velocity S-wave (km/s) = 3.07808 4.56007 3.89030
# Velocity P-wave (km/s) = 5.39686 6.79316 6.13486
#
# Compressibility (1/GPa) = 0.03128597
#
# Stress axis : x y z
#
# Youngs Moduli (GPa) = 44.85815 89.46081 71.79141
#
# Poissons Ratio (x) = -0.13832 0.48863
# Poissons Ratio (y) = -0.06936 0.20079
# Poissons Ratio (z) = 0.30531 0.25021
#
# Static dielectric constant tensor:
#      x y z
#    x 1.731610 0.000000 0.000000 
#    y 0.000000 1.694420 0.000000 
#    z 0.000000 0.000000 1.645300 
# 
# From -- ./inp_files/8769.got.cif
#   From: 2010.05.17/outbox.cif.g08.bks.cpg/sg55_5_cif.got.tgz:8769.got - 2010.06.03 13:27:54.
