data_PCOD9428080
_publ_section_title
;
Structure prediction by ZEFSAII (Michael W. Deem and Ramdas Pophale) SiO2 
 PCOD9428080
Probable space group: P B A M
;
_chemical_formula_sum "Si O2"
_cell_formula_units_Z 64
_cell_length_a 29.551791
_cell_length_b 12.768098
_cell_length_c 7.779070
_cell_angle_alpha 90.000000
_cell_angle_beta 90.000000
_cell_angle_gamma 90.000000
_cell_volume 2935.199965
_symmetry_space_group_name_H-M "P B A M"
_symmetry_group_IT_number 55
_symmetry_cell_setting 'orthorhombic'
loop_
_space_group_symop_operation_xyz
x,y,z
-x,-y,z
1/2+x,1/2-y,-z
1/2-x,1/2+y,-z
-x,-y,-z
x,y,-z
1/2-x,1/2+y,z
1/2+x,1/2-y,z
loop_
_atom_site_type_symbol
_atom_site_label
_atom_site_fract_x
_atom_site_fract_y
_atom_site_fract_z
Si Si1 0.937864 0.261884 0.203637
Si Si2 0.878428 0.851354 0.698617
Si Si3 0.340440 0.293751 0.210129
Si Si4 0.050625 0.504693 0.698430
Si Si5 0.863883 0.618497 0.197337
Si Si6 0.019551 0.112081 0.707780
Si Si7 0.702964 0.496235 0.200989
Si Si8 0.699523 0.929449 0.789139
O O1 0.893357 0.196975 0.257218
O O2 0.935684 0.374234 0.292879
O O3 0.984108 0.201370 0.239914
O O4 0.934470 0.281562 0.000000
O O5 0.879157 0.883955 0.500000
O O6 0.865671 0.729374 0.710385
O O7 0.929238 0.868115 0.769609
O O8 0.839835 0.920078 0.785852
O O9 0.311381 0.391395 0.275248
O O10 0.321474 0.181174 0.266354
O O11 0.338773 0.295690 0.000000
O O12 0.049373 0.468472 0.500000
O O13 0.086692 0.433779 0.794105
O O14 0.000000 0.500000 0.770218
O O15 0.830088 0.529464 0.266675
O O16 0.851182 0.639731 0.000000
O O17 0.020763 0.112044 0.500000
O O18 0.000000 0.000000 0.765906
O O19 0.748979 0.445546 0.270070
O O20 0.712631 0.514247 0.000000
O O21 0.697426 0.927512 0.000000
#
# Coordination Sequence:
#
# PCOD9428080 Si02
#       8
#     8   8   8   8   8   8   8   8
#     4  11  21  35  58  87 120 153 195 255 303 351
#     4  11  24  41  59  86 127 161 195 249 303 357
#     4   9  18  35  58  90 123 147 189 250 300 344
#     4  11  23  38  56  82 118 158 198 242 301 364
#     4  11  22  39  63  89 119 156 204 251 300 362
#     4  10  22  40  60  82 116 164 208 245 299 368
#     4  10  21  37  65  91 114 154 201 245 294 357
#     4   9  19  36  61  91 118 149 193 249 303 349
#
# _framework density 21.804307999999999
#
# number of rings (size 3 to 8) (size 9 to 14) (size 15 to 20)
#    0.000    1.750    1.250    3.000    1.750    5.250 
#    0.000    1.875    0.000    0.000    0.000    0.000 
#    0.000    0.000    0.000    0.000    0.000    0.000 
#
# Total GULP energy -357734.749176 kJ/mol
# GULP energy per Si atom -5589.605456 kJ/mol
# Density = 2.175468 g / cm^3
# Si number density = 21.804308 Si / 1000 Ang^3
#
#
#
# Elastic Constant Matrix: (Units=GPa)
#
#
# Indices 1 2 3 4 5 6 
#
# 1 152.6450 46.5269 -2.7154 0.0000 0.0000 0.0000
# 2 46.5269 105.0786 -10.0516 0.0000 0.0000 0.0000
# 3 -2.7154 -10.0516 31.3836 0.0000 0.0000 0.0000
# 4 0.0000 0.0000 0.0000 21.0794 0.0000 0.0000
# 5 0.0000 0.0000 0.0000 0.0000 35.2508 0.0000
# 6 0.0000 0.0000 0.0000 0.0000 0.0000 32.9656
#
#
#
# Elastic Compliance Matrix: (Units=1/GPa)
#
#
# Indices 1 2 3 4 5 6 
#
# 1 0.007579 -0.003397 -0.000432 0.000000 0.000000 0.000000
# 2 -0.003397 0.011340 0.003338 0.000000 0.000000 0.000000
# 3 -0.000432 0.003338 0.032895 0.000000 0.000000 0.000000
# 4 0.000000 0.000000 0.000000 0.047440 0.000000 0.000000
# 5 0.000000 0.000000 0.000000 0.000000 0.028368 0.000000
# 6 0.000000 0.000000 0.000000 0.000000 0.000000 0.030335
#
#
# Mechanical properties :
#
#
# Convention : Reuss Voigt Hill
#
# Bulk Modulus (GPa) = 19.67265 39.62520 29.64893
# Shear Modulus (GPa) = 28.42789 34.88234 31.65512
#
# Velocity S-wave (km/s) = 3.61470 4.00408 3.81436
# Velocity P-wave (km/s) = 5.14425 6.29201 5.74686
#
# Compressibility (1/GPa) = 0.05083198
#
# Stress axis : x y z
#
# Youngs Moduli (GPa) = 131.94475 88.18181 30.39930
#
# Poissons Ratio (x) = 0.29957 0.01314
# Poissons Ratio (y) = 0.44824 -0.10148
# Poissons Ratio (z) = 0.05704 -0.29436
#
# Static dielectric constant tensor:
#      x y z
#    x 1.789510 0.000000 0.000000 
#    y 0.000000 1.757340 0.000000 
#    z 0.000000 0.000000 1.814590 
# 
# From -- ./inp_files/10797.got.cif
#   From: 2010.05.17/outbox.cif.g08.bks.cpg/sg55_6_cif.got.tgz:10797.got - 2010.06.03 13:27:54.
