data_PCOD9428515
_publ_section_title
;
Structure prediction by ZEFSAII (Michael W. Deem and Ramdas Pophale) SiO2 
 PCOD9428515
Probable space group: P B A M
;
_chemical_formula_sum "Si O2"
_cell_formula_units_Z 64
_cell_length_a 12.132954
_cell_length_b 34.475614
_cell_length_c 8.938988
_cell_angle_alpha 90.000000
_cell_angle_beta 90.000000
_cell_angle_gamma 90.000000
_cell_volume 3739.098576
_symmetry_space_group_name_H-M "P B A M"
_symmetry_group_IT_number 55
_symmetry_cell_setting 'orthorhombic'
loop_
_space_group_symop_operation_xyz
x,y,z
-x,-y,z
1/2+x,1/2-y,-z
1/2-x,1/2+y,-z
-x,-y,-z
x,y,-z
1/2-x,1/2+y,z
1/2+x,1/2-y,z
loop_
_atom_site_type_symbol
_atom_site_label
_atom_site_fract_x
_atom_site_fract_y
_atom_site_fract_z
Si Si1 0.954746 0.169719 0.679323
Si Si2 0.867049 0.316673 0.821264
Si Si3 0.892569 0.678452 0.679779
Si Si4 0.297766 0.270263 0.821799
Si Si5 0.262716 0.391121 0.321742
Si Si6 0.815086 0.869364 0.320696
Si Si7 0.608947 0.449203 0.180667
Si Si8 0.146549 0.964496 0.179246
O O1 0.947905 0.176148 0.500000
O O2 0.905595 0.206732 0.763576
O O3 0.871682 0.134251 0.715858
O O4 0.077809 0.156916 0.718499
O O5 0.811464 0.275013 0.788412
O O6 0.791827 0.350033 0.750931
O O7 0.988376 0.316919 0.751247
O O8 0.873804 0.320921 0.000000
O O9 0.897362 0.681149 0.500000
O O10 0.806644 0.710338 0.740846
O O11 0.838999 0.636629 0.719691
O O12 0.287369 0.275453 0.000000
O O13 0.261673 0.396121 0.500000
O O14 0.272252 0.432733 0.246292
O O15 0.806684 0.870338 0.500000
O O16 0.838247 0.912213 0.258419
O O17 0.479131 0.452681 0.220371
O O18 0.661758 0.490663 0.224063
O O19 0.615531 0.445391 0.000000
O O20 0.152326 0.963218 0.000000
#
# Coordination Sequence:
#
# PCOD9428515 Si02
#       8
#     8   8   8   8   8   8   8   8
#     4   9  19  34  52  79 111 142 180 221 267 326
#     4  11  25  41  57  80 109 144 186 229 276 329
#     4  10  22  40  59  80 109 143 183 228 272 325
#     4  10  22  38  58  82 108 139 179 228 276 323
#     4   9  17  32  53  79 109 139 176 222 269 317
#     4  11  22  36  55  81 111 149 187 223 276 332
#     4   9  18  32  49  77 116 149 181 223 269 323
#     4   9  17  29  50  80 112 147 182 218 269 326
#
# _framework density 17.116425
#
# number of rings (size 3 to 8) (size 9 to 14) (size 15 to 20)
#    0.000    2.250    1.250    3.000    1.750    6.000 
#    0.000    1.250    0.000    0.750    0.000    5.250 
#    0.000    0.000    0.000    0.000    0.000    0.000 
#
# Total GULP energy -357160.916773 kJ/mol
# GULP energy per Si atom -5580.639325 kJ/mol
# Density = 1.707747 g / cm^3
# Si number density = 17.116425 Si / 1000 Ang^3
#
#
#
# Elastic Constant Matrix: (Units=GPa)
#
#
# Indices 1 2 3 4 5 6 
#
# 1 103.2422 64.4492 45.3618 0.0000 0.0000 0.0000
# 2 64.4492 136.8334 59.8602 0.0000 0.0000 0.0000
# 3 45.3618 59.8602 46.9516 0.0000 0.0000 0.0000
# 4 0.0000 0.0000 0.0000 125.7917 0.0000 0.0000
# 5 0.0000 0.0000 0.0000 0.0000 25.2872 0.0000
# 6 0.0000 0.0000 0.0000 0.0000 0.0000 20.8034
#
#
#
# Elastic Compliance Matrix: (Units=1/GPa)
#
#
# Indices 1 2 3 4 5 6 
#
# 1 0.017038 -0.001863 -0.014086 0.000000 0.000000 0.000000
# 2 -0.001863 0.016728 -0.019528 0.000000 0.000000 0.000000
# 3 -0.014086 -0.019528 0.059805 0.000000 0.000000 0.000000
# 4 0.000000 0.000000 0.000000 0.007950 0.000000 0.000000
# 5 0.000000 0.000000 0.000000 0.000000 0.039546 0.000000
# 6 0.000000 0.000000 0.000000 0.000000 0.000000 0.048069
#
#
# Mechanical properties :
#
#
# Convention : Reuss Voigt Hill
#
# Bulk Modulus (GPa) = 44.21404 69.59662 56.90533
# Shear Modulus (GPa) = 18.68266 42.20018 30.44142
#
# Velocity S-wave (km/s) = 3.30738 4.97075 4.22179
# Velocity P-wave (km/s) = 6.36179 8.58449 7.55532
#
# Compressibility (1/GPa) = 0.02261725
#
# Stress axis : x y z
#
# Youngs Moduli (GPa) = 58.69302 59.77881 16.72111
#
# Poissons Ratio (x) = 0.11135 0.23554
# Poissons Ratio (y) = 0.10932 0.32653
# Poissons Ratio (z) = 0.82676 1.16736
#
# Static dielectric constant tensor:
#      x y z
#    x 1.558500 0.000000 0.000000 
#    y 0.000000 1.577420 0.000000 
#    z 0.000000 0.000000 1.569420 
# 
# From -- ./inp_files/4668.got.cif
#   From: 2010.05.17/outbox.cif.g08.bks.cpg/sg55_3_cif.got.tgz:4668.got - 2010.06.03 13:27:54.
