data_PCOD9428685
_publ_section_title
;
Structure prediction by ZEFSAII (Michael W. Deem and Ramdas Pophale) SiO2 
 PCOD9428685
Probable space group: P B A M
;
_chemical_formula_sum "Si O2"
_cell_formula_units_Z 40
_cell_length_a 10.048074
_cell_length_b 10.902183
_cell_length_c 16.960022
_cell_angle_alpha 90.000000
_cell_angle_beta 90.000000
_cell_angle_gamma 90.000000
_cell_volume 1857.901579
_symmetry_space_group_name_H-M "P B A M"
_symmetry_group_IT_number 55
_symmetry_cell_setting 'orthorhombic'
loop_
_space_group_symop_operation_xyz
x,y,z
-x,-y,z
1/2+x,1/2-y,-z
1/2-x,1/2+y,-z
-x,-y,-z
x,y,-z
1/2-x,1/2+y,z
1/2+x,1/2-y,z
loop_
_atom_site_type_symbol
_atom_site_label
_atom_site_fract_x
_atom_site_fract_y
_atom_site_fract_z
Si Si1 0.556921 0.117491 0.409275
Si Si2 0.357635 0.338959 0.409813
Si Si3 0.658235 0.018677 0.906963
Si Si4 0.506695 0.631624 0.250399
Si Si5 0.249721 0.228821 0.178113
O O1 0.585414 0.082936 0.500000
O O2 0.435335 0.210681 0.411231
O O3 0.702156 0.166315 0.387446
O O4 0.500000 0.000000 0.363952
O O5 0.372932 0.389492 0.500000
O O6 0.432040 0.397931 0.336189
O O7 0.726691 0.895481 0.872061
O O8 0.500000 0.000000 0.896271
O O9 0.699829 0.148570 0.867589
O O10 0.687262 0.026085 0.000000
O O11 0.500000 0.500000 0.207464
O O12 0.610673 0.727678 0.214284
O O13 0.361873 0.691114 0.242252
#
# Coordination Sequence:
#
# PCOD9428685 Si02
#       5
#     8   8   8   8   8
#     4   9  19  38  62  89 123 161 215 289 353 406
#     4  10  22  41  63  92 127 176 240 291 342 410
#     4  11  24  45  76 110 143 181 226 277 337 411
#     4  12  26  43  67  97 140 184 229 288 353 407
#     4  12  24  47  69 106 144 183 226 278 343 417
#
# _framework density 21.529665999999999
#
# number of rings (size 3 to 8) (size 9 to 14) (size 15 to 20)
#    0.000    1.200    4.000    1.800    0.000    3.600 
#    3.600    5.000    0.000    0.000    0.000    0.000 
#    0.000    0.000    0.000    0.000    0.000    0.000 
#
# Total GULP energy -222796.561573 kJ/mol
# GULP energy per Si atom -5569.914039 kJ/mol
# Density = 2.148066 g / cm^3
# Si number density = 21.529666 Si / 1000 Ang^3
#
#
#
# Elastic Constant Matrix: (Units=GPa)
#
#
# Indices 1 2 3 4 5 6 
#
# 1 127.1306 75.5341 56.2920 0.0000 0.0000 0.0000
# 2 75.5341 116.4021 31.6793 0.0000 0.0000 0.0000
# 3 56.2920 31.6793 59.3739 0.0000 0.0000 0.0000
# 4 0.0000 0.0000 0.0000 10.6418 0.0000 0.0000
# 5 0.0000 0.0000 0.0000 0.0000 13.4893 0.0000
# 6 0.0000 0.0000 0.0000 0.0000 0.0000 36.6895
#
#
#
# Elastic Compliance Matrix: (Units=1/GPa)
#
#
# Indices 1 2 3 4 5 6 
#
# 1 0.018884 -0.008635 -0.013296 0.000000 0.000000 0.000000
# 2 -0.008635 0.013999 0.000718 0.000000 0.000000 0.000000
# 3 -0.013296 0.000718 0.029066 0.000000 0.000000 0.000000
# 4 0.000000 0.000000 0.000000 0.093969 0.000000 0.000000
# 5 0.000000 0.000000 0.000000 0.000000 0.074133 0.000000
# 6 0.000000 0.000000 0.000000 0.000000 0.000000 0.027256
#
#
# Mechanical properties :
#
#
# Convention : Reuss Voigt Hill
#
# Bulk Modulus (GPa) = 51.22708 69.99081 60.60894
# Shear Modulus (GPa) = 16.32696 21.45752 18.89224
#
# Velocity S-wave (km/s) = 2.75680 3.16040 2.96547
# Velocity P-wave (km/s) = 5.82912 6.77474 6.31964
#
# Compressibility (1/GPa) = 0.01952092
#
# Stress axis : x y z
#
# Youngs Moduli (GPa) = 52.95465 71.43331 34.40482
#
# Poissons Ratio (x) = 0.61685 0.45746
# Poissons Ratio (y) = 0.45728 -0.02470
# Poissons Ratio (z) = 0.70411 -0.05128
#
# Static dielectric constant tensor:
#      x y z
#    x 1.808100 0.000000 0.000000 
#    y 0.000000 1.819150 0.000000 
#    z 0.000000 0.000000 1.878600 
# 
# From -- ./inp_files/20607.got.cif
#   From: 2010.05.17/outbox.cif.g08.bks.cpg/sg55_11_cif.got.tgz:20607.got - 2010.06.03 13:27:54.
