data_PCOD9428230
_publ_section_title
;
Structure prediction by ZEFSAII (Michael W. Deem and Ramdas Pophale) SiO2 
 PCOD9428230
Probable space group: P B A M
;
_chemical_formula_sum "Si O2"
_cell_formula_units_Z 58
_cell_length_a 5.198741
_cell_length_b 18.183687
_cell_length_c 23.109631
_cell_angle_alpha 90.000000
_cell_angle_beta 90.000000
_cell_angle_gamma 90.000000
_cell_volume 2184.606088
_symmetry_space_group_name_H-M "P B A M"
_symmetry_group_IT_number 55
_symmetry_cell_setting 'orthorhombic'
loop_
_space_group_symop_operation_xyz
x,y,z
-x,-y,z
1/2+x,1/2-y,-z
1/2-x,1/2+y,-z
-x,-y,-z
x,y,-z
1/2-x,1/2+y,z
1/2+x,1/2-y,z
loop_
_atom_site_type_symbol
_atom_site_label
_atom_site_fract_x
_atom_site_fract_y
_atom_site_fract_z
Si Si1 0.000000 0.500000 0.000000
Si Si2 0.263842 0.796421 0.235334
Si Si3 0.352127 0.577833 0.088404
Si Si4 0.969011 0.087888 0.310638
Si Si5 0.066786 0.706247 0.569228
Si Si6 0.244988 0.551805 0.211593
Si Si7 0.277955 0.293915 0.903959
Si Si8 0.558363 0.413142 0.435614
O O1 0.111180 0.557580 0.049391
O O2 0.017664 0.747463 0.250892
O O3 0.236980 0.872259 0.270227
O O4 0.239758 0.806401 0.165778
O O5 0.500000 0.500000 0.088187
O O6 0.255317 0.597818 0.152774
O O7 0.569821 0.636134 0.070626
O O8 0.218426 0.098827 0.269537
O O9 0.930314 0.112505 0.376133
O O10 0.000000 0.000000 0.318336
O O11 0.047291 0.714029 0.500000
O O12 0.811201 0.746338 0.591047
O O13 0.152907 0.620012 0.575211
O O14 0.500000 0.500000 0.207904
O O15 0.000000 0.500000 0.211286
O O16 0.986788 0.270554 0.919225
O O17 0.500000 0.500000 0.439233
O O18 0.481546 0.384571 0.500000
#
# Coordination Sequence:
#
# PCOD9428230 Si02
#       8
#     2   8   8   8   8   8   8   8
#     4  12  26  44  72 110 140 184 242 294 342 402
#     4  10  22  40  63  98 136 173 221 284 348 409
#     4  11  24  44  72 105 146 187 243 297 349 410
#     4  10  21  39  63  97 131 174 229 283 344 419
#     4   9  18  35  59  85 114 157 211 261 319 393
#     4  10  21  38  64  97 128 168 216 280 337 389
#     4  10  23  42  69 102 143 189 233 287 362 423
#     4   9  19  38  63  92 132 176 222 280 347 416
#
# _framework density 26.549406999999999
#
# number of rings (size 3 to 8) (size 9 to 14) (size 15 to 20)
#    0.000    2.069    2.069    0.207    1.931    3.310 
#    0.000    5.517    0.000    6.207    0.000    0.000 
#    0.000    0.000    0.000    0.000    0.000    0.000 
#
# Total GULP energy -323090.692095 kJ/mol
# GULP energy per Si atom -5570.529174 kJ/mol
# Density = 2.648898 g / cm^3
# Si number density = 26.549407 Si / 1000 Ang^3
#
#
#
# Elastic Constant Matrix: (Units=GPa)
#
#
# Indices 1 2 3 4 5 6 
#
# 1 171.1459 41.0154 11.3999 0.0000 0.0000 0.0000
# 2 41.0154 131.3341 15.4996 0.0000 0.0000 0.0000
# 3 11.3999 15.4996 114.2615 0.0000 0.0000 0.0000
# 4 0.0000 0.0000 0.0000 22.1165 0.0000 0.0000
# 5 0.0000 0.0000 0.0000 0.0000 -66.3745 0.0000
# 6 0.0000 0.0000 0.0000 0.0000 0.0000 61.3472
#
#
#
# Elastic Compliance Matrix: (Units=1/GPa)
#
#
# Indices 1 2 3 4 5 6 
#
# 1 0.006331 -0.001934 -0.000369 0.000000 0.000000 0.000000
# 2 -0.001934 0.008329 -0.000937 0.000000 0.000000 0.000000
# 3 -0.000369 -0.000937 0.008916 0.000000 0.000000 0.000000
# 4 0.000000 0.000000 0.000000 0.045215 0.000000 0.000000
# 5 0.000000 0.000000 0.000000 0.000000 -0.015066 0.000000
# 6 0.000000 0.000000 0.000000 0.000000 0.000000 0.016301
#
#
# Mechanical properties :
#
#
# Convention : Reuss Voigt Hill
#
# Bulk Modulus (GPa) = 58.49396 61.39679 59.94537
# Shear Modulus (GPa) = 60.82494 26.67295 43.74894
#
# Velocity S-wave (km/s) = 4.79164 3.17307 4.06375
# Velocity P-wave (km/s) = 7.25900 6.04981 6.68181
#
# Compressibility (1/GPa) = 0.01709578
#
# Stress axis : x y z
#
# Youngs Moduli (GPa) = 157.95420 120.06850 112.16061
#
# Poissons Ratio (x) = 0.23216 0.04143
# Poissons Ratio (y) = 0.30541 0.10508
# Poissons Ratio (z) = 0.05834 0.11249
#
# Static dielectric constant tensor:
#      x y z
#    x 2.054670 0.000000 0.000000 
#    y 0.000000 -36.650270 0.000000 
#    z 0.000000 0.000000 2.189100 
# 
# From -- ./inp_files/23857.got.cif
#   From: 2010.05.17/outbox.cif.g08.bks.cpg/sg55_12_cif.got.tgz:23857.got - 2010.06.03 13:27:54.
