data_PCOD9428344
_publ_section_title
;
Structure prediction by ZEFSAII (Michael W. Deem and Ramdas Pophale) SiO2 
 PCOD9428344
Probable space group: P B A M
;
_chemical_formula_sum "Si O2"
_cell_formula_units_Z 64
_cell_length_a 22.337598
_cell_length_b 14.600209
_cell_length_c 7.818637
_cell_angle_alpha 90.000000
_cell_angle_beta 90.000000
_cell_angle_gamma 90.000000
_cell_volume 2549.920227
_symmetry_space_group_name_H-M "P B A M"
_symmetry_group_IT_number 55
_symmetry_cell_setting 'orthorhombic'
loop_
_space_group_symop_operation_xyz
x,y,z
-x,-y,z
1/2+x,1/2-y,-z
1/2-x,1/2+y,-z
-x,-y,-z
x,y,-z
1/2-x,1/2+y,z
1/2+x,1/2-y,z
loop_
_atom_site_type_symbol
_atom_site_label
_atom_site_fract_x
_atom_site_fract_y
_atom_site_fract_z
Si Si1 0.906950 0.449935 0.703162
Si Si2 0.921315 0.932460 0.694781
Si Si3 0.499610 0.190052 0.208210
Si Si4 0.951722 0.125133 0.805910
Si Si5 0.873027 0.651456 0.197261
Si Si6 0.819001 0.294007 0.304257
Si Si7 0.289294 0.585819 0.204121
Si Si8 0.757769 0.118349 0.203167
O O1 0.896675 0.463979 0.500000
O O2 0.971688 0.405058 0.730797
O O3 0.892338 0.544451 0.795469
O O4 0.862871 0.370264 0.773350
O O5 0.933959 0.907458 0.500000
O O6 0.858250 0.895358 0.756299
O O7 0.977712 0.902027 0.806155
O O8 0.919797 0.043396 0.707884
O O9 0.456173 0.272532 0.266011
O O10 0.567978 0.200691 0.271214
O O11 0.500275 0.191538 0.000000
O O12 0.928927 0.125819 0.000000
O O13 0.806435 0.653108 0.274372
O O14 0.868010 0.682484 0.000000
O O15 0.836573 0.282467 0.500000
O O16 0.754657 0.342850 0.290243
O O17 0.809190 0.193484 0.229057
O O18 0.273536 0.482996 0.266685
O O19 0.280410 0.591068 0.000000
O O20 0.749277 0.108487 0.000000
#
# Coordination Sequence:
#
# PCOD9428344 Si02
#       8
#     8   8   8   8   8   8   8   8
#     4  11  24  41  61  89 125 162 200 247 307 370
#     4  11  23  39  61  89 125 164 199 251 316 369
#     4  10  23  39  63  91 119 155 204 256 302 356
#     4  10  21  40  62  90 121 161 209 255 301 365
#     4  10  21  42  65  90 119 156 203 254 305 359
#     4  11  25  42  62  93 129 166 205 256 318 376
#     4  11  23  42  67  94 123 165 213 260 307 372
#     4  10  23  41  66  94 122 162 210 258 311 371
#
# _framework density 25.098822999999999
#
# number of rings (size 3 to 8) (size 9 to 14) (size 15 to 20)
#    0.000    1.500    1.250    3.750    3.500    6.000 
#    0.000    0.000    0.000    0.000    0.000    0.000 
#    0.000    0.000    0.000    0.000    0.000    0.000 
#
# Total GULP energy -358231.417738 kJ/mol
# GULP energy per Si atom -5597.365902 kJ/mol
# Density = 2.504170 g / cm^3
# Si number density = 25.098823 Si / 1000 Ang^3
#
#
#
# Elastic Constant Matrix: (Units=GPa)
#
#
# Indices 1 2 3 4 5 6 
#
# 1 80.0017 -5.9899 -0.8571 0.0000 0.0000 0.0000
# 2 -5.9899 98.0821 -1.8471 0.0000 0.0000 0.0000
# 3 -0.8571 -1.8471 68.7701 0.0000 0.0000 0.0000
# 4 0.0000 0.0000 0.0000 35.8296 0.0000 0.0000
# 5 0.0000 0.0000 0.0000 0.0000 3.9005 0.0000
# 6 0.0000 0.0000 0.0000 0.0000 0.0000 43.4217
#
#
#
# Elastic Compliance Matrix: (Units=1/GPa)
#
#
# Indices 1 2 3 4 5 6 
#
# 1 0.012559 0.000770 0.000177 0.000000 0.000000 0.000000
# 2 0.000770 0.010248 0.000285 0.000000 0.000000 0.000000
# 3 0.000177 0.000285 0.014551 0.000000 0.000000 0.000000
# 4 0.000000 0.000000 0.000000 0.027910 0.000000 0.000000
# 5 0.000000 0.000000 0.000000 0.000000 0.256380 0.000000
# 6 0.000000 0.000000 0.000000 0.000000 0.000000 0.023030
#
#
# Mechanical properties :
#
#
# Convention : Reuss Voigt Hill
#
# Bulk Modulus (GPa) = 25.11105 25.49620 25.30362
# Shear Modulus (GPa) = 14.06519 33.66689 23.86604
#
# Velocity S-wave (km/s) = 2.36983 3.66645 3.08698
# Velocity P-wave (km/s) = 4.18506 5.30134 4.77592
#
# Compressibility (1/GPa) = 0.03982311
#
# Stress axis : x y z
#
# Youngs Moduli (GPa) = 79.62219 97.58050 68.72354
#
# Poissons Ratio (x) = -0.07517 -0.01218
# Poissons Ratio (y) = -0.06134 -0.01958
# Poissons Ratio (z) = -0.01411 -0.02780
#
# Static dielectric constant tensor:
#      x y z
#    x 2.012190 0.000000 0.000000 
#    y 0.000000 2.007000 0.000000 
#    z 0.000000 0.000000 1.915660 
# 
# From -- ./inp_files/9641.got.cif
#   From: 2010.05.17/outbox.cif.g08.bks.cpg/sg55_5_cif.got.tgz:9641.got - 2010.06.03 13:27:54.
