data_PCOD9428794
_publ_section_title
;
Structure prediction by ZEFSAII (Michael W. Deem and Ramdas Pophale) SiO2 
 PCOD9428794
Probable space group: P B A M
;
_chemical_formula_sum "Si O2"
_cell_formula_units_Z 32
_cell_length_a 9.104791
_cell_length_b 16.136495
_cell_length_c 10.311749
_cell_angle_alpha 90.000000
_cell_angle_beta 90.000000
_cell_angle_gamma 90.000000
_cell_volume 1514.996125
_symmetry_space_group_name_H-M "P B A M"
_symmetry_group_IT_number 55
_symmetry_cell_setting 'orthorhombic'
loop_
_space_group_symop_operation_xyz
x,y,z
-x,-y,z
1/2+x,1/2-y,-z
1/2-x,1/2+y,-z
-x,-y,-z
x,y,-z
1/2-x,1/2+y,z
1/2+x,1/2-y,z
loop_
_atom_site_type_symbol
_atom_site_label
_atom_site_fract_x
_atom_site_fract_y
_atom_site_fract_z
Si Si1 0.165817 0.122368 0.646853
Si Si2 0.145734 0.743568 0.500000
Si Si3 0.060792 0.905009 0.856942
Si Si4 0.373585 0.865164 0.500000
Si Si5 0.147667 0.468238 0.754472
O O1 0.119248 0.098271 0.500000
O O2 0.276432 0.198642 0.622929
O O3 0.029738 0.138528 0.741884
O O4 0.259848 0.047237 0.705103
O O5 0.204802 0.836040 0.500000
O O6 0.977986 0.715944 0.500000
O O7 0.234256 0.912828 0.830576
O O8 0.032025 0.869874 0.000000
O O9 0.000000 0.000000 0.857393
O O10 0.403193 0.917959 0.372555
O O11 0.000000 0.500000 0.823459
#
# Coordination Sequence:
#
# PCOD9428794 Si02
#       5
#     8   4   8   4   8
#     4   9  18  36  56  84 109 143 182 225 276 329
#     4  10  23  34  53  85 114 142 181 230 280 326
#     4   9  20  33  53  84 114 142 178 224 277 327
#     4  12  22  35  52  89 113 140 182 235 278 321
#     4  11  19  34  58  79 114 146 184 227 274 327
#
# _framework density 21.122167000000001
#
# number of rings (size 3 to 8) (size 9 to 14) (size 15 to 20)
#    0.750    1.250    3.750    0.375    5.250    2.000 
#    0.000    0.000    0.000    1.500    0.000    0.000 
#    0.000    0.000    0.000    0.000    0.000    0.000 
#
# Total GULP energy -178469.405671 kJ/mol
# GULP energy per Si atom -5577.168927 kJ/mol
# Density = 2.107409 g / cm^3
# Si number density = 21.122167 Si / 1000 Ang^3
#
#
#
# Elastic Constant Matrix: (Units=GPa)
#
#
# Indices 1 2 3 4 5 6 
#
# 1 145.2411 4.3213 38.5461 0.0000 0.0000 0.0000
# 2 4.3213 21.6353 -18.9559 0.0000 0.0000 0.0000
# 3 38.5461 -18.9559 81.6839 0.0000 0.0000 0.0000
# 4 0.0000 0.0000 0.0000 -5.8840 0.0000 0.0000
# 5 0.0000 0.0000 0.0000 0.0000 -0.6745 0.0000
# 6 0.0000 0.0000 0.0000 0.0000 0.0000 37.6060
#
#
#
# Elastic Compliance Matrix: (Units=1/GPa)
#
#
# Indices 1 2 3 4 5 6 
#
# 1 0.008559 -0.006587 -0.005568 0.000000 0.000000 0.000000
# 2 -0.006587 0.063087 0.017749 0.000000 0.000000 0.000000
# 3 -0.005568 0.017749 0.018988 0.000000 0.000000 0.000000
# 4 0.000000 0.000000 0.000000 -0.169953 0.000000 0.000000
# 5 0.000000 0.000000 0.000000 0.000000 -1.482647 0.000000
# 6 0.000000 0.000000 0.000000 0.000000 0.000000 0.026592
#
#
# Mechanical properties :
#
#
# Convention : Reuss Voigt Hill
#
# Bulk Modulus (GPa) = 9.82102 32.93149 21.37626
# Shear Modulus (GPa) = -3.30552 21.18608 8.94028
#
# Velocity S-wave (km/s) = -1.25234 3.17049 2.05957
# Velocity P-wave (km/s) = 1.60268 5.38772 3.97468
#
# Compressibility (1/GPa) = 0.10182239
#
# Stress axis : x y z
#
# Youngs Moduli (GPa) = 116.84039 15.85102 52.66357
#
# Poissons Ratio (x) = 0.10442 0.29320
# Poissons Ratio (y) = 0.76968 -0.93472
# Poissons Ratio (z) = 0.65051 -0.28134
#
# Static dielectric constant tensor:
#      x y z
#    x 1.815890 0.000000 0.000000 
#    y 0.000000 1.749160 0.000000 
#    z 0.000000 0.000000 1.752890 
# 
# From -- ./inp_files/11825.got.cif
#   From: 2010.05.17/outbox.cif.g08.bks.cpg/sg55_6_cif.got.tgz:11825.got - 2010.06.03 13:27:54.
