data_PCOD9428887
_publ_section_title
;
Structure prediction by ZEFSAII (Michael W. Deem and Ramdas Pophale) SiO2 
 PCOD9428887
Probable space group: P B A M
;
_chemical_formula_sum "Si O2"
_cell_formula_units_Z 64
_cell_length_a 15.065913
_cell_length_b 8.330120
_cell_length_c 21.884005
_cell_angle_alpha 90.000000
_cell_angle_beta 90.000000
_cell_angle_gamma 90.000000
_cell_volume 2746.461518
_symmetry_space_group_name_H-M "P B A M"
_symmetry_group_IT_number 55
_symmetry_cell_setting 'orthorhombic'
loop_
_space_group_symop_operation_xyz
x,y,z
-x,-y,z
1/2+x,1/2-y,-z
1/2-x,1/2+y,-z
-x,-y,-z
x,y,-z
1/2-x,1/2+y,z
1/2+x,1/2-y,z
loop_
_atom_site_type_symbol
_atom_site_label
_atom_site_fract_x
_atom_site_fract_y
_atom_site_fract_z
Si Si1 0.766075 0.524421 0.429860
Si Si2 0.321164 0.694391 0.344493
Si Si3 0.322314 0.188462 0.241028
Si Si4 0.405063 0.054077 0.928752
Si Si5 0.754929 0.556103 0.843701
Si Si6 0.399407 0.441953 0.070798
Si Si7 0.443061 0.166225 0.565033
Si Si8 0.498579 0.196398 0.696362
O O1 0.742394 0.561575 0.500000
O O2 0.687421 0.464683 0.385858
O O3 0.817418 0.664813 0.394607
O O4 0.839790 0.382903 0.432563
O O5 0.234649 0.705270 0.302095
O O6 0.405399 0.722128 0.300761
O O7 0.282186 0.280333 0.183519
O O8 0.422725 0.238006 0.255068
O O9 0.303842 0.010876 0.217106
O O10 0.395899 0.247122 0.924483
O O11 0.500000 0.000000 0.903271
O O12 0.329678 0.955907 0.894509
O O13 0.402091 0.011780 0.000000
O O14 0.668102 0.486551 0.879072
O O15 0.500000 0.500000 0.080626
O O16 0.375125 0.483417 0.000000
O O17 0.461714 0.248725 0.500000
O O18 0.467657 0.246638 0.628321
O O19 0.500000 0.000000 0.563670
O O20 0.500000 0.000000 0.697554
#
# Coordination Sequence:
#
# PCOD9428887 Si02
#       8
#     8   8   8   8   8   8   8   8
#     4  11  22  38  66 101 130 160 212 278 350 419
#     4  12  23  43  68  92 131 176 215 281 343 402
#     4  12  27  43  66  96 132 181 242 283 328 407
#     4  10  23  44  73 108 143 183 231 284 343 410
#     4  12  25  46  67 100 137 185 236 285 341 405
#     4  10  23  44  72 108 147 181 222 285 353 412
#     4   9  16  32  61  92 118 156 214 268 324 404
#     4  11  21  42  65  91 127 177 228 278 336 408
#
# _framework density 23.302712
#
# number of rings (size 3 to 8) (size 9 to 14) (size 15 to 20)
#    0.000    1.125    5.000    2.250    1.750    3.000 
#    0.000    1.875    0.000    0.750    0.000    0.000 
#    0.000    0.000    0.000    0.000    0.000    0.000 
#
# Total GULP energy -357310.811754 kJ/mol
# GULP energy per Si atom -5582.981434 kJ/mol
# Density = 2.324967 g / cm^3
# Si number density = 23.302712 Si / 1000 Ang^3
#
#
#
# Elastic Constant Matrix: (Units=GPa)
#
#
# Indices 1 2 3 4 5 6 
#
# 1 130.2227 15.2836 44.6318 0.0000 0.0000 0.0000
# 2 15.2836 17.8415 17.4049 0.0000 0.0000 0.0000
# 3 44.6318 17.4049 93.9991 0.0000 0.0000 0.0000
# 4 0.0000 0.0000 0.0000 -25.0063 0.0000 0.0000
# 5 0.0000 0.0000 0.0000 0.0000 31.5410 0.0000
# 6 0.0000 0.0000 0.0000 0.0000 0.0000 21.8516
#
#
#
# Elastic Compliance Matrix: (Units=1/GPa)
#
#
# Indices 1 2 3 4 5 6 
#
# 1 0.009464 -0.004544 -0.003652 0.000000 0.000000 0.000000
# 2 -0.004544 0.070587 -0.010912 0.000000 0.000000 0.000000
# 3 -0.003652 -0.010912 0.014393 0.000000 0.000000 0.000000
# 4 0.000000 0.000000 0.000000 -0.039990 0.000000 0.000000
# 5 0.000000 0.000000 0.000000 0.000000 0.031705 0.000000
# 6 0.000000 0.000000 0.000000 0.000000 0.000000 0.045763
#
#
# Mechanical properties :
#
#
# Convention : Reuss Voigt Hill
#
# Bulk Modulus (GPa) = 17.78519 44.07821 30.93170
# Shear Modulus (GPa) = 26.47152 16.66014 21.56583
#
# Velocity S-wave (km/s) = 3.37409 2.67674 3.04544
# Velocity P-wave (km/s) = 4.77788 5.33946 5.06646
#
# Compressibility (1/GPa) = 0.05622655
#
# Stress axis : x y z
#
# Youngs Moduli (GPa) = 105.66043 14.16692 69.47805
#
# Poissons Ratio (x) = 0.06438 0.25375
# Poissons Ratio (y) = 0.48017 0.75815
# Poissons Ratio (z) = 0.38590 0.15459
#
# Static dielectric constant tensor:
#      x y z
#    x 1.916970 0.000000 0.000000 
#    y 0.000000 2.257920 0.000000 
#    z 0.000000 0.000000 1.860810 
# 
# From -- ./inp_files/23624.got.cif
#   From: 2010.05.17/outbox.cif.g08.bks.cpg/sg55_12_cif.got.tgz:23624.got - 2010.06.03 13:27:54.
