data_PCOD9428485
_publ_section_title
;
Structure prediction by ZEFSAII (Michael W. Deem and Ramdas Pophale) SiO2 
 PCOD9428485
Probable space group: P B A M
;
_chemical_formula_sum "Si O2"
_cell_formula_units_Z 64
_cell_length_a 13.714298
_cell_length_b 13.928141
_cell_length_c 14.982439
_cell_angle_alpha 90.000000
_cell_angle_beta 90.000000
_cell_angle_gamma 90.000000
_cell_volume 2861.865735
_symmetry_space_group_name_H-M "P B A M"
_symmetry_group_IT_number 55
_symmetry_cell_setting 'orthorhombic'
loop_
_space_group_symop_operation_xyz
x,y,z
-x,-y,z
1/2+x,1/2-y,-z
1/2-x,1/2+y,-z
-x,-y,-z
x,y,-z
1/2-x,1/2+y,z
1/2+x,1/2-y,z
loop_
_atom_site_type_symbol
_atom_site_label
_atom_site_fract_x
_atom_site_fract_y
_atom_site_fract_z
Si Si1 0.604601 0.674756 0.602415
Si Si2 0.054299 0.903587 0.890386
Si Si3 0.583803 0.929706 0.173250
Si Si4 0.442490 0.778745 0.102770
Si Si5 0.305563 0.910711 0.607455
Si Si6 0.224127 0.406225 0.892393
Si Si7 0.185978 0.629107 0.660010
Si Si8 0.890826 0.791308 0.609408
O O1 0.596866 0.641876 0.500000
O O2 0.696927 0.617670 0.641557
O O3 0.635347 0.787114 0.603003
O O4 0.495665 0.669941 0.639385
O O5 0.165830 0.902648 0.860214
O O6 0.992161 0.813907 0.856837
O O7 0.057022 0.899436 0.000000
O O8 0.000000 0.000000 0.865010
O O9 0.522010 0.863877 0.106449
O O10 0.638014 0.862278 0.243136
O O11 0.500000 0.000000 0.213335
O O12 0.666475 0.997128 0.131651
O O13 0.343225 0.819768 0.143608
O O14 0.420440 0.755540 0.000000
O O15 0.302458 0.910070 0.500000
O O16 0.375756 0.821746 0.632600
O O17 0.332622 0.017981 0.635417
O O18 0.225398 0.400018 0.000000
O O19 0.300461 0.650715 0.650247
O O20 0.884358 0.798155 0.500000
#
# Coordination Sequence:
#
# PCOD9428485 Si02
#       8
#     8   8   8   8   8   8   8   8
#     4   9  19  36  57  82 110 145 188 230 276 330
#     4   9  18  33  57  89 117 139 177 235 288 334
#     4  10  22  37  54  83 111 149 191 234 285 345
#     4   9  18  36  59  83 109 148 196 236 280 336
#     4   9  18  33  56  82 108 141 181 226 272 327
#     4   9  18  36  60  83 112 149 191 239 284 334
#     4  11  21  35  55  81 113 144 182 230 285 332
#     4   9  19  36  57  83 111 144 186 229 275 331
#
# _framework density 22.363033000000001
#
# number of rings (size 3 to 8) (size 9 to 14) (size 15 to 20)
#    0.000    2.625    0.000    2.250    1.750    3.000 
#    4.500    8.750    0.000    0.000    0.000    0.000 
#    0.000    0.000    0.000    0.000    0.000    0.000 
#
# Total GULP energy -357248.903079 kJ/mol
# GULP energy per Si atom -5582.014111 kJ/mol
# Density = 2.231213 g / cm^3
# Si number density = 22.363033 Si / 1000 Ang^3
#
#
#
# Elastic Constant Matrix: (Units=GPa)
#
#
# Indices 1 2 3 4 5 6 
#
# 1 131.2913 19.1717 7.2892 0.0000 0.0000 0.0000
# 2 19.1717 79.5157 -6.6334 0.0000 0.0000 0.0000
# 3 7.2892 -6.6334 43.9799 0.0000 0.0000 0.0000
# 4 0.0000 0.0000 0.0000 -16.9360 0.0000 0.0000
# 5 0.0000 0.0000 0.0000 0.0000 -16.2539 0.0000
# 6 0.0000 0.0000 0.0000 0.0000 0.0000 19.0055
#
#
#
# Elastic Compliance Matrix: (Units=1/GPa)
#
#
# Indices 1 2 3 4 5 6 
#
# 1 0.008010 -0.002068 -0.001639 0.000000 0.000000 0.000000
# 2 -0.002068 0.013270 0.002344 0.000000 0.000000 0.000000
# 3 -0.001639 0.002344 0.023363 0.000000 0.000000 0.000000
# 4 0.000000 0.000000 0.000000 -0.059046 0.000000 0.000000
# 5 0.000000 0.000000 0.000000 0.000000 -0.061524 0.000000
# 6 0.000000 0.000000 0.000000 0.000000 0.000000 0.052616
#
#
# Mechanical properties :
#
#
# Convention : Reuss Voigt Hill
#
# Bulk Modulus (GPa) = 23.85682 32.71576 28.28629
# Shear Modulus (GPa) = -756.22847 12.82708 -371.70070
#
# Velocity S-wave (km/s) = -18.40908 2.39756 -12.90631
# Velocity P-wave (km/s) = 21.00399 4.72499 14.47139
#
# Compressibility (1/GPa) = 0.04191674
#
# Stress axis : x y z
#
# Youngs Moduli (GPa) = 124.84963 75.35636 42.80280
#
# Poissons Ratio (x) = 0.15583 0.07017
# Poissons Ratio (y) = 0.25818 -0.10034
# Poissons Ratio (z) = 0.20468 -0.17666
#
# Static dielectric constant tensor:
#      x y z
#    x 1.812970 0.000000 0.000000 
#    y 0.000000 1.815950 0.000000 
#    z 0.000000 0.000000 1.851780 
# 
# From -- ./inp_files/21635.got.cif
#   From: 2010.05.17/outbox.cif.g08.bks.cpg/sg55_11_cif.got.tgz:21635.got - 2010.06.03 13:27:54.
