data_PCOD9428541
_publ_section_title
;
Structure prediction by ZEFSAII (Michael W. Deem and Ramdas Pophale) SiO2 
 PCOD9428541
Probable space group: P B A M
;
_chemical_formula_sum "Si O2"
_cell_formula_units_Z 28
_cell_length_a 20.264263
_cell_length_b 5.763588
_cell_length_c 10.232285
_cell_angle_alpha 90.000000
_cell_angle_beta 90.000000
_cell_angle_gamma 90.000000
_cell_volume 1195.078325
_symmetry_space_group_name_H-M "P B A M"
_symmetry_group_IT_number 55
_symmetry_cell_setting 'orthorhombic'
loop_
_space_group_symop_operation_xyz
x,y,z
-x,-y,z
1/2+x,1/2-y,-z
1/2-x,1/2+y,-z
-x,-y,-z
x,y,-z
1/2-x,1/2+y,z
1/2+x,1/2-y,z
loop_
_atom_site_type_symbol
_atom_site_label
_atom_site_fract_x
_atom_site_fract_y
_atom_site_fract_z
Si Si1 0.287415 0.578333 0.852678
Si Si2 0.500000 0.500000 0.734627
Si Si3 0.382183 0.781381 0.648352
Si Si4 0.572709 0.882698 0.858753
O O1 0.255798 0.319113 0.846114
O O2 0.334054 0.611136 0.727048
O O3 0.317740 0.589391 0.000000
O O4 0.456402 0.675691 0.650668
O O5 0.552779 0.622959 0.827475
O O6 0.362066 0.825572 0.500000
O O7 0.387155 0.006539 0.740852
O O8 0.500000 0.000000 0.863005
O O9 0.604646 0.914897 0.000000
#
# Coordination Sequence:
#
# PCOD9428541 Si02
#       4
#     8   4   8   8
#     4  10  24  47  72  99 131 175 231 291 347 405
#     4  10  22  38  62  96 134 178 222 276 336 406
#     4  11  24  40  63  95 135 176 220 276 343 417
#     4   9  19  36  58  87 121 163 214 265 320 385
#
# _framework density 23.429428000000001
#
# number of rings (size 3 to 8) (size 9 to 14) (size 15 to 20)
#    0.000    2.000    0.000    1.714    4.000   10.857 
#    0.000    0.000    0.000    0.000    0.000    0.000 
#    0.000    0.000    0.000    0.000    0.000    0.000 
#
# Total GULP energy -156210.476812 kJ/mol
# GULP energy per Si atom -5578.945600 kJ/mol
# Density = 2.337610 g / cm^3
# Si number density = 23.429428 Si / 1000 Ang^3
#
#
#
# Elastic Constant Matrix: (Units=GPa)
#
#
# Indices 1 2 3 4 5 6 
#
# 1 45.7483 31.8697 50.6725 0.0000 0.0000 0.0000
# 2 31.8697 112.7198 44.9625 0.0000 0.0000 0.0000
# 3 50.6725 44.9625 230.0409 0.0000 0.0000 0.0000
# 4 0.0000 0.0000 0.0000 -4.6096 0.0000 0.0000
# 5 0.0000 0.0000 0.0000 0.0000 30.8456 0.0000
# 6 0.0000 0.0000 0.0000 0.0000 0.0000 57.7661
#
#
#
# Elastic Compliance Matrix: (Units=1/GPa)
#
#
# Indices 1 2 3 4 5 6 
#
# 1 0.033396 -0.007058 -0.005977 0.000000 0.000000 0.000000
# 2 -0.007058 0.011113 -0.000617 0.000000 0.000000 0.000000
# 3 -0.005977 -0.000617 0.005784 0.000000 0.000000 0.000000
# 4 0.000000 0.000000 0.000000 -0.216938 0.000000 0.000000
# 5 0.000000 0.000000 0.000000 0.000000 0.032420 0.000000
# 6 0.000000 0.000000 0.000000 0.000000 0.000000 0.017311
#
#
# Mechanical properties :
#
#
# Convention : Reuss Voigt Hill
#
# Bulk Modulus (GPa) = 43.49932 71.50205 57.50069
# Shear Modulus (GPa) = -61.01549 34.20070 -13.40740
#
# Velocity S-wave (km/s) = -5.10870 3.82479 -2.39476
# Velocity P-wave (km/s) = 4.02392 7.07740 4.11690
#
# Compressibility (1/GPa) = 0.02298886
#
# Stress axis : x y z
#
# Youngs Moduli (GPa) = 29.94405 89.98152 172.88268
#
# Poissons Ratio (x) = 0.63509 1.03327
# Poissons Ratio (y) = 0.21135 0.10675
# Poissons Ratio (z) = 0.17897 0.05556
#
# Static dielectric constant tensor:
#      x y z
#    x 1.998410 0.000000 0.000000 
#    y 0.000000 1.980450 0.000000 
#    z 0.000000 0.000000 1.830730 
# 
# From -- ./inp_files/15104.got.cif
#   From: 2010.05.17/outbox.cif.g08.bks.cpg/sg55_8_cif.got.tgz:15104.got - 2010.06.03 13:27:54.
