data_PCOD9428518
_publ_section_title
;
Structure prediction by ZEFSAII (Michael W. Deem and Ramdas Pophale) SiO2 
 PCOD9428518
Probable space group: P B A M
;
_chemical_formula_sum "Si O2"
_cell_formula_units_Z 56
_cell_length_a 9.475705
_cell_length_b 13.774042
_cell_length_c 18.049715
_cell_angle_alpha 90.000000
_cell_angle_beta 90.000000
_cell_angle_gamma 90.000000
_cell_volume 2355.826396
_symmetry_space_group_name_H-M "P B A M"
_symmetry_group_IT_number 55
_symmetry_cell_setting 'orthorhombic'
loop_
_space_group_symop_operation_xyz
x,y,z
-x,-y,z
1/2+x,1/2-y,-z
1/2-x,1/2+y,-z
-x,-y,-z
x,y,-z
1/2-x,1/2+y,z
1/2+x,1/2-y,z
loop_
_atom_site_type_symbol
_atom_site_label
_atom_site_fract_x
_atom_site_fract_y
_atom_site_fract_z
Si Si1 0.660292 0.224990 0.414115
Si Si2 0.725022 0.855805 0.086697
Si Si3 0.353975 0.539655 0.415591
Si Si4 0.163472 0.517895 0.712675
Si Si5 0.993398 0.230432 0.153494
Si Si6 0.403743 0.225933 0.313307
Si Si7 0.345921 0.457406 0.845088
O O1 0.671474 0.194360 0.500000
O O2 0.644067 0.343236 0.415688
O O3 0.522480 0.188446 0.370722
O O4 0.797988 0.210817 0.362982
O O5 0.574352 0.828977 0.122525
O O6 0.851268 0.795022 0.125920
O O7 0.769218 0.967363 0.100813
O O8 0.722704 0.834986 0.000000
O O9 0.500000 0.500000 0.382749
O O10 0.345216 0.506343 0.500000
O O11 0.223201 0.501602 0.368939
O O12 0.181769 0.634588 0.720825
O O13 0.250504 0.457267 0.772087
O O14 0.000000 0.500000 0.722020
O O15 0.979471 0.226808 0.242696
O O16 0.886079 0.147256 0.124029
O O17 0.500000 0.500000 0.825094
#
# Coordination Sequence:
#
# PCOD9428518 Si02
#       7
#     8   8   8   8   8   8   8
#     4  10  22  38  58  87 122 167 213 264 317 372
#     4  11  24  45  69 101 133 165 210 262 320 390
#     4   9  20  38  59  84 119 162 214 262 314 380
#     4  11  24  38  60  90 126 164 208 268 323 376
#     4  11  24  41  69  97 130 172 214 264 320 384
#     4  11  23  39  63  89 126 166 217 264 318 378
#     4  10  24  42  67  92 128 170 218 258 310 388
#
# _framework density 23.770849999999999
#
# number of rings (size 3 to 8) (size 9 to 14) (size 15 to 20)
#    0.000    1.571    1.429    2.143   12.000    4.000 
#    0.000    1.429    0.000    2.143    0.000    0.000 
#    0.000    0.000    0.000    0.000    0.000    0.000 
#
# Total GULP energy -313328.014559 kJ/mol
# GULP energy per Si atom -5595.143117 kJ/mol
# Density = 2.371675 g / cm^3
# Si number density = 23.770850 Si / 1000 Ang^3
#
#
#
# Elastic Constant Matrix: (Units=GPa)
#
#
# Indices 1 2 3 4 5 6 
#
# 1 58.9281 -6.0475 23.2223 0.0000 0.0000 0.0000
# 2 -6.0475 48.4622 -14.8631 0.0000 0.0000 0.0000
# 3 23.2223 -14.8631 121.5516 0.0000 0.0000 0.0000
# 4 0.0000 0.0000 0.0000 11.1595 0.0000 0.0000
# 5 0.0000 0.0000 0.0000 0.0000 24.5816 0.0000
# 6 0.0000 0.0000 0.0000 0.0000 0.0000 37.7371
#
#
#
# Elastic Compliance Matrix: (Units=1/GPa)
#
#
# Indices 1 2 3 4 5 6 
#
# 1 0.018426 0.001267 -0.003365 0.000000 0.000000 0.000000
# 2 0.001267 0.021526 0.002390 0.000000 0.000000 0.000000
# 3 -0.003365 0.002390 0.009162 0.000000 0.000000 0.000000
# 4 0.000000 0.000000 0.000000 0.089610 0.000000 0.000000
# 5 0.000000 0.000000 0.000000 0.000000 0.040681 0.000000
# 6 0.000000 0.000000 0.000000 0.000000 0.000000 0.026499
#
#
# Mechanical properties :
#
#
# Convention : Reuss Voigt Hill
#
# Bulk Modulus (GPa) = 20.12158 25.95169 23.03664
# Shear Modulus (GPa) = 22.53411 29.80432 26.16922
#
# Velocity S-wave (km/s) = 3.08226 3.54477 3.32157
# Velocity P-wave (km/s) = 4.59894 5.26261 4.94193
#
# Compressibility (1/GPa) = 0.04969790
#
# Stress axis : x y z
#
# Youngs Moduli (GPa) = 54.27090 46.45586 109.14459
#
# Poissons Ratio (x) = -0.05887 0.36731
# Poissons Ratio (y) = -0.06877 -0.26086
# Poissons Ratio (z) = 0.18264 -0.11103
#
# Static dielectric constant tensor:
#      x y z
#    x 1.870930 0.000000 0.000000 
#    y 0.000000 2.013360 0.000000 
#    z 0.000000 0.000000 1.871320 
# 
# From -- ./inp_files/22640.got.cif
#   From: 2010.05.17/outbox.cif.g08.bks.cpg/sg55_12_cif.got.tgz:22640.got - 2010.06.03 13:27:54.
