data_PCOD9428454
_publ_section_title
;
Structure prediction by ZEFSAII (Michael W. Deem and Ramdas Pophale) SiO2 
 PCOD9428454
Probable space group: P B A M
;
_chemical_formula_sum "Si O2"
_cell_formula_units_Z 48
_cell_length_a 8.233055
_cell_length_b 19.192112
_cell_length_c 15.144457
_cell_angle_alpha 90.000000
_cell_angle_beta 90.000000
_cell_angle_gamma 90.000000
_cell_volume 2392.971314
_symmetry_space_group_name_H-M "P B A M"
_symmetry_group_IT_number 55
_symmetry_cell_setting 'orthorhombic'
loop_
_space_group_symop_operation_xyz
x,y,z
-x,-y,z
1/2+x,1/2-y,-z
1/2-x,1/2+y,-z
-x,-y,-z
x,y,-z
1/2-x,1/2+y,z
1/2+x,1/2-y,z
loop_
_atom_site_type_symbol
_atom_site_label
_atom_site_fract_x
_atom_site_fract_y
_atom_site_fract_z
Si Si1 0.070884 0.652663 0.247128
Si Si2 0.688964 0.366587 0.500000
Si Si3 0.211051 0.046901 0.677238
Si Si4 0.103694 0.428721 0.897153
Si Si5 0.890803 0.241844 0.500000
Si Si6 0.250824 0.278776 0.692556
Si Si7 0.382562 0.417187 0.240983
O O1 0.121391 0.579997 0.291341
O O2 0.221964 0.704713 0.260070
O O3 0.998946 0.631801 0.152419
O O4 0.931044 0.693763 0.298690
O O5 0.669556 0.415048 0.414133
O O6 0.863990 0.326468 0.500000
O O7 0.555635 0.304161 0.500000
O O8 0.072537 0.066060 0.750162
O O9 0.200417 0.963506 0.680408
O O10 0.274536 0.435133 0.844702
O O11 0.000000 0.500000 0.890071
O O12 0.129218 0.413802 0.000000
O O13 0.803315 0.222417 0.408709
O O14 0.358490 0.336251 0.741455
#
# Coordination Sequence:
#
# PCOD9428454 Si02
#       7
#     8   4   8   8   4   8   8
#     4  11  22  40  63  93 127 167 217 265 330 386
#     4  12  24  36  59  88 133 171 232 268 318 374
#     4  11  22  38  60  91 130 175 214 266 316 385
#     4  10  21  42  71  97 123 162 213 271 328 401
#     4  12  22  37  56  93 123 168 228 267 309 380
#     4  11  22  36  61  87 127 171 212 265 318 379
#     4  10  22  40  61  92 129 167 211 263 332 385
#
# _framework density 20.058744000000001
#
# number of rings (size 3 to 8) (size 9 to 14) (size 15 to 20)
#    0.000    1.167    5.000    2.000    0.000    2.000 
#    0.000    5.833    0.000    3.000    0.000    0.000 
#    0.000    0.000    0.000    0.000    0.000    0.000 
#
# Total GULP energy -267636.305664 kJ/mol
# GULP energy per Si atom -5575.756368 kJ/mol
# Density = 2.001309 g / cm^3
# Si number density = 20.058744 Si / 1000 Ang^3
#
#
#
# Elastic Constant Matrix: (Units=GPa)
#
#
# Indices 1 2 3 4 5 6 
#
# 1 66.1850 4.4531 40.7738 0.0000 0.0000 0.0000
# 2 4.4531 68.3666 27.1506 0.0000 0.0000 0.0000
# 3 40.7738 27.1506 148.9200 0.0000 0.0000 0.0000
# 4 0.0000 0.0000 0.0000 21.4685 0.0000 0.0000
# 5 0.0000 0.0000 0.0000 0.0000 18.9293 0.0000
# 6 0.0000 0.0000 0.0000 0.0000 0.0000 39.2349
#
#
#
# Elastic Compliance Matrix: (Units=1/GPa)
#
#
# Indices 1 2 3 4 5 6 
#
# 1 0.018221 0.000856 -0.005145 0.000000 0.000000 0.000000
# 2 0.000856 0.015809 -0.003117 0.000000 0.000000 0.000000
# 3 -0.005145 -0.003117 0.008692 0.000000 0.000000 0.000000
# 4 0.000000 0.000000 0.000000 0.046580 0.000000 0.000000
# 5 0.000000 0.000000 0.000000 0.000000 0.052828 0.000000
# 6 0.000000 0.000000 0.000000 0.000000 0.000000 0.025488
#
#
# Mechanical properties :
#
#
# Convention : Reuss Voigt Hill
#
# Bulk Modulus (GPa) = 35.82762 47.58073 41.70417
# Shear Modulus (GPa) = 26.07803 29.99947 28.03875
#
# Velocity S-wave (km/s) = 3.60958 3.87147 3.74281
# Velocity P-wave (km/s) = 5.93904 6.61487 6.28605
#
# Compressibility (1/GPa) = 0.02791143
#
# Stress axis : x y z
#
# Youngs Moduli (GPa) = 54.88112 63.25518 115.04908
#
# Poissons Ratio (x) = -0.05417 0.59193
# Poissons Ratio (y) = -0.04700 0.35858
# Poissons Ratio (z) = 0.28237 0.19715
#
# Static dielectric constant tensor:
#      x y z
#    x 1.808820 0.000000 0.000000 
#    y 0.000000 1.743250 0.000000 
#    z 0.000000 0.000000 1.673940 
# 
# From -- ./inp_files/17526.got.cif
#   From: 2010.05.17/outbox.cif.g08.bks.cpg/sg55_9_cif.got.tgz:17526.got - 2010.06.03 13:27:54.
