data_PCOD9428971
_publ_section_title
;
Structure prediction by ZEFSAII (Michael W. Deem and Ramdas Pophale) SiO2 
 PCOD9428971
Probable space group: P B A M
;
_chemical_formula_sum "Si O2"
_cell_formula_units_Z 40
_cell_length_a 12.962459
_cell_length_b 21.685931
_cell_length_c 8.824046
_cell_angle_alpha 90.000000
_cell_angle_beta 90.000000
_cell_angle_gamma 90.000000
_cell_volume 2480.465727
_symmetry_space_group_name_H-M "P B A M"
_symmetry_group_IT_number 55
_symmetry_cell_setting 'orthorhombic'
loop_
_space_group_symop_operation_xyz
x,y,z
-x,-y,z
1/2+x,1/2-y,-z
1/2-x,1/2+y,-z
-x,-y,-z
x,y,-z
1/2-x,1/2+y,z
1/2+x,1/2-y,z
loop_
_atom_site_type_symbol
_atom_site_label
_atom_site_fract_x
_atom_site_fract_y
_atom_site_fract_z
Si Si1 0.819094 0.662363 0.817696
Si Si2 0.895621 0.800732 0.818930
Si Si3 0.610828 0.700748 0.320205
Si Si4 0.998358 0.570371 0.815269
Si Si5 0.169666 0.667155 0.182962
O O1 0.706715 0.661658 0.743703
O O2 0.870310 0.728959 0.782086
O O3 0.896880 0.608610 0.769189
O O4 0.807664 0.660348 0.000000
O O5 0.999142 0.820881 0.736386
O O6 0.790870 0.837203 0.779622
O O7 0.911477 0.804214 0.000000
O O8 0.614846 0.702512 0.500000
O O9 0.627509 0.769712 0.254198
O O10 0.098690 0.610010 0.770625
O O11 0.000000 0.500000 0.762215
O O12 0.997744 0.569445 0.000000
O O13 0.162472 0.674044 0.000000
#
# Coordination Sequence:
#
# PCOD9428971 Si02
#       5
#     8   8   8   8   8
#     4   9  17  30  48  69  96 126 156 191 238 289
#     4   9  16  28  47  67  93 126 155 189 238 287
#     4  11  20  28  44  69  98 125 156 199 237 278
#     4   9  16  29  52  77  97 120 156 199 238 282
#     4   9  17  31  48  69  96 125 156 190 238 288
#
# _framework density 16.126003000000001
#
# number of rings (size 3 to 8) (size 9 to 14) (size 15 to 20)
#    0.000    2.600    2.000    3.000    0.000    3.200 
#    0.000    0.000    0.000    3.600    0.000    8.400 
#    0.000    0.000    0.000    0.000    0.000    0.000 
#
# Total GULP energy -222935.273662 kJ/mol
# GULP energy per Si atom -5573.381842 kJ/mol
# Density = 1.608930 g / cm^3
# Si number density = 16.126003 Si / 1000 Ang^3
#
#
#
# Elastic Constant Matrix: (Units=GPa)
#
#
# Indices 1 2 3 4 5 6 
#
# 1 180.2058 73.3894 46.9507 0.0000 0.0000 0.0000
# 2 73.3894 95.6460 19.0925 0.0000 0.0000 0.0000
# 3 46.9507 19.0925 23.5957 0.0000 0.0000 0.0000
# 4 0.0000 0.0000 0.0000 3.4357 0.0000 0.0000
# 5 0.0000 0.0000 0.0000 0.0000 -4.4671 0.0000
# 6 0.0000 0.0000 0.0000 0.0000 0.0000 19.3757
#
#
#
# Elastic Compliance Matrix: (Units=1/GPa)
#
#
# Indices 1 2 3 4 5 6 
#
# 1 0.014053 -0.006203 -0.022944 0.000000 0.000000 0.000000
# 2 -0.006203 0.015207 0.000038 0.000000 0.000000 0.000000
# 3 -0.022944 0.000038 0.088004 0.000000 0.000000 0.000000
# 4 0.000000 0.000000 0.000000 0.291058 0.000000 0.000000
# 5 0.000000 0.000000 0.000000 0.000000 -0.223857 0.000000
# 6 0.000000 0.000000 0.000000 0.000000 0.000000 0.051611
#
#
# Mechanical properties :
#
#
# Convention : Reuss Voigt Hill
#
# Bulk Modulus (GPa) = 16.93588 64.25697 40.59642
# Shear Modulus (GPa) = 15.92478 14.33651 15.13064
#
# Velocity S-wave (km/s) = 3.14590 2.98490 3.06645
# Velocity P-wave (km/s) = 4.87038 7.19811 6.14546
#
# Compressibility (1/GPa) = 0.05904625
#
# Stress axis : x y z
#
# Youngs Moduli (GPa) = 71.15788 65.75780 11.36313
#
# Poissons Ratio (x) = 0.40790 0.26071
# Poissons Ratio (y) = 0.44140 -0.00043
# Poissons Ratio (z) = 1.63264 -0.00249
#
# Static dielectric constant tensor:
#      x y z
#    x 1.561860 0.000000 0.000000 
#    y 0.000000 1.517560 0.000000 
#    z 0.000000 0.000000 1.528550 
# 
# From -- ./inp_files/3843.got.cif
#   From: 2010.05.17/outbox.cif.g08.bks.cpg/sg55_2_cif.got.tgz:3843.got - 2010.06.03 13:27:54.
