data_PCOD9428951
_publ_section_title
;
Structure prediction by ZEFSAII (Michael W. Deem and Ramdas Pophale) SiO2 
 PCOD9428951
Probable space group: P B A M
;
_chemical_formula_sum "Si O2"
_cell_formula_units_Z 34
_cell_length_a 9.349798
_cell_length_b 8.831960
_cell_length_c 18.166894
_cell_angle_alpha 90.000000
_cell_angle_beta 90.000000
_cell_angle_gamma 90.000000
_cell_volume 1500.168368
_symmetry_space_group_name_H-M "P B A M"
_symmetry_group_IT_number 55
_symmetry_cell_setting 'orthorhombic'
loop_
_space_group_symop_operation_xyz
x,y,z
-x,-y,z
1/2+x,1/2-y,-z
1/2-x,1/2+y,-z
-x,-y,-z
x,y,-z
1/2-x,1/2+y,z
1/2+x,1/2-y,z
loop_
_atom_site_type_symbol
_atom_site_label
_atom_site_fract_x
_atom_site_fract_y
_atom_site_fract_z
Si Si1 0.783415 0.947322 0.136757
Si Si2 0.155332 0.433462 0.285954
Si Si3 0.116478 0.107419 0.352012
Si Si4 0.500000 0.500000 0.500000
Si Si5 0.955391 0.225635 0.916436
O O1 0.638830 0.867977 0.108725
O O2 0.909519 0.820333 0.134286
O O3 0.748415 0.024078 0.214657
O O4 0.848480 0.081373 0.087299
O O5 0.142057 0.260278 0.308477
O O6 0.234914 0.517864 0.352910
O O7 0.000000 0.500000 0.274030
O O8 0.053418 0.117048 0.433937
O O9 0.000000 0.000000 0.312536
O O10 0.006866 0.246059 0.000000
#
# Coordination Sequence:
#
# PCOD9428951 Si02
#       5
#     8   8   8   2   8
#     4  11  26  42  72 106 145 202 259 322 394 457
#     4  12  26  44  73 111 150 204 251 320 380 455
#     4  10  24  49  75 109 152 190 249 306 371 463
#     4   8  24  48  80 108 152 196 244 298 380 458
#     4  11  24  46  70 105 153 202 265 332 394 462
#
# _framework density 22.664121000000002
#
# number of rings (size 3 to 8) (size 9 to 14) (size 15 to 20)
#    0.706    0.471    0.000    5.647    9.882    0.941 
#    0.000    3.529    0.000    0.000    0.000    0.000 
#    0.000    0.000    0.000    0.000    0.000    0.000 
#
# Total GULP energy -189550.698100 kJ/mol
# GULP energy per Si atom -5575.020532 kJ/mol
# Density = 2.261254 g / cm^3
# Si number density = 22.664121 Si / 1000 Ang^3
#
#
#
# Elastic Constant Matrix: (Units=GPa)
#
#
# Indices 1 2 3 4 5 6 
#
# 1 120.6998 56.0432 56.1327 0.0000 0.0000 0.0000
# 2 56.0432 130.7231 63.9901 0.0000 0.0000 0.0000
# 3 56.1327 63.9901 117.1115 0.0000 0.0000 0.0000
# 4 0.0000 0.0000 0.0000 23.9453 0.0000 0.0000
# 5 0.0000 0.0000 0.0000 0.0000 13.1354 0.0000
# 6 0.0000 0.0000 0.0000 0.0000 0.0000 45.0954
#
#
#
# Elastic Compliance Matrix: (Units=1/GPa)
#
#
# Indices 1 2 3 4 5 6 
#
# 1 0.011485 -0.003043 -0.003842 0.000000 0.000000 0.000000
# 2 -0.003043 0.011249 -0.004688 0.000000 0.000000 0.000000
# 3 -0.003842 -0.004688 0.012942 0.000000 0.000000 0.000000
# 4 0.000000 0.000000 0.000000 0.041762 0.000000 0.000000
# 5 0.000000 0.000000 0.000000 0.000000 0.076130 0.000000
# 6 0.000000 0.000000 0.000000 0.000000 0.000000 0.022175
#
#
# Mechanical properties :
#
#
# Convention : Reuss Voigt Hill
#
# Bulk Modulus (GPa) = 79.81034 80.09626 79.95330
# Shear Modulus (GPa) = 24.62258 29.25978 26.94118
#
# Velocity S-wave (km/s) = 3.29965 3.59697 3.45152
# Velocity P-wave (km/s) = 7.05746 7.25729 7.15807
#
# Compressibility (1/GPa) = 0.01252971
#
# Stress axis : x y z
#
# Youngs Moduli (GPa) = 87.07234 88.89537 77.26799
#
# Poissons Ratio (x) = 0.27051 0.29687
# Poissons Ratio (y) = 0.26496 0.36224
# Poissons Ratio (z) = 0.33454 0.41675
#
# Static dielectric constant tensor:
#      x y z
#    x 1.848570 0.000000 0.000000 
#    y 0.000000 1.862210 0.000000 
#    z 0.000000 0.000000 1.855800 
# 
# From -- ./inp_files/22511.got.cif
#   From: 2010.05.17/outbox.cif.g08.bks.cpg/sg55_12_cif.got.tgz:22511.got - 2010.06.03 13:27:54.
