data_PCOD9428614
_publ_section_title
;
Structure prediction by ZEFSAII (Michael W. Deem and Ramdas Pophale) SiO2 
 PCOD9428614
Probable space group: P B A M
;
_chemical_formula_sum "Si O2"
_cell_formula_units_Z 40
_cell_length_a 9.379209
_cell_length_b 12.468475
_cell_length_c 15.196982
_cell_angle_alpha 90.000000
_cell_angle_beta 90.000000
_cell_angle_gamma 90.000000
_cell_volume 1777.202442
_symmetry_space_group_name_H-M "P B A M"
_symmetry_group_IT_number 55
_symmetry_cell_setting 'orthorhombic'
loop_
_space_group_symop_operation_xyz
x,y,z
-x,-y,z
1/2+x,1/2-y,-z
1/2-x,1/2+y,-z
-x,-y,-z
x,y,-z
1/2-x,1/2+y,z
1/2+x,1/2-y,z
loop_
_atom_site_type_symbol
_atom_site_label
_atom_site_fract_x
_atom_site_fract_y
_atom_site_fract_z
Si Si1 0.371756 0.292614 0.732498
Si Si2 0.834643 0.028724 0.599508
Si Si3 0.761810 0.458353 0.000000
Si Si4 0.631353 0.326688 0.847430
Si Si5 0.921882 0.386991 0.601237
Si Si6 0.063594 0.336421 0.000000
O O1 0.297878 0.381275 0.670793
O O2 0.495438 0.350916 0.787551
O O3 0.261252 0.225626 0.792268
O O4 0.449655 0.207534 0.668396
O O5 0.803502 0.068481 0.500000
O O6 0.743295 0.921217 0.610762
O O7 0.000000 0.000000 0.605059
O O8 0.681970 0.422372 0.088757
O O9 0.805048 0.581356 0.000000
O O10 0.912222 0.395004 0.000000
O O11 0.577529 0.235699 0.914446
O O12 0.950820 0.356286 0.500000
O O13 0.000000 0.500000 0.618702
#
# Coordination Sequence:
#
# PCOD9428614 Si02
#       6
#     8   8   4   8   8   4
#     4  12  23  39  63  95 131 161 207 273 315 364
#     4  10  22  40  60  87 127 171 211 254 308 369
#     4  10  22  45  68  87 120 169 202 249 324 386
#     4  11  24  40  64  97 124 155 209 260 315 383
#     4  10  22  40  62  90 126 173 218 251 307 379
#     4  10  22  45  68  87 122 167 201 252 320 386
#
# _framework density 22.507283000000001
#
# number of rings (size 3 to 8) (size 9 to 14) (size 15 to 20)
#    0.000    1.400    2.000    3.000    0.000    4.800 
#    0.000    9.000    0.000    0.000    0.000    0.000 
#    0.000    0.000    0.000    0.000    0.000    0.000 
#
# Total GULP energy -223859.292293 kJ/mol
# GULP energy per Si atom -5596.482307 kJ/mol
# Density = 2.245606 g / cm^3
# Si number density = 22.507283 Si / 1000 Ang^3
#
#
#
# Elastic Constant Matrix: (Units=GPa)
#
#
# Indices 1 2 3 4 5 6 
#
# 1 67.8986 -14.3539 17.3152 0.0000 0.0000 0.0000
# 2 -14.3539 37.1399 35.0245 0.0000 0.0000 0.0000
# 3 17.3152 35.0245 123.6733 0.0000 0.0000 0.0000
# 4 0.0000 0.0000 0.0000 -49.8661 0.0000 0.0000
# 5 0.0000 0.0000 0.0000 0.0000 23.0510 0.0000
# 6 0.0000 0.0000 0.0000 0.0000 0.0000 24.1945
#
#
#
# Elastic Compliance Matrix: (Units=1/GPa)
#
#
# Indices 1 2 3 4 5 6 
#
# 1 0.019286 0.013644 -0.006564 0.000000 0.000000 0.000000
# 2 0.013644 0.046389 -0.015048 0.000000 0.000000 0.000000
# 3 -0.006564 -0.015048 0.013266 0.000000 0.000000 0.000000
# 4 0.000000 0.000000 0.000000 -0.020054 0.000000 0.000000
# 5 0.000000 0.000000 0.000000 0.000000 0.043382 0.000000
# 6 0.000000 0.000000 0.000000 0.000000 0.000000 0.041332
#
#
# Mechanical properties :
#
#
# Convention : Reuss Voigt Hill
#
# Bulk Modulus (GPa) = 15.87152 33.85370 24.86261
# Shear Modulus (GPa) = 27.69480 12.19096 19.94288
#
# Velocity S-wave (km/s) = 3.51163 2.32985 2.97991
# Velocity P-wave (km/s) = 4.84862 4.72350 4.78647
#
# Compressibility (1/GPa) = 0.06300594
#
# Stress axis : x y z
#
# Youngs Moduli (GPa) = 51.85048 21.55683 75.37837
#
# Poissons Ratio (x) = -0.29412 0.49480
# Poissons Ratio (y) = -0.70745 1.13427
# Poissons Ratio (z) = 0.34036 0.32438
#
# Static dielectric constant tensor:
#      x y z
#    x 1.850200 0.000000 0.000000 
#    y 0.000000 1.786720 0.000000 
#    z 0.000000 0.000000 1.880730 
# 
# From -- ./inp_files/17126.got.cif
#   From: 2010.05.17/outbox.cif.g08.bks.cpg/sg55_9_cif.got.tgz:17126.got - 2010.06.03 13:27:54.
