data_PCOD9428549
_publ_section_title
;
Structure prediction by ZEFSAII (Michael W. Deem and Ramdas Pophale) SiO2 
 PCOD9428549
Probable space group: P B A M
;
_chemical_formula_sum "Si O2"
_cell_formula_units_Z 60
_cell_length_a 26.004115
_cell_length_b 5.117203
_cell_length_c 21.918861
_cell_angle_alpha 90.000000
_cell_angle_beta 90.000000
_cell_angle_gamma 90.000000
_cell_volume 2916.706345
_symmetry_space_group_name_H-M "P B A M"
_symmetry_group_IT_number 55
_symmetry_cell_setting 'orthorhombic'
loop_
_space_group_symop_operation_xyz
x,y,z
-x,-y,z
1/2+x,1/2-y,-z
1/2-x,1/2+y,-z
-x,-y,-z
x,y,-z
1/2-x,1/2+y,z
1/2+x,1/2-y,z
loop_
_atom_site_type_symbol
_atom_site_label
_atom_site_fract_x
_atom_site_fract_y
_atom_site_fract_z
Si Si1 0.866846 0.530761 0.232191
Si Si2 0.782914 0.622544 0.000000
Si Si3 0.286116 0.779122 0.134255
Si Si4 0.035835 0.749858 0.758954
Si Si5 0.153297 0.763756 0.430187
Si Si6 0.716999 0.909918 0.676124
Si Si7 0.904979 0.940901 0.667036
Si Si8 0.944438 0.621811 0.435823
O O1 0.830970 0.660117 0.181500
O O2 0.913200 0.354171 0.205211
O O3 0.829832 0.364734 0.277101
O O4 0.888223 0.757472 0.277066
O O5 0.807343 0.689469 0.065061
O O6 0.766535 0.319100 0.000000
O O7 0.258539 0.499549 0.141710
O O8 0.000000 0.500000 0.754311
O O9 0.063706 0.821133 0.695544
O O10 0.000000 0.000000 0.776896
O O11 0.166184 0.834848 0.500000
O O12 0.197311 0.610040 0.393467
O O13 0.101704 0.587601 0.431879
O O14 0.139849 0.991612 0.381536
O O15 0.759597 0.692574 0.687801
O O16 0.943786 0.790867 0.623904
O O17 0.935390 0.773562 0.500000
O O18 0.000000 0.500000 0.439621
#
# Coordination Sequence:
#
# PCOD9428549 Si02
#       8
#     8   4   8   8   8   8   8   8
#     4  12  25  41  64  98 128 170 206 264 319 383
#     4   8  16  36  60  96 136 179 216 259 304 360
#     4  10  22  38  66  99 141 179 218 258 309 371
#     4  12  27  42  65  94 125 165 207 260 327 387
#     4  11  25  42  60  85 117 157 206 262 318 386
#     4  12  26  43  63  86 117 155 204 254 308 372
#     4  12  23  40  65  87 126 155 204 260 327 384
#     4  10  23  40  62  90 116 152 199 259 334 402
#
# _framework density 20.571147
#
# number of rings (size 3 to 8) (size 9 to 14) (size 15 to 20)
#    0.000    0.933    4.000    2.000    5.600    0.533 
#    0.000    2.000    0.000    1.200    0.000    0.933 
#    0.000    0.133    0.000    0.000    0.000    0.000 
#
# Total GULP energy -335185.157064 kJ/mol
# GULP energy per Si atom -5586.419284 kJ/mol
# Density = 2.052433 g / cm^3
# Si number density = 20.571147 Si / 1000 Ang^3
#
#
#
# Elastic Constant Matrix: (Units=GPa)
#
#
# Indices 1 2 3 4 5 6 
#
# 1 79.4830 13.3978 18.8391 0.0000 0.0000 0.0000
# 2 13.3978 67.9547 -4.5890 0.0000 0.0000 0.0000
# 3 18.8391 -4.5890 83.1516 0.0000 0.0000 0.0000
# 4 0.0000 0.0000 0.0000 12.2804 0.0000 0.0000
# 5 0.0000 0.0000 0.0000 0.0000 18.4867 0.0000
# 6 0.0000 0.0000 0.0000 0.0000 0.0000 31.1427
#
#
#
# Elastic Compliance Matrix: (Units=1/GPa)
#
#
# Indices 1 2 3 4 5 6 
#
# 1 0.013863 -0.002956 -0.003304 0.000000 0.000000 0.000000
# 2 -0.002956 0.015401 0.001520 0.000000 0.000000 0.000000
# 3 -0.003304 0.001520 0.012859 0.000000 0.000000 0.000000
# 4 0.000000 0.000000 0.000000 0.081430 0.000000 0.000000
# 5 0.000000 0.000000 0.000000 0.000000 0.054093 0.000000
# 6 0.000000 0.000000 0.000000 0.000000 0.000000 0.032110
#
#
# Mechanical properties :
#
#
# Convention : Reuss Voigt Hill
#
# Bulk Modulus (GPa) = 30.63573 31.76501 31.20037
# Shear Modulus (GPa) = 21.72801 25.91138 23.81970
#
# Velocity S-wave (km/s) = 3.25351 3.55293 3.40651
# Velocity P-wave (km/s) = 5.38875 5.68385 5.53827
#
# Compressibility (1/GPa) = 0.03264163
#
# Stress axis : x y z
#
# Youngs Moduli (GPa) = 72.13590 64.93018 77.76870
#
# Poissons Ratio (x) = 0.19195 0.25694
# Poissons Ratio (y) = 0.21325 -0.11819
# Poissons Ratio (z) = 0.23833 -0.09868
#
# Static dielectric constant tensor:
#      x y z
#    x 1.778800 0.000000 0.000000 
#    y 0.000000 1.828800 0.000000 
#    z 0.000000 0.000000 1.744140 
# 
# From -- ./inp_files/23177.got.cif
#   From: 2010.05.17/outbox.cif.g08.bks.cpg/sg55_12_cif.got.tgz:23177.got - 2010.06.03 13:27:54.
