data_PCOD9428371
_publ_section_title
;
Structure prediction by ZEFSAII (Michael W. Deem and Ramdas Pophale) SiO2 
 PCOD9428371
Probable space group: P B A M
;
_chemical_formula_sum "Si O2"
_cell_formula_units_Z 58
_cell_length_a 15.980449
_cell_length_b 13.598637
_cell_length_c 11.262728
_cell_angle_alpha 90.000000
_cell_angle_beta 90.000000
_cell_angle_gamma 90.000000
_cell_volume 2447.529608
_symmetry_space_group_name_H-M "P B A M"
_symmetry_group_IT_number 55
_symmetry_cell_setting 'orthorhombic'
loop_
_space_group_symop_operation_xyz
x,y,z
-x,-y,z
1/2+x,1/2-y,-z
1/2-x,1/2+y,-z
-x,-y,-z
x,y,-z
1/2-x,1/2+y,z
1/2+x,1/2-y,z
loop_
_atom_site_type_symbol
_atom_site_label
_atom_site_fract_x
_atom_site_fract_y
_atom_site_fract_z
Si Si1 0.250670 0.081226 0.130355
Si Si2 0.206215 0.814516 0.135203
Si Si3 0.013952 0.881478 0.132142
Si Si4 0.068752 0.584594 0.131350
Si Si5 0.998482 0.617884 0.370857
Si Si6 0.192008 0.314421 0.630109
Si Si7 0.619027 0.389622 0.686484
Si Si8 0.500000 0.500000 0.500000
O O1 0.277470 0.196461 0.136132
O O2 0.341121 0.033217 0.143013
O O3 0.183844 0.055255 0.228306
O O4 0.214548 0.063589 0.000000
O O5 0.109799 0.848223 0.147445
O O6 0.255538 0.844253 0.254471
O O7 0.232888 0.845229 0.000000
O O8 0.950023 0.839062 0.228133
O O9 0.987747 0.851253 0.000000
O O10 0.049728 0.644208 0.251974
O O11 0.000000 0.500000 0.127018
O O12 0.067446 0.634329 0.000000
O O13 0.029070 0.658018 0.500000
O O14 0.000000 0.500000 0.377583
O O15 0.901425 0.643556 0.360769
O O16 0.227739 0.342810 0.500000
O O17 0.174416 0.196909 0.630142
O O18 0.500000 0.500000 0.860897
O O19 0.565398 0.457575 0.601319
#
# Coordination Sequence:
#
# PCOD9428371 Si02
#       8
#     8   8   8   8   8   8   8   2
#     4   9  19  38  64  94 126 164 217 275 333 393
#     4   9  20  39  63  93 124 162 216 273 329 392
#     4  10  21  40  64  90 123 167 221 277 338 403
#     4   9  18  35  58  89 126 162 208 262 320 382
#     4   9  19  37  58  85 124 162 202 255 324 396
#     4  10  21  40  65  94 127 167 217 273 328 395
#     4  11  22  41  64  89 130 175 222 275 326 394
#     4  12  24  44  62  92 136 172 230 278 316 398
#
# _framework density 23.697364
#
# number of rings (size 3 to 8) (size 9 to 14) (size 15 to 20)
#    0.000    2.345    1.379    0.414    1.931    1.103 
#    7.448    0.000    6.069    0.000    0.000    0.000 
#    0.000    0.000    0.000    0.000    0.000    0.000 
#
# Total GULP energy -323286.784064 kJ/mol
# GULP energy per Si atom -5573.910070 kJ/mol
# Density = 2.364343 g / cm^3
# Si number density = 23.697364 Si / 1000 Ang^3
#
#
#
# Elastic Constant Matrix: (Units=GPa)
#
#
# Indices 1 2 3 4 5 6 
#
# 1 119.5478 23.0652 107.9819 0.0000 0.0000 0.0000
# 2 23.0652 76.7530 10.5064 0.0000 0.0000 0.0000
# 3 107.9819 10.5064 268.8951 0.0000 0.0000 0.0000
# 4 0.0000 0.0000 0.0000 -8.5167 0.0000 0.0000
# 5 0.0000 0.0000 0.0000 0.0000 -52.7612 0.0000
# 6 0.0000 0.0000 0.0000 0.0000 0.0000 37.8685
#
#
#
# Elastic Compliance Matrix: (Units=1/GPa)
#
#
# Indices 1 2 3 4 5 6 
#
# 1 0.013980 -0.003451 -0.005479 0.000000 0.000000 0.000000
# 2 -0.003451 0.013951 0.000841 0.000000 0.000000 0.000000
# 3 -0.005479 0.000841 0.005886 0.000000 0.000000 0.000000
# 4 0.000000 0.000000 0.000000 -0.117416 0.000000 0.000000
# 5 0.000000 0.000000 0.000000 0.000000 -0.018953 0.000000
# 6 0.000000 0.000000 0.000000 0.000000 0.000000 0.026407
#
#
# Mechanical properties :
#
#
# Convention : Reuss Voigt Hill
#
# Bulk Modulus (GPa) = 56.69545 83.14478 69.92011
# Shear Modulus (GPa) = -92.44313 16.89428 -37.77443
#
# Velocity S-wave (km/s) = -6.25256 2.67295 -3.99687
# Velocity P-wave (km/s) = 5.30560 6.68494 2.87568
#
# Compressibility (1/GPa) = 0.01763810
#
# Stress axis : x y z
#
# Youngs Moduli (GPa) = 71.53243 71.68048 169.88501
#
# Poissons Ratio (x) = 0.24737 0.93081
# Poissons Ratio (y) = 0.24686 -0.14283
# Poissons Ratio (z) = 0.39193 -0.06027
#
# Static dielectric constant tensor:
#      x y z
#    x 1.871190 0.000000 0.000000 
#    y 0.000000 1.985720 0.000000 
#    z 0.000000 0.000000 1.984360 
# 
# From -- ./inp_files/14941.got.cif
#   From: 2010.05.17/outbox.cif.g08.bks.cpg/sg55_8_cif.got.tgz:14941.got - 2010.06.03 13:27:54.
