data_PCOD9428970
_publ_section_title
;
Structure prediction by ZEFSAII (Michael W. Deem and Ramdas Pophale) SiO2 
 PCOD9428970
Probable space group: P B A M
;
_chemical_formula_sum "Si O2"
_cell_formula_units_Z 56
_cell_length_a 30.573592
_cell_length_b 14.087999
_cell_length_c 7.695273
_cell_angle_alpha 90.000000
_cell_angle_beta 90.000000
_cell_angle_gamma 90.000000
_cell_volume 3314.513631
_symmetry_space_group_name_H-M "P B A M"
_symmetry_group_IT_number 55
_symmetry_cell_setting 'orthorhombic'
loop_
_space_group_symop_operation_xyz
x,y,z
-x,-y,z
1/2+x,1/2-y,-z
1/2-x,1/2+y,-z
-x,-y,-z
x,y,-z
1/2-x,1/2+y,z
1/2+x,1/2-y,z
loop_
_atom_site_type_symbol
_atom_site_label
_atom_site_fract_x
_atom_site_fract_y
_atom_site_fract_z
Si Si1 0.727256 0.882096 0.712222
Si Si2 0.904949 0.085331 0.801363
Si Si3 0.001702 0.889629 0.709526
Si Si4 0.407824 0.629512 0.299357
Si Si5 0.817744 0.786311 0.712720
Si Si6 0.816687 0.190658 0.290174
Si Si7 0.726519 0.094275 0.711957
O O1 0.726829 0.882451 0.500000
O O2 0.776414 0.851403 0.764274
O O3 0.694937 0.797588 0.767599
O O4 0.716516 0.988054 0.771535
O O5 0.862397 0.148031 0.768482
O O6 0.949922 0.141616 0.762782
O O7 0.903500 0.985317 0.699953
O O8 0.905898 0.055498 0.000000
O O9 0.000305 0.887319 0.500000
O O10 0.955945 0.846542 0.775241
O O11 0.000000 0.000000 0.764742
O O12 0.408916 0.660910 0.500000
O O13 0.364083 0.674987 0.222202
O O14 0.818201 0.788990 0.500000
O O15 0.805858 0.678906 0.765423
O O16 0.816969 0.190532 0.500000
O O17 0.775501 0.125667 0.235656
O O18 0.726186 0.093694 0.500000
#
# Coordination Sequence:
#
# PCOD9428970 Si02
#       7
#     8   8   8   8   8   8   8
#     4   8  13  21  36  60  85 106 129 159 193 227
#     4  11  20  27  38  57  81 107 134 166 199 231
#     4   8  15  27  41  57  78 104 131 159 196 241
#     4   9  16  27  43  61  82 107 132 159 195 240
#     4   8  13  21  37  62  85 104 129 160 193 229
#     4   9  16  26  41  59  80 107 135 161 192 233
#     4   8  13  22  39  63  85 103 130 166 195 225
#
# _framework density 16.895389000000002
#
# number of rings (size 3 to 8) (size 9 to 14) (size 15 to 20)
#    0.000    3.286    0.000    4.714    0.000    4.857 
#    0.000    0.000    0.000    7.714    0.000    1.000 
#    0.000    8.000    0.000    0.000    0.000    0.000 
#
# Total GULP energy -311748.999089 kJ/mol
# GULP energy per Si atom -5566.946412 kJ/mol
# Density = 1.685693 g / cm^3
# Si number density = 16.895389 Si / 1000 Ang^3
#
#
#
# Elastic Constant Matrix: (Units=GPa)
#
#
# Indices 1 2 3 4 5 6 
#
# 1 151.3740 48.4178 1.2914 0.0000 0.0000 0.0000
# 2 48.4178 84.0017 -4.4982 0.0000 0.0000 0.0000
# 3 1.2914 -4.4982 27.7275 0.0000 0.0000 0.0000
# 4 0.0000 0.0000 0.0000 -7.1729 0.0000 0.0000
# 5 0.0000 0.0000 0.0000 0.0000 -39.8989 0.0000
# 6 0.0000 0.0000 0.0000 0.0000 0.0000 24.1912
#
#
#
# Elastic Compliance Matrix: (Units=1/GPa)
#
#
# Indices 1 2 3 4 5 6 
#
# 1 0.008136 -0.004751 -0.001150 0.000000 0.000000 0.000000
# 2 -0.004751 0.014783 0.002619 0.000000 0.000000 0.000000
# 3 -0.001150 0.002619 0.036544 0.000000 0.000000 0.000000
# 4 0.000000 0.000000 0.000000 -0.139413 0.000000 0.000000
# 5 0.000000 0.000000 0.000000 0.000000 -0.025063 0.000000
# 6 0.000000 0.000000 0.000000 0.000000 0.000000 0.041337
#
#
# Mechanical properties :
#
#
# Convention : Reuss Voigt Hill
#
# Bulk Modulus (GPa) = 18.90338 39.28058 29.09198
# Shear Modulus (GPa) = -126.64294 9.95001 -58.34647
#
# Velocity S-wave (km/s) = -8.66717 2.42940 -5.88294
# Velocity P-wave (km/s) = 9.43117 5.58293 5.37485
#
# Compressibility (1/GPa) = 0.05290060
#
# Stress axis : x y z
#
# Youngs Moduli (GPa) = 122.91750 67.64470 27.36442
#
# Poissons Ratio (x) = 0.32137 0.03146
# Poissons Ratio (y) = 0.58396 -0.07168
# Poissons Ratio (z) = 0.14131 -0.17720
#
# Static dielectric constant tensor:
#      x y z
#    x 1.601670 0.000000 0.000000 
#    y 0.000000 1.553880 0.000000 
#    z 0.000000 0.000000 1.613340 
# 
# From -- ./inp_files/6855.got.cif
#   From: 2010.05.17/outbox.cif.g08.bks.cpg/sg55_4_cif.got.tgz:6855.got - 2010.06.03 13:27:54.
