data_PCOD9428091
_publ_section_title
;
Structure prediction by ZEFSAII (Michael W. Deem and Ramdas Pophale) SiO2 
 PCOD9428091
Probable space group: P B A M
;
_chemical_formula_sum "Si O2"
_cell_formula_units_Z 48
_cell_length_a 14.316704
_cell_length_b 11.701881
_cell_length_c 14.568593
_cell_angle_alpha 90.000000
_cell_angle_beta 90.000000
_cell_angle_gamma 90.000000
_cell_volume 2440.710862
_symmetry_space_group_name_H-M "P B A M"
_symmetry_group_IT_number 55
_symmetry_cell_setting 'orthorhombic'
loop_
_space_group_symop_operation_xyz
x,y,z
-x,-y,z
1/2+x,1/2-y,-z
1/2-x,1/2+y,-z
-x,-y,-z
x,y,-z
1/2-x,1/2+y,z
1/2+x,1/2-y,z
loop_
_atom_site_type_symbol
_atom_site_label
_atom_site_fract_x
_atom_site_fract_y
_atom_site_fract_z
Si Si1 0.565883 0.886054 0.604925
Si Si2 0.398444 0.544691 0.199647
Si Si3 0.289065 0.291408 0.000000
Si Si4 0.094138 0.641142 0.104770
Si Si5 0.936935 0.700558 0.245767
Si Si6 0.298914 0.004260 0.258983
Si Si7 0.819451 0.955288 0.000000
O O1 0.579575 0.851482 0.500000
O O2 0.508067 0.799237 0.668443
O O3 0.660824 0.919563 0.657642
O O4 0.500000 0.000000 0.605957
O O5 0.500000 0.500000 0.224260
O O6 0.396717 0.677906 0.222808
O O7 0.311060 0.489914 0.252218
O O8 0.379906 0.534672 0.091418
O O9 0.355903 0.264046 0.087563
O O10 0.224199 0.175234 0.000000
O O11 0.258905 0.423659 0.000000
O O12 0.163814 0.565523 0.165689
O O13 0.999043 0.653622 0.160755
O O14 0.080092 0.599294 0.000000
O O15 0.853322 0.614189 0.264387
#
# Coordination Sequence:
#
# PCOD9428091 Si02
#       7
#     8   8   4   8   8   8   4
#     4   8  16  37  68  97 121 149 196 253 311 381
#     4  12  26  40  57  84 126 172 218 262 313 378
#     4  10  22  38  58  86 117 170 213 271 310 386
#     4   9  18  37  56  83 119 154 203 263 307 375
#     4  10  22  36  63  88 119 161 205 262 317 387
#     4  10  21  38  57  92 122 161 217 254 322 372
#     4  12  25  40  59  83 124 182 229 263 319 372
#
# _framework density 19.666402999999999
#
# number of rings (size 3 to 8) (size 9 to 14) (size 15 to 20)
#    0.500    1.500    1.667    2.750    3.500    4.000 
#    0.000    0.833    0.000    6.000    0.000    0.000 
#    0.000    0.000    0.000    0.000    0.000    0.000 
#
# Total GULP energy -267665.943020 kJ/mol
# GULP energy per Si atom -5576.373813 kJ/mol
# Density = 1.962164 g / cm^3
# Si number density = 19.666403 Si / 1000 Ang^3
#
#
#
# Elastic Constant Matrix: (Units=GPa)
#
#
# Indices 1 2 3 4 5 6 
#
# 1 142.0477 27.4953 37.9341 0.0000 0.0000 0.0000
# 2 27.4953 90.7053 13.1890 0.0000 0.0000 0.0000
# 3 37.9341 13.1890 96.2754 0.0000 0.0000 0.0000
# 4 0.0000 0.0000 0.0000 5.2047 0.0000 0.0000
# 5 0.0000 0.0000 0.0000 0.0000 12.0999 0.0000
# 6 0.0000 0.0000 0.0000 0.0000 0.0000 18.8702
#
#
#
# Elastic Compliance Matrix: (Units=1/GPa)
#
#
# Indices 1 2 3 4 5 6 
#
# 1 0.008230 -0.002064 -0.002960 0.000000 0.000000 0.000000
# 2 -0.002064 0.011767 -0.000799 0.000000 0.000000 0.000000
# 3 -0.002960 -0.000799 0.011663 0.000000 0.000000 0.000000
# 4 0.000000 0.000000 0.000000 0.192132 0.000000 0.000000
# 5 0.000000 0.000000 0.000000 0.000000 0.082645 0.000000
# 6 0.000000 0.000000 0.000000 0.000000 0.000000 0.052994
#
#
# Mechanical properties :
#
#
# Convention : Reuss Voigt Hill
#
# Bulk Modulus (GPa) = 49.96650 54.02947 51.99799
# Shear Modulus (GPa) = 13.23638 23.92897 18.58268
#
# Velocity S-wave (km/s) = 2.59713 3.49197 3.07725
# Velocity P-wave (km/s) = 5.86989 6.61748 6.25487
#
# Compressibility (1/GPa) = 0.02001341
#
# Stress axis : x y z
#
# Youngs Moduli (GPa) = 121.50777 84.98642 85.74471
#
# Poissons Ratio (x) = 0.17544 0.25380
# Poissons Ratio (y) = 0.25083 0.06847
# Poissons Ratio (z) = 0.35965 0.06787
#
# Static dielectric constant tensor:
#      x y z
#    x 1.739360 0.000000 0.000000 
#    y 0.000000 1.719130 0.000000 
#    z 0.000000 0.000000 1.686760 
# 
# From -- ./inp_files/18894.got.cif
#   From: 2010.05.17/outbox.cif.g08.bks.cpg/sg55_10_cif.got.tgz:18894.got - 2010.06.03 13:27:54.
