data_PCOD9428481
_publ_section_title
;
Structure prediction by ZEFSAII (Michael W. Deem and Ramdas Pophale) SiO2 
 PCOD9428481
Probable space group: P B A M
;
_chemical_formula_sum "Si O2"
_cell_formula_units_Z 64
_cell_length_a 17.048567
_cell_length_b 21.143506
_cell_length_c 8.688991
_cell_angle_alpha 90.000000
_cell_angle_beta 90.000000
_cell_angle_gamma 90.000000
_cell_volume 3132.089989
_symmetry_space_group_name_H-M "P B A M"
_symmetry_group_IT_number 55
_symmetry_cell_setting 'orthorhombic'
loop_
_space_group_symop_operation_xyz
x,y,z
-x,-y,z
1/2+x,1/2-y,-z
1/2-x,1/2+y,-z
-x,-y,-z
x,y,-z
1/2-x,1/2+y,z
1/2+x,1/2-y,z
loop_
_atom_site_type_symbol
_atom_site_label
_atom_site_fract_x
_atom_site_fract_y
_atom_site_fract_z
Si Si1 0.446503 0.156743 0.314195
Si Si2 0.898568 0.202240 0.317764
Si Si3 0.846397 0.980186 0.812346
Si Si4 0.780097 0.111338 0.182916
Si Si5 0.827585 0.777561 0.822980
Si Si6 0.967336 0.880809 0.823117
Si Si7 0.622753 0.146927 0.317813
Si Si8 0.289196 0.116935 0.185669
O O1 0.446658 0.156662 0.500000
O O2 0.427694 0.228918 0.262519
O O3 0.533551 0.137116 0.262692
O O4 0.375629 0.114176 0.253734
O O5 0.887925 0.205561 0.500000
O O6 0.819590 0.175562 0.242571
O O7 0.964965 0.151189 0.274402
O O8 0.925814 0.944631 0.763771
O O9 0.770820 0.938196 0.766943
O O10 0.830900 0.051367 0.761434
O O11 0.849162 0.978836 0.000000
O O12 0.690885 0.106606 0.238892
O O13 0.781767 0.111180 0.000000
O O14 0.896462 0.829955 0.828024
O O15 0.855115 0.719533 0.720747
O O16 0.751954 0.816730 0.767739
O O17 0.815206 0.755704 0.000000
O O18 0.995425 0.890538 0.000000
O O19 0.625615 0.136918 0.500000
O O20 0.292466 0.116887 0.000000
#
# Coordination Sequence:
#
# PCOD9428481 Si02
#       8
#     8   8   8   8   8   8   8   8
#     4  10  22  37  53  79 114 147 176 217 276 334
#     4  11  22  37  55  83 120 150 180 221 276 334
#     4   8  18  38  59  80 110 144 185 232 277 321
#     4  11  23  39  58  80 107 146 189 230 276 325
#     4   9  17  31  54  83 109 136 178 223 270 325
#     4   9  17  33  58  84 110 145 184 225 269 321
#     4  11  22  37  54  76 111 148 181 222 279 332
#     4   9  18  34  58  83 105 136 180 230 272 319
#
# _framework density 20.43364
#
# number of rings (size 3 to 8) (size 9 to 14) (size 15 to 20)
#    0.000    2.250    1.250    3.375    0.000    5.000 
#    0.000    7.500    0.000    3.750    0.000    0.000 
#    0.000    0.000    0.000    0.000    0.000    0.000 
#
# Total GULP energy -357381.413929 kJ/mol
# GULP energy per Si atom -5584.084593 kJ/mol
# Density = 2.038713 g / cm^3
# Si number density = 20.433640 Si / 1000 Ang^3
#
#
#
# Elastic Constant Matrix: (Units=GPa)
#
#
# Indices 1 2 3 4 5 6 
#
# 1 71.8717 -12.8432 4.8327 0.0000 0.0000 0.0000
# 2 -12.8432 41.2680 -2.8021 0.0000 0.0000 0.0000
# 3 4.8327 -2.8021 17.6502 0.0000 0.0000 0.0000
# 4 0.0000 0.0000 0.0000 -36.7181 0.0000 0.0000
# 5 0.0000 0.0000 0.0000 0.0000 33.2539 0.0000
# 6 0.0000 0.0000 0.0000 0.0000 0.0000 26.5877
#
#
#
# Elastic Compliance Matrix: (Units=1/GPa)
#
#
# Indices 1 2 3 4 5 6 
#
# 1 0.014931 0.004417 -0.003387 0.000000 0.000000 0.000000
# 2 0.004417 0.025802 0.002887 0.000000 0.000000 0.000000
# 3 -0.003387 0.002887 0.058042 0.000000 0.000000 0.000000
# 4 0.000000 0.000000 0.000000 -0.027235 0.000000 0.000000
# 5 0.000000 0.000000 0.000000 0.000000 0.030072 0.000000
# 6 0.000000 0.000000 0.000000 0.000000 0.000000 0.037611
#
#
# Mechanical properties :
#
#
# Convention : Reuss Voigt Hill
#
# Bulk Modulus (GPa) = 9.38009 12.12942 10.75475
# Shear Modulus (GPa) = 29.95330 14.06488 22.00909
#
# Velocity S-wave (km/s) = 3.83284 2.62643 3.28548
# Velocity P-wave (km/s) = 4.91813 3.89184 4.43477
#
# Compressibility (1/GPa) = 0.10660883
#
# Stress axis : x y z
#
# Youngs Moduli (GPa) = 66.97625 38.75605 17.22883
#
# Poissons Ratio (x) = -0.17117 0.05835
# Poissons Ratio (y) = -0.29581 -0.04974
# Poissons Ratio (z) = 0.22684 -0.11189
#
# Static dielectric constant tensor:
#      x y z
#    x 1.753630 0.000000 0.000000 
#    y 0.000000 1.741320 0.000000 
#    z 0.000000 0.000000 1.691070 
# 
# From -- ./inp_files/8000.got.cif
#   From: 2010.05.17/outbox.cif.g08.bks.cpg/sg55_4_cif.got.tgz:8000.got - 2010.06.03 13:27:54.
