data_PCOD9428186
_publ_section_title
;
Structure prediction by ZEFSAII (Michael W. Deem and Ramdas Pophale) SiO2 
 PCOD9428186
Probable space group: P B A M
;
_chemical_formula_sum "Si O2"
_cell_formula_units_Z 32
_cell_length_a 28.808402
_cell_length_b 5.139852
_cell_length_c 8.338831
_cell_angle_alpha 90.000000
_cell_angle_beta 90.000000
_cell_angle_gamma 90.000000
_cell_volume 1234.738400
_symmetry_space_group_name_H-M "P B A M"
_symmetry_group_IT_number 55
_symmetry_cell_setting 'orthorhombic'
loop_
_space_group_symop_operation_xyz
x,y,z
-x,-y,z
1/2+x,1/2-y,-z
1/2-x,1/2+y,-z
-x,-y,-z
x,y,-z
1/2-x,1/2+y,z
1/2+x,1/2-y,z
loop_
_atom_site_type_symbol
_atom_site_label
_atom_site_fract_x
_atom_site_fract_y
_atom_site_fract_z
Si Si1 0.631951 0.909489 0.000000
Si Si2 0.569918 0.418910 0.000000
Si Si3 0.218990 0.099637 0.193686
Si Si4 0.542963 0.197660 0.674266
Si Si5 0.350537 0.959077 0.325255
O O1 0.591309 0.702245 0.000000
O O2 0.660362 0.881724 0.836620
O O3 0.610151 0.197910 0.000000
O O4 0.543722 0.368065 0.834105
O O5 0.247740 0.844673 0.234936
O O6 0.172318 0.177035 0.289829
O O7 0.210939 0.104413 0.000000
O O8 0.541476 0.334236 0.500000
O O9 0.500000 0.000000 0.682646
O O10 0.593339 0.056628 0.674293
O O11 0.335595 0.052796 0.500000
#
# Coordination Sequence:
#
# PCOD9428186 Si02
#       5
#     4   4   8   8   8
#     4  10  22  40  61  91 124 162 208 259 313 374
#     4  10  21  38  62  87 124 166 212 257 310 370
#     4  10  22  41  65  92 126 165 208 262 324 383
#     4   9  19  38  64  96 133 173 218 269 326 388
#     4  10  21  40  65  94 129 169 214 265 321 384
#
# _framework density 25.916422000000001
#
# number of rings (size 3 to 8) (size 9 to 14) (size 15 to 20)
#    0.000    2.250    1.250    0.375    0.000    6.000 
#    0.000   15.000    0.000   13.500    0.000    0.000 
#    0.000    0.000    0.000    0.000    0.000    0.000 
#
# Total GULP energy -179060.520749 kJ/mol
# GULP energy per Si atom -5595.641273 kJ/mol
# Density = 2.585744 g / cm^3
# Si number density = 25.916422 Si / 1000 Ang^3
#
#
#
# Elastic Constant Matrix: (Units=GPa)
#
#
# Indices 1 2 3 4 5 6 
#
# 1 130.9965 33.9621 0.5220 0.0000 0.0000 0.0000
# 2 33.9621 71.3588 18.3420 0.0000 0.0000 0.0000
# 3 0.5220 18.3420 247.2528 0.0000 0.0000 0.0000
# 4 0.0000 0.0000 0.0000 73.4427 0.0000 0.0000
# 5 0.0000 0.0000 0.0000 0.0000 25.1554 0.0000
# 6 0.0000 0.0000 0.0000 0.0000 0.0000 45.2339
#
#
#
# Elastic Compliance Matrix: (Units=1/GPa)
#
#
# Indices 1 2 3 4 5 6 
#
# 1 0.008729 -0.004231 0.000295 0.000000 0.000000 0.000000
# 2 -0.004231 0.016336 -0.001203 0.000000 0.000000 0.000000
# 3 0.000295 -0.001203 0.004133 0.000000 0.000000 0.000000
# 4 0.000000 0.000000 0.000000 0.013616 0.000000 0.000000
# 5 0.000000 0.000000 0.000000 0.000000 0.039753 0.000000
# 6 0.000000 0.000000 0.000000 0.000000 0.000000 0.022107
#
#
# Mechanical properties :
#
#
# Convention : Reuss Voigt Hill
#
# Bulk Modulus (GPa) = 52.84679 61.69561 57.27120
# Shear Modulus (GPa) = 41.23408 55.21853 48.22630
#
# Velocity S-wave (km/s) = 3.99311 4.62089 4.31842
# Velocity P-wave (km/s) = 6.45720 7.23377 6.85649
#
# Compressibility (1/GPa) = 0.01892263
#
# Stress axis : x y z
#
# Youngs Moduli (GPa) = 114.55501 61.21313 241.95161
#
# Poissons Ratio (x) = 0.25897 -0.07147
# Poissons Ratio (y) = 0.48463 0.29106
# Poissons Ratio (z) = -0.03384 0.07364
#
# Static dielectric constant tensor:
#      x y z
#    x 2.065020 0.000000 0.000000 
#    y 0.000000 2.030770 0.000000 
#    z 0.000000 0.000000 2.081210 
# 
# From -- ./inp_files/1345.got.cif
#   From: 2010.05.17/outbox.cif.g08.bks.cpg/sg55_1_cif.got.tgz:1345.got - 2010.06.03 13:27:54.
