data_PCOD9428816
_publ_section_title
;
Structure prediction by ZEFSAII (Michael W. Deem and Ramdas Pophale) SiO2 
 PCOD9428816
Probable space group: P B A M
;
_chemical_formula_sum "Si O2"
_cell_formula_units_Z 46
_cell_length_a 10.494546
_cell_length_b 9.795489
_cell_length_c 20.717160
_cell_angle_alpha 90.000000
_cell_angle_beta 90.000000
_cell_angle_gamma 90.000000
_cell_volume 2129.707679
_symmetry_space_group_name_H-M "P B A M"
_symmetry_group_IT_number 55
_symmetry_cell_setting 'orthorhombic'
loop_
_space_group_symop_operation_xyz
x,y,z
-x,-y,z
1/2+x,1/2-y,-z
1/2-x,1/2+y,-z
-x,-y,-z
x,y,-z
1/2-x,1/2+y,z
1/2+x,1/2-y,z
loop_
_atom_site_type_symbol
_atom_site_label
_atom_site_fract_x
_atom_site_fract_y
_atom_site_fract_z
Si Si1 0.000000 0.500000 0.886016
Si Si2 0.778189 0.694974 0.295840
Si Si3 0.881954 0.940492 0.878850
Si Si4 0.500000 0.500000 0.500000
Si Si5 0.729262 0.166302 0.071083
Si Si6 0.976065 0.267723 0.786050
Si Si7 0.862607 0.962796 0.366543
O O1 0.097454 0.415583 0.928687
O O2 0.943072 0.381373 0.839800
O O3 0.652139 0.734701 0.253842
O O4 0.906279 0.669324 0.254924
O O5 0.738382 0.568268 0.339215
O O6 0.816646 0.816967 0.343398
O O7 0.800920 0.822287 0.912323
O O8 0.950964 0.862355 0.819345
O O9 0.800748 0.079379 0.873236
O O10 0.000000 0.000000 0.919305
O O11 0.393233 0.525284 0.557866
O O12 0.788464 0.158224 0.000000
O O13 0.000000 0.000000 0.334834
#
# Coordination Sequence:
#
# PCOD9428816 Si02
#       7
#     4   8   8   2   8   8   8
#     4  10  23  40  62 102 120 175 232 282 348 430
#     4  12  23  43  71 105 144 190 235 295 354 426
#     4  11  28  45  70 100 134 177 230 287 364 436
#     4   8  20  48  68 104 152 196 228 316 334 400
#     4  11  25  46  68  94 133 176 230 291 355 432
#     4  11  24  40  72  99 147 180 234 294 363 433
#     4  10  23  44  67 107 144 190 241 287 354 403
#
# _framework density 21.599209999999999
#
# number of rings (size 3 to 8) (size 9 to 14) (size 15 to 20)
#    0.522    0.696    1.739    2.870   12.174    2.087 
#    0.000    0.000    0.000    2.087    0.000    0.000 
#    0.000    0.000    0.000    0.000    0.000    0.000 
#
# Total GULP energy -256085.017929 kJ/mol
# GULP energy per Si atom -5567.065607 kJ/mol
# Density = 2.155005 g / cm^3
# Si number density = 21.599210 Si / 1000 Ang^3
#
#
#
# Elastic Constant Matrix: (Units=GPa)
#
#
# Indices 1 2 3 4 5 6 
#
# 1 92.1236 9.8167 35.2252 0.0000 0.0000 0.0000
# 2 9.8167 111.1034 15.3167 0.0000 0.0000 0.0000
# 3 35.2252 15.3167 107.3037 0.0000 0.0000 0.0000
# 4 0.0000 0.0000 0.0000 1.3125 0.0000 0.0000
# 5 0.0000 0.0000 0.0000 0.0000 20.7989 0.0000
# 6 0.0000 0.0000 0.0000 0.0000 0.0000 39.9852
#
#
#
# Elastic Compliance Matrix: (Units=1/GPa)
#
#
# Indices 1 2 3 4 5 6 
#
# 1 0.012446 -0.000547 -0.004007 0.000000 0.000000 0.000000
# 2 -0.000547 0.009205 -0.001134 0.000000 0.000000 0.000000
# 3 -0.004007 -0.001134 0.010797 0.000000 0.000000 0.000000
# 4 0.000000 0.000000 0.000000 0.761877 0.000000 0.000000
# 5 0.000000 0.000000 0.000000 0.000000 0.048080 0.000000
# 6 0.000000 0.000000 0.000000 0.000000 0.000000 0.025009
#
#
# Mechanical properties :
#
#
# Convention : Reuss Voigt Hill
#
# Bulk Modulus (GPa) = 47.46141 47.91643 47.68892
# Shear Modulus (GPa) = 5.64452 29.09747 17.37100
#
# Velocity S-wave (km/s) = 1.61832 3.67434 2.83899
# Velocity P-wave (km/s) = 5.05107 6.34299 5.73354
#
# Compressibility (1/GPa) = 0.02106975
#
# Stress axis : x y z
#
# Youngs Moduli (GPa) = 80.34952 108.63246 92.61988
#
# Poissons Ratio (x) = 0.05944 0.37117
# Poissons Ratio (y) = 0.04397 0.10506
# Poissons Ratio (z) = 0.32200 0.12323
#
# Static dielectric constant tensor:
#      x y z
#    x 1.885650 0.000000 0.000000 
#    y 0.000000 1.767060 0.000000 
#    z 0.000000 0.000000 1.778030 
# 
# From -- ./inp_files/23554.got.cif
#   From: 2010.05.17/outbox.cif.g08.bks.cpg/sg55_12_cif.got.tgz:23554.got - 2010.06.03 13:27:54.
