data_PCOD9428298
_publ_section_title
;
Structure prediction by ZEFSAII (Michael W. Deem and Ramdas Pophale) SiO2 
 PCOD9428298
Probable space group: P B A M
;
_chemical_formula_sum "Si O2"
_cell_formula_units_Z 40
_cell_length_a 7.911583
_cell_length_b 14.664362
_cell_length_c 13.917749
_cell_angle_alpha 90.000000
_cell_angle_beta 90.000000
_cell_angle_gamma 90.000000
_cell_volume 1614.713817
_symmetry_space_group_name_H-M "P B A M"
_symmetry_group_IT_number 55
_symmetry_cell_setting 'orthorhombic'
loop_
_space_group_symop_operation_xyz
x,y,z
-x,-y,z
1/2+x,1/2-y,-z
1/2-x,1/2+y,-z
-x,-y,-z
x,y,-z
1/2-x,1/2+y,z
1/2+x,1/2-y,z
loop_
_atom_site_type_symbol
_atom_site_label
_atom_site_fract_x
_atom_site_fract_y
_atom_site_fract_z
Si Si1 0.046443 0.406736 0.714203
Si Si2 0.002793 0.106946 0.133332
Si Si3 0.065153 0.617460 0.500000
Si Si4 0.634227 0.202389 0.105910
Si Si5 0.083047 0.213167 0.500000
Si Si6 0.063867 0.906652 0.654442
O O1 0.035748 0.328490 0.796138
O O2 0.240767 0.408723 0.680764
O O3 0.000000 0.500000 0.767767
O O4 0.942320 0.413102 0.612854
O O5 0.818994 0.154144 0.114696
O O6 0.035964 0.098664 0.246572
O O7 0.132041 0.186934 0.102834
O O8 0.000000 0.000000 0.100701
O O9 0.240025 0.667292 0.500000
O O10 0.900297 0.679946 0.500000
O O11 0.565884 0.174088 0.000000
O O12 0.981175 0.180152 0.591932
O O13 0.000000 0.000000 0.605597
#
# Coordination Sequence:
#
# PCOD9428298 Si02
#       6
#     8   8   4   8   4   8
#     4  11  24  43  66  98 139 180 232 291 350 422
#     4  10  24  46  71 101 142 187 235 296 358 421
#     4  12  25  40  63  94 132 178 227 287 354 421
#     4  11  25  44  70 102 137 185 238 288 350 421
#     4  12  23  38  61  92 130 174 232 289 350 425
#     4  10  21  39  63  92 130 178 227 282 351 419
#
# _framework density 24.772190999999999
#
# number of rings (size 3 to 8) (size 9 to 14) (size 15 to 20)
#    0.000    1.200    0.000    5.400    0.000   11.600 
#    0.000    0.000    0.000    0.000    0.000    0.000 
#    0.000    0.000    0.000    0.000    0.000    0.000 
#
# Total GULP energy -222812.170782 kJ/mol
# GULP energy per Si atom -5570.304270 kJ/mol
# Density = 2.471581 g / cm^3
# Si number density = 24.772191 Si / 1000 Ang^3
#
#
#
# Elastic Constant Matrix: (Units=GPa)
#
#
# Indices 1 2 3 4 5 6 
#
# 1 53.7198 26.9648 3.0010 0.0000 0.0000 0.0000
# 2 26.9648 163.1006 49.2892 0.0000 0.0000 0.0000
# 3 3.0010 49.2892 176.1149 0.0000 0.0000 0.0000
# 4 0.0000 0.0000 0.0000 -331.5694 0.0000 0.0000
# 5 0.0000 0.0000 0.0000 0.0000 7.3012 0.0000
# 6 0.0000 0.0000 0.0000 0.0000 0.0000 39.1365
#
#
#
# Elastic Compliance Matrix: (Units=1/GPa)
#
#
# Indices 1 2 3 4 5 6 
#
# 1 0.020368 -0.003564 0.000650 0.000000 0.000000 0.000000
# 2 -0.003564 0.007321 -0.001988 0.000000 0.000000 0.000000
# 3 0.000650 -0.001988 0.006223 0.000000 0.000000 0.000000
# 4 0.000000 0.000000 0.000000 -0.003016 0.000000 0.000000
# 5 0.000000 0.000000 0.000000 0.000000 0.136965 0.000000
# 6 0.000000 0.000000 0.000000 0.000000 0.000000 0.025552
#
#
# Mechanical properties :
#
#
# Convention : Reuss Voigt Hill
#
# Bulk Modulus (GPa) = 41.47851 61.27169 51.37510
# Shear Modulus (GPa) = 23.66836 -36.11432 -6.22298
#
# Velocity S-wave (km/s) = 3.09437 -3.82233 -1.58667
# Velocity P-wave (km/s) = 5.43573 2.30379 4.17461
#
# Compressibility (1/GPa) = 0.02410887
#
# Stress axis : x y z
#
# Youngs Moduli (GPa) = 49.09741 136.58891 160.68174
#
# Poissons Ratio (x) = 0.48678 -0.10450
# Poissons Ratio (y) = 0.17498 0.31948
# Poissons Ratio (z) = -0.03193 0.27157
#
# Static dielectric constant tensor:
#      x y z
#    x 1.994880 0.000000 0.000000 
#    y 0.000000 2.042660 0.000000 
#    z 0.000000 0.000000 1.985110 
# 
# From -- ./inp_files/17135.got.cif
#   From: 2010.05.17/outbox.cif.g08.bks.cpg/sg55_9_cif.got.tgz:17135.got - 2010.06.03 13:27:54.
