data_PCOD9428323
_publ_section_title
;
Structure prediction by ZEFSAII (Michael W. Deem and Ramdas Pophale) SiO2 
 PCOD9428323
Probable space group: P B A M
;
_chemical_formula_sum "Si O2"
_cell_formula_units_Z 48
_cell_length_a 22.437281
_cell_length_b 12.091909
_cell_length_c 8.349511
_cell_angle_alpha 90.000000
_cell_angle_beta 90.000000
_cell_angle_gamma 90.000000
_cell_volume 2265.302156
_symmetry_space_group_name_H-M "P B A M"
_symmetry_group_IT_number 55
_symmetry_cell_setting 'orthorhombic'
loop_
_space_group_symop_operation_xyz
x,y,z
-x,-y,z
1/2+x,1/2-y,-z
1/2-x,1/2+y,-z
-x,-y,-z
x,y,-z
1/2-x,1/2+y,z
1/2+x,1/2-y,z
loop_
_atom_site_type_symbol
_atom_site_label
_atom_site_fract_x
_atom_site_fract_y
_atom_site_fract_z
Si Si1 0.620582 0.281509 0.808095
Si Si2 0.233516 0.354854 0.685149
Si Si3 0.335790 0.050270 0.182451
Si Si4 0.358629 0.294088 0.186541
Si Si5 0.043458 0.410582 0.818213
Si Si6 0.068242 0.995104 0.310384
O O1 0.680458 0.229890 0.732723
O O2 0.563591 0.207532 0.749577
O O3 0.607628 0.408086 0.768380
O O4 0.624633 0.266409 0.000000
O O5 0.249153 0.339104 0.500000
O O6 0.209945 0.479021 0.715126
O O7 0.291315 0.336578 0.792339
O O8 0.355578 0.168441 0.248067
O O9 0.394141 0.974634 0.170934
O O10 0.312531 0.066218 0.000000
O O11 0.402838 0.376794 0.274301
O O12 0.375662 0.290633 0.000000
O O13 0.000000 0.500000 0.737757
O O14 0.019572 0.390437 0.000000
O O15 0.068169 0.015116 0.500000
O O16 0.000000 0.000000 0.251342
#
# Coordination Sequence:
#
# PCOD9428323 Si02
#       6
#     8   8   8   8   8   8
#     4  10  21  39  65  92 124 163 211 262 308 369
#     4  11  23  40  64  92 128 165 203 254 322 386
#     4   9  20  38  60  89 121 154 203 257 306 365
#     4  11  24  41  66  93 123 162 213 266 312 373
#     4   8  15  30  57  89 117 146 189 248 302 350
#     4  11  26  45  63  90 132 174 213 259 322 392
#
# _framework density 21.189226000000001
#
# number of rings (size 3 to 8) (size 9 to 14) (size 15 to 20)
#    0.000    2.000    0.000    4.000    4.667    2.667 
#    0.000    0.000    0.000    2.500    0.000    0.000 
#    0.000    0.000    0.000    0.000    0.000    0.000 
#
# Total GULP energy -267974.525693 kJ/mol
# GULP energy per Si atom -5582.802619 kJ/mol
# Density = 2.114100 g / cm^3
# Si number density = 21.189226 Si / 1000 Ang^3
#
#
#
# Elastic Constant Matrix: (Units=GPa)
#
#
# Indices 1 2 3 4 5 6 
#
# 1 43.8457 11.2651 -3.2264 0.0000 0.0000 0.0000
# 2 11.2651 121.3847 4.2521 0.0000 0.0000 0.0000
# 3 -3.2264 4.2521 25.9597 0.0000 0.0000 0.0000
# 4 0.0000 0.0000 0.0000 20.3512 0.0000 0.0000
# 5 0.0000 0.0000 0.0000 0.0000 13.5416 0.0000
# 6 0.0000 0.0000 0.0000 0.0000 0.0000 14.2963
#
#
#
# Elastic Compliance Matrix: (Units=1/GPa)
#
#
# Indices 1 2 3 4 5 6 
#
# 1 0.023645 -0.002311 0.003317 0.000000 0.000000 0.000000
# 2 -0.002311 0.008512 -0.001681 0.000000 0.000000 0.000000
# 3 0.003317 -0.001681 0.039209 0.000000 0.000000 0.000000
# 4 0.000000 0.000000 0.000000 0.049137 0.000000 0.000000
# 5 0.000000 0.000000 0.000000 0.000000 0.073847 0.000000
# 6 0.000000 0.000000 0.000000 0.000000 0.000000 0.069948
#
#
# Mechanical properties :
#
#
# Convention : Reuss Voigt Hill
#
# Bulk Modulus (GPa) = 14.28242 23.97461 19.12852
# Shear Modulus (GPa) = 17.30191 21.56445 19.43318
#
# Velocity S-wave (km/s) = 2.86062 3.19362 3.03169
# Velocity P-wave (km/s) = 4.20309 4.99380 4.61540
#
# Compressibility (1/GPa) = 0.07001614
#
# Stress axis : x y z
#
# Youngs Moduli (GPa) = 42.29223 117.48676 25.50441
#
# Poissons Ratio (x) = 0.27146 -0.08460
# Poissons Ratio (y) = 0.09772 0.04288
# Poissons Ratio (z) = -0.14029 0.19753
#
# Static dielectric constant tensor:
#      x y z
#    x 1.754910 0.000000 0.000000 
#    y 0.000000 1.790180 0.000000 
#    z 0.000000 0.000000 1.740230 
# 
# From -- ./inp_files/9447.got.cif
#   From: 2010.05.17/outbox.cif.g08.bks.cpg/sg55_5_cif.got.tgz:9447.got - 2010.06.03 13:27:54.
