data_PCOD9428458
_publ_section_title
;
Structure prediction by ZEFSAII (Michael W. Deem and Ramdas Pophale) SiO2 
 PCOD9428458
Probable space group: P B A M
;
_chemical_formula_sum "Si O2"
_cell_formula_units_Z 40
_cell_length_a 18.207705
_cell_length_b 16.052687
_cell_length_c 7.379550
_cell_angle_alpha 90.000000
_cell_angle_beta 90.000000
_cell_angle_gamma 90.000000
_cell_volume 2156.913982
_symmetry_space_group_name_H-M "P B A M"
_symmetry_group_IT_number 55
_symmetry_cell_setting 'orthorhombic'
loop_
_space_group_symop_operation_xyz
x,y,z
-x,-y,z
1/2+x,1/2-y,-z
1/2-x,1/2+y,-z
-x,-y,-z
x,y,-z
1/2-x,1/2+y,z
1/2+x,1/2-y,z
loop_
_atom_site_type_symbol
_atom_site_label
_atom_site_fract_x
_atom_site_fract_y
_atom_site_fract_z
Si Si1 0.602525 0.678660 0.500000
Si Si2 0.394213 0.065571 0.786425
Si Si3 0.065323 0.384773 0.787392
Si Si4 0.947155 0.749126 0.500000
Si Si5 0.584138 0.533135 0.785465
Si Si6 0.804040 0.331996 0.500000
Si Si7 0.645426 0.409858 0.500000
O O1 0.535134 0.743618 0.500000
O O2 0.593933 0.619461 0.675880
O O3 0.675668 0.734466 0.500000
O O4 0.479014 0.093300 0.762335
O O5 0.342196 0.124176 0.672109
O O6 0.391484 0.968266 0.730712
O O7 0.378487 0.070123 0.000000
O O8 0.080158 0.303371 0.671640
O O9 0.077773 0.371498 0.000000
O O10 0.919258 0.842611 0.500000
O O11 0.500000 0.500000 0.765353
O O12 0.635101 0.467929 0.676600
O O13 0.599545 0.539849 0.000000
O O14 0.719660 0.357556 0.500000
#
# Coordination Sequence:
#
# PCOD9428458 Si02
#       7
#     4   8   8   4   8   4   4
#     4  11  21  37  62  96 116 148 200 246 290 356
#     4   9  18  34  55  82 114 155 196 225 276 353
#     4   9  18  32  55  85 114 146 192 241 280 334
#     4  12  19  34  58  86 117 145 192 248 293 332
#     4  10  21  43  70  87 109 150 202 257 300 340
#     4  12  23  37  58  84 124 160 186 238 306 356
#     4  11  25  41  57  86 119 150 195 244 295 360
#
# _framework density 18.545013000000001
#
# number of rings (size 3 to 8) (size 9 to 14) (size 15 to 20)
#    0.000    1.800    4.000    2.400    0.000    4.800 
#    7.200    0.000    0.000    0.000    0.000    0.000 
#    0.000    0.000    0.000    0.000    0.000    0.000 
#
# Total GULP energy -223223.247071 kJ/mol
# GULP energy per Si atom -5580.581177 kJ/mol
# Density = 1.850280 g / cm^3
# Si number density = 18.545013 Si / 1000 Ang^3
#
#
#
# Elastic Constant Matrix: (Units=GPa)
#
#
# Indices 1 2 3 4 5 6 
#
# 1 50.0762 11.1129 22.6509 0.0000 0.0000 0.0000
# 2 11.1129 106.2435 59.1851 0.0000 0.0000 0.0000
# 3 22.6509 59.1851 119.5540 0.0000 0.0000 0.0000
# 4 0.0000 0.0000 0.0000 26.4982 0.0000 0.0000
# 5 0.0000 0.0000 0.0000 0.0000 10.8438 0.0000
# 6 0.0000 0.0000 0.0000 0.0000 0.0000 28.0130
#
#
#
# Elastic Compliance Matrix: (Units=1/GPa)
#
#
# Indices 1 2 3 4 5 6 
#
# 1 0.021841 0.000028 -0.004152 0.000000 0.000000 0.000000
# 2 0.000028 0.012997 -0.006439 0.000000 0.000000 0.000000
# 3 -0.004152 -0.006439 0.012339 0.000000 0.000000 0.000000
# 4 0.000000 0.000000 0.000000 0.037738 0.000000 0.000000
# 5 0.000000 0.000000 0.000000 0.000000 0.092219 0.000000
# 6 0.000000 0.000000 0.000000 0.000000 0.000000 0.035698
#
#
# Mechanical properties :
#
#
# Convention : Reuss Voigt Hill
#
# Bulk Modulus (GPa) = 38.38665 51.30794 44.84729
# Shear Modulus (GPa) = 20.60657 25.26600 22.93629
#
# Velocity S-wave (km/s) = 3.33703 3.69509 3.52062
# Velocity P-wave (km/s) = 5.96589 6.77730 6.38449
#
# Compressibility (1/GPa) = 0.02605073
#
# Stress axis : x y z
#
# Youngs Moduli (GPa) = 45.78465 76.94376 81.04468
#
# Poissons Ratio (x) = -0.00219 0.33651
# Poissons Ratio (y) = -0.00130 0.52187
# Poissons Ratio (z) = 0.19011 0.49546
#
# Static dielectric constant tensor:
#      x y z
#    x 1.629070 0.000000 0.000000 
#    y 0.000000 1.640210 0.000000 
#    z 0.000000 0.000000 1.633010 
# 
# From -- ./inp_files/7520.got.cif
#   From: 2010.05.17/outbox.cif.g08.bks.cpg/sg55_4_cif.got.tgz:7520.got - 2010.06.03 13:27:54.
