data_PCOD9428082
_publ_section_title
;
Structure prediction by ZEFSAII (Michael W. Deem and Ramdas Pophale) SiO2 
 PCOD9428082
Probable space group: P B A M
;
_chemical_formula_sum "Si O2"
_cell_formula_units_Z 36
_cell_length_a 10.884210
_cell_length_b 4.842210
_cell_length_c 26.671505
_cell_angle_alpha 90.000000
_cell_angle_beta 90.000000
_cell_angle_gamma 90.000000
_cell_volume 1405.685145
_symmetry_space_group_name_H-M "P B A M"
_symmetry_group_IT_number 55
_symmetry_cell_setting 'orthorhombic'
loop_
_space_group_symop_operation_xyz
x,y,z
-x,-y,z
1/2+x,1/2-y,-z
1/2-x,1/2+y,-z
-x,-y,-z
x,y,-z
1/2-x,1/2+y,z
1/2+x,1/2-y,z
loop_
_atom_site_type_symbol
_atom_site_label
_atom_site_fract_x
_atom_site_fract_y
_atom_site_fract_z
Si Si1 0.500000 0.500000 0.297323
Si Si2 0.161277 0.699053 0.895076
Si Si3 0.338961 0.331541 0.000000
Si Si4 0.665791 0.634511 0.208925
Si Si5 0.829747 0.219105 0.555841
Si Si6 0.500000 0.000000 0.363049
O O1 0.591330 0.659366 0.259738
O O2 0.556835 0.249768 0.329879
O O3 0.216589 0.393898 0.895391
O O4 0.095719 0.762893 0.947590
O O5 0.098505 0.774333 0.842480
O O6 0.283085 0.636499 0.000000
O O7 0.712829 0.322226 0.208448
O O8 0.881959 0.271087 0.500000
O O9 0.704075 0.398005 0.558622
O O10 0.908949 0.332609 0.600916
#
# Coordination Sequence:
#
# PCOD9428082 Si02
#       6
#     4   8   4   8   8   4
#     4  12  26  38  57  85 112 152 194 230 274 320
#     4   8  14  25  44  68  95 130 169 216 272 325
#     4   8  12  20  38  67  94 119 164 214 264 329
#     4  10  21  38  56  76 108 147 187 231 278 329
#     4  10  22  41  65  91 119 151 184 223 275 330
#     4  12  25  40  60  88 118 149 188 232 274 318
#
# _framework density 25.610285999999999
#
# number of rings (size 3 to 8) (size 9 to 14) (size 15 to 20)
#    0.000    2.222    0.000    3.000    0.000    5.333 
#    0.000    4.444    0.000    0.667    0.000    0.000 
#    0.000   28.444    0.000    0.000    0.000    3.778 
#
# Total GULP energy -201212.799924 kJ/mol
# GULP energy per Si atom -5589.244442 kJ/mol
# Density = 2.555200 g / cm^3
# Si number density = 25.610286 Si / 1000 Ang^3
#
#
#
# Elastic Constant Matrix: (Units=GPa)
#
#
# Indices 1 2 3 4 5 6 
#
# 1 28.3858 7.1792 23.3641 0.0000 0.0000 0.0000
# 2 7.1792 98.9919 25.9241 0.0000 0.0000 0.0000
# 3 23.3641 25.9241 183.2612 0.0000 0.0000 0.0000
# 4 0.0000 0.0000 0.0000 67.0756 0.0000 0.0000
# 5 0.0000 0.0000 0.0000 0.0000 124.4208 0.0000
# 6 0.0000 0.0000 0.0000 0.0000 0.0000 33.1755
#
#
#
# Elastic Compliance Matrix: (Units=1/GPa)
#
#
# Indices 1 2 3 4 5 6 
#
# 1 0.039604 -0.001610 -0.004821 0.000000 0.000000 0.000000
# 2 -0.001610 0.010556 -0.001288 0.000000 0.000000 0.000000
# 3 -0.004821 -0.001288 0.006254 0.000000 0.000000 0.000000
# 4 0.000000 0.000000 0.000000 0.014909 0.000000 0.000000
# 5 0.000000 0.000000 0.000000 0.000000 0.008037 0.000000
# 6 0.000000 0.000000 0.000000 0.000000 0.000000 0.030143
#
#
# Mechanical properties :
#
#
# Convention : Reuss Voigt Hill
#
# Bulk Modulus (GPa) = 24.40472 47.06376 35.73424
# Shear Modulus (GPa) = 36.07526 61.87917 48.97722
#
# Velocity S-wave (km/s) = 3.75724 4.92080 4.37785
# Velocity P-wave (km/s) = 5.32657 7.12057 6.28788
#
# Compressibility (1/GPa) = 0.04097569
#
# Stress axis : x y z
#
# Youngs Moduli (GPa) = 25.24970 94.73396 159.90814
#
# Poissons Ratio (x) = 0.15248 0.77100
# Poissons Ratio (y) = 0.04064 0.20597
# Poissons Ratio (z) = 0.12174 0.12202
#
# Static dielectric constant tensor:
#      x y z
#    x 2.128160 0.000000 0.000000 
#    y 0.000000 1.923340 0.000000 
#    z 0.000000 0.000000 2.103250 
# 
# From -- ./inp_files/23249.got.cif
#   From: 2010.05.17/outbox.cif.g08.bks.cpg/sg55_12_cif.got.tgz:23249.got - 2010.06.03 13:27:54.
