data_PCOD9428921
_publ_section_title
;
Structure prediction by ZEFSAII (Michael W. Deem and Ramdas Pophale) SiO2 
 PCOD9428921
Probable space group: P B A M
;
_chemical_formula_sum "Si O2"
_cell_formula_units_Z 26
_cell_length_a 11.308065
_cell_length_b 5.020373
_cell_length_c 18.852095
_cell_angle_alpha 90.000000
_cell_angle_beta 90.000000
_cell_angle_gamma 90.000000
_cell_volume 1070.246709
_symmetry_space_group_name_H-M "P B A M"
_symmetry_group_IT_number 55
_symmetry_cell_setting 'orthorhombic'
loop_
_space_group_symop_operation_xyz
x,y,z
-x,-y,z
1/2+x,1/2-y,-z
1/2-x,1/2+y,-z
-x,-y,-z
x,y,-z
1/2-x,1/2+y,z
1/2+x,1/2-y,z
loop_
_atom_site_type_symbol
_atom_site_label
_atom_site_fract_x
_atom_site_fract_y
_atom_site_fract_z
Si Si1 0.320945 0.810281 0.656040
Si Si2 0.085296 0.251216 0.500000
Si Si3 0.500000 0.500000 0.248993
Si Si4 0.832147 0.210259 0.127396
Si Si5 0.000000 0.000000 0.000000
O O1 0.212554 0.611671 0.672145
O O2 0.342713 0.765794 0.572548
O O3 0.429970 0.704548 0.701196
O O4 0.000000 0.500000 0.500000
O O5 0.000000 0.000000 0.500000
O O6 0.592815 0.646447 0.197320
O O7 0.720224 0.007613 0.124968
O O8 0.917049 0.142519 0.061774
#
# Coordination Sequence:
#
# PCOD9428921 Si02
#       5
#     8   4   4   8   2
#     4  12  26  44  69  99 133 178 230 285 348 411
#     4  12  24  46  70  97 133 178 226 292 352 409
#     4  11  26  44  70  99 140 186 226 285 342 414
#     4  11  25  45  68 103 141 179 230 278 340 406
#     4  10  24  42  76 102 136 184 224 284 336 400
#
# _framework density 24.293462999999999
#
# number of rings (size 3 to 8) (size 9 to 14) (size 15 to 20)
#    0.000    0.615    1.538    5.538    0.000    8.615 
#    0.000    0.000    0.000    0.000    0.000    0.000 
#    0.000    0.000    0.000    0.000    0.000    0.000 
#
# Total GULP energy -145463.979544 kJ/mol
# GULP energy per Si atom -5594.768444 kJ/mol
# Density = 2.423817 g / cm^3
# Si number density = 24.293463 Si / 1000 Ang^3
#
#
#
# Elastic Constant Matrix: (Units=GPa)
#
#
# Indices 1 2 3 4 5 6 
#
# 1 83.5101 7.2558 57.8140 0.0000 0.0000 0.0000
# 2 7.2558 86.9650 13.9007 0.0000 0.0000 0.0000
# 3 57.8140 13.9007 208.4795 0.0000 0.0000 0.0000
# 4 0.0000 0.0000 0.0000 -18.3012 0.0000 0.0000
# 5 0.0000 0.0000 0.0000 0.0000 75.8560 0.0000
# 6 0.0000 0.0000 0.0000 0.0000 0.0000 34.7619
#
#
#
# Elastic Compliance Matrix: (Units=1/GPa)
#
#
# Indices 1 2 3 4 5 6 
#
# 1 0.014849 -0.000587 -0.004079 0.000000 0.000000 0.000000
# 2 -0.000587 0.011646 -0.000614 0.000000 0.000000 0.000000
# 3 -0.004079 -0.000614 0.005969 0.000000 0.000000 0.000000
# 4 0.000000 0.000000 0.000000 -0.054641 0.000000 0.000000
# 5 0.000000 0.000000 0.000000 0.000000 0.013183 0.000000
# 6 0.000000 0.000000 0.000000 0.000000 0.000000 0.028767
#
#
# Mechanical properties :
#
#
# Convention : Reuss Voigt Hill
#
# Bulk Modulus (GPa) = 45.65174 59.65507 52.65341
# Shear Modulus (GPa) = 132.86052 38.46226 85.66139
#
# Velocity S-wave (km/s) = 7.40328 3.98331 5.94455
# Velocity P-wave (km/s) = 9.58700 6.76498 8.29685
#
# Compressibility (1/GPa) = 0.02190497
#
# Stress axis : x y z
#
# Youngs Moduli (GPa) = 67.34316 85.86677 167.54208
#
# Poissons Ratio (x) = 0.05040 0.68336
# Poissons Ratio (y) = 0.03953 0.10283
# Poissons Ratio (z) = 0.27468 0.05270
#
# Static dielectric constant tensor:
#      x y z
#    x 1.938560 0.000000 0.000000 
#    y 0.000000 1.877280 0.000000 
#    z 0.000000 0.000000 1.136700 
# 
# From -- ./inp_files/22756.got.cif
#   From: 2010.05.17/outbox.cif.g08.bks.cpg/sg55_12_cif.got.tgz:22756.got - 2010.06.03 13:27:54.
