data_PCOD9428920
_publ_section_title
;
Structure prediction by ZEFSAII (Michael W. Deem and Ramdas Pophale) SiO2 
 PCOD9428920
Probable space group: P B A M
;
_chemical_formula_sum "Si O2"
_cell_formula_units_Z 34
_cell_length_a 9.617249
_cell_length_b 16.293864
_cell_length_c 9.282121
_cell_angle_alpha 90.000000
_cell_angle_beta 90.000000
_cell_angle_gamma 90.000000
_cell_volume 1454.528292
_symmetry_space_group_name_H-M "P B A M"
_symmetry_group_IT_number 55
_symmetry_cell_setting 'orthorhombic'
loop_
_space_group_symop_operation_xyz
x,y,z
-x,-y,z
1/2+x,1/2-y,-z
1/2-x,1/2+y,-z
-x,-y,-z
x,y,-z
1/2-x,1/2+y,z
1/2+x,1/2-y,z
loop_
_atom_site_type_symbol
_atom_site_label
_atom_site_fract_x
_atom_site_fract_y
_atom_site_fract_z
Si Si1 0.057329 0.261246 0.172425
Si Si2 0.654577 0.498607 0.706769
Si Si3 0.822656 0.181926 0.334107
Si Si4 0.500000 0.500000 0.000000
Si Si5 0.070503 0.587547 0.336133
O O1 0.966382 0.189802 0.245866
O O2 0.977797 0.343721 0.224329
O O3 0.207674 0.268182 0.245415
O O4 0.063748 0.252732 0.000000
O O5 0.500000 0.500000 0.641630
O O6 0.719238 0.586835 0.668473
O O7 0.620062 0.494611 0.874671
O O8 0.764377 0.429488 0.666022
O O9 0.836040 0.208918 0.500000
O O10 0.029874 0.611540 0.500000
O O11 0.000000 0.500000 0.302951
#
# Coordination Sequence:
#
# PCOD9428920 Si02
#       5
#     8   8   8   2   8
#     4  12  29  45  72 101 141 181 229 284 349 412
#     4  10  24  42  74  98 140 179 230 279 348 401
#     4  12  26  49  72 100 139 183 233 283 343 408
#     4   8  24  40  64 104 144 168 222 286 334 402
#     4  11  23  44  71 103 136 174 230 280 338 406
#
# _framework density 23.375277000000001
#
# number of rings (size 3 to 8) (size 9 to 14) (size 15 to 20)
#    0.706    0.235    2.353    3.529    8.235    2.353 
#    0.000    0.000    0.000    0.000    0.000    0.000 
#    0.000    0.000    0.000    0.000    0.000    0.000 
#
# Total GULP energy -189680.479318 kJ/mol
# GULP energy per Si atom -5578.837627 kJ/mol
# Density = 2.332207 g / cm^3
# Si number density = 23.375277 Si / 1000 Ang^3
#
#
#
# Elastic Constant Matrix: (Units=GPa)
#
#
# Indices 1 2 3 4 5 6 
#
# 1 115.4669 -2.1499 29.7908 0.0000 0.0000 0.0000
# 2 -2.1499 65.9730 4.8210 0.0000 0.0000 0.0000
# 3 29.7908 4.8210 239.9939 0.0000 0.0000 0.0000
# 4 0.0000 0.0000 0.0000 -41.7447 0.0000 0.0000
# 5 0.0000 0.0000 0.0000 0.0000 68.2627 0.0000
# 6 0.0000 0.0000 0.0000 0.0000 0.0000 44.9461
#
#
#
# Elastic Compliance Matrix: (Units=1/GPa)
#
#
# Indices 1 2 3 4 5 6 
#
# 1 0.008956 0.000374 -0.001119 0.000000 0.000000 0.000000
# 2 0.000374 0.015196 -0.000352 0.000000 0.000000 0.000000
# 3 -0.001119 -0.000352 0.004313 0.000000 0.000000 0.000000
# 4 0.000000 0.000000 0.000000 -0.023955 0.000000 0.000000
# 5 0.000000 0.000000 0.000000 0.000000 0.014649 0.000000
# 6 0.000000 0.000000 0.000000 0.000000 0.000000 0.022249
#
#
# Mechanical properties :
#
#
# Convention : Reuss Voigt Hill
#
# Bulk Modulus (GPa) = 38.06605 54.03971 46.05288
# Shear Modulus (GPa) = 95.49497 40.22428 67.85962
#
# Velocity S-wave (km/s) = 6.39857 4.15276 5.39384
# Velocity P-wave (km/s) = 8.42075 6.79429 7.65086
#
# Compressibility (1/GPa) = 0.02627013
#
# Stress axis : x y z
#
# Youngs Moduli (GPa) = 111.65424 65.80856 231.86956
#
# Poissons Ratio (x) = -0.02459 0.25952
# Poissons Ratio (y) = -0.04172 0.08153
# Poissons Ratio (z) = 0.12497 0.02314
#
# Static dielectric constant tensor:
#      x y z
#    x 1.937320 0.000000 0.000000 
#    y 0.000000 1.938890 0.000000 
#    z 0.000000 0.000000 1.793810 
# 
# From -- ./inp_files/2162.got.cif
#   From: 2010.05.17/outbox.cif.g08.bks.cpg/sg55_2_cif.got.tgz:2162.got - 2010.06.03 13:27:54.
