data_PCOD9428354
_publ_section_title
;
Structure prediction by ZEFSAII (Michael W. Deem and Ramdas Pophale) SiO2 
 PCOD9428354
Probable space group: P B A M
;
_chemical_formula_sum "Si O2"
_cell_formula_units_Z 48
_cell_length_a 27.801294
_cell_length_b 10.280843
_cell_length_c 8.859595
_cell_angle_alpha 90.000000
_cell_angle_beta 90.000000
_cell_angle_gamma 90.000000
_cell_volume 2532.255988
_symmetry_space_group_name_H-M "P B A M"
_symmetry_group_IT_number 55
_symmetry_cell_setting 'orthorhombic'
loop_
_space_group_symop_operation_xyz
x,y,z
-x,-y,z
1/2+x,1/2-y,-z
1/2-x,1/2+y,-z
-x,-y,-z
x,y,-z
1/2-x,1/2+y,z
1/2+x,1/2-y,z
loop_
_atom_site_type_symbol
_atom_site_label
_atom_site_fract_x
_atom_site_fract_y
_atom_site_fract_z
Si Si1 0.963689 0.385076 0.681511
Si Si2 0.289372 0.254808 0.179649
Si Si3 0.183764 0.250143 0.319172
Si Si4 0.539638 0.607649 0.180506
Si Si5 0.641956 0.529364 0.319166
Si Si6 0.354696 0.033223 0.680869
O O1 0.966589 0.368536 0.500000
O O2 0.975242 0.249149 0.759870
O O3 0.908989 0.425406 0.718745
O O4 0.000000 0.500000 0.724495
O O5 0.234834 0.250501 0.236869
O O6 0.317168 0.376862 0.252398
O O7 0.317409 0.126486 0.235291
O O8 0.291152 0.264096 0.000000
O O9 0.192412 0.248309 0.500000
O O10 0.154465 0.119845 0.281575
O O11 0.155529 0.382753 0.283731
O O12 0.500000 0.500000 0.221627
O O13 0.590794 0.571537 0.253049
O O14 0.544539 0.610360 0.000000
O O15 0.641124 0.544068 0.500000
O O16 0.348486 0.050665 0.500000
#
# Coordination Sequence:
#
# PCOD9428354 Si02
#       6
#     8   8   8   8   8   8
#     4  10  22  40  67  96 122 157 204 254 301 361
#     4  12  24  39  61  90 126 165 205 249 306 369
#     4  10  23  40  62  91 123 160 208 258 303 356
#     4  11  25  43  63  92 128 164 201 249 308 370
#     4  11  23  41  66  92 121 162 208 257 306 357
#     4  10  21  40  63  90 123 159 202 253 304 357
#
# _framework density 18.955428999999999
#
# number of rings (size 3 to 8) (size 9 to 14) (size 15 to 20)
#    0.000    1.333    1.667    3.500    2.333    7.667 
#    0.000    0.000    0.000    0.000    0.000    0.000 
#    0.000    0.000    0.000    0.000    0.000    0.000 
#
# Total GULP energy -268472.399324 kJ/mol
# GULP energy per Si atom -5593.174986 kJ/mol
# Density = 1.891229 g / cm^3
# Si number density = 18.955429 Si / 1000 Ang^3
#
#
#
# Elastic Constant Matrix: (Units=GPa)
#
#
# Indices 1 2 3 4 5 6 
#
# 1 84.3994 58.3737 37.3074 0.0000 0.0000 0.0000
# 2 58.3737 182.1176 60.5966 0.0000 0.0000 0.0000
# 3 37.3074 60.5966 41.6367 0.0000 0.0000 0.0000
# 4 0.0000 0.0000 0.0000 -4.6240 0.0000 0.0000
# 5 0.0000 0.0000 0.0000 0.0000 14.1237 0.0000
# 6 0.0000 0.0000 0.0000 0.0000 0.0000 39.7981
#
#
#
# Elastic Compliance Matrix: (Units=1/GPa)
#
#
# Indices 1 2 3 4 5 6 
#
# 1 0.019687 -0.000855 -0.016396 0.000000 0.000000 0.000000
# 2 -0.000855 0.010684 -0.014783 0.000000 0.000000 0.000000
# 3 -0.016396 -0.014783 0.060223 0.000000 0.000000 0.000000
# 4 0.000000 0.000000 0.000000 -0.216261 0.000000 0.000000
# 5 0.000000 0.000000 0.000000 0.000000 0.070803 0.000000
# 6 0.000000 0.000000 0.000000 0.000000 0.000000 0.025127
#
#
# Mechanical properties :
#
#
# Convention : Reuss Voigt Hill
#
# Bulk Modulus (GPa) = 37.69833 68.96768 53.33301
# Shear Modulus (GPa) = 115.81478 19.98461 67.89970
#
# Velocity S-wave (km/s) = 7.82503 3.25051 5.99153
# Velocity P-wave (km/s) = 10.07832 7.10992 8.72134
#
# Compressibility (1/GPa) = 0.02652637
#
# Stress axis : x y z
#
# Youngs Moduli (GPa) = 50.79422 93.60115 16.60497
#
# Poissons Ratio (x) = 0.08000 0.27226
# Poissons Ratio (y) = 0.04341 0.24547
# Poissons Ratio (z) = 0.83284 1.38368
#
# Static dielectric constant tensor:
#      x y z
#    x 1.616580 0.000000 0.000000 
#    y 0.000000 1.644440 0.000000 
#    z 0.000000 0.000000 1.633960 
# 
# From -- ./inp_files/10543.got.cif
#   From: 2010.05.17/outbox.cif.g08.bks.cpg/sg55_6_cif.got.tgz:10543.got - 2010.06.03 13:27:54.
