data_PCOD9428000
_publ_section_title
;
Structure prediction by ZEFSAII (Michael W. Deem and Ramdas Pophale) SiO2 
 PCOD9428000
Probable space group: P B A M
;
_chemical_formula_sum "Si O2"
_cell_formula_units_Z 64
_cell_length_a 25.785641
_cell_length_b 10.193245
_cell_length_c 13.506342
_cell_angle_alpha 90.000000
_cell_angle_beta 90.000000
_cell_angle_gamma 90.000000
_cell_volume 3549.998236
_symmetry_space_group_name_H-M "P B A M"
_symmetry_group_IT_number 55
_symmetry_cell_setting 'orthorhombic'
loop_
_space_group_symop_operation_xyz
x,y,z
-x,-y,z
1/2+x,1/2-y,-z
1/2-x,1/2+y,-z
-x,-y,-z
x,y,-z
1/2-x,1/2+y,z
1/2+x,1/2-y,z
loop_
_atom_site_type_symbol
_atom_site_label
_atom_site_fract_x
_atom_site_fract_y
_atom_site_fract_z
Si Si1 0.122995 0.547384 0.290253
Si Si2 0.796315 0.734391 0.117923
Si Si3 0.886491 0.750958 0.274697
Si Si4 0.000006 0.850451 0.784736
Si Si5 0.760784 0.472304 0.223685
Si Si6 0.453946 0.103905 0.113656
Si Si7 0.328403 0.518280 0.615482
Si Si8 0.582184 0.697124 0.612717
O O1 0.111858 0.396406 0.317205
O O2 0.184004 0.564379 0.271633
O O3 0.092856 0.574054 0.187423
O O4 0.100769 0.655092 0.364959
O O5 0.851162 0.744109 0.175562
O O6 0.770225 0.600793 0.157310
O O7 0.762094 0.855780 0.156995
O O8 0.801863 0.735118 0.000000
O O9 0.942898 0.804254 0.246973
O O10 0.857869 0.850177 0.349048
O O11 0.023257 0.747105 0.862477
O O12 0.037484 0.841171 0.689341
O O13 0.000000 0.000000 0.820554
O O14 0.720130 0.499987 0.311720
O O15 0.500000 0.000000 0.133140
O O16 0.438035 0.092085 0.000000
O O17 0.313607 0.526278 0.500000
O O18 0.369004 0.399386 0.627733
O O19 0.564332 0.683453 0.500000
#
# Coordination Sequence:
#
# PCOD9428000 Si02
#       8
#     8   8   8   8   8   8   8   8
#     4  10  21  38  58  82 119 149 189 239 289 341
#     4  10  21  37  59  84 115 151 193 240 290 345
#     4  10  21  37  57  87 115 153 195 240 291 349
#     4  11  21  38  61  83 119 150 191 243 294 344
#     4  10  21  38  60  86 116 155 195 238 291 346
#     4  10  21  37  59  85 114 151 189 232 287 349
#     4  10  21  39  60  86 118 156 199 244 291 347
#     4  10  22  37  59  86 115 152 193 236 291 348
#
# _framework density 18.028178
#
# number of rings (size 3 to 8) (size 9 to 14) (size 15 to 20)
#    0.000    1.875    2.500    1.125    0.000    5.000 
#    0.000    8.125    0.000    0.000    0.000    0.000 
#    0.000    0.000    0.000    0.000    0.000    0.000 
#
# Total GULP energy -357390.433015 kJ/mol
# GULP energy per Si atom -5584.225516 kJ/mol
# Density = 1.798715 g / cm^3
# Si number density = 18.028178 Si / 1000 Ang^3
#
#
#
# Elastic Constant Matrix: (Units=GPa)
#
#
# Indices 1 2 3 4 5 6 
#
# 1 66.4613 17.6791 8.1463 0.0000 0.0000 0.0000
# 2 17.6791 111.3112 6.4515 0.0000 0.0000 0.0000
# 3 8.1463 6.4515 43.2394 0.0000 0.0000 0.0000
# 4 0.0000 0.0000 0.0000 8.3611 0.0000 0.0000
# 5 0.0000 0.0000 0.0000 0.0000 11.4953 0.0000
# 6 0.0000 0.0000 0.0000 0.0000 0.0000 23.1260
#
#
#
# Elastic Compliance Matrix: (Units=1/GPa)
#
#
# Indices 1 2 3 4 5 6 
#
# 1 0.016008 -0.002388 -0.002660 0.000000 0.000000 0.000000
# 2 -0.002388 0.009419 -0.000955 0.000000 0.000000 0.000000
# 3 -0.002660 -0.000955 0.023771 0.000000 0.000000 0.000000
# 4 0.000000 0.000000 0.000000 0.119602 0.000000 0.000000
# 5 0.000000 0.000000 0.000000 0.000000 0.086992 0.000000
# 6 0.000000 0.000000 0.000000 0.000000 0.000000 0.043241
#
#
# Mechanical properties :
#
#
# Convention : Reuss Voigt Hill
#
# Bulk Modulus (GPa) = 26.88856 31.72954 29.30905
# Shear Modulus (GPa) = 15.45905 21.17880 18.31893
#
# Velocity S-wave (km/s) = 2.93148 3.43120 3.19113
# Velocity P-wave (km/s) = 5.13860 5.77370 5.46538
#
# Compressibility (1/GPa) = 0.03719054
#
# Stress axis : x y z
#
# Youngs Moduli (GPa) = 62.47017 106.17385 42.06872
#
# Poissons Ratio (x) = 0.25357 0.11188
# Poissons Ratio (y) = 0.14920 0.04019
# Poissons Ratio (z) = 0.16614 0.10143
#
# Static dielectric constant tensor:
#      x y z
#    x 1.592650 0.000000 0.000000 
#    y 0.000000 1.620660 0.000000 
#    z 0.000000 0.000000 1.576470 
# 
# From -- ./inp_files/17835.got.cif
#   From: 2010.05.17/outbox.cif.g08.bks.cpg/sg55_9_cif.got.tgz:17835.got - 2010.06.03 13:27:54.
