data_PCOD9428590
_publ_section_title
;
Structure prediction by ZEFSAII (Michael W. Deem and Ramdas Pophale) SiO2 
 PCOD9428590
Probable space group: P B A M
;
_chemical_formula_sum "Si O2"
_cell_formula_units_Z 32
_cell_length_a 5.247827
_cell_length_b 27.944165
_cell_length_c 10.142252
_cell_angle_alpha 90.000000
_cell_angle_beta 90.000000
_cell_angle_gamma 90.000000
_cell_volume 1487.322143
_symmetry_space_group_name_H-M "P B A M"
_symmetry_group_IT_number 55
_symmetry_cell_setting 'orthorhombic'
loop_
_space_group_symop_operation_xyz
x,y,z
-x,-y,z
1/2+x,1/2-y,-z
1/2-x,1/2+y,-z
-x,-y,-z
x,y,-z
1/2-x,1/2+y,z
1/2+x,1/2-y,z
loop_
_atom_site_type_symbol
_atom_site_label
_atom_site_fract_x
_atom_site_fract_y
_atom_site_fract_z
Si Si1 0.288281 0.646332 0.647829
Si Si2 0.023389 0.400896 0.856052
Si Si3 0.478890 0.282059 0.148518
Si Si4 0.465840 0.554217 0.242600
O O1 0.239705 0.663474 0.500000
O O2 0.463093 0.680309 0.736940
O O3 0.419224 0.593951 0.645448
O O4 0.039333 0.636200 0.738478
O O5 0.285954 0.428017 0.834339
O O6 0.789080 0.438319 0.843758
O O7 0.016918 0.377798 0.000000
O O8 0.205814 0.256875 0.159302
O O9 0.499051 0.303322 0.000000
O O10 0.500000 0.500000 0.286246
#
# Coordination Sequence:
#
# PCOD9428590 Si02
#       4
#     8   8   8   8
#     4  10  25  43  64  94 131 169 212 257 315 382
#     4  10  22  39  62  90 123 162 211 264 312 363
#     4  10  23  43  67  95 124 160 207 260 322 381
#     4  10  23  40  62  95 128 170 215 265 314 369
#
# _framework density 21.515179
#
# number of rings (size 3 to 8) (size 9 to 14) (size 15 to 20)
#    1.500    0.500    0.000    2.250    3.500    5.500 
#    0.000    1.250    0.000    0.000    0.000    0.000 
#    0.000    0.000    0.000    0.000    0.000    0.000 
#
# Total GULP energy -178426.366318 kJ/mol
# GULP energy per Si atom -5575.823947 kJ/mol
# Density = 2.146621 g / cm^3
# Si number density = 21.515179 Si / 1000 Ang^3
#
#
#
# Elastic Constant Matrix: (Units=GPa)
#
#
# Indices 1 2 3 4 5 6 
#
# 1 121.2783 11.4290 6.5818 0.0000 0.0000 0.0000
# 2 11.4290 75.9016 49.8471 0.0000 0.0000 0.0000
# 3 6.5818 49.8471 160.0028 0.0000 0.0000 0.0000
# 4 0.0000 0.0000 0.0000 -76.4900 0.0000 0.0000
# 5 0.0000 0.0000 0.0000 0.0000 -0.7683 0.0000
# 6 0.0000 0.0000 0.0000 0.0000 0.0000 25.2764
#
#
#
# Elastic Compliance Matrix: (Units=1/GPa)
#
#
# Indices 1 2 3 4 5 6 
#
# 1 0.008365 -0.001299 0.000061 0.000000 0.000000 0.000000
# 2 -0.001299 0.016766 -0.005170 0.000000 0.000000 0.000000
# 3 0.000061 -0.005170 0.007858 0.000000 0.000000 0.000000
# 4 0.000000 0.000000 0.000000 -0.013074 0.000000 0.000000
# 5 0.000000 0.000000 0.000000 0.000000 -1.301556 0.000000
# 6 0.000000 0.000000 0.000000 0.000000 0.000000 0.039563
#
#
# Mechanical properties :
#
#
# Convention : Reuss Voigt Hill
#
# Bulk Modulus (GPa) = 49.57476 54.76650 52.17063
# Shear Modulus (GPa) = -4.08985 8.89194 2.40105
#
# Velocity S-wave (km/s) = -1.38023 2.03515 1.05754
# Velocity P-wave (km/s) = 4.53340 5.57069 5.07860
#
# Compressibility (1/GPa) = 0.02017155
#
# Stress axis : x y z
#
# Youngs Moduli (GPa) = 119.55063 59.64542 127.25943
#
# Poissons Ratio (x) = 0.07750 -0.00773
# Poissons Ratio (y) = 0.15535 0.65790
# Poissons Ratio (z) = -0.00726 0.30835
#
# Static dielectric constant tensor:
#      x y z
#    x 1.788080 0.000000 0.000000 
#    y 0.000000 1.800350 0.000000 
#    z 0.000000 0.000000 1.741690 
# 
# From -- ./inp_files/1327.got.cif
#   From: 2010.05.17/outbox.cif.g08.bks.cpg/sg55_1_cif.got.tgz:1327.got - 2010.06.03 13:27:54.
