data_PCOD9428594
_publ_section_title
;
Structure prediction by ZEFSAII (Michael W. Deem and Ramdas Pophale) SiO2 
 PCOD9428594
Probable space group: P B A M
;
_chemical_formula_sum "Si O2"
_cell_formula_units_Z 64
_cell_length_a 14.437660
_cell_length_b 24.794491
_cell_length_c 8.781271
_cell_angle_alpha 90.000000
_cell_angle_beta 90.000000
_cell_angle_gamma 90.000000
_cell_volume 3143.470489
_symmetry_space_group_name_H-M "P B A M"
_symmetry_group_IT_number 55
_symmetry_cell_setting 'orthorhombic'
loop_
_space_group_symop_operation_xyz
x,y,z
-x,-y,z
1/2+x,1/2-y,-z
1/2-x,1/2+y,-z
-x,-y,-z
x,y,-z
1/2-x,1/2+y,z
1/2+x,1/2-y,z
loop_
_atom_site_type_symbol
_atom_site_label
_atom_site_fract_x
_atom_site_fract_y
_atom_site_fract_z
Si Si1 0.779327 0.535609 0.323840
Si Si2 0.579839 0.959218 0.181771
Si Si3 0.411239 0.165449 0.817163
Si Si4 0.771362 0.778055 0.677590
Si Si5 0.246152 0.349664 0.676805
Si Si6 0.569343 0.658143 0.170086
Si Si7 0.964998 0.754237 0.321128
Si Si8 0.558895 0.551695 0.678796
O O1 0.797178 0.521586 0.500000
O O2 0.826242 0.490880 0.220955
O O3 0.816187 0.597206 0.297851
O O4 0.668324 0.539564 0.302758
O O5 0.582496 0.896999 0.236426
O O6 0.500000 0.000000 0.242196
O O7 0.567792 0.955736 0.000000
O O8 0.316034 0.195135 0.761065
O O9 0.499709 0.199842 0.758674
O O10 0.410671 0.166756 0.000000
O O11 0.762370 0.793604 0.500000
O O12 0.781098 0.712600 0.682634
O O13 0.875723 0.788613 0.736320
O O14 0.280178 0.357741 0.500000
O O15 0.322365 0.352658 0.808069
O O16 0.547874 0.704359 0.290653
O O17 0.526507 0.601925 0.221123
O O18 0.546066 0.675315 0.000000
O O19 0.953214 0.743984 0.500000
O O20 0.500000 0.500000 0.718611
O O21 0.543950 0.564267 0.500000
#
# Coordination Sequence:
#
# PCOD9428594 Si02
#       8
#     8   8   8   8   8   8   8   8
#     4   9  19  35  59  88 114 146 198 254 297 350
#     4  10  24  44  61  83 122 169 207 248 308 365
#     4  11  24  42  63  91 127 164 208 261 311 369
#     4  10  22  39  63  90 119 159 201 250 313 372
#     4   9  18  36  59  84 115 148 192 251 304 357
#     4  11  21  34  55  85 119 156 194 241 301 361
#     4  11  23  39  61  89 121 162 206 251 309 375
#     4   9  19  37  60  85 117 158 199 247 302 360
#
# _framework density 20.359663999999999
#
# number of rings (size 3 to 8) (size 9 to 14) (size 15 to 20)
#    0.000    2.000    1.250    2.625    1.750    5.500 
#    0.000    3.750    0.000    0.000    0.000    0.000 
#    0.000    0.000    0.000    0.000    0.000    0.000 
#
# Total GULP energy -356310.986736 kJ/mol
# GULP energy per Si atom -5567.359168 kJ/mol
# Density = 2.031332 g / cm^3
# Si number density = 20.359664 Si / 1000 Ang^3
#
#
#
# Elastic Constant Matrix: (Units=GPa)
#
#
# Indices 1 2 3 4 5 6 
#
# 1 51.6573 27.2636 21.3016 0.0000 0.0000 0.0000
# 2 27.2636 104.2545 27.0160 0.0000 0.0000 0.0000
# 3 21.3016 27.0160 39.9761 0.0000 0.0000 0.0000
# 4 0.0000 0.0000 0.0000 23.6143 0.0000 0.0000
# 5 0.0000 0.0000 0.0000 0.0000 15.3138 0.0000
# 6 0.0000 0.0000 0.0000 0.0000 0.0000 27.2904
#
#
#
# Elastic Compliance Matrix: (Units=1/GPa)
#
#
# Indices 1 2 3 4 5 6 
#
# 1 0.026055 -0.003899 -0.011249 0.000000 0.000000 0.000000
# 2 -0.003899 0.012212 -0.006175 0.000000 0.000000 0.000000
# 3 -0.011249 -0.006175 0.035182 0.000000 0.000000 0.000000
# 4 0.000000 0.000000 0.000000 0.042347 0.000000 0.000000
# 5 0.000000 0.000000 0.000000 0.000000 0.065301 0.000000
# 6 0.000000 0.000000 0.000000 0.000000 0.000000 0.036643
#
#
# Mechanical properties :
#
#
# Convention : Reuss Voigt Hill
#
# Bulk Modulus (GPa) = 32.46414 38.56115 35.51264
# Shear Modulus (GPa) = 18.47390 21.26414 19.86902
#
# Velocity S-wave (km/s) = 3.01554 3.23526 3.12733
# Velocity P-wave (km/s) = 5.30137 5.73908 5.52456
#
# Compressibility (1/GPa) = 0.03080322
#
# Stress axis : x y z
#
# Youngs Moduli (GPa) = 38.38107 81.88897 28.42342
#
# Poissons Ratio (x) = 0.31925 0.31973
# Poissons Ratio (y) = 0.14963 0.17552
# Poissons Ratio (z) = 0.43174 0.50569
#
# Static dielectric constant tensor:
#      x y z
#    x 1.823130 0.000000 0.000000 
#    y 0.000000 1.774580 0.000000 
#    z 0.000000 0.000000 1.707660 
# 
# From -- ./inp_files/6504.got.cif
#   From: 2010.05.17/outbox.cif.g08.bks.cpg/sg55_4_cif.got.tgz:6504.got - 2010.06.03 13:27:54.
