data_PCOD9428751
_publ_section_title
;
Structure prediction by ZEFSAII (Michael W. Deem and Ramdas Pophale) SiO2 
 PCOD9428751
Probable space group: P B A M
;
_chemical_formula_sum "Si O2"
_cell_formula_units_Z 64
_cell_length_a 14.769450
_cell_length_b 8.875709
_cell_length_c 21.719656
_cell_angle_alpha 90.000000
_cell_angle_beta 90.000000
_cell_angle_gamma 90.000000
_cell_volume 2847.215376
_symmetry_space_group_name_H-M "P B A M"
_symmetry_group_IT_number 55
_symmetry_cell_setting 'orthorhombic'
loop_
_space_group_symop_operation_xyz
x,y,z
-x,-y,z
1/2+x,1/2-y,-z
1/2-x,1/2+y,-z
-x,-y,-z
x,y,-z
1/2-x,1/2+y,z
1/2+x,1/2-y,z
loop_
_atom_site_type_symbol
_atom_site_label
_atom_site_fract_x
_atom_site_fract_y
_atom_site_fract_z
Si Si1 0.296453 0.827339 0.886927
Si Si2 0.230403 0.753415 0.751113
Si Si3 0.131977 0.650231 0.070354
Si Si4 0.438264 0.132799 0.388161
Si Si5 0.243215 0.498225 0.667926
Si Si6 0.480891 0.323501 0.727444
Si Si7 0.473109 0.675627 0.138077
Si Si8 0.103806 0.950177 0.432226
O O1 0.265544 0.804375 0.816515
O O2 0.211866 0.773455 0.926795
O O3 0.380301 0.714046 0.895773
O O4 0.329884 0.995586 0.900773
O O5 0.251807 0.581014 0.734301
O O6 0.124010 0.795530 0.746685
O O7 0.271751 0.828613 0.689888
O O8 0.049876 0.717950 0.109566
O O9 0.104494 0.622835 0.000000
O O10 0.346626 0.060301 0.362625
O O11 0.491430 0.214506 0.331115
O O12 0.405215 0.269661 0.429853
O O13 0.500000 0.000000 0.414673
O O14 0.328421 0.501751 0.621819
O O15 0.500000 0.500000 0.713940
O O16 0.536459 0.286866 0.789094
O O17 0.500000 0.500000 0.133631
O O18 0.135390 0.000701 0.500000
O O19 0.000000 0.000000 0.424255
#
# Coordination Sequence:
#
# PCOD9428751 Si02
#       8
#     8   8   8   8   8   8   8   8
#     4  12  26  44  72 101 142 179 229 292 356 417
#     4  11  24  40  70 105 137 174 226 277 347 416
#     4  12  27  48  70 100 137 183 240 288 346 419
#     4  11  26  41  68 105 141 175 229 282 348 405
#     4  11  24  44  65 104 137 181 221 281 341 407
#     4  10  22  42  68 101 141 181 218 278 346 419
#     4  11  26  44  69 101 135 187 232 286 352 422
#     4  11  26  48  71  95 133 187 237 281 337 404
#
# _framework density 22.478104999999999
#
# number of rings (size 3 to 8) (size 9 to 14) (size 15 to 20)
#    0.000    0.875    3.750    2.625   10.500    2.500 
#    0.000    0.000    0.000    0.000    0.000    0.000 
#    0.000    0.000    0.000    0.000    0.000    0.000 
#
# Total GULP energy -357832.612452 kJ/mol
# GULP energy per Si atom -5591.134570 kJ/mol
# Density = 2.242694 g / cm^3
# Si number density = 22.478105 Si / 1000 Ang^3
#
#
#
# Elastic Constant Matrix: (Units=GPa)
#
#
# Indices 1 2 3 4 5 6 
#
# 1 60.3280 14.3354 11.4011 0.0000 0.0000 0.0000
# 2 14.3354 57.5308 6.5338 0.0000 0.0000 0.0000
# 3 11.4011 6.5338 96.3393 0.0000 0.0000 0.0000
# 4 0.0000 0.0000 0.0000 11.2507 0.0000 0.0000
# 5 0.0000 0.0000 0.0000 0.0000 3.8021 0.0000
# 6 0.0000 0.0000 0.0000 0.0000 0.0000 44.8183
#
#
#
# Elastic Compliance Matrix: (Units=1/GPa)
#
#
# Indices 1 2 3 4 5 6 
#
# 1 0.017935 -0.004261 -0.001834 0.000000 0.000000 0.000000
# 2 -0.004261 0.018529 -0.000752 0.000000 0.000000 0.000000
# 3 -0.001834 -0.000752 0.010648 0.000000 0.000000 0.000000
# 4 0.000000 0.000000 0.000000 0.088883 0.000000 0.000000
# 5 0.000000 0.000000 0.000000 0.000000 0.263016 0.000000
# 6 0.000000 0.000000 0.000000 0.000000 0.000000 0.022312
#
#
# Mechanical properties :
#
#
# Convention : Reuss Voigt Hill
#
# Bulk Modulus (GPa) = 29.92338 30.97100 30.44719
# Shear Modulus (GPa) = 11.20682 24.10273 17.65477
#
# Velocity S-wave (km/s) = 2.23528 3.27811 2.80558
# Velocity P-wave (km/s) = 4.47248 5.30436 4.90609
#
# Compressibility (1/GPa) = 0.03341868
#
# Stress axis : x y z
#
# Youngs Moduli (GPa) = 55.75679 53.96908 93.91443
#
# Poissons Ratio (x) = 0.22995 0.17219
# Poissons Ratio (y) = 0.23757 0.07066
# Poissons Ratio (z) = 0.10223 0.04061
#
# Static dielectric constant tensor:
#      x y z
#    x 1.821440 0.000000 0.000000 
#    y 0.000000 1.825480 0.000000 
#    z 0.000000 0.000000 1.836860 
# 
# From -- ./inp_files/23603.got.cif
#   From: 2010.05.17/outbox.cif.g08.bks.cpg/sg55_12_cif.got.tgz:23603.got - 2010.06.03 13:27:54.
