data_PCOD9428255
_publ_section_title
;
Structure prediction by ZEFSAII (Michael W. Deem and Ramdas Pophale) SiO2 
 PCOD9428255
Probable space group: P B A M
;
_chemical_formula_sum "Si O2"
_cell_formula_units_Z 40
_cell_length_a 13.665603
_cell_length_b 18.523733
_cell_length_c 8.670369
_cell_angle_alpha 90.000000
_cell_angle_beta 90.000000
_cell_angle_gamma 90.000000
_cell_volume 2194.799705
_symmetry_space_group_name_H-M "P B A M"
_symmetry_group_IT_number 55
_symmetry_cell_setting 'orthorhombic'
loop_
_space_group_symop_operation_xyz
x,y,z
-x,-y,z
1/2+x,1/2-y,-z
1/2-x,1/2+y,-z
-x,-y,-z
x,y,-z
1/2-x,1/2+y,z
1/2+x,1/2-y,z
loop_
_atom_site_type_symbol
_atom_site_label
_atom_site_fract_x
_atom_site_fract_y
_atom_site_fract_z
Si Si1 0.604450 0.965303 0.814985
Si Si2 0.877942 0.877292 0.815105
Si Si3 0.097536 0.831284 0.815150
Si Si4 0.804265 0.025401 0.315679
Si Si5 0.178344 0.682100 0.315819
O O1 0.615157 0.883905 0.753277
O O2 0.500000 0.000000 0.777345
O O3 0.693968 0.009335 0.740507
O O4 0.616485 0.965148 0.000000
O O5 0.788281 0.831958 0.745335
O O6 0.983153 0.843885 0.778330
O O7 0.867317 0.958007 0.748223
O O8 0.867049 0.880752 0.000000
O O9 0.156039 0.900194 0.752142
O O10 0.137628 0.758157 0.741326
O O11 0.107502 0.827680 0.000000
O O12 0.808230 0.025927 0.500000
O O13 0.177856 0.677830 0.500000
#
# Coordination Sequence:
#
# PCOD9428255 Si02
#       5
#     8   8   8   8   8
#     4  10  21  39  62  84 112 153 195 232 275 334
#     4  10  21  39  61  82 111 151 190 230 278 335
#     4  11  23  39  60  84 113 151 192 232 278 336
#     4  11  22  36  58  87 117 147 185 235 284 334
#     4  11  23  38  58  85 117 148 183 235 289 334
#
# _framework density 18.224898
#
# number of rings (size 3 to 8) (size 9 to 14) (size 15 to 20)
#    0.000    1.400    0.000    8.400    0.000    8.800 
#    0.000    2.000    0.000    0.000    0.000    0.000 
#    0.000    0.000    0.000    0.000    0.000    0.000 
#
# Total GULP energy -223660.856265 kJ/mol
# GULP energy per Si atom -5591.521407 kJ/mol
# Density = 1.818342 g / cm^3
# Si number density = 18.224898 Si / 1000 Ang^3
#
#
#
# Elastic Constant Matrix: (Units=GPa)
#
#
# Indices 1 2 3 4 5 6 
#
# 1 93.7582 98.5243 45.2701 0.0000 0.0000 0.0000
# 2 98.5243 154.2284 51.3763 0.0000 0.0000 0.0000
# 3 45.2701 51.3763 93.5590 0.0000 0.0000 0.0000
# 4 0.0000 0.0000 0.0000 49.7247 0.0000 0.0000
# 5 0.0000 0.0000 0.0000 0.0000 -90.0305 0.0000
# 6 0.0000 0.0000 0.0000 0.0000 0.0000 19.7882
#
#
#
# Elastic Compliance Matrix: (Units=1/GPa)
#
#
# Indices 1 2 3 4 5 6 
#
# 1 0.034733 -0.020304 -0.005657 0.000000 0.000000 0.000000
# 2 -0.020304 0.019804 -0.001051 0.000000 0.000000 0.000000
# 3 -0.005657 -0.001051 0.014003 0.000000 0.000000 0.000000
# 4 0.000000 0.000000 0.000000 0.020111 0.000000 0.000000
# 5 0.000000 0.000000 0.000000 0.000000 -0.011107 0.000000
# 6 0.000000 0.000000 0.000000 0.000000 0.000000 0.050535
#
#
# Mechanical properties :
#
#
# Convention : Reuss Voigt Hill
#
# Bulk Modulus (GPa) = 68.88358 81.32078 75.10218
# Shear Modulus (GPa) = 26.74653 5.65480 16.20067
#
# Velocity S-wave (km/s) = 3.83506 1.76338 2.98473
# Velocity P-wave (km/s) = 7.58213 6.99025 7.29220
#
# Compressibility (1/GPa) = 0.01451725
#
# Stress axis : x y z
#
# Youngs Moduli (GPa) = 28.79118 50.49370 71.41531
#
# Poissons Ratio (x) = 1.02521 0.40397
# Poissons Ratio (y) = 0.58457 0.07505
# Poissons Ratio (z) = 0.16286 0.05307
#
# Static dielectric constant tensor:
#      x y z
#    x 1.612030 0.000000 0.000000 
#    y 0.000000 1.589280 0.000000 
#    z 0.000000 0.000000 1.606780 
# 
# From -- ./inp_files/3631.got.cif
#   From: 2010.05.17/outbox.cif.g08.bks.cpg/sg55_2_cif.got.tgz:3631.got - 2010.06.03 13:27:54.
