data_PCOD9428587
_publ_section_title
;
Structure prediction by ZEFSAII (Michael W. Deem and Ramdas Pophale) SiO2 
 PCOD9428587
Probable space group: P B A M
;
_chemical_formula_sum "Si O2"
_cell_formula_units_Z 30
_cell_length_a 4.889024
_cell_length_b 10.381781
_cell_length_c 22.002412
_cell_angle_alpha 90.000000
_cell_angle_beta 90.000000
_cell_angle_gamma 90.000000
_cell_volume 1116.771508
_symmetry_space_group_name_H-M "P B A M"
_symmetry_group_IT_number 55
_symmetry_cell_setting 'orthorhombic'
loop_
_space_group_symop_operation_xyz
x,y,z
-x,-y,z
1/2+x,1/2-y,-z
1/2-x,1/2+y,-z
-x,-y,-z
x,y,-z
1/2-x,1/2+y,z
1/2+x,1/2-y,z
loop_
_atom_site_type_symbol
_atom_site_label
_atom_site_fract_x
_atom_site_fract_y
_atom_site_fract_z
Si Si1 0.500000 0.000000 0.000000
Si Si2 0.809277 0.159217 0.434678
Si Si3 0.500000 0.500000 0.791065
Si Si4 0.331641 0.660927 0.097815
Si Si5 0.819769 0.660418 0.305318
O O1 0.708732 0.942404 0.947630
O O2 0.760909 0.093818 0.500000
O O3 0.614821 0.285648 0.433877
O O4 0.741970 0.094920 0.370662
O O5 0.655677 0.399940 0.835333
O O6 0.716283 0.573344 0.749113
O O7 0.634106 0.716552 0.087813
O O8 0.126815 0.712060 0.302873
#
# Coordination Sequence:
#
# PCOD9428587 Si02
#       5
#     2   8   4   8   8
#     4  12  28  54  84 110 140 182 226 282 344 410
#     4   8  14  28  52  81 118 168 226 292 358 411
#     4  12  26  45  71 104 146 194 234 286 354 426
#     4  12  28  49  76 111 147 185 234 288 348 419
#     4  10  22  39  61  93 133 181 238 294 353 423
#
# _framework density 26.863149
#
# number of rings (size 3 to 8) (size 9 to 14) (size 15 to 20)
#    0.000    1.600    0.000    4.000    0.000    9.067 
#    0.000    0.667    0.000    0.000    0.000   18.667 
#    0.000    0.000    0.000    0.000    0.000    0.000 
#
# Total GULP energy -167697.221587 kJ/mol
# GULP energy per Si atom -5589.907386 kJ/mol
# Density = 2.680201 g / cm^3
# Si number density = 26.863149 Si / 1000 Ang^3
#
#
#
# Elastic Constant Matrix: (Units=GPa)
#
#
# Indices 1 2 3 4 5 6 
#
# 1 96.6027 43.0902 31.0648 0.0000 0.0000 0.0000
# 2 43.0902 101.6667 45.5424 0.0000 0.0000 0.0000
# 3 31.0648 45.5424 193.7222 0.0000 0.0000 0.0000
# 4 0.0000 0.0000 0.0000 -36.0835 0.0000 0.0000
# 5 0.0000 0.0000 0.0000 0.0000 16.9427 0.0000
# 6 0.0000 0.0000 0.0000 0.0000 0.0000 68.3729
#
#
#
# Elastic Compliance Matrix: (Units=1/GPa)
#
#
# Indices 1 2 3 4 5 6 
#
# 1 0.012896 -0.005074 -0.000875 0.000000 0.000000 0.000000
# 2 -0.005074 0.012990 -0.002240 0.000000 0.000000 0.000000
# 3 -0.000875 -0.002240 0.005829 0.000000 0.000000 0.000000
# 4 0.000000 0.000000 0.000000 -0.027714 0.000000 0.000000
# 5 0.000000 0.000000 0.000000 0.000000 0.059022 0.000000
# 6 0.000000 0.000000 0.000000 0.000000 0.000000 0.014626
#
#
# Mechanical properties :
#
#
# Convention : Reuss Voigt Hill
#
# Bulk Modulus (GPa) = 65.20251 70.15407 67.67829
# Shear Modulus (GPa) = 50.43323 27.99937 39.21630
#
# Velocity S-wave (km/s) = 4.33761 3.23196 3.82495
# Velocity P-wave (km/s) = 7.02932 6.33242 6.68995
#
# Compressibility (1/GPa) = 0.01533683
#
# Stress axis : x y z
#
# Youngs Moduli (GPa) = 77.54116 76.98166 171.55505
#
# Poissons Ratio (x) = 0.39060 0.15014
# Poissons Ratio (y) = 0.39344 0.38432
# Poissons Ratio (z) = 0.06786 0.17246
#
# Static dielectric constant tensor:
#      x y z
#    x 2.013580 0.000000 0.000000 
#    y 0.000000 2.148630 0.000000 
#    z 0.000000 0.000000 2.059010 
# 
# From -- ./inp_files/22210.got.cif
#   From: 2010.05.17/outbox.cif.g08.bks.cpg/sg55_12_cif.got.tgz:22210.got - 2010.06.03 13:27:54.
