data_PCOD9428046
_publ_section_title
;
Structure prediction by ZEFSAII (Michael W. Deem and Ramdas Pophale) SiO2 
 PCOD9428046
Probable space group: P B A M
;
_chemical_formula_sum "Si O2"
_cell_formula_units_Z 48
_cell_length_a 17.303619
_cell_length_b 14.233205
_cell_length_c 10.066039
_cell_angle_alpha 90.000000
_cell_angle_beta 90.000000
_cell_angle_gamma 90.000000
_cell_volume 2479.124043
_symmetry_space_group_name_H-M "P B A M"
_symmetry_group_IT_number 55
_symmetry_cell_setting 'orthorhombic'
loop_
_space_group_symop_operation_xyz
x,y,z
-x,-y,z
1/2+x,1/2-y,-z
1/2-x,1/2+y,-z
-x,-y,-z
x,y,-z
1/2-x,1/2+y,z
1/2+x,1/2-y,z
loop_
_atom_site_type_symbol
_atom_site_label
_atom_site_fract_x
_atom_site_fract_y
_atom_site_fract_z
Si Si1 0.046606 0.201234 0.346085
Si Si2 0.582555 0.451291 0.141948
Si Si3 0.229866 0.955022 0.770710
Si Si4 0.279555 0.155681 0.844281
Si Si5 0.362481 0.293074 0.351892
Si Si6 0.142938 0.306996 0.146878
O O1 0.068675 0.208907 0.500000
O O2 0.083380 0.111358 0.273307
O O3 0.079375 0.288064 0.259793
O O4 0.954031 0.188756 0.338728
O O5 0.500000 0.500000 0.143863
O O6 0.653100 0.523791 0.142980
O O7 0.586078 0.398651 0.000000
O O8 0.190626 0.886788 0.661096
O O9 0.300076 0.894396 0.828590
O O10 0.263791 0.060476 0.761654
O O11 0.338610 0.221569 0.764448
O O12 0.202102 0.218780 0.848754
O O13 0.299512 0.135603 0.000000
O O14 0.349308 0.253401 0.500000
O O15 0.108555 0.315920 0.000000
#
# Coordination Sequence:
#
# PCOD9428046 Si02
#       6
#     8   8   8   8   8   8
#     4  11  23  40  58  84 123 161 200 246 294 354
#     4  11  21  35  60  91 119 152 193 244 304 358
#     4  11  21  39  62  92 123 154 195 252 306 358
#     4  10  21  38  62  90 120 156 199 251 304 355
#     4  10  24  42  60  87 123 164 203 244 298 360
#     4  10  21  37  60  88 120 156 198 249 302 360
#
# _framework density 19.361677
#
# number of rings (size 3 to 8) (size 9 to 14) (size 15 to 20)
#    0.000    1.500    3.333    2.000    0.000    7.000 
#    0.000    0.833    0.000    4.000    0.000    0.000 
#    0.000    0.000    0.000    0.000    0.000    0.000 
#
# Total GULP energy -267212.940471 kJ/mol
# GULP energy per Si atom -5566.936260 kJ/mol
# Density = 1.931761 g / cm^3
# Si number density = 19.361677 Si / 1000 Ang^3
#
#
#
# Elastic Constant Matrix: (Units=GPa)
#
#
# Indices 1 2 3 4 5 6 
#
# 1 27.2456 13.9293 46.3456 0.0000 0.0000 0.0000
# 2 13.9293 89.1896 24.8837 0.0000 0.0000 0.0000
# 3 46.3456 24.8837 134.8700 0.0000 0.0000 0.0000
# 4 0.0000 0.0000 0.0000 16.3909 0.0000 0.0000
# 5 0.0000 0.0000 0.0000 0.0000 -7.5300 0.0000
# 6 0.0000 0.0000 0.0000 0.0000 0.0000 34.4658
#
#
#
# Elastic Compliance Matrix: (Units=1/GPa)
#
#
# Indices 1 2 3 4 5 6 
#
# 1 0.091092 -0.005791 -0.030234 0.000000 0.000000 0.000000
# 2 -0.005791 0.012189 -0.000259 0.000000 0.000000 0.000000
# 3 -0.030234 -0.000259 0.017852 0.000000 0.000000 0.000000
# 4 0.000000 0.000000 0.000000 0.061009 0.000000 0.000000
# 5 0.000000 0.000000 0.000000 0.000000 -0.132803 0.000000
# 6 0.000000 0.000000 0.000000 0.000000 0.000000 0.029014
#
#
# Mechanical properties :
#
#
# Convention : Reuss Voigt Hill
#
# Bulk Modulus (GPa) = 20.59095 46.84694 33.71894
# Shear Modulus (GPa) = 29.92060 19.74179 24.83119
#
# Velocity S-wave (km/s) = 3.93536 3.19663 3.58507
# Velocity P-wave (km/s) = 5.59530 6.15409 5.88134
#
# Compressibility (1/GPa) = 0.04856502
#
# Stress axis : x y z
#
# Youngs Moduli (GPa) = 10.97790 82.04306 56.01766
#
# Poissons Ratio (x) = 0.47513 1.69362
# Poissons Ratio (y) = 0.06358 0.01450
# Poissons Ratio (z) = 0.33190 0.02123
#
# Static dielectric constant tensor:
#      x y z
#    x 1.672240 0.000000 0.000000 
#    y 0.000000 1.719230 0.000000 
#    z 0.000000 0.000000 1.692570 
# 
# From -- ./inp_files/7410.got.cif
#   From: 2010.05.17/outbox.cif.g08.bks.cpg/sg55_4_cif.got.tgz:7410.got - 2010.06.03 13:27:54.
