data_PCOD9428479
_publ_section_title
;
Structure prediction by ZEFSAII (Michael W. Deem and Ramdas Pophale) SiO2 
 PCOD9428479
Probable space group: P B A M
;
_chemical_formula_sum "Si O2"
_cell_formula_units_Z 58
_cell_length_a 22.543581
_cell_length_b 9.392021
_cell_length_c 14.815967
_cell_angle_alpha 90.000000
_cell_angle_beta 90.000000
_cell_angle_gamma 90.000000
_cell_volume 3136.981525
_symmetry_space_group_name_H-M "P B A M"
_symmetry_group_IT_number 55
_symmetry_cell_setting 'orthorhombic'
loop_
_space_group_symop_operation_xyz
x,y,z
-x,-y,z
1/2+x,1/2-y,-z
1/2-x,1/2+y,-z
-x,-y,-z
x,y,-z
1/2-x,1/2+y,z
1/2+x,1/2-y,z
loop_
_atom_site_type_symbol
_atom_site_label
_atom_site_fract_x
_atom_site_fract_y
_atom_site_fract_z
Si Si1 0.384455 0.654029 0.212799
Si Si2 0.334038 0.969728 0.783871
Si Si3 0.711709 0.529820 0.104461
Si Si4 0.779630 0.594651 0.397498
Si Si5 0.621931 0.781126 0.897710
Si Si6 0.500000 0.000000 0.000000
Si Si7 0.006481 0.205223 0.902209
Si Si8 0.831128 0.908324 0.603091
O O1 0.335567 0.572301 0.152806
O O2 0.449711 0.646723 0.172004
O O3 0.377325 0.600955 0.315525
O O4 0.365952 0.819177 0.207374
O O5 0.272757 0.967675 0.840813
O O6 0.317161 0.984129 0.679078
O O7 0.372248 0.095906 0.825394
O O8 0.680202 0.684192 0.104812
O O9 0.721687 0.488467 0.000000
O O10 0.796246 0.555796 0.500000
O O11 0.712156 0.543243 0.384834
O O12 0.791150 0.763735 0.387405
O O13 0.563333 0.686935 0.883656
O O14 0.614603 0.843660 0.000000
O O15 0.511649 0.124901 0.922245
O O16 0.023157 0.141671 0.000000
O O17 0.854067 0.908623 0.500000
#
# Coordination Sequence:
#
# PCOD9428479 Si02
#       8
#     8   8   8   8   8   2   8   8
#     4  11  21  33  55  79 103 138 183 221 261 314
#     4  11  21  33  54  78 106 138 175 217 265 322
#     4  11  23  35  48  76 112 140 168 214 275 319
#     4   9  18  32  51  75 105 136 170 212 260 321
#     4  10  22  37  53  74 109 144 179 221 259 310
#     4   8  16  32  56  74  98 128 192 226 248 290
#     4   9  19  34  54  76  99 139 187 221 253 302
#     4   9  18  33  53  78 106 137 174 219 269 319
#
# _framework density 18.489111000000001
#
# number of rings (size 3 to 8) (size 9 to 14) (size 15 to 20)
#    0.414    1.655    1.379    2.483    1.931    3.310 
#    0.000    2.069    0.000    0.828    0.000    5.310 
#    0.000    0.000    0.000    0.000    0.000    0.000 
#
# Total GULP energy -323047.620652 kJ/mol
# GULP energy per Si atom -5569.786563 kJ/mol
# Density = 1.844703 g / cm^3
# Si number density = 18.489111 Si / 1000 Ang^3
#
#
#
# Elastic Constant Matrix: (Units=GPa)
#
#
# Indices 1 2 3 4 5 6 
#
# 1 57.3661 -11.3878 25.4589 0.0000 0.0000 0.0000
# 2 -11.3878 34.6628 16.9149 0.0000 0.0000 0.0000
# 3 25.4589 16.9149 85.9913 0.0000 0.0000 0.0000
# 4 0.0000 0.0000 0.0000 17.6317 0.0000 0.0000
# 5 0.0000 0.0000 0.0000 0.0000 22.2063 0.0000
# 6 0.0000 0.0000 0.0000 0.0000 0.0000 8.1306
#
#
#
# Elastic Compliance Matrix: (Units=1/GPa)
#
#
# Indices 1 2 3 4 5 6 
#
# 1 0.024242 0.012684 -0.009672 0.000000 0.000000 0.000000
# 2 0.012684 0.038549 -0.011338 0.000000 0.000000 0.000000
# 3 -0.009672 -0.011338 0.016723 0.000000 0.000000 0.000000
# 4 0.000000 0.000000 0.000000 0.056716 0.000000 0.000000
# 5 0.000000 0.000000 0.000000 0.000000 0.045032 0.000000
# 6 0.000000 0.000000 0.000000 0.000000 0.000000 0.122992
#
#
# Mechanical properties :
#
#
# Convention : Reuss Voigt Hill
#
# Bulk Modulus (GPa) = 15.90778 26.66578 21.28678
# Shear Modulus (GPa) = 14.62578 19.39599 17.01089
#
# Velocity S-wave (km/s) = 2.81561 3.24242 3.03652
# Velocity P-wave (km/s) = 4.38095 5.33586 4.88181
#
# Compressibility (1/GPa) = 0.06286234
#
# Stress axis : x y z
#
# Youngs Moduli (GPa) = 41.24997 25.94077 59.79791
#
# Poissons Ratio (x) = -0.32904 0.57839
# Poissons Ratio (y) = -0.52323 0.67800
# Poissons Ratio (z) = 0.39898 0.29412
#
# Static dielectric constant tensor:
#      x y z
#    x 1.650670 0.000000 0.000000 
#    y 0.000000 1.670540 0.000000 
#    z 0.000000 0.000000 1.643090 
# 
# From -- ./inp_files/19909.got.cif
#   From: 2010.05.17/outbox.cif.g08.bks.cpg/sg55_10_cif.got.tgz:19909.got - 2010.06.03 13:27:54.
