data_PCOD9428757
_publ_section_title
;
Structure prediction by ZEFSAII (Michael W. Deem and Ramdas Pophale) SiO2 
 PCOD9428757
Probable space group: P B A M
;
_chemical_formula_sum "Si O2"
_cell_formula_units_Z 46
_cell_length_a 8.567739
_cell_length_b 12.488969
_cell_length_c 20.529778
_cell_angle_alpha 90.000000
_cell_angle_beta 90.000000
_cell_angle_gamma 90.000000
_cell_volume 2196.731961
_symmetry_space_group_name_H-M "P B A M"
_symmetry_group_IT_number 55
_symmetry_cell_setting 'orthorhombic'
loop_
_space_group_symop_operation_xyz
x,y,z
-x,-y,z
1/2+x,1/2-y,-z
1/2-x,1/2+y,-z
-x,-y,-z
x,y,-z
1/2-x,1/2+y,z
1/2+x,1/2-y,z
loop_
_atom_site_type_symbol
_atom_site_label
_atom_site_fract_x
_atom_site_fract_y
_atom_site_fract_z
Si Si1 0.057305 0.888882 0.921237
Si Si2 0.296486 0.908811 0.725449
Si Si3 0.000000 0.500000 0.166269
Si Si4 0.684223 0.409266 0.623222
Si Si5 0.500000 0.500000 0.500000
Si Si6 0.413608 0.826734 0.077537
Si Si7 0.432485 0.243747 0.676259
O O1 0.236809 0.861148 0.909156
O O2 0.945575 0.793262 0.900767
O O3 0.044335 0.894154 0.000000
O O4 0.000000 0.000000 0.892729
O O5 0.454710 0.847295 0.704309
O O6 0.173486 0.810380 0.727594
O O7 0.351741 0.971377 0.789254
O O8 0.235188 0.997043 0.673708
O O9 0.971726 0.401520 0.118079
O O10 0.627295 0.463479 0.557050
O O11 0.538843 0.336303 0.645797
O O12 0.823186 0.320426 0.625053
O O13 0.442596 0.836952 0.000000
#
# Coordination Sequence:
#
# PCOD9428757 Si02
#       7
#     8   8   4   8   2   8   8
#     4   9  20  41  68  95 135 181 222 286 365 425
#     4  11  22  45  67  97 133 183 230 282 334 410
#     4  12  25  40  70  97 134 186 240 280 360 425
#     4  11  22  44  68 104 137 177 225 283 335 412
#     4  12  24  40  74 104 144 178 230 270 356 404
#     4  10  23  42  67 100 138 177 233 300 358 425
#     4  10  22  42  74  92 140 183 223 290 341 389
#
# _framework density 20.940197999999999
#
# number of rings (size 3 to 8) (size 9 to 14) (size 15 to 20)
#    0.000    1.565    3.478    0.261    2.435    2.087 
#    0.000    3.478    0.000    0.000    0.000    0.000 
#    0.000    0.000    0.000    0.000    0.000    0.000 
#
# Total GULP energy -256074.328612 kJ/mol
# GULP energy per Si atom -5566.833231 kJ/mol
# Density = 2.089254 g / cm^3
# Si number density = 20.940198 Si / 1000 Ang^3
#
#
#
# Elastic Constant Matrix: (Units=GPa)
#
#
# Indices 1 2 3 4 5 6 
#
# 1 100.8703 74.0696 48.0157 0.0000 0.0000 0.0000
# 2 74.0696 173.8605 72.9992 0.0000 0.0000 0.0000
# 3 48.0157 72.9992 72.5856 0.0000 0.0000 0.0000
# 4 0.0000 0.0000 0.0000 9.9420 0.0000 0.0000
# 5 0.0000 0.0000 0.0000 0.0000 51.7970 0.0000
# 6 0.0000 0.0000 0.0000 0.0000 0.0000 58.3920
#
#
#
# Elastic Compliance Matrix: (Units=1/GPa)
#
#
# Indices 1 2 3 4 5 6 
#
# 1 0.016002 -0.004107 -0.006455 0.000000 0.000000 0.000000
# 2 -0.004107 0.011010 -0.008356 0.000000 0.000000 0.000000
# 3 -0.006455 -0.008356 0.026450 0.000000 0.000000 0.000000
# 4 0.000000 0.000000 0.000000 0.100583 0.000000 0.000000
# 5 0.000000 0.000000 0.000000 0.000000 0.019306 0.000000
# 6 0.000000 0.000000 0.000000 0.000000 0.000000 0.017126
#
#
# Mechanical properties :
#
#
# Convention : Reuss Voigt Hill
#
# Bulk Modulus (GPa) = 63.99356 81.94281 72.96819
# Shear Modulus (GPa) = 21.41131 34.17501 27.79316
#
# Velocity S-wave (km/s) = 3.20112 4.04422 3.64711
# Velocity P-wave (km/s) = 6.65503 7.81181 7.25651
#
# Compressibility (1/GPa) = 0.01562657
#
# Stress axis : x y z
#
# Youngs Moduli (GPa) = 62.49102 90.82817 37.80705
#
# Poissons Ratio (x) = 0.37305 0.24405
# Poissons Ratio (y) = 0.25666 0.31590
# Poissons Ratio (z) = 0.40338 0.75893
#
# Static dielectric constant tensor:
#      x y z
#    x 1.793270 0.000000 0.000000 
#    y 0.000000 13.101620 0.000000 
#    z 0.000000 0.000000 1.746490 
# 
# From -- ./inp_files/23441.got.cif
#   From: 2010.05.17/outbox.cif.g08.bks.cpg/sg55_12_cif.got.tgz:23441.got - 2010.06.03 13:27:54.
