data_PCOD9428611
_publ_section_title
;
Structure prediction by ZEFSAII (Michael W. Deem and Ramdas Pophale) SiO2 
 PCOD9428611
Probable space group: P B A M
;
_chemical_formula_sum "Si O2"
_cell_formula_units_Z 58
_cell_length_a 18.934418
_cell_length_b 15.380992
_cell_length_c 8.672816
_cell_angle_alpha 90.000000
_cell_angle_beta 90.000000
_cell_angle_gamma 90.000000
_cell_volume 2525.785347
_symmetry_space_group_name_H-M "P B A M"
_symmetry_group_IT_number 55
_symmetry_cell_setting 'orthorhombic'
loop_
_space_group_symop_operation_xyz
x,y,z
-x,-y,z
1/2+x,1/2-y,-z
1/2-x,1/2+y,-z
-x,-y,-z
x,y,-z
1/2-x,1/2+y,z
1/2+x,1/2-y,z
loop_
_atom_site_type_symbol
_atom_site_label
_atom_site_fract_x
_atom_site_fract_y
_atom_site_fract_z
Si Si1 0.856110 0.379646 0.815327
Si Si2 0.788701 0.546991 0.680696
Si Si3 0.009993 0.334174 0.827985
Si Si4 0.285135 0.281902 0.318056
Si Si5 0.074403 0.899432 0.676779
Si Si6 0.500000 0.000000 0.000000
Si Si7 0.344065 0.540241 0.174905
Si Si8 0.421343 0.687871 0.676852
O O1 0.840347 0.475980 0.755128
O O2 0.931127 0.341209 0.759274
O O3 0.796756 0.308986 0.769774
O O4 0.864875 0.386846 0.000000
O O5 0.803392 0.553958 0.500000
O O6 0.771918 0.645764 0.737941
O O7 0.714287 0.497253 0.710052
O O8 0.027858 0.432087 0.869149
O O9 0.065763 0.286580 0.723391
O O10 0.005879 0.289789 0.000000
O O11 0.272504 0.264551 0.500000
O O12 0.360556 0.332311 0.306370
O O13 0.076015 0.933244 0.500000
O O14 0.999593 0.853336 0.698014
O O15 0.089328 0.977357 0.793670
O O16 0.367671 0.636513 0.216595
O O17 0.318374 0.532718 0.000000
O O18 0.400188 0.677863 0.500000
#
# Coordination Sequence:
#
# PCOD9428611 Si02
#       8
#     8   8   8   8   8   2   8   8
#     4  11  21  35  61  92 116 149 202 251 305 364
#     4  10  22  40  59  81 119 163 201 249 307 366
#     4   9  20  38  62  86 115 152 197 248 307 349
#     4   9  18  35  57  83 114 153 196 247 300 355
#     4   9  18  32  51  80 118 154 190 234 287 346
#     4   8  20  44  62  80 118 156 182 244 306 358
#     4  11  22  34  51  80 123 163 193 234 295 361
#     4  11  20  33  56  86 116 154 202 244 291 356
#
# _framework density 22.963153999999999
#
# number of rings (size 3 to 8) (size 9 to 14) (size 15 to 20)
#    0.414    1.655    1.379    3.724    0.000    6.069 
#    0.000    1.724    3.034    1.655    0.000    0.000 
#    0.000    0.000    0.000    0.000    0.000    0.000 
#
# Total GULP energy -323242.310730 kJ/mol
# GULP energy per Si atom -5573.143288 kJ/mol
# Density = 2.291089 g / cm^3
# Si number density = 22.963154 Si / 1000 Ang^3
#
#
#
# Elastic Constant Matrix: (Units=GPa)
#
#
# Indices 1 2 3 4 5 6 
#
# 1 69.4635 21.1419 0.3070 0.0000 0.0000 0.0000
# 2 21.1419 81.5539 10.3720 0.0000 0.0000 0.0000
# 3 0.3070 10.3720 19.5149 0.0000 0.0000 0.0000
# 4 0.0000 0.0000 0.0000 39.7860 0.0000 0.0000
# 5 0.0000 0.0000 0.0000 0.0000 -1.0239 0.0000
# 6 0.0000 0.0000 0.0000 0.0000 0.0000 22.6636
#
#
#
# Elastic Compliance Matrix: (Units=1/GPa)
#
#
# Indices 1 2 3 4 5 6 
#
# 1 0.015706 -0.004333 0.002056 0.000000 0.000000 0.000000
# 2 -0.004333 0.014346 -0.007557 0.000000 0.000000 0.000000
# 3 0.002056 -0.007557 0.055227 0.000000 0.000000 0.000000
# 4 0.000000 0.000000 0.000000 0.025134 0.000000 0.000000
# 5 0.000000 0.000000 0.000000 0.000000 -0.976702 0.000000
# 6 0.000000 0.000000 0.000000 0.000000 0.000000 0.044124
#
#
# Mechanical properties :
#
#
# Convention : Reuss Voigt Hill
#
# Bulk Modulus (GPa) = 15.24128 26.01934 20.63031
# Shear Modulus (GPa) = -6.40511 21.53258 7.56374
#
# Velocity S-wave (km/s) = -1.67193 3.06551 1.81687
# Velocity P-wave (km/s) = 1.71013 4.88726 3.66128
#
# Compressibility (1/GPa) = 0.06561129
#
# Stress axis : x y z
#
# Youngs Moduli (GPa) = 63.67091 69.70491 18.10708
#
# Poissons Ratio (x) = 0.30203 -0.03723
# Poissons Ratio (y) = 0.27589 0.13683
# Poissons Ratio (z) = -0.13090 0.52674
#
# Static dielectric constant tensor:
#      x y z
#    x 1.968960 0.000000 0.000000 
#    y 0.000000 1.910760 0.000000 
#    z 0.000000 0.000000 1.774710 
# 
# From -- ./inp_files/9614.got.cif
#   From: 2010.05.17/outbox.cif.g08.bks.cpg/sg55_5_cif.got.tgz:9614.got - 2010.06.03 13:27:54.
