data_PCOD9428392
_publ_section_title
;
Structure prediction by ZEFSAII (Michael W. Deem and Ramdas Pophale) SiO2 
 PCOD9428392
Probable space group: P B A M
;
_chemical_formula_sum "Si O2"
_cell_formula_units_Z 40
_cell_length_a 10.843085
_cell_length_b 9.046289
_cell_length_c 15.753454
_cell_angle_alpha 90.000000
_cell_angle_beta 90.000000
_cell_angle_gamma 90.000000
_cell_volume 1545.251271
_symmetry_space_group_name_H-M "P B A M"
_symmetry_group_IT_number 55
_symmetry_cell_setting 'orthorhombic'
loop_
_space_group_symop_operation_xyz
x,y,z
-x,-y,z
1/2+x,1/2-y,-z
1/2-x,1/2+y,-z
-x,-y,-z
x,y,-z
1/2-x,1/2+y,z
1/2+x,1/2-y,z
loop_
_atom_site_type_symbol
_atom_site_label
_atom_site_fract_x
_atom_site_fract_y
_atom_site_fract_z
Si Si1 0.088331 0.859113 0.093916
Si Si2 0.734236 0.459827 0.226464
Si Si3 0.273976 0.444691 0.591957
Si Si4 0.571121 0.831053 0.593415
Si Si5 0.065335 0.318420 0.770391
O O1 0.191097 0.942381 0.147816
O O2 0.022081 0.736959 0.152743
O O3 0.123438 0.803435 0.000000
O O4 0.000000 0.000000 0.083359
O O5 0.675831 0.503977 0.317440
O O6 0.683654 0.294208 0.219024
O O7 0.875410 0.516798 0.230512
O O8 0.325216 0.494484 0.500000
O O9 0.303983 0.271188 0.595145
O O10 0.133245 0.505548 0.592216
O O11 0.516409 0.798850 0.500000
O O12 0.497823 0.790716 0.678457
#
# Coordination Sequence:
#
# PCOD9428392 Si02
#       5
#     8   8   8   8   8
#     4   9  20  42  69  96 129 175 227 280 346 409
#     4  11  23  41  67  97 137 178 223 277 335 402
#     4  10  21  40  66  99 135 176 226 282 336 400
#     4  10  22  42  68  99 139 182 229 283 341 403
#     4  11  24  43  66  98 136 179 224 275 340 403
#
# _framework density 25.885757000000002
#
# number of rings (size 3 to 8) (size 9 to 14) (size 15 to 20)
#    0.000    1.800    2.000    1.200    0.000    3.200 
#    0.000    4.000    0.000    1.200    0.000    0.000 
#    0.000    0.000    0.000    0.000    0.000    0.000 
#
# Total GULP energy -223018.978062 kJ/mol
# GULP energy per Si atom -5575.474452 kJ/mol
# Density = 2.582684 g / cm^3
# Si number density = 25.885757 Si / 1000 Ang^3
#
#
#
# Elastic Constant Matrix: (Units=GPa)
#
#
# Indices 1 2 3 4 5 6 
#
# 1 97.0586 25.6704 51.3172 0.0000 0.0000 0.0000
# 2 25.6704 101.9226 62.1440 0.0000 0.0000 0.0000
# 3 51.3172 62.1440 234.6478 0.0000 0.0000 0.0000
# 4 0.0000 0.0000 0.0000 34.3115 0.0000 0.0000
# 5 0.0000 0.0000 0.0000 0.0000 -24.7780 0.0000
# 6 0.0000 0.0000 0.0000 0.0000 0.0000 53.2089
#
#
#
# Elastic Compliance Matrix: (Units=1/GPa)
#
#
# Indices 1 2 3 4 5 6 
#
# 1 0.011887 -0.001680 -0.002155 0.000000 0.000000 0.000000
# 2 -0.001680 0.011938 -0.002794 0.000000 0.000000 0.000000
# 3 -0.002155 -0.002794 0.005473 0.000000 0.000000 0.000000
# 4 0.000000 0.000000 0.000000 0.029145 0.000000 0.000000
# 5 0.000000 0.000000 0.000000 0.000000 -0.040358 0.000000
# 6 0.000000 0.000000 0.000000 0.000000 0.000000 0.018794
#
#
# Mechanical properties :
#
#
# Convention : Reuss Voigt Hill
#
# Bulk Modulus (GPa) = 62.34482 79.09914 70.72198
# Shear Modulus (GPa) = 90.11842 32.18165 61.15004
#
# Velocity S-wave (km/s) = 5.90673 3.52976 4.86563
# Velocity P-wave (km/s) = 8.40572 6.87281 7.67762
#
# Compressibility (1/GPa) = 0.01603982
#
# Stress axis : x y z
#
# Youngs Moduli (GPa) = 84.12829 83.76453 182.71641
#
# Poissons Ratio (x) = 0.14073 0.39369
# Poissons Ratio (y) = 0.14134 0.51056
# Poissons Ratio (z) = 0.18127 0.23406
#
# Static dielectric constant tensor:
#      x y z
#    x 2.175410 0.000000 0.000000 
#    y 0.000000 2.185430 0.000000 
#    z 0.000000 0.000000 2.129770 
# 
# From -- ./inp_files/18135.got.cif
#   From: 2010.05.17/outbox.cif.g08.bks.cpg/sg55_10_cif.got.tgz:18135.got - 2010.06.03 13:27:54.
