data_PCOD9428175
_publ_section_title
;
Structure prediction by ZEFSAII (Michael W. Deem and Ramdas Pophale) SiO2 
 PCOD9428175
Probable space group: P B A M
;
_chemical_formula_sum "Si O2"
_cell_formula_units_Z 40
_cell_length_a 8.874341
_cell_length_b 13.462571
_cell_length_c 12.291446
_cell_angle_alpha 90.000000
_cell_angle_beta 90.000000
_cell_angle_gamma 90.000000
_cell_volume 1468.476824
_symmetry_space_group_name_H-M "P B A M"
_symmetry_group_IT_number 55
_symmetry_cell_setting 'orthorhombic'
loop_
_space_group_symop_operation_xyz
x,y,z
-x,-y,z
1/2+x,1/2-y,-z
1/2-x,1/2+y,-z
-x,-y,-z
x,y,-z
1/2-x,1/2+y,z
1/2+x,1/2-y,z
loop_
_atom_site_type_symbol
_atom_site_label
_atom_site_fract_x
_atom_site_fract_y
_atom_site_fract_z
Si Si1 0.181498 0.179548 0.116863
Si Si2 0.334816 0.369390 0.621441
Si Si3 0.989788 0.639464 0.830398
Si Si4 0.820438 0.050404 0.872166
Si Si5 0.025084 0.649921 0.611042
O O1 0.361247 0.178541 0.112572
O O2 0.108609 0.260433 0.194281
O O3 0.136330 0.065687 0.130986
O O4 0.128941 0.217266 0.000000
O O5 0.378743 0.415209 0.500000
O O6 0.413501 0.261661 0.618060
O O7 0.359160 0.410379 0.747127
O O8 0.154852 0.357328 0.611124
O O9 0.069406 0.598089 0.721417
O O10 0.637668 0.067302 0.875796
O O11 0.860478 0.083449 0.000000
O O12 0.087082 0.604901 0.500000
#
# Coordination Sequence:
#
# PCOD9428175 Si02
#       5
#     8   8   8   8   8
#     4  11  23  39  61  88 119 157 201 250 304 361
#     4   9  18  36  61  89 122 161 205 250 299 359
#     4  11  21  38  62  88 119 158 203 247 301 363
#     4  10  21  38  61  90 123 159 202 251 300 358
#     4   9  18  34  58  86 117 155 199 248 299 352
#
# _framework density 27.239108000000002
#
# number of rings (size 3 to 8) (size 9 to 14) (size 15 to 20)
#    0.000    2.000    0.000    4.800    0.000    1.600 
#    0.000   11.000    0.000   18.000    0.000    0.000 
#    0.000    0.000    0.000    0.000    0.000    0.000 
#
# Total GULP energy -222697.479410 kJ/mol
# GULP energy per Si atom -5567.436985 kJ/mol
# Density = 2.717711 g / cm^3
# Si number density = 27.239108 Si / 1000 Ang^3
#
#
#
# Elastic Constant Matrix: (Units=GPa)
#
#
# Indices 1 2 3 4 5 6 
#
# 1 85.7840 3.4653 31.5896 0.0000 0.0000 0.0000
# 2 3.4653 104.8475 37.0395 0.0000 0.0000 0.0000
# 3 31.5896 37.0395 265.6479 0.0000 0.0000 0.0000
# 4 0.0000 0.0000 0.0000 17.8983 0.0000 0.0000
# 5 0.0000 0.0000 0.0000 0.0000 13.4127 0.0000
# 6 0.0000 0.0000 0.0000 0.0000 0.0000 48.2307
#
#
#
# Elastic Compliance Matrix: (Units=1/GPa)
#
#
# Indices 1 2 3 4 5 6 
#
# 1 0.012192 0.000115 -0.001466 0.000000 0.000000 0.000000
# 2 0.000115 0.010033 -0.001413 0.000000 0.000000 0.000000
# 3 -0.001466 -0.001413 0.004136 0.000000 0.000000 0.000000
# 4 0.000000 0.000000 0.000000 0.055871 0.000000 0.000000
# 5 0.000000 0.000000 0.000000 0.000000 0.074556 0.000000
# 6 0.000000 0.000000 0.000000 0.000000 0.000000 0.020734
#
#
# Mechanical properties :
#
#
# Convention : Reuss Voigt Hill
#
# Bulk Modulus (GPa) = 47.99896 66.71868 57.35882
# Shear Modulus (GPa) = 26.31664 41.52066 33.91865
#
# Velocity S-wave (km/s) = 3.11164 3.90847 3.53259
# Velocity P-wave (km/s) = 5.52896 6.70187 6.14347
#
# Compressibility (1/GPa) = 0.02083378
#
# Stress axis : x y z
#
# Youngs Moduli (GPa) = 82.01863 99.67227 241.80005
#
# Poissons Ratio (x) = -0.01145 0.35445
# Poissons Ratio (y) = -0.00942 0.34156
# Poissons Ratio (z) = 0.12023 0.14079
#
# Static dielectric constant tensor:
#      x y z
#    x 2.129420 0.000000 0.000000 
#    y 0.000000 2.108540 0.000000 
#    z 0.000000 0.000000 2.325600 
# 
# From -- ./inp_files/12995.got.cif
#   From: 2010.05.17/outbox.cif.g08.bks.cpg/sg55_7_cif.got.tgz:12995.got - 2010.06.03 13:27:54.
