data_PCOD9428734
_publ_section_title
;
Structure prediction by ZEFSAII (Michael W. Deem and Ramdas Pophale) SiO2 
 PCOD9428734
Probable space group: P B A M
;
_chemical_formula_sum "Si O2"
_cell_formula_units_Z 64
_cell_length_a 23.976881
_cell_length_b 7.806573
_cell_length_c 15.153968
_cell_angle_alpha 90.000000
_cell_angle_beta 90.000000
_cell_angle_gamma 90.000000
_cell_volume 2836.478388
_symmetry_space_group_name_H-M "P B A M"
_symmetry_group_IT_number 55
_symmetry_cell_setting 'orthorhombic'
loop_
_space_group_symop_operation_xyz
x,y,z
-x,-y,z
1/2+x,1/2-y,-z
1/2-x,1/2+y,-z
-x,-y,-z
x,y,-z
1/2-x,1/2+y,z
1/2+x,1/2-y,z
loop_
_atom_site_type_symbol
_atom_site_label
_atom_site_fract_x
_atom_site_fract_y
_atom_site_fract_z
Si Si1 0.867114 0.450307 0.721187
Si Si2 0.964732 0.678335 0.779505
Si Si3 0.305370 0.659834 0.132338
Si Si4 0.422262 0.529790 0.901961
Si Si5 0.776002 0.616350 0.399247
Si Si6 0.673257 0.451056 0.331894
Si Si7 0.819227 0.440120 0.904465
Si Si8 0.936335 0.133987 0.715081
O O1 0.906578 0.613709 0.738889
O O2 0.814535 0.500012 0.663394
O O3 0.848634 0.375808 0.816294
O O4 0.906617 0.306687 0.681837
O O5 0.948636 0.790039 0.866068
O O6 0.000000 0.500000 0.795223
O O7 0.998279 0.808196 0.713499
O O8 0.355795 0.550724 0.094237
O O9 0.307819 0.616205 0.235753
O O10 0.318005 0.855727 0.109555
O O11 0.244443 0.618930 0.097872
O O12 0.433582 0.402760 0.820769
O O13 0.441162 0.483621 0.000000
O O14 0.774863 0.556964 0.500000
O O15 0.713608 0.608793 0.358981
O O16 0.806361 0.799597 0.395105
O O17 0.607749 0.497824 0.326542
O O18 0.844436 0.397483 0.000000
#
# Coordination Sequence:
#
# PCOD9428734 Si02
#       8
#     8   8   8   8   8   8   8   8
#     4  11  22  42  65  93 129 167 217 277 326 390
#     4  10  22  42  65  90 118 173 232 272 333 389
#     4  11  22  38  56  84 126 171 208 257 321 376
#     4  11  22  38  57  89 130 170 225 283 325 376
#     4  12  24  41  69 100 133 170 211 268 342 405
#     4  11  21  41  62  91 129 168 210 264 326 398
#     4  12  23  36  57  88 127 174 217 255 310 379
#     4  10  24  39  65  88 122 175 218 267 332 390
#
# _framework density 22.563189000000001
#
# number of rings (size 3 to 8) (size 9 to 14) (size 15 to 20)
#    0.000    1.000    3.750    3.375    3.500    1.750 
#    0.000    3.125    0.000    5.625    0.000    0.000 
#    0.000    0.000    0.000    0.000    0.000    0.000 
#
# Total GULP energy -357169.380226 kJ/mol
# GULP energy per Si atom -5580.771566 kJ/mol
# Density = 2.251183 g / cm^3
# Si number density = 22.563189 Si / 1000 Ang^3
#
#
#
# Elastic Constant Matrix: (Units=GPa)
#
#
# Indices 1 2 3 4 5 6 
#
# 1 133.6177 18.0512 37.4144 0.0000 0.0000 0.0000
# 2 18.0512 66.7882 8.0725 0.0000 0.0000 0.0000
# 3 37.4144 8.0725 104.8689 0.0000 0.0000 0.0000
# 4 0.0000 0.0000 0.0000 -5.7941 0.0000 0.0000
# 5 0.0000 0.0000 0.0000 0.0000 -3.0064 0.0000
# 6 0.0000 0.0000 0.0000 0.0000 0.0000 39.2132
#
#
#
# Elastic Compliance Matrix: (Units=1/GPa)
#
#
# Indices 1 2 3 4 5 6 
#
# 1 0.008562 -0.001963 -0.002904 0.000000 0.000000 0.000000
# 2 -0.001963 0.015563 -0.000498 0.000000 0.000000 0.000000
# 3 -0.002904 -0.000498 0.010610 0.000000 0.000000 0.000000
# 4 0.000000 0.000000 0.000000 -0.172588 0.000000 0.000000
# 5 0.000000 0.000000 0.000000 0.000000 -0.332620 0.000000
# 6 0.000000 0.000000 0.000000 0.000000 0.000000 0.025502
#
#
# Mechanical properties :
#
#
# Convention : Reuss Voigt Hill
#
# Bulk Modulus (GPa) = 41.65499 48.03901 44.84700
# Shear Modulus (GPa) = -11.73051 22.19830 5.23390
#
# Velocity S-wave (km/s) = -2.28260 3.14001 1.52470
# Velocity P-wave (km/s) = 3.39920 5.87225 4.79780
#
# Compressibility (1/GPa) = 0.02400673
#
# Stress axis : x y z
#
# Youngs Moduli (GPa) = 116.79074 64.25308 94.25093
#
# Poissons Ratio (x) = 0.12614 0.27367
# Poissons Ratio (y) = 0.22929 0.04690
# Poissons Ratio (z) = 0.33912 0.03197
#
# Static dielectric constant tensor:
#      x y z
#    x 1.861320 0.000000 0.000000 
#    y 0.000000 1.932880 0.000000 
#    z 0.000000 0.000000 1.823320 
# 
# From -- ./inp_files/19997.got.cif
#   From: 2010.05.17/outbox.cif.g08.bks.cpg/sg55_10_cif.got.tgz:19997.got - 2010.06.03 13:27:54.
