data_PCOD9428493
_publ_section_title
;
Structure prediction by ZEFSAII (Michael W. Deem and Ramdas Pophale) SiO2 
 PCOD9428493
Probable space group: P B A M
;
_chemical_formula_sum "Si O2"
_cell_formula_units_Z 40
_cell_length_a 13.563395
_cell_length_b 8.714786
_cell_length_c 14.198368
_cell_angle_alpha 90.000000
_cell_angle_beta 90.000000
_cell_angle_gamma 90.000000
_cell_volume 1678.276699
_symmetry_space_group_name_H-M "P B A M"
_symmetry_group_IT_number 55
_symmetry_cell_setting 'orthorhombic'
loop_
_space_group_symop_operation_xyz
x,y,z
-x,-y,z
1/2+x,1/2-y,-z
1/2-x,1/2+y,-z
-x,-y,-z
x,y,-z
1/2-x,1/2+y,z
1/2+x,1/2-y,z
loop_
_atom_site_type_symbol
_atom_site_label
_atom_site_fract_x
_atom_site_fract_y
_atom_site_fract_z
Si Si1 0.621058 0.678210 0.611603
Si Si2 0.773142 0.471860 0.293840
Si Si3 0.536961 0.152706 0.698207
Si Si4 0.474101 0.250841 0.104516
Si Si5 0.168893 0.035625 0.896349
O O1 0.627419 0.675414 0.500000
O O2 0.675098 0.532195 0.655546
O O3 0.508367 0.702264 0.645519
O O4 0.677935 0.828514 0.653087
O O5 0.848411 0.617396 0.292716
O O6 0.744141 0.434585 0.186847
O O7 0.484156 0.155563 0.800501
O O8 0.500000 0.000000 0.644848
O O9 0.576228 0.348530 0.106016
O O10 0.383584 0.369814 0.114088
O O11 0.467109 0.179503 0.000000
O O12 0.215135 0.044754 0.000000
#
# Coordination Sequence:
#
# PCOD9428493 Si02
#       5
#     8   8   8   8   8
#     4  11  24  42  62  87 117 156 205 257 307 359
#     4  11  22  40  64  88 121 159 201 247 304 366
#     4  10  22  37  58  86 120 158 194 246 303 360
#     4   9  17  34  58  85 119 156 193 236 289 350
#     4   9  18  34  61  89 117 154 195 240 291 353
#
# _framework density 23.833970999999998
#
# number of rings (size 3 to 8) (size 9 to 14) (size 15 to 20)
#    0.000    2.000    2.000    3.000    0.000    5.600 
#    0.000    4.000    0.000    3.600    0.000    0.000 
#    0.000    0.000    0.000    0.000    0.000    0.000 
#
# Total GULP energy -223581.307192 kJ/mol
# GULP energy per Si atom -5589.532680 kJ/mol
# Density = 2.377972 g / cm^3
# Si number density = 23.833971 Si / 1000 Ang^3
#
#
#
# Elastic Constant Matrix: (Units=GPa)
#
#
# Indices 1 2 3 4 5 6 
#
# 1 86.7879 13.7660 26.5377 0.0000 0.0000 0.0000
# 2 13.7660 54.2918 10.6839 0.0000 0.0000 0.0000
# 3 26.5377 10.6839 155.4029 0.0000 0.0000 0.0000
# 4 0.0000 0.0000 0.0000 5.4350 0.0000 0.0000
# 5 0.0000 0.0000 0.0000 0.0000 -0.0773 0.0000
# 6 0.0000 0.0000 0.0000 0.0000 0.0000 35.6130
#
#
#
# Elastic Compliance Matrix: (Units=1/GPa)
#
#
# Indices 1 2 3 4 5 6 
#
# 1 0.012564 -0.002801 -0.001953 0.000000 0.000000 0.000000
# 2 -0.002801 0.019296 -0.000848 0.000000 0.000000 0.000000
# 3 -0.001953 -0.000848 0.006827 0.000000 0.000000 0.000000
# 4 0.000000 0.000000 0.000000 0.183992 0.000000 0.000000
# 5 0.000000 0.000000 0.000000 0.000000-12.931361 0.000000
# 6 0.000000 0.000000 0.000000 0.000000 0.000000 0.028080
#
#
# Mechanical properties :
#
#
# Convention : Reuss Voigt Hill
#
# Bulk Modulus (GPa) = 36.38772 44.27310 40.33041
# Shear Modulus (GPa) = -0.39494 24.56046 12.08276
#
# Velocity S-wave (km/s) = -0.40751 3.21359 2.25401
# Velocity P-wave (km/s) = 3.88315 5.69083 4.87157
#
# Compressibility (1/GPa) = 0.02748180
#
# Stress axis : x y z
#
# Youngs Moduli (GPa) = 79.59353 51.82373 146.48379
#
# Poissons Ratio (x) = 0.14517 0.28607
# Poissons Ratio (y) = 0.22297 0.12425
# Poissons Ratio (z) = 0.15544 0.04396
#
# Static dielectric constant tensor:
#      x y z
#    x 1.963360 0.000000 0.000000 
#    y 0.000000 1.970150 0.000000 
#    z 0.000000 0.000000 1.869240 
# 
# From -- ./inp_files/13004.got.cif
#   From: 2010.05.17/outbox.cif.g08.bks.cpg/sg55_7_cif.got.tgz:13004.got - 2010.06.03 13:27:54.
