data_PCOD9428318
_publ_section_title
;
Structure prediction by ZEFSAII (Michael W. Deem and Ramdas Pophale) SiO2 
 PCOD9428318
Probable space group: P B A M
;
_chemical_formula_sum "Si O2"
_cell_formula_units_Z 58
_cell_length_a 19.046660
_cell_length_b 14.315925
_cell_length_c 9.465913
_cell_angle_alpha 90.000000
_cell_angle_beta 90.000000
_cell_angle_gamma 90.000000
_cell_volume 2581.075761
_symmetry_space_group_name_H-M "P B A M"
_symmetry_group_IT_number 55
_symmetry_cell_setting 'orthorhombic'
loop_
_space_group_symop_operation_xyz
x,y,z
-x,-y,z
1/2+x,1/2-y,-z
1/2-x,1/2+y,-z
-x,-y,-z
x,y,-z
1/2-x,1/2+y,z
1/2+x,1/2-y,z
loop_
_atom_site_type_symbol
_atom_site_label
_atom_site_fract_x
_atom_site_fract_y
_atom_site_fract_z
Si Si1 0.500000 0.000000 0.500000
Si Si2 0.569668 0.768856 0.162030
Si Si3 0.299133 0.774048 0.830059
Si Si4 0.288653 0.447358 0.169437
Si Si5 0.008215 0.894981 0.336342
Si Si6 0.847743 0.437403 0.839827
Si Si7 0.562423 0.107241 0.770389
Si Si8 0.152589 0.102838 0.663103
O O1 0.533104 0.069819 0.622417
O O2 0.555049 0.676143 0.249173
O O3 0.625695 0.841680 0.228030
O O4 0.497968 0.829842 0.161157
O O5 0.587648 0.745225 0.000000
O O6 0.367022 0.830270 0.772910
O O7 0.301039 0.675136 0.753148
O O8 0.231425 0.839812 0.804328
O O9 0.306291 0.764257 0.000000
O O10 0.218176 0.504787 0.214511
O O11 0.345215 0.501527 0.261991
O O12 0.299762 0.457976 0.000000
O O13 0.031624 0.900561 0.500000
O O14 0.927377 0.860244 0.334974
O O15 0.000000 0.000000 0.280159
O O16 0.911479 0.511435 0.843289
O O17 0.829386 0.412143 0.000000
O O18 0.174715 0.095999 0.500000
#
# Coordination Sequence:
#
# PCOD9428318 Si02
#       8
#     2   8   8   8   8   8   8   8
#     4  12  24  28  46  88 130 168 186 232 302 368
#     4  11  20  33  59  89 116 151 195 247 293 349
#     4  10  21  39  65  89 115 160 209 253 303 365
#     4   9  20  40  62  86 121 160 201 248 301 361
#     4  10  24  44  62  81 116 160 202 247 306 366
#     4   9  18  35  56  84 121 155 190 239 295 359
#     4  11  20  32  51  86 124 155 196 232 294 362
#     4  11  23  40  64  92 121 156 204 256 306 367
#
# _framework density 22.471250000000001
#
# number of rings (size 3 to 8) (size 9 to 14) (size 15 to 20)
#    0.000    1.793    2.759    2.483    1.931    2.483 
#    6.207    0.000    0.000    0.000    0.000    0.000 
#    0.000    0.000    0.000    0.000    0.000    0.000 
#
# Total GULP energy -323269.944242 kJ/mol
# GULP energy per Si atom -5573.619728 kJ/mol
# Density = 2.242010 g / cm^3
# Si number density = 22.471250 Si / 1000 Ang^3
#
#
#
# Elastic Constant Matrix: (Units=GPa)
#
#
# Indices 1 2 3 4 5 6 
#
# 1 47.6339 17.8508 8.1447 0.0000 0.0000 0.0000
# 2 17.8508 152.4716 42.0015 0.0000 0.0000 0.0000
# 3 8.1447 42.0015 92.6753 0.0000 0.0000 0.0000
# 4 0.0000 0.0000 0.0000 -47.8181 0.0000 0.0000
# 5 0.0000 0.0000 0.0000 0.0000 38.1951 0.0000
# 6 0.0000 0.0000 0.0000 0.0000 0.0000 46.6136
#
#
#
# Elastic Compliance Matrix: (Units=1/GPa)
#
#
# Indices 1 2 3 4 5 6 
#
# 1 0.022019 -0.002337 -0.000876 0.000000 0.000000 0.000000
# 2 -0.002337 0.007742 -0.003303 0.000000 0.000000 0.000000
# 3 -0.000876 -0.003303 0.012365 0.000000 0.000000 0.000000
# 4 0.000000 0.000000 0.000000 -0.020913 0.000000 0.000000
# 5 0.000000 0.000000 0.000000 0.000000 0.026181 0.000000
# 6 0.000000 0.000000 0.000000 0.000000 0.000000 0.021453
#
#
# Mechanical properties :
#
#
# Convention : Reuss Voigt Hill
#
# Bulk Modulus (GPa) = 34.37229 47.64166 41.00698
# Shear Modulus (GPa) = 54.59854 22.38369 38.49111
#
# Velocity S-wave (km/s) = 4.93455 3.15953 4.14322
# Velocity P-wave (km/s) = 6.91345 5.87855 6.41690
#
# Compressibility (1/GPa) = 0.02909320
#
# Stress axis : x y z
#
# Youngs Moduli (GPa) = 45.41553 129.16280 80.87637
#
# Poissons Ratio (x) = 0.30179 0.07086
# Poissons Ratio (y) = 0.10611 0.26717
# Poissons Ratio (z) = 0.03979 0.42669
#
# Static dielectric constant tensor:
#      x y z
#    x 1.916910 0.000000 0.000000 
#    y 0.000000 1.854390 0.000000 
#    z 0.000000 0.000000 1.768740 
# 
# From -- ./inp_files/9598.got.cif
#   From: 2010.05.17/outbox.cif.g08.bks.cpg/sg55_5_cif.got.tgz:9598.got - 2010.06.03 13:27:54.
