data_PCOD9428444
_publ_section_title
;
Structure prediction by ZEFSAII (Michael W. Deem and Ramdas Pophale) SiO2 
 PCOD9428444
Probable space group: P B A M
;
_chemical_formula_sum "Si O2"
_cell_formula_units_Z 56
_cell_length_a 13.200353
_cell_length_b 9.194315
_cell_length_c 21.191303
_cell_angle_alpha 90.000000
_cell_angle_beta 90.000000
_cell_angle_gamma 90.000000
_cell_volume 2571.950377
_symmetry_space_group_name_H-M "P B A M"
_symmetry_group_IT_number 55
_symmetry_cell_setting 'orthorhombic'
loop_
_space_group_symop_operation_xyz
x,y,z
-x,-y,z
1/2+x,1/2-y,-z
1/2-x,1/2+y,-z
-x,-y,-z
x,y,-z
1/2-x,1/2+y,z
1/2+x,1/2-y,z
loop_
_atom_site_type_symbol
_atom_site_label
_atom_site_fract_x
_atom_site_fract_y
_atom_site_fract_z
Si Si1 0.206091 0.872488 0.572238
Si Si2 0.539311 0.835036 0.567551
Si Si3 0.617537 0.484939 0.306144
Si Si4 0.617708 0.521634 0.924319
Si Si5 0.247672 0.727203 0.859743
Si Si6 0.613727 0.172445 0.663306
Si Si7 0.692523 0.030387 0.773658
O O1 0.208131 0.924878 0.500000
O O2 0.156139 0.710606 0.570984
O O3 0.314620 0.864507 0.604429
O O4 0.139225 0.963985 0.621833
O O5 0.504757 0.768634 0.500000
O O6 0.490767 0.781467 0.631909
O O7 0.500000 0.000000 0.565928
O O8 0.500000 0.500000 0.288992
O O9 0.651885 0.317325 0.303558
O O10 0.696299 0.558657 0.258217
O O11 0.500000 0.500000 0.904615
O O12 0.685437 0.384731 0.901039
O O13 0.668882 0.668259 0.896284
O O14 0.620542 0.529191 0.000000
O O15 0.192113 0.621215 0.809825
O O16 0.320935 0.840526 0.823649
O O17 0.617856 0.045805 0.714276
#
# Coordination Sequence:
#
# PCOD9428444 Si02
#       7
#     8   8   8   8   8   8   8
#     4  10  23  37  56  82 109 148 201 265 339 410
#     4  10  22  38  54  77 108 146 197 257 329 405
#     4  11  22  39  62  84 114 158 212 274 333 394
#     4  10  22  43  75 109 145 187 227 270 327 381
#     4  10  21  42  68 100 142 179 224 275 320 384
#     4  11  22  39  58  82 114 156 203 264 325 394
#     4  10  22  39  61  90 129 169 217 265 320 389
#
# _framework density 21.77336
#
# number of rings (size 3 to 8) (size 9 to 14) (size 15 to 20)
#    0.000    1.714    2.857    0.857    4.000    3.714 
#    0.000    2.857    0.000    7.714    0.000    0.000 
#    0.000    0.000    0.000    0.000    0.000    0.000 
#
# Total GULP energy -312422.811256 kJ/mol
# GULP energy per Si atom -5578.978772 kJ/mol
# Density = 2.172380 g / cm^3
# Si number density = 21.773360 Si / 1000 Ang^3
#
#
#
# Elastic Constant Matrix: (Units=GPa)
#
#
# Indices 1 2 3 4 5 6 
#
# 1 113.1543 35.8846 51.1470 0.0000 0.0000 0.0000
# 2 35.8846 115.4594 48.7496 0.0000 0.0000 0.0000
# 3 51.1470 48.7496 107.3740 0.0000 0.0000 0.0000
# 4 0.0000 0.0000 0.0000 35.4678 0.0000 0.0000
# 5 0.0000 0.0000 0.0000 0.0000 9.6161 0.0000
# 6 0.0000 0.0000 0.0000 0.0000 0.0000 23.7151
#
#
#
# Elastic Compliance Matrix: (Units=1/GPa)
#
#
# Indices 1 2 3 4 5 6 
#
# 1 0.011485 -0.001558 -0.004763 0.000000 0.000000 0.000000
# 2 -0.001558 0.010927 -0.004219 0.000000 0.000000 0.000000
# 3 -0.004763 -0.004219 0.013497 0.000000 0.000000 0.000000
# 4 0.000000 0.000000 0.000000 0.028195 0.000000 0.000000
# 5 0.000000 0.000000 0.000000 0.000000 0.103992 0.000000
# 6 0.000000 0.000000 0.000000 0.000000 0.000000 0.042167
#
#
# Mechanical properties :
#
#
# Convention : Reuss Voigt Hill
#
# Bulk Modulus (GPa) = 67.43712 67.50558 67.47135
# Shear Modulus (GPa) = 21.16082 27.10689 24.13386
#
# Velocity S-wave (km/s) = 3.12086 3.53222 3.33289
# Velocity P-wave (km/s) = 6.63520 6.90699 6.77246
#
# Compressibility (1/GPa) = 0.01482863
#
# Stress axis : x y z
#
# Youngs Moduli (GPa) = 87.07252 91.52029 74.08811
#
# Poissons Ratio (x) = 0.14262 0.35289
# Poissons Ratio (y) = 0.13568 0.31254
# Poissons Ratio (z) = 0.41474 0.38608
#
# Static dielectric constant tensor:
#      x y z
#    x 1.802160 0.000000 0.000000 
#    y 0.000000 1.823240 0.000000 
#    z 0.000000 0.000000 1.822180 
# 
# From -- ./inp_files/22988.got.cif
#   From: 2010.05.17/outbox.cif.g08.bks.cpg/sg55_12_cif.got.tgz:22988.got - 2010.06.03 13:27:54.
