data_PCOD9428218
_publ_section_title
;
Structure prediction by ZEFSAII (Michael W. Deem and Ramdas Pophale) SiO2 
 PCOD9428218
Probable space group: P B A M
;
_chemical_formula_sum "Si O2"
_cell_formula_units_Z 36
_cell_length_a 7.190652
_cell_length_b 16.050185
_cell_length_c 15.650452
_cell_angle_alpha 90.000000
_cell_angle_beta 90.000000
_cell_angle_gamma 90.000000
_cell_volume 1806.238931
_symmetry_space_group_name_H-M "P B A M"
_symmetry_group_IT_number 55
_symmetry_cell_setting 'orthorhombic'
loop_
_space_group_symop_operation_xyz
x,y,z
-x,-y,z
1/2+x,1/2-y,-z
1/2-x,1/2+y,-z
-x,-y,-z
x,y,-z
1/2-x,1/2+y,z
1/2+x,1/2-y,z
loop_
_atom_site_type_symbol
_atom_site_label
_atom_site_fract_x
_atom_site_fract_y
_atom_site_fract_z
Si Si1 0.907757 0.908929 0.900581
Si Si2 0.410483 0.130175 0.781582
Si Si3 0.666727 0.679711 0.766778
Si Si4 0.000000 0.500000 0.644442
Si Si5 0.871089 0.081442 0.593740
O O1 0.699938 0.905208 0.862656
O O2 0.027640 0.847540 0.841491
O O3 0.911224 0.885973 0.000000
O O4 0.000000 0.000000 0.890943
O O5 0.329778 0.220898 0.759431
O O6 0.630885 0.143933 0.791194
O O7 0.390330 0.064392 0.705368
O O8 0.607345 0.640064 0.676076
O O9 0.157108 0.449502 0.595078
O O10 0.912208 0.118999 0.500000
O O11 0.000000 0.000000 0.603288
#
# Coordination Sequence:
#
# PCOD9428218 Si02
#       5
#     8   8   8   4   8
#     4  11  24  42  65  93 126 164 209 257 312 381
#     4  11  22  40  64  90 123 169 207 260 313 375
#     4  11  22  40  63  92 130 163 210 258 321 366
#     4  10  21  38  65  86 122 164 209 252 309 374
#     4  10  21  38  63  92 125 165 208 253 309 375
#
# _framework density 19.930918999999999
#
# number of rings (size 3 to 8) (size 9 to 14) (size 15 to 20)
#    0.000    1.333    2.222    5.000    0.000    1.778 
#    0.000    8.333    0.000    0.000    0.000    0.000 
#    0.000    0.000    0.000    0.000    0.000    0.000 
#
# Total GULP energy -201111.199261 kJ/mol
# GULP energy per Si atom -5586.422202 kJ/mol
# Density = 1.988556 g / cm^3
# Si number density = 19.930919 Si / 1000 Ang^3
#
#
#
# Elastic Constant Matrix: (Units=GPa)
#
#
# Indices 1 2 3 4 5 6 
#
# 1 76.1519 7.0807 52.0220 0.0000 0.0000 0.0000
# 2 7.0807 87.4727 70.7593 0.0000 0.0000 0.0000
# 3 52.0220 70.7593 174.3474 0.0000 0.0000 0.0000
# 4 0.0000 0.0000 0.0000 5.1183 0.0000 0.0000
# 5 0.0000 0.0000 0.0000 0.0000 23.2840 0.0000
# 6 0.0000 0.0000 0.0000 0.0000 0.0000 32.3451
#
#
#
# Elastic Compliance Matrix: (Units=1/GPa)
#
#
# Indices 1 2 3 4 5 6 
#
# 1 0.017459 0.004170 -0.006902 0.000000 0.000000 0.000000
# 2 0.004170 0.018016 -0.008556 0.000000 0.000000 0.000000
# 3 -0.006902 -0.008556 0.011267 0.000000 0.000000 0.000000
# 4 0.000000 0.000000 0.000000 0.195376 0.000000 0.000000
# 5 0.000000 0.000000 0.000000 0.000000 0.042948 0.000000
# 6 0.000000 0.000000 0.000000 0.000000 0.000000 0.030917
#
#
# Mechanical properties :
#
#
# Convention : Reuss Voigt Hill
#
# Bulk Modulus (GPa) = 41.38013 66.41069 53.89541
# Shear Modulus (GPa) = 14.42529 26.02350 20.22439
#
# Velocity S-wave (km/s) = 2.69321 3.61735 3.18893
# Velocity P-wave (km/s) = 5.52069 7.13020 6.37643
#
# Compressibility (1/GPa) = 0.02416619
#
# Stress axis : x y z
#
# Youngs Moduli (GPa) = 57.27811 55.50701 88.75147
#
# Poissons Ratio (x) = -0.23145 0.61253
# Poissons Ratio (y) = -0.23883 0.75935
# Poissons Ratio (z) = 0.39531 0.47491
#
# Static dielectric constant tensor:
#      x y z
#    x 1.686450 0.000000 0.000000 
#    y 0.000000 1.689790 0.000000 
#    z 0.000000 0.000000 1.672380 
# 
# From -- ./inp_files/16993.got.cif
#   From: 2010.05.17/outbox.cif.g08.bks.cpg/sg55_9_cif.got.tgz:16993.got - 2010.06.03 13:27:54.
