data_PCOD9428327
_publ_section_title
;
Structure prediction by ZEFSAII (Michael W. Deem and Ramdas Pophale) SiO2 
 PCOD9428327
Probable space group: P B A M
;
_chemical_formula_sum "Si O2"
_cell_formula_units_Z 48
_cell_length_a 21.828739
_cell_length_b 12.218640
_cell_length_c 9.162029
_cell_angle_alpha 90.000000
_cell_angle_beta 90.000000
_cell_angle_gamma 90.000000
_cell_volume 2443.673502
_symmetry_space_group_name_H-M "P B A M"
_symmetry_group_IT_number 55
_symmetry_cell_setting 'orthorhombic'
loop_
_space_group_symop_operation_xyz
x,y,z
-x,-y,z
1/2+x,1/2-y,-z
1/2-x,1/2+y,-z
-x,-y,-z
x,y,-z
1/2-x,1/2+y,z
1/2+x,1/2-y,z
loop_
_atom_site_type_symbol
_atom_site_label
_atom_site_fract_x
_atom_site_fract_y
_atom_site_fract_z
Si Si1 0.100208 0.247019 0.172696
Si Si2 0.173436 0.640701 0.673123
Si Si3 0.072092 0.499163 0.827079
Si Si4 0.488459 0.369907 0.668580
Si Si5 0.206481 0.081755 0.828314
Si Si6 0.860938 0.148038 0.828118
O O1 0.098518 0.377005 0.194920
O O2 0.046846 0.192180 0.266922
O O3 0.164027 0.186635 0.206196
O O4 0.087886 0.226750 0.000000
O O5 0.171535 0.643628 0.500000
O O6 0.112627 0.583642 0.736847
O O7 0.233031 0.578109 0.732074
O O8 0.177052 0.761821 0.740912
O O9 0.000000 0.500000 0.788399
O O10 0.076374 0.525593 0.000000
O O11 0.500000 0.500000 0.673434
O O12 0.477374 0.338588 0.500000
O O13 0.429452 0.346321 0.766384
O O14 0.165778 0.973341 0.806873
O O15 0.223523 0.087098 0.000000
O O16 0.859736 0.172572 0.000000
#
# Coordination Sequence:
#
# PCOD9428327 Si02
#       6
#     8   8   8   8   8   8
#     4  10  21  39  65  94 126 168 219 264 311 375
#     4  12  27  43  64  94 131 168 207 261 327 388
#     4  10  22  42  68  97 128 166 215 266 315 378
#     4  11  22  36  59  95 135 167 201 255 320 378
#     4  10  23  42  64  92 123 167 220 265 309 370
#     4  11  23  42  68  91 122 166 217 265 305 368
#
# _framework density 19.642558999999999
#
# number of rings (size 3 to 8) (size 9 to 14) (size 15 to 20)
#    0.000    1.333    1.667    3.500    2.333    5.000 
#    0.000    0.000    0.000    0.000    0.000    0.000 
#    0.000    0.000    0.000    0.000    0.000    0.000 
#
# Total GULP energy -268459.044295 kJ/mol
# GULP energy per Si atom -5592.896756 kJ/mol
# Density = 1.959785 g / cm^3
# Si number density = 19.642559 Si / 1000 Ang^3
#
#
#
# Elastic Constant Matrix: (Units=GPa)
#
#
# Indices 1 2 3 4 5 6 
#
# 1 92.5314 24.6791 58.9002 0.0000 0.0000 0.0000
# 2 24.6791 73.1014 46.3119 0.0000 0.0000 0.0000
# 3 58.9002 46.3119 94.8730 0.0000 0.0000 0.0000
# 4 0.0000 0.0000 0.0000 25.2339 0.0000 0.0000
# 5 0.0000 0.0000 0.0000 0.0000 791.5747 0.0000
# 6 0.0000 0.0000 0.0000 0.0000 0.0000 19.5227
#
#
#
# Elastic Compliance Matrix: (Units=1/GPa)
#
#
# Indices 1 2 3 4 5 6 
#
# 1 0.017974 0.001450 -0.011867 0.000000 0.000000 0.000000
# 2 0.001450 0.019921 -0.010624 0.000000 0.000000 0.000000
# 3 -0.011867 -0.010624 0.023094 0.000000 0.000000 0.000000
# 4 0.000000 0.000000 0.000000 0.039629 0.000000 0.000000
# 5 0.000000 0.000000 0.000000 0.000000 0.001263 0.000000
# 6 0.000000 0.000000 0.000000 0.000000 0.000000 0.051222
#
#
# Mechanical properties :
#
#
# Convention : Reuss Voigt Hill
#
# Bulk Modulus (GPa) = 52.89198 57.80980 55.35089
# Shear Modulus (GPa) = 24.81527 175.97389 100.39458
#
# Velocity S-wave (km/s) = 3.55821 9.47537 7.15693
# Velocity P-wave (km/s) = 6.62320 12.21494 9.82527
#
# Compressibility (1/GPa) = 0.01890646
#
# Stress axis : x y z
#
# Youngs Moduli (GPa) = 55.63578 50.19795 43.30156
#
# Poissons Ratio (x) = -0.07278 0.51384
# Poissons Ratio (y) = -0.08066 0.46006
# Poissons Ratio (z) = 0.66021 0.53333
#
# Static dielectric constant tensor:
#      x y z
#    x 1.671520 0.000000 0.000000 
#    y 0.000000 1.697730 0.000000 
#    z 0.000000 0.000000 1.651860 
# 
# From -- ./inp_files/9443.got.cif
#   From: 2010.05.17/outbox.cif.g08.bks.cpg/sg55_5_cif.got.tgz:9443.got - 2010.06.03 13:27:54.
