data_PCOD9428567
_publ_section_title
;
Structure prediction by ZEFSAII (Michael W. Deem and Ramdas Pophale) SiO2 
 PCOD9428567
Probable space group: P B A M
;
_chemical_formula_sum "Si O2"
_cell_formula_units_Z 58
_cell_length_a 28.042563
_cell_length_b 12.070621
_cell_length_c 9.217965
_cell_angle_alpha 90.000000
_cell_angle_beta 90.000000
_cell_angle_gamma 90.000000
_cell_volume 3120.199572
_symmetry_space_group_name_H-M "P B A M"
_symmetry_group_IT_number 55
_symmetry_cell_setting 'orthorhombic'
loop_
_space_group_symop_operation_xyz
x,y,z
-x,-y,z
1/2+x,1/2-y,-z
1/2-x,1/2+y,-z
-x,-y,-z
x,y,-z
1/2-x,1/2+y,z
1/2+x,1/2-y,z
loop_
_atom_site_type_symbol
_atom_site_label
_atom_site_fract_x
_atom_site_fract_y
_atom_site_fract_z
Si Si1 0.831651 0.044429 0.669297
Si Si2 0.328134 0.687529 0.831809
Si Si3 0.923543 0.664460 0.832661
Si Si4 0.392558 0.269912 0.172612
Si Si5 0.277533 0.879980 0.330745
Si Si6 0.490468 0.270254 0.340379
Si Si7 0.000000 0.000000 0.500000
Si Si8 0.146375 0.528321 0.172880
O O1 0.845050 0.034460 0.500000
O O2 0.866756 0.128823 0.748345
O O3 0.777840 0.090094 0.679293
O O4 0.832687 0.926006 0.745913
O O5 0.378365 0.752561 0.826591
O O6 0.290262 0.768823 0.756326
O O7 0.315764 0.668410 0.000000
O O8 0.900530 0.545669 0.793869
O O9 0.964444 0.709352 0.729265
O O10 0.940350 0.660024 0.000000
O O11 0.445365 0.259277 0.236309
O O12 0.363980 0.156135 0.201972
O O13 0.393590 0.286735 0.000000
O O14 0.290086 0.865820 0.500000
O O15 0.309892 0.976779 0.261425
O O16 0.479153 0.221679 0.500000
O O17 0.500444 0.399972 0.375654
O O18 0.155487 0.513013 0.000000
#
# Coordination Sequence:
#
# PCOD9428567 Si02
#       8
#     8   8   8   8   8   8   2   8
#     4  11  25  40  59  86 123 160 200 251 309 367
#     4  10  22  39  62  90 118 154 204 251 298 360
#     4   9  19  38  62  88 116 154 199 250 299 357
#     4  11  24  41  61  90 122 161 204 252 313 366
#     4  10  22  40  61  88 119 159 200 247 308 364
#     4  10  22  39  60  86 118 162 199 244 302 364
#     4   8  24  40  58  82 124 160 202 236 310 356
#     4   9  21  41  63  88 123 158 201 255 306 364
#
# _framework density 18.588554999999999
#
# number of rings (size 3 to 8) (size 9 to 14) (size 15 to 20)
#    0.414    1.655    0.000    2.897    3.862    6.621 
#    0.000    3.448    0.000    0.000    0.000    0.000 
#    0.000    0.000    0.000    0.000    0.000    0.000 
#
# Total GULP energy -323289.985487 kJ/mol
# GULP energy per Si atom -5573.965267 kJ/mol
# Density = 1.854625 g / cm^3
# Si number density = 18.588555 Si / 1000 Ang^3
#
#
#
# Elastic Constant Matrix: (Units=GPa)
#
#
# Indices 1 2 3 4 5 6 
#
# 1 14.1362 -6.3741 14.3050 0.0000 0.0000 0.0000
# 2 -6.3741 76.7645 38.2778 0.0000 0.0000 0.0000
# 3 14.3050 38.2778 94.7471 0.0000 0.0000 0.0000
# 4 0.0000 0.0000 0.0000 31.3515 0.0000 0.0000
# 5 0.0000 0.0000 0.0000 0.0000 34.5949 0.0000
# 6 0.0000 0.0000 0.0000 0.0000 0.0000 4.0257
#
#
#
# Elastic Compliance Matrix: (Units=1/GPa)
#
#
# Indices 1 2 3 4 5 6 
#
# 1 0.104527 0.020723 -0.024154 0.000000 0.000000 0.000000
# 2 0.020723 0.020422 -0.011379 0.000000 0.000000 0.000000
# 3 -0.024154 -0.011379 0.018798 0.000000 0.000000 0.000000
# 4 0.000000 0.000000 0.000000 0.031896 0.000000 0.000000
# 5 0.000000 0.000000 0.000000 0.000000 0.028906 0.000000
# 6 0.000000 0.000000 0.000000 0.000000 0.000000 0.248404
#
#
# Mechanical properties :
#
#
# Convention : Reuss Voigt Hill
#
# Bulk Modulus (GPa) = 8.76213 30.89613 19.82913
# Shear Modulus (GPa) = 9.60403 23.29036 16.44720
#
# Velocity S-wave (km/s) = 2.27549 3.54353 2.97779
# Velocity P-wave (km/s) = 3.40995 5.77921 4.74484
#
# Compressibility (1/GPa) = 0.11412756
#
# Stress axis : x y z
#
# Youngs Moduli (GPa) = 9.56694 48.96742 53.19612
#
# Poissons Ratio (x) = -1.01477 1.28488
# Poissons Ratio (y) = -0.19826 0.60533
# Poissons Ratio (z) = 0.23108 0.55721
#
# Static dielectric constant tensor:
#      x y z
#    x 1.625280 0.000000 0.000000 
#    y 0.000000 1.624690 0.000000 
#    z 0.000000 0.000000 1.628040 
# 
# From -- ./inp_files/10183.got.cif
#   From: 2010.05.17/outbox.cif.g08.bks.cpg/sg55_6_cif.got.tgz:10183.got - 2010.06.03 13:27:54.
