data_PCOD9428717
_publ_section_title
;
Structure prediction by ZEFSAII (Michael W. Deem and Ramdas Pophale) SiO2 
 PCOD9428717
Probable space group: P B A M
;
_chemical_formula_sum "Si O2"
_cell_formula_units_Z 48
_cell_length_a 11.061675
_cell_length_b 14.442525
_cell_length_c 13.607808
_cell_angle_alpha 90.000000
_cell_angle_beta 90.000000
_cell_angle_gamma 90.000000
_cell_volume 2173.963236
_symmetry_space_group_name_H-M "P B A M"
_symmetry_group_IT_number 55
_symmetry_cell_setting 'orthorhombic'
loop_
_space_group_symop_operation_xyz
x,y,z
-x,-y,z
1/2+x,1/2-y,-z
1/2-x,1/2+y,-z
-x,-y,-z
x,y,-z
1/2-x,1/2+y,z
1/2+x,1/2-y,z
loop_
_atom_site_type_symbol
_atom_site_label
_atom_site_fract_x
_atom_site_fract_y
_atom_site_fract_z
Si Si1 0.751724 0.779201 0.614674
Si Si2 0.067706 0.376837 0.387698
Si Si3 0.797599 0.003172 0.885544
Si Si4 0.882493 0.795030 0.885647
Si Si5 0.331935 0.045769 0.704151
Si Si6 0.138718 0.800097 0.203131
O O1 0.717057 0.784745 0.500000
O O2 0.875924 0.723271 0.621610
O O3 0.763089 0.880280 0.662738
O O4 0.658398 0.720686 0.681687
O O5 0.030497 0.392014 0.500000
O O6 0.168431 0.452239 0.358487
O O7 0.957229 0.403211 0.318969
O O8 0.851851 0.093355 0.832234
O O9 0.872821 0.907400 0.881402
O O10 0.683150 0.978127 0.817585
O O11 0.774890 0.023766 0.000000
O O12 0.757941 0.751081 0.843347
O O13 0.007937 0.765943 0.834214
O O14 0.889554 0.769014 0.000000
#
# Coordination Sequence:
#
# PCOD9428717 Si02
#       6
#     8   8   8   8   8   8
#     4  11  24  40  66 100 136 178 227 283 348 413
#     4  10  22  41  67  98 137 186 233 284 356 418
#     4  11  24  44  69  99 137 184 230 281 349 420
#     4  11  25  46  72 103 139 188 236 286 351 418
#     4  11  21  41  67  94 134 178 233 285 334 413
#     4  12  25  46  73 102 143 183 232 293 347 415
#
# _framework density 22.079491000000001
#
# number of rings (size 3 to 8) (size 9 to 14) (size 15 to 20)
#    0.000    1.000    3.333    4.000    2.333    1.333 
#    0.000    1.667    0.000    1.000    0.000    0.000 
#    0.000    0.000    0.000    0.000    0.000    0.000 
#
# Total GULP energy -268062.510646 kJ/mol
# GULP energy per Si atom -5584.635638 kJ/mol
# Density = 2.202924 g / cm^3
# Si number density = 22.079491 Si / 1000 Ang^3
#
#
#
# Elastic Constant Matrix: (Units=GPa)
#
#
# Indices 1 2 3 4 5 6 
#
# 1 92.1534 16.2412 32.8670 0.0000 0.0000 0.0000
# 2 16.2412 84.3279 2.7228 0.0000 0.0000 0.0000
# 3 32.8670 2.7228 142.1074 0.0000 0.0000 0.0000
# 4 0.0000 0.0000 0.0000 30.7681 0.0000 0.0000
# 5 0.0000 0.0000 0.0000 0.0000 12.3744 0.0000
# 6 0.0000 0.0000 0.0000 0.0000 0.0000 34.3428
#
#
#
# Elastic Compliance Matrix: (Units=1/GPa)
#
#
# Indices 1 2 3 4 5 6 
#
# 1 0.012246 -0.002268 -0.002789 0.000000 0.000000 0.000000
# 2 -0.002268 0.012286 0.000289 0.000000 0.000000 0.000000
# 3 -0.002789 0.000289 0.007676 0.000000 0.000000 0.000000
# 4 0.000000 0.000000 0.000000 0.032501 0.000000 0.000000
# 5 0.000000 0.000000 0.000000 0.000000 0.080812 0.000000
# 6 0.000000 0.000000 0.000000 0.000000 0.000000 0.029118
#
#
# Mechanical properties :
#
#
# Convention : Reuss Voigt Hill
#
# Bulk Modulus (GPa) = 44.10670 46.91676 45.51173
# Shear Modulus (GPa) = 26.07789 33.28091 29.67940
#
# Velocity S-wave (km/s) = 3.44043 3.88664 3.67032
# Velocity P-wave (km/s) = 5.98346 6.43711 6.21443
#
# Compressibility (1/GPa) = 0.02267229
#
# Stress axis : x y z
#
# Youngs Moduli (GPa) = 81.65996 81.39328 130.26951
#
# Poissons Ratio (x) = 0.18464 0.36330
# Poissons Ratio (y) = 0.18524 -0.03768
# Poissons Ratio (z) = 0.22773 -0.02354
#
# Static dielectric constant tensor:
#      x y z
#    x 1.874220 0.000000 0.000000 
#    y 0.000000 1.917960 0.000000 
#    z 0.000000 0.000000 1.823070 
# 
# From -- ./inp_files/18270.got.cif
#   From: 2010.05.17/outbox.cif.g08.bks.cpg/sg55_10_cif.got.tgz:18270.got - 2010.06.03 13:27:54.
