data_PCOD9428330
_publ_section_title
;
Structure prediction by ZEFSAII (Michael W. Deem and Ramdas Pophale) SiO2 
 PCOD9428330
Probable space group: P B A M
;
_chemical_formula_sum "Si O2"
_cell_formula_units_Z 34
_cell_length_a 9.454306
_cell_length_b 20.377172
_cell_length_c 7.449489
_cell_angle_alpha 90.000000
_cell_angle_beta 90.000000
_cell_angle_gamma 90.000000
_cell_volume 1435.159100
_symmetry_space_group_name_H-M "P B A M"
_symmetry_group_IT_number 55
_symmetry_cell_setting 'orthorhombic'
loop_
_space_group_symop_operation_xyz
x,y,z
-x,-y,z
1/2+x,1/2-y,-z
1/2-x,1/2+y,-z
-x,-y,-z
x,y,-z
1/2-x,1/2+y,z
1/2+x,1/2-y,z
loop_
_atom_site_type_symbol
_atom_site_label
_atom_site_fract_x
_atom_site_fract_y
_atom_site_fract_z
Si Si1 0.000000 0.500000 0.500000
Si Si2 0.384947 0.922174 0.791201
Si Si3 0.699366 0.704162 0.717141
Si Si4 0.349517 0.522238 0.787950
Si Si5 0.878719 0.826993 0.284011
O O1 0.008739 0.558637 0.342231
O O2 0.310057 0.852146 0.772912
O O3 0.268037 0.973636 0.714238
O O4 0.420462 0.932580 0.000000
O O5 0.695161 0.704101 0.500000
O O6 0.539426 0.688809 0.779689
O O7 0.765083 0.773233 0.777917
O O8 0.500000 0.500000 0.712768
O O9 0.336567 0.599447 0.765566
O O10 0.348704 0.507418 0.000000
O O11 0.883018 0.823451 0.500000
#
# Coordination Sequence:
#
# PCOD9428330 Si02
#       5
#     2   8   8   8   8
#     4  12  26  44  66  94 140 176 220 276 338 396
#     4  11  24  43  69  99 134 179 225 275 340 408
#     4  10  21  41  61  95 135 179 224 282 337 402
#     4  10  21  39  65  96 127 165 225 280 328 395
#     4  10  22  37  64  95 134 179 230 278 340 406
#
# _framework density 23.690753000000001
#
# number of rings (size 3 to 8) (size 9 to 14) (size 15 to 20)
#    0.000    1.647    3.529    0.353    1.647    3.294 
#    4.235    0.000    0.000    0.000    0.000    0.000 
#    0.000    0.000    0.000    0.000    0.000    0.000 
#
# Total GULP energy -189613.344285 kJ/mol
# GULP energy per Si atom -5576.863067 kJ/mol
# Density = 2.363683 g / cm^3
# Si number density = 23.690753 Si / 1000 Ang^3
#
#
#
# Elastic Constant Matrix: (Units=GPa)
#
#
# Indices 1 2 3 4 5 6 
#
# 1 20.8619 7.9963 -6.0130 0.0000 0.0000 0.0000
# 2 7.9963 138.2907 -18.5064 0.0000 0.0000 0.0000
# 3 -6.0130 -18.5064 117.8821 0.0000 0.0000 0.0000
# 4 0.0000 0.0000 0.0000 30.9094 0.0000 0.0000
# 5 0.0000 0.0000 0.0000 0.0000 0.8565 0.0000
# 6 0.0000 0.0000 0.0000 0.0000 0.0000 47.5356
#
#
#
# Elastic Compliance Matrix: (Units=1/GPa)
#
#
# Indices 1 2 3 4 5 6 
#
# 1 0.049535 -0.002580 0.002122 0.000000 0.000000 0.000000
# 2 -0.002580 0.007521 0.001049 0.000000 0.000000 0.000000
# 3 0.002122 0.001049 0.008756 0.000000 0.000000 0.000000
# 4 0.000000 0.000000 0.000000 0.032353 0.000000 0.000000
# 5 0.000000 0.000000 0.000000 0.000000 1.167607 0.000000
# 6 0.000000 0.000000 0.000000 0.000000 0.000000 0.021037
#
#
# Mechanical properties :
#
#
# Convention : Reuss Voigt Hill
#
# Bulk Modulus (GPa) = 14.92708 27.10982 21.01845
# Shear Modulus (GPa) = 3.82275 35.43080 19.62678
#
# Velocity S-wave (km/s) = 1.27166 3.87143 2.88142
# Velocity P-wave (km/s) = 2.91043 5.60821 4.46781
#
# Compressibility (1/GPa) = 0.06699235
#
# Stress axis : x y z
#
# Youngs Moduli (GPa) = 20.18779 132.96571 114.20781
#
# Poissons Ratio (x) = 0.34309 -0.24231
# Poissons Ratio (y) = 0.05209 -0.11981
# Poissons Ratio (z) = -0.04283 -0.13949
#
# Static dielectric constant tensor:
#      x y z
#    x 2.405910 0.000000 0.000000 
#    y 0.000000 1.855360 0.000000 
#    z 0.000000 0.000000 1.903780 
# 
# From -- ./inp_files/2143.got.cif
#   From: 2010.05.17/outbox.cif.g08.bks.cpg/sg55_2_cif.got.tgz:2143.got - 2010.06.03 13:27:54.
