data_PCOD9428257
_publ_section_title
;
Structure prediction by ZEFSAII (Michael W. Deem and Ramdas Pophale) SiO2 
 PCOD9428257
Probable space group: P B A M
;
_chemical_formula_sum "Si O2"
_cell_formula_units_Z 40
_cell_length_a 5.047928
_cell_length_b 24.381156
_cell_length_c 14.605014
_cell_angle_alpha 90.000000
_cell_angle_beta 90.000000
_cell_angle_gamma 90.000000
_cell_volume 1797.502167
_symmetry_space_group_name_H-M "P B A M"
_symmetry_group_IT_number 55
_symmetry_cell_setting 'orthorhombic'
loop_
_space_group_symop_operation_xyz
x,y,z
-x,-y,z
1/2+x,1/2-y,-z
1/2-x,1/2+y,-z
-x,-y,-z
x,y,-z
1/2-x,1/2+y,z
1/2+x,1/2-y,z
loop_
_atom_site_type_symbol
_atom_site_label
_atom_site_fract_x
_atom_site_fract_y
_atom_site_fract_z
Si Si1 0.913785 0.211966 0.296929
Si Si2 0.988443 0.787738 0.900739
Si Si3 0.750904 0.960122 0.899761
Si Si4 0.381490 0.395394 0.393469
Si Si5 0.378924 0.061286 0.293735
O O1 0.126606 0.260747 0.302669
O O2 0.949433 0.184404 0.195996
O O3 0.966120 0.166988 0.373568
O O4 0.690685 0.764297 0.899082
O O5 0.035579 0.814947 0.000000
O O6 0.694346 0.923833 0.810964
O O7 0.500000 0.000000 0.906500
O O8 0.786472 0.933665 0.000000
O O9 0.000000 0.000000 0.881706
O O10 0.340918 0.406449 0.500000
O O11 0.612718 0.433322 0.352460
O O12 0.109242 0.402832 0.338140
O O13 0.500000 0.000000 0.293891
#
# Coordination Sequence:
#
# PCOD9428257 Si02
#       5
#     8   8   8   8   8
#     4  10  21  39  61  84 116 155 195 247 307 361
#     4   8  14  27  50  78 107 142 181 225 284 350
#     4   9  17  33  60  90 120 157 196 238 296 362
#     4  12  26  41  61  90 120 158 213 262 302 359
#     4  11  23  42  64  89 124 161 199 250 309 366
#
# _framework density 22.2531
#
# number of rings (size 3 to 8) (size 9 to 14) (size 15 to 20)
#    0.000    2.000    0.000    4.800    0.000    3.200 
#    0.000    2.000    0.000    2.400    0.000    0.000 
#    0.000    0.000    0.000    0.000    0.000    0.000 
#
# Total GULP energy -223352.241246 kJ/mol
# GULP energy per Si atom -5583.806031 kJ/mol
# Density = 2.220245 g / cm^3
# Si number density = 22.253100 Si / 1000 Ang^3
#
#
#
# Elastic Constant Matrix: (Units=GPa)
#
#
# Indices 1 2 3 4 5 6 
#
# 1 131.3353 10.2534 46.3713 0.0000 0.0000 0.0000
# 2 10.2534 37.6411 30.5257 0.0000 0.0000 0.0000
# 3 46.3713 30.5257 174.7320 0.0000 0.0000 0.0000
# 4 0.0000 0.0000 0.0000 33.3297 0.0000 0.0000
# 5 0.0000 0.0000 0.0000 0.0000 22.9678 0.0000
# 6 0.0000 0.0000 0.0000 0.0000 0.0000 20.9806
#
#
#
# Elastic Compliance Matrix: (Units=1/GPa)
#
#
# Indices 1 2 3 4 5 6 
#
# 1 0.008411 -0.000560 -0.002134 0.000000 0.000000 0.000000
# 2 -0.000560 0.030989 -0.005265 0.000000 0.000000 0.000000
# 3 -0.002134 -0.005265 0.007209 0.000000 0.000000 0.000000
# 4 0.000000 0.000000 0.000000 0.030003 0.000000 0.000000
# 5 0.000000 0.000000 0.000000 0.000000 0.043539 0.000000
# 6 0.000000 0.000000 0.000000 0.000000 0.000000 0.047663
#
#
# Mechanical properties :
#
#
# Convention : Reuss Voigt Hill
#
# Bulk Modulus (GPa) = 32.58362 57.55656 45.07009
# Shear Modulus (GPa) = 25.77780 32.55948 29.16864
#
# Velocity S-wave (km/s) = 3.40721 3.82926 3.62438
# Velocity P-wave (km/s) = 5.49116 6.74326 6.14916
#
# Compressibility (1/GPa) = 0.03069027
#
# Stress axis : x y z
#
# Youngs Moduli (GPa) = 118.88563 32.26932 138.70978
#
# Poissons Ratio (x) = 0.01808 0.29606
# Poissons Ratio (y) = 0.06662 0.73032
# Poissons Ratio (z) = 0.25375 0.16990
#
# Static dielectric constant tensor:
#      x y z
#    x 1.768870 0.000000 0.000000 
#    y 0.000000 1.861110 0.000000 
#    z 0.000000 0.000000 1.885150 
# 
# From -- ./inp_files/16550.got.cif
#   From: 2010.05.17/outbox.cif.g08.bks.cpg/sg55_9_cif.got.tgz:16550.got - 2010.06.03 13:27:54.
