data_PCOD9428373
_publ_section_title
;
Structure prediction by ZEFSAII (Michael W. Deem and Ramdas Pophale) SiO2 
 PCOD9428373
Probable space group: P B A M
;
_chemical_formula_sum "Si O2"
_cell_formula_units_Z 48
_cell_length_a 9.494546
_cell_length_b 28.957789
_cell_length_c 8.663844
_cell_angle_alpha 90.000000
_cell_angle_beta 90.000000
_cell_angle_gamma 90.000000
_cell_volume 2382.046451
_symmetry_space_group_name_H-M "P B A M"
_symmetry_group_IT_number 55
_symmetry_cell_setting 'orthorhombic'
loop_
_space_group_symop_operation_xyz
x,y,z
-x,-y,z
1/2+x,1/2-y,-z
1/2-x,1/2+y,-z
-x,-y,-z
x,y,-z
1/2-x,1/2+y,z
1/2+x,1/2-y,z
loop_
_atom_site_type_symbol
_atom_site_label
_atom_site_fract_x
_atom_site_fract_y
_atom_site_fract_z
Si Si1 0.005063 0.361415 0.314906
Si Si2 0.301280 0.221884 0.686366
Si Si3 0.902296 0.457444 0.181924
Si Si4 0.317811 0.381120 0.313176
Si Si5 0.493490 0.302173 0.815986
Si Si6 0.336412 0.488246 0.678138
O O1 0.008538 0.359709 0.500000
O O2 0.904691 0.319910 0.263506
O O3 0.942045 0.410261 0.264281
O O4 0.167748 0.359472 0.263264
O O5 0.297085 0.224224 0.500000
O O6 0.373764 0.267861 0.750777
O O7 0.144344 0.212655 0.747275
O O8 0.747280 0.475253 0.220273
O O9 0.000000 0.500000 0.235610
O O10 0.923184 0.451257 0.000000
O O11 0.329817 0.378382 0.500000
O O12 0.445437 0.352924 0.239283
O O13 0.314813 0.435259 0.271545
O O14 0.498749 0.299857 0.000000
O O15 0.500000 0.500000 0.680538
O O16 0.286206 0.491896 0.500000
#
# Coordination Sequence:
#
# PCOD9428373 Si02
#       6
#     8   8   8   8   8   8
#     4  10  22  40  66  92 118 161 214 262 306 363
#     4  11  24  44  69  95 124 164 213 259 308 377
#     4  11  23  38  59  90 127 166 205 253 316 377
#     4  10  21  40  64  91 125 167 214 263 312 371
#     4  12  26  43  66  97 132 165 202 257 323 380
#     4  10  22  39  62  90 122 165 217 265 308 364
#
# _framework density 20.150741
#
# number of rings (size 3 to 8) (size 9 to 14) (size 15 to 20)
#    0.000    1.333    1.667    3.500    2.333    5.000 
#    0.000    0.000    0.000    0.000    0.000    0.000 
#    0.000    0.000    0.000    0.000    0.000    0.000 
#
# Total GULP energy -268394.652489 kJ/mol
# GULP energy per Si atom -5591.555260 kJ/mol
# Density = 2.010488 g / cm^3
# Si number density = 20.150741 Si / 1000 Ang^3
#
#
#
# Elastic Constant Matrix: (Units=GPa)
#
#
# Indices 1 2 3 4 5 6 
#
# 1 94.5562 14.5878 21.2104 0.0000 0.0000 0.0000
# 2 14.5878 67.9783 6.4278 0.0000 0.0000 0.0000
# 3 21.2104 6.4278 27.6510 0.0000 0.0000 0.0000
# 4 0.0000 0.0000 0.0000 -22.3495 0.0000 0.0000
# 5 0.0000 0.0000 0.0000 0.0000 17.9824 0.0000
# 6 0.0000 0.0000 0.0000 0.0000 0.0000 38.3592
#
#
#
# Elastic Compliance Matrix: (Units=1/GPa)
#
#
# Indices 1 2 3 4 5 6 
#
# 1 0.013007 -0.001889 -0.009538 0.000000 0.000000 0.000000
# 2 -0.001889 0.015316 -0.002111 0.000000 0.000000 0.000000
# 3 -0.009538 -0.002111 0.043972 0.000000 0.000000 0.000000
# 4 0.000000 0.000000 0.000000 -0.044744 0.000000 0.000000
# 5 0.000000 0.000000 0.000000 0.000000 0.055610 0.000000
# 6 0.000000 0.000000 0.000000 0.000000 0.000000 0.026069
#
#
# Mechanical properties :
#
#
# Convention : Reuss Voigt Hill
#
# Bulk Modulus (GPa) = 22.11520 30.51530 26.31525
# Shear Modulus (GPa) = 33.02968 16.66239 24.84604
#
# Velocity S-wave (km/s) = 4.05301 2.87868 3.51523
# Velocity P-wave (km/s) = 5.73596 5.12108 5.43722
#
# Compressibility (1/GPa) = 0.04521777
#
# Stress axis : x y z
#
# Youngs Moduli (GPa) = 76.88349 65.29273 22.74173
#
# Poissons Ratio (x) = 0.12336 0.21691
# Poissons Ratio (y) = 0.14526 0.04801
# Poissons Ratio (z) = 0.73331 0.13784
#
# Static dielectric constant tensor:
#      x y z
#    x 1.723460 0.000000 0.000000 
#    y 0.000000 1.696480 0.000000 
#    z 0.000000 0.000000 1.689050 
# 
# From -- ./inp_files/2898.got.cif
#   From: 2010.05.17/outbox.cif.g08.bks.cpg/sg55_2_cif.got.tgz:2898.got - 2010.06.03 13:27:54.
