data_PCOD9428613
_publ_section_title
;
Structure prediction by ZEFSAII (Michael W. Deem and Ramdas Pophale) SiO2 
 PCOD9428613
Probable space group: P B A M
;
_chemical_formula_sum "Si O2"
_cell_formula_units_Z 32
_cell_length_a 14.292565
_cell_length_b 12.542399
_cell_length_c 9.279759
_cell_angle_alpha 90.000000
_cell_angle_beta 90.000000
_cell_angle_gamma 90.000000
_cell_volume 1663.517929
_symmetry_space_group_name_H-M "P B A M"
_symmetry_group_IT_number 55
_symmetry_cell_setting 'orthorhombic'
loop_
_space_group_symop_operation_xyz
x,y,z
-x,-y,z
1/2+x,1/2-y,-z
1/2-x,1/2+y,-z
-x,-y,-z
x,y,-z
1/2-x,1/2+y,z
1/2+x,1/2-y,z
loop_
_atom_site_type_symbol
_atom_site_label
_atom_site_fract_x
_atom_site_fract_y
_atom_site_fract_z
Si Si1 0.075896 0.403291 0.336378
Si Si2 0.607459 0.526225 0.669374
Si Si3 0.597556 0.775942 0.670568
Si Si4 0.784996 0.455893 0.171163
O O1 0.112002 0.390497 0.500000
O O2 0.157069 0.441879 0.231630
O O3 0.000000 0.500000 0.337825
O O4 0.011555 0.302706 0.296076
O O5 0.500000 0.500000 0.701403
O O6 0.624067 0.502022 0.500000
O O7 0.619734 0.652773 0.690994
O O8 0.681279 0.464194 0.765859
O O9 0.608955 0.802013 0.500000
O O10 0.662644 0.853168 0.763023
O O11 0.786936 0.453763 0.000000
#
# Coordination Sequence:
#
# PCOD9428613 Si02
#       4
#     8   8   8   8
#     4   8  15  31  55  81 107 139 184 231 270 315
#     4  10  22  40  60  82 109 145 191 237 279 325
#     4   9  19  37  60  83 109 145 189 235 278 323
#     4  11  22  35  55  85 118 150 184 224 277 340
#
# _framework density 19.236343000000002
#
# number of rings (size 3 to 8) (size 9 to 14) (size 15 to 20)
#    0.000    2.500    0.000    3.750    0.000    8.000 
#    0.000    5.000    0.000    0.000    0.000    0.000 
#    0.000    0.000    0.000    0.000    0.000    0.000 
#
# Total GULP energy -178631.662988 kJ/mol
# GULP energy per Si atom -5582.239468 kJ/mol
# Density = 1.919256 g / cm^3
# Si number density = 19.236343 Si / 1000 Ang^3
#
#
#
# Elastic Constant Matrix: (Units=GPa)
#
#
# Indices 1 2 3 4 5 6 
#
# 1 110.3140 38.1266 92.7109 0.0000 0.0000 0.0000
# 2 38.1266 42.6462 51.1962 0.0000 0.0000 0.0000
# 3 92.7109 51.1962 125.6898 0.0000 0.0000 0.0000
# 4 0.0000 0.0000 0.0000 5.5425 0.0000 0.0000
# 5 0.0000 0.0000 0.0000 0.0000 -89.8783 0.0000
# 6 0.0000 0.0000 0.0000 0.0000 0.0000 21.6750
#
#
#
# Elastic Compliance Matrix: (Units=1/GPa)
#
#
# Indices 1 2 3 4 5 6 
#
# 1 0.023853 -0.000398 -0.017433 0.000000 0.000000 0.000000
# 2 -0.000398 0.045893 -0.018400 0.000000 0.000000 0.000000
# 3 -0.017433 -0.018400 0.028309 0.000000 0.000000 0.000000
# 4 0.000000 0.000000 0.000000 0.180425 0.000000 0.000000
# 5 0.000000 0.000000 0.000000 0.000000 -0.011126 0.000000
# 6 0.000000 0.000000 0.000000 0.000000 0.000000 0.046136
#
#
# Mechanical properties :
#
#
# Convention : Reuss Voigt Hill
#
# Bulk Modulus (GPa) = 39.06967 71.41307 55.24137
# Shear Modulus (GPa) = 12.67483 -6.09107 3.29188
#
# Velocity S-wave (km/s) = 2.56969 -1.78138 1.30958
# Velocity P-wave (km/s) = 5.39989 5.74226 5.57371
#
# Compressibility (1/GPa) = 0.02559530
#
# Stress axis : x y z
#
# Youngs Moduli (GPa) = 41.92282 21.78978 35.32407
#
# Poissons Ratio (x) = 0.00867 0.61579
# Poissons Ratio (y) = 0.01668 0.64996
# Poissons Ratio (z) = 0.73082 0.40093
#
# Static dielectric constant tensor:
#      x y z
#    x 1.687180 0.000000 0.000000 
#    y 0.000000 1.706190 0.000000 
#    z 0.000000 0.000000 1.634290 
# 
# From -- ./inp_files/3329.got.cif
#   From: 2010.05.17/outbox.cif.g08.bks.cpg/sg55_2_cif.got.tgz:3329.got - 2010.06.03 13:27:54.
