data_PCOD9428081
_publ_section_title
;
Structure prediction by ZEFSAII (Michael W. Deem and Ramdas Pophale) SiO2 
 PCOD9428081
Probable space group: P B A M
;
_chemical_formula_sum "Si O2"
_cell_formula_units_Z 40
_cell_length_a 4.868889
_cell_length_b 10.699883
_cell_length_c 29.557698
_cell_angle_alpha 90.000000
_cell_angle_beta 90.000000
_cell_angle_gamma 90.000000
_cell_volume 1539.853874
_symmetry_space_group_name_H-M "P B A M"
_symmetry_group_IT_number 55
_symmetry_cell_setting 'orthorhombic'
loop_
_space_group_symop_operation_xyz
x,y,z
-x,-y,z
1/2+x,1/2-y,-z
1/2-x,1/2+y,-z
-x,-y,-z
x,y,-z
1/2-x,1/2+y,z
1/2+x,1/2-y,z
loop_
_atom_site_type_symbol
_atom_site_label
_atom_site_fract_x
_atom_site_fract_y
_atom_site_fract_z
Si Si1 0.000000 0.500000 0.183023
Si Si2 0.319765 0.159707 0.548617
Si Si3 0.805103 0.840335 0.642996
Si Si4 0.861528 0.334939 0.263488
Si Si5 0.281176 0.169806 0.949729
Si Si6 0.500000 0.500000 0.875759
O O1 0.161083 0.591688 0.217088
O O2 0.749876 0.558047 0.153891
O O3 0.272899 0.095969 0.500000
O O4 0.621929 0.218386 0.549330
O O5 0.255032 0.091548 0.595669
O O6 0.607020 0.717643 0.642712
O O7 0.230618 0.595450 0.690437
O O8 0.172434 0.287651 0.264246
O O9 0.601405 0.202792 0.947495
O O10 0.167739 0.091639 0.908475
O O11 0.228359 0.116046 0.000000
#
# Coordination Sequence:
#
# PCOD9428081 Si02
#       6
#     4   8   8   8   8   4
#     4  12  26  38  57  86 111 150 192 224 280 326
#     4   8  12  18  31  55  85 113 149 199 251 309
#     4   8  14  25  42  62  87 125 165 206 261 313
#     4  10  21  38  56  75 106 143 184 232 272 322
#     4  10  22  41  65  91 119 153 188 222 268 323
#     4  12  25  40  60  88 120 148 185 232 272 320
#
# _framework density 25.976490999999999
#
# number of rings (size 3 to 8) (size 9 to 14) (size 15 to 20)
#    0.000    2.400    0.000    2.700    0.000    4.800 
#    0.000    4.000    0.000    0.000    0.000    0.700 
#    0.000    0.000    0.000   69.000    0.000    4.800 
#
# Total GULP energy -223501.354732 kJ/mol
# GULP energy per Si atom -5587.533868 kJ/mol
# Density = 2.591737 g / cm^3
# Si number density = 25.976491 Si / 1000 Ang^3
#
#
#
# Elastic Constant Matrix: (Units=GPa)
#
#
# Indices 1 2 3 4 5 6 
#
# 1 104.3282 13.2597 26.9671 0.0000 0.0000 0.0000
# 2 13.2597 32.9028 24.1646 0.0000 0.0000 0.0000
# 3 26.9671 24.1646 195.9021 0.0000 0.0000 0.0000
# 4 0.0000 0.0000 0.0000 175.6936 0.0000 0.0000
# 5 0.0000 0.0000 0.0000 0.0000 50.9638 0.0000
# 6 0.0000 0.0000 0.0000 0.0000 0.0000 36.9664
#
#
#
# Elastic Compliance Matrix: (Units=1/GPa)
#
#
# Indices 1 2 3 4 5 6 
#
# 1 0.010276 -0.003411 -0.000994 0.000000 0.000000 0.000000
# 2 -0.003411 0.034553 -0.003792 0.000000 0.000000 0.000000
# 3 -0.000994 -0.003792 0.005709 0.000000 0.000000 0.000000
# 4 0.000000 0.000000 0.000000 0.005692 0.000000 0.000000
# 5 0.000000 0.000000 0.000000 0.000000 0.019622 0.000000
# 6 0.000000 0.000000 0.000000 0.000000 0.000000 0.027052
#
#
# Mechanical properties :
#
#
# Convention : Reuss Voigt Hill
#
# Bulk Modulus (GPa) = 29.28908 51.32400 40.30654
# Shear Modulus (GPa) = 38.26199 70.64085 54.45142
#
# Velocity S-wave (km/s) = 3.84206 5.22046 4.58337
# Velocity P-wave (km/s) = 5.56611 7.49255 6.60000
#
# Compressibility (1/GPa) = 0.03414242
#
# Stress axis : x y z
#
# Youngs Moduli (GPa) = 97.31839 28.94146 175.15627
#
# Poissons Ratio (x) = 0.09873 0.17406
# Poissons Ratio (y) = 0.33197 0.66428
# Poissons Ratio (z) = 0.09671 0.10976
#
# Static dielectric constant tensor:
#      x y z
#    x 1.942670 0.000000 0.000000 
#    y 0.000000 2.735940 0.000000 
#    z 0.000000 0.000000 2.140800 
# 
# From -- ./inp_files/23751.got.cif
#   From: 2010.05.17/outbox.cif.g08.bks.cpg/sg55_12_cif.got.tgz:23751.got - 2010.06.03 13:27:54.
