data_PCOD9428310
_publ_section_title
;
Structure prediction by ZEFSAII (Michael W. Deem and Ramdas Pophale) SiO2 
 PCOD9428310
Probable space group: P B A M
;
_chemical_formula_sum "Si O2"
_cell_formula_units_Z 48
_cell_length_a 18.187090
_cell_length_b 8.736620
_cell_length_c 15.002400
_cell_angle_alpha 90.000000
_cell_angle_beta 90.000000
_cell_angle_gamma 90.000000
_cell_volume 2383.786758
_symmetry_space_group_name_H-M "P B A M"
_symmetry_group_IT_number 55
_symmetry_cell_setting 'orthorhombic'
loop_
_space_group_symop_operation_xyz
x,y,z
-x,-y,z
1/2+x,1/2-y,-z
1/2-x,1/2+y,-z
-x,-y,-z
x,y,-z
1/2-x,1/2+y,z
1/2+x,1/2-y,z
loop_
_atom_site_type_symbol
_atom_site_label
_atom_site_fract_x
_atom_site_fract_y
_atom_site_fract_z
Si Si1 0.575931 0.902846 0.500000
Si Si2 0.650118 0.395680 0.148822
Si Si3 0.195329 0.756164 0.149376
Si Si4 0.541100 0.344452 0.500000
Si Si5 0.818219 0.275113 0.640945
Si Si6 0.157520 0.085643 0.358881
Si Si7 0.553511 0.248371 0.000000
Si Si8 0.396393 0.103533 0.000000
O O1 0.531950 0.749571 0.500000
O O2 0.628772 0.891033 0.413406
O O3 0.500000 0.000000 0.500000
O O4 0.718841 0.280919 0.136188
O O5 0.676192 0.568313 0.126507
O O6 0.636320 0.400721 0.254879
O O7 0.584289 0.338454 0.086297
O O8 0.174337 0.721068 0.251929
O O9 0.150499 0.644871 0.086174
O O10 0.500000 0.500000 0.500000
O O11 0.594591 0.333940 0.584028
O O12 0.734691 0.328959 0.623625
O O13 0.832391 0.095508 0.617343
O O14 0.466813 0.216728 0.000000
O O15 0.583947 0.074660 0.000000
#
# Coordination Sequence:
#
# PCOD9428310 Si02
#       8
#     4   8   8   4   8   8   4   4
#     4  12  27  42  58  94 127 164 206 252 311 371
#     4  10  21  39  64  92 118 157 206 249 302 357
#     4  10  21  39  65  90 119 158 203 254 296 361
#     4  12  23  42  62  88 129 164 200 253 313 367
#     4  10  22  42  64  93 122 161 212 254 306 367
#     4  10  22  40  67  91 122 164 207 256 306 367
#     4  11  24  41  58  89 125 161 200 249 308 365
#     4  11  24  41  58  87 125 163 200 249 310 357
#
# _framework density 20.136030000000002
#
# number of rings (size 3 to 8) (size 9 to 14) (size 15 to 20)
#    0.000    1.500    1.667    2.500    2.333    4.000 
#    3.000    0.000    0.000    0.000    0.000    0.000 
#    0.000    0.000    0.000    0.000    0.000    0.000 
#
# Total GULP energy -267729.819759 kJ/mol
# GULP energy per Si atom -5577.704578 kJ/mol
# Density = 2.009020 g / cm^3
# Si number density = 20.136030 Si / 1000 Ang^3
#
#
#
# Elastic Constant Matrix: (Units=GPa)
#
#
# Indices 1 2 3 4 5 6 
#
# 1 74.8996 -12.3488 44.2089 0.0000 0.0000 0.0000
# 2 -12.3488 29.2752 2.0510 0.0000 0.0000 0.0000
# 3 44.2089 2.0510 68.9528 0.0000 0.0000 0.0000
# 4 0.0000 0.0000 0.0000 28.3549 0.0000 0.0000
# 5 0.0000 0.0000 0.0000 0.0000 546.5312 0.0000
# 6 0.0000 0.0000 0.0000 0.0000 0.0000 41.6303
#
#
#
# Elastic Compliance Matrix: (Units=1/GPa)
#
#
# Indices 1 2 3 4 5 6 
#
# 1 0.024898 0.011645 -0.016309 0.000000 0.000000 0.000000
# 2 0.011645 0.039676 -0.008646 0.000000 0.000000 0.000000
# 3 -0.016309 -0.008646 0.025217 0.000000 0.000000 0.000000
# 4 0.000000 0.000000 0.000000 0.035267 0.000000 0.000000
# 5 0.000000 0.000000 0.000000 0.000000 0.001830 0.000000
# 6 0.000000 0.000000 0.000000 0.000000 0.000000 0.024021
#
#
# Mechanical properties :
#
#
# Convention : Reuss Voigt Hill
#
# Bulk Modulus (GPa) = 15.83055 26.77220 21.30138
# Shear Modulus (GPa) = 25.17797 132.58437 78.88117
#
# Velocity S-wave (km/s) = 3.53993 8.12326 6.26571
# Velocity P-wave (km/s) = 4.95853 10.06517 7.93393
#
# Compressibility (1/GPa) = 0.06316898
#
# Stress axis : x y z
#
# Youngs Moduli (GPa) = 40.16455 25.20393 39.65648
#
# Poissons Ratio (x) = -0.29350 0.64677
# Poissons Ratio (y) = -0.46771 0.34288
# Poissons Ratio (z) = 0.65506 0.21792
#
# Static dielectric constant tensor:
#      x y z
#    x 1.672560 0.000000 0.000000 
#    y 0.000000 1.701080 0.000000 
#    z 0.000000 0.000000 1.683410 
# 
# From -- ./inp_files/17434.got.cif
#   From: 2010.05.17/outbox.cif.g08.bks.cpg/sg55_9_cif.got.tgz:17434.got - 2010.06.03 13:27:54.
