data_PCOD9428602
_publ_section_title
;
Structure prediction by ZEFSAII (Michael W. Deem and Ramdas Pophale) SiO2 
 PCOD9428602
Probable space group: P B A M
;
_chemical_formula_sum "Si O2"
_cell_formula_units_Z 48
_cell_length_a 7.497176
_cell_length_b 32.667166
_cell_length_c 8.369852
_cell_angle_alpha 90.000000
_cell_angle_beta 90.000000
_cell_angle_gamma 90.000000
_cell_volume 2049.872949
_symmetry_space_group_name_H-M "P B A M"
_symmetry_group_IT_number 55
_symmetry_cell_setting 'orthorhombic'
loop_
_space_group_symop_operation_xyz
x,y,z
-x,-y,z
1/2+x,1/2-y,-z
1/2-x,1/2+y,-z
-x,-y,-z
x,y,-z
1/2-x,1/2+y,z
1/2+x,1/2-y,z
loop_
_atom_site_type_symbol
_atom_site_label
_atom_site_fract_x
_atom_site_fract_y
_atom_site_fract_z
Si Si1 0.963073 0.452296 0.000000
Si Si2 0.958607 0.407678 0.323069
Si Si3 0.768367 0.810828 0.313527
Si Si4 0.578249 0.735703 0.817630
Si Si5 0.216970 0.334337 0.323114
Si Si6 0.960925 0.951969 0.000000
Si Si7 0.059937 0.110914 0.257440
O O1 0.022627 0.432663 0.832055
O O2 0.751155 0.446406 0.000000
O O3 0.000000 0.500000 0.000000
O O4 0.022985 0.421011 0.500000
O O5 0.741133 0.408976 0.331610
O O6 0.041596 0.362239 0.297209
O O7 0.740642 0.823326 0.500000
O O8 0.626856 0.781213 0.234277
O O9 0.834585 0.848078 0.200658
O O10 0.938722 0.781049 0.309643
O O11 0.734882 0.701562 0.799586
O O12 0.512923 0.734742 0.000000
O O13 0.201802 0.315903 0.500000
O O14 0.384654 0.366681 0.327788
O O15 0.020696 0.925009 0.150128
O O16 0.000000 0.000000 0.000000
#
# Coordination Sequence:
#
# PCOD9428602 Si02
#       7
#     4   8   8   8   8   4   8
#     4  10  24  42  66  99 129 163 211 260 333 411
#     4  10  22  41  66  96 128 169 216 268 326 391
#     4  11  23  41  63  88 130 177 214 266 324 385
#     4  11  24  38  59  93 127 166 219 266 314 375
#     4  10  22  39  64  94 127 173 217 260 322 383
#     4  10  24  42  68  99 127 171 209 268 345 407
#     4  10  22  40  67  92 129 167 222 269 326 389
#
# _framework density 23.416084999999999
#
# number of rings (size 3 to 8) (size 9 to 14) (size 15 to 20)
#    0.000    1.667    0.000    4.500   11.667    0.333 
#    0.000    0.000    0.000    5.000    0.000    0.000 
#    0.000    0.000    0.000    0.000    0.000    0.000 
#
# Total GULP energy -267263.762076 kJ/mol
# GULP energy per Si atom -5567.995043 kJ/mol
# Density = 2.336279 g / cm^3
# Si number density = 23.416085 Si / 1000 Ang^3
#
#
#
# Elastic Constant Matrix: (Units=GPa)
#
#
# Indices 1 2 3 4 5 6 
#
# 1 84.9818 -12.5270 1.7005 0.0000 0.0000 0.0000
# 2 -12.5270 142.2373 75.0821 0.0000 0.0000 0.0000
# 3 1.7005 75.0821 143.4956 0.0000 0.0000 0.0000
# 4 0.0000 0.0000 0.0000 45.3924 0.0000 0.0000
# 5 0.0000 0.0000 0.0000 0.0000 9.9033 0.0000
# 6 0.0000 0.0000 0.0000 0.0000 0.0000 39.6866
#
#
#
# Elastic Compliance Matrix: (Units=1/GPa)
#
#
# Indices 1 2 3 4 5 6 
#
# 1 0.012017 0.001566 -0.000962 0.000000 0.000000 0.000000
# 2 0.001566 0.009917 -0.005208 0.000000 0.000000 0.000000
# 3 -0.000962 -0.005208 0.009705 0.000000 0.000000 0.000000
# 4 0.000000 0.000000 0.000000 0.022030 0.000000 0.000000
# 5 0.000000 0.000000 0.000000 0.000000 0.100977 0.000000
# 6 0.000000 0.000000 0.000000 0.000000 0.000000 0.025197
#
#
# Mechanical properties :
#
#
# Convention : Reuss Voigt Hill
#
# Bulk Modulus (GPa) = 44.57730 55.46954 50.02342
# Shear Modulus (GPa) = 25.44159 39.42705 32.43432
#
# Velocity S-wave (km/s) = 3.29979 4.10782 3.72577
# Velocity P-wave (km/s) = 5.79625 6.79992 6.31805
#
# Compressibility (1/GPa) = 0.02243294
#
# Stress axis : x y z
#
# Youngs Moduli (GPa) = 83.21316 100.83286 103.03845
#
# Poissons Ratio (x) = -0.15792 0.09911
# Poissons Ratio (y) = -0.13032 0.53659
# Poissons Ratio (z) = 0.08004 0.52511
#
# Static dielectric constant tensor:
#      x y z
#    x 2.586560 0.000000 0.000000 
#    y 0.000000 -3.893920 0.000000 
#    z 0.000000 0.000000 1.874600 
# 
# From -- ./inp_files/2945.got.cif
#   From: 2010.05.17/outbox.cif.g08.bks.cpg/sg55_2_cif.got.tgz:2945.got - 2010.06.03 13:27:54.
