data_PCOD9428547
_publ_section_title
;
Structure prediction by ZEFSAII (Michael W. Deem and Ramdas Pophale) SiO2 
 PCOD9428547
Probable space group: P B A M
;
_chemical_formula_sum "Si O2"
_cell_formula_units_Z 28
_cell_length_a 9.569316
_cell_length_b 7.495047
_cell_length_c 15.003511
_cell_angle_alpha 90.000000
_cell_angle_beta 90.000000
_cell_angle_gamma 90.000000
_cell_volume 1076.088915
_symmetry_space_group_name_H-M "P B A M"
_symmetry_group_IT_number 55
_symmetry_cell_setting 'orthorhombic'
loop_
_space_group_symop_operation_xyz
x,y,z
-x,-y,z
1/2+x,1/2-y,-z
1/2-x,1/2+y,-z
-x,-y,-z
x,y,-z
1/2-x,1/2+y,z
1/2+x,1/2-y,z
loop_
_atom_site_type_symbol
_atom_site_label
_atom_site_fract_x
_atom_site_fract_y
_atom_site_fract_z
Si Si1 0.464211 0.287119 0.133002
Si Si2 0.976834 0.730813 0.332410
Si Si3 0.703314 0.202139 0.000000
Si Si4 0.287390 0.464883 0.602039
O O1 0.500000 0.500000 0.132321
O O2 0.465230 0.214840 0.232905
O O3 0.583955 0.191659 0.077232
O O4 0.322632 0.269955 0.077822
O O5 0.868988 0.581461 0.367186
O O6 0.106883 0.795032 0.392406
O O7 0.866499 0.897094 0.334290
O O8 0.291235 0.528372 0.500000
#
# Coordination Sequence:
#
# PCOD9428547 Si02
#       4
#     8   8   4   8
#     4  11  22  43  64  93 129 164 217 264 327 383
#     4  11  23  41  67  94 133 172 215 270 321 389
#     4  10  22  38  66  88 124 164 202 270 318 382
#     4  11  22  41  66  98 131 173 217 267 326 382
#
# _framework density 26.020154000000002
#
# number of rings (size 3 to 8) (size 9 to 14) (size 15 to 20)
#    0.000    1.143    2.857    6.857    0.000    1.143 
#    0.000   14.286    0.000    0.000    0.000    0.000 
#    0.000    0.000    0.000    0.000    0.000    0.000 
#
# Total GULP energy -155875.063794 kJ/mol
# GULP energy per Si atom -5566.966564 kJ/mol
# Density = 2.596093 g / cm^3
# Si number density = 26.020154 Si / 1000 Ang^3
#
#
#
# Elastic Constant Matrix: (Units=GPa)
#
#
# Indices 1 2 3 4 5 6 
#
# 1 213.3336 -15.9729 44.2178 0.0000 0.0000 0.0000
# 2 -15.9729 69.0436 -12.9871 0.0000 0.0000 0.0000
# 3 44.2178 -12.9871 193.7667 0.0000 0.0000 0.0000
# 4 0.0000 0.0000 0.0000 6.3014 0.0000 0.0000
# 5 0.0000 0.0000 0.0000 0.0000 145.2074 0.0000
# 6 0.0000 0.0000 0.0000 0.0000 0.0000 21.0241
#
#
#
# Elastic Compliance Matrix: (Units=1/GPa)
#
#
# Indices 1 2 3 4 5 6 
#
# 1 0.004981 0.000951 -0.001073 0.000000 0.000000 0.000000
# 2 0.000951 0.014850 0.000778 0.000000 0.000000 0.000000
# 3 -0.001073 0.000778 0.005458 0.000000 0.000000 0.000000
# 4 0.000000 0.000000 0.000000 0.158695 0.000000 0.000000
# 5 0.000000 0.000000 0.000000 0.000000 0.006887 0.000000
# 6 0.000000 0.000000 0.000000 0.000000 0.000000 0.047564
#
#
# Mechanical properties :
#
#
# Convention : Reuss Voigt Hill
#
# Bulk Modulus (GPa) = 37.59295 56.29551 46.94423
# Shear Modulus (GPa) = 20.32605 65.23233 42.77919
#
# Velocity S-wave (km/s) = 2.79797 5.01242 4.05912
# Velocity P-wave (km/s) = 4.99171 7.42842 6.32845
#
# Compressibility (1/GPa) = 0.02660073
#
# Stress axis : x y z
#
# Youngs Moduli (GPa) = 200.76051 67.34041 183.22162
#
# Poissons Ratio (x) = -0.06401 0.19659
# Poissons Ratio (y) = -0.19083 -0.14262
# Poissons Ratio (z) = 0.21541 -0.05242
#
# Static dielectric constant tensor:
#      x y z
#    x 1.945140 0.000000 0.000000 
#    y 0.000000 2.411360 0.000000 
#    z 0.000000 0.000000 1.892660 
# 
# From -- ./inp_files/16828.got.cif
#   From: 2010.05.17/outbox.cif.g08.bks.cpg/sg55_9_cif.got.tgz:16828.got - 2010.06.03 13:27:54.
