data_PCOD9428939
_publ_section_title
;
Structure prediction by ZEFSAII (Michael W. Deem and Ramdas Pophale) SiO2 
 PCOD9428939
Probable space group: P B A M
;
_chemical_formula_sum "Si O2"
_cell_formula_units_Z 40
_cell_length_a 9.943275
_cell_length_b 24.832941
_cell_length_c 7.874841
_cell_angle_alpha 90.000000
_cell_angle_beta 90.000000
_cell_angle_gamma 90.000000
_cell_volume 1944.461736
_symmetry_space_group_name_H-M "P B A M"
_symmetry_group_IT_number 55
_symmetry_cell_setting 'orthorhombic'
loop_
_space_group_symop_operation_xyz
x,y,z
-x,-y,z
1/2+x,1/2-y,-z
1/2-x,1/2+y,-z
-x,-y,-z
x,y,-z
1/2-x,1/2+y,z
1/2+x,1/2-y,z
loop_
_atom_site_type_symbol
_atom_site_label
_atom_site_fract_x
_atom_site_fract_y
_atom_site_fract_z
Si Si1 0.503454 0.083696 0.807348
Si Si2 0.778055 0.953184 0.197932
Si Si3 0.463649 0.642527 0.303924
Si Si4 0.556585 0.813957 0.000000
Si Si5 0.200092 0.929837 0.695210
Si Si6 0.140424 0.216710 0.000000
O O1 0.376517 0.050688 0.739159
O O2 0.642128 0.082078 0.709959
O O3 0.535102 0.063513 0.000000
O O4 0.453117 0.144766 0.840902
O O5 0.868981 0.910317 0.293703
O O6 0.827418 0.014102 0.211334
O O7 0.775145 0.936573 0.000000
O O8 0.468744 0.661654 0.500000
O O9 0.609369 0.619985 0.246457
O O10 0.408682 0.684908 0.168219
O O11 0.697882 0.783454 0.000000
O O12 0.431263 0.774234 0.000000
O O13 0.163143 0.938883 0.500000
#
# Coordination Sequence:
#
# PCOD9428939 Si02
#       6
#     8   8   8   4   8   4
#     4   9  20  40  58  90 122 162 211 259 308 377
#     4  11  20  38  62  90 130 173 217 251 313 375
#     4  11  24  42  63  95 133 165 213 261 309 382
#     4  10  24  44  71  95 114 160 217 259 327 390
#     4  11  24  35  56  97 132 172 213 249 307 376
#     4  12  24  48  71  95 120 166 207 267 337 364
#
# _framework density 20.571245000000001
#
# number of rings (size 3 to 8) (size 9 to 14) (size 15 to 20)
#    0.600    0.800    3.000    2.400    5.600    6.400 
#    0.000    2.000    0.000    0.000    0.000    0.000 
#    0.000    0.000    0.000    0.000    0.000    0.000 
#
# Total GULP energy -223371.045459 kJ/mol
# GULP energy per Si atom -5584.276136 kJ/mol
# Density = 2.052442 g / cm^3
# Si number density = 20.571245 Si / 1000 Ang^3
#
#
#
# Elastic Constant Matrix: (Units=GPa)
#
#
# Indices 1 2 3 4 5 6 
#
# 1 79.1068 2.1204 4.3742 0.0000 0.0000 0.0000
# 2 2.1204 52.0075 7.4583 0.0000 0.0000 0.0000
# 3 4.3742 7.4583 50.1203 0.0000 0.0000 0.0000
# 4 0.0000 0.0000 0.0000 17.3173 0.0000 0.0000
# 5 0.0000 0.0000 0.0000 0.0000 26.3121 0.0000
# 6 0.0000 0.0000 0.0000 0.0000 0.0000 34.9663
#
#
#
# Elastic Compliance Matrix: (Units=1/GPa)
#
#
# Indices 1 2 3 4 5 6 
#
# 1 0.012709 -0.000367 -0.001055 0.000000 0.000000 0.000000
# 2 -0.000367 0.019658 -0.002893 0.000000 0.000000 0.000000
# 3 -0.001055 -0.002893 0.020475 0.000000 0.000000 0.000000
# 4 0.000000 0.000000 0.000000 0.057746 0.000000 0.000000
# 5 0.000000 0.000000 0.000000 0.000000 0.038005 0.000000
# 6 0.000000 0.000000 0.000000 0.000000 0.000000 0.028599
#
#
# Mechanical properties :
#
#
# Convention : Reuss Voigt Hill
#
# Bulk Modulus (GPa) = 22.61816 23.23782 22.92799
# Shear Modulus (GPa) = 24.93038 26.87127 25.90082
#
# Velocity S-wave (km/s) = 3.48502 3.61813 3.55220
# Velocity P-wave (km/s) = 5.21658 5.36426 5.29094
#
# Compressibility (1/GPa) = 0.04421225
#
# Stress axis : x y z
#
# Youngs Moduli (GPa) = 78.68264 50.87019 48.84106
#
# Poissons Ratio (x) = 0.01867 0.05151
# Poissons Ratio (y) = 0.02887 0.14131
# Poissons Ratio (z) = 0.08298 0.14718
#
# Static dielectric constant tensor:
#      x y z
#    x 1.768420 0.000000 0.000000 
#    y 0.000000 1.720130 0.000000 
#    z 0.000000 0.000000 1.742800 
# 
# From -- ./inp_files/2554.got.cif
#   From: 2010.05.17/outbox.cif.g08.bks.cpg/sg55_2_cif.got.tgz:2554.got - 2010.06.03 13:27:54.
