data_PCOD9428279
_publ_section_title
;
Structure prediction by ZEFSAII (Michael W. Deem and Ramdas Pophale) SiO2 
 PCOD9428279
Probable space group: P B A M
;
_chemical_formula_sum "Si O2"
_cell_formula_units_Z 48
_cell_length_a 14.762024
_cell_length_b 4.832919
_cell_length_c 29.077464
_cell_angle_alpha 90.000000
_cell_angle_beta 90.000000
_cell_angle_gamma 90.000000
_cell_volume 2074.492888
_symmetry_space_group_name_H-M "P B A M"
_symmetry_group_IT_number 55
_symmetry_cell_setting 'orthorhombic'
loop_
_space_group_symop_operation_xyz
x,y,z
-x,-y,z
1/2+x,1/2-y,-z
1/2-x,1/2+y,-z
-x,-y,-z
x,y,-z
1/2-x,1/2+y,z
1/2+x,1/2-y,z
loop_
_atom_site_type_symbol
_atom_site_label
_atom_site_fract_x
_atom_site_fract_y
_atom_site_fract_z
Si Si1 0.811293 0.482901 0.446676
Si Si2 0.185364 0.086999 0.287656
Si Si3 0.307958 0.243790 0.136630
Si Si4 0.433865 0.257988 0.948183
Si Si5 0.562192 0.244573 0.628920
Si Si6 0.559528 0.738003 0.216644
O O1 0.838155 0.518193 0.500000
O O2 0.778541 0.170574 0.439250
O O3 0.886724 0.589687 0.412265
O O4 0.273543 0.892445 0.281003
O O5 0.111015 0.942264 0.255323
O O6 0.136023 0.121559 0.336723
O O7 0.282639 0.564506 0.140191
O O8 0.355647 0.198876 0.087966
O O9 0.370434 0.156181 0.178889
O O10 0.500000 0.500000 0.931430
O O11 0.500000 0.000000 0.951271
O O12 0.400781 0.326701 0.000000
O O13 0.500000 0.500000 0.613524
O O14 0.500000 0.000000 0.651215
O O15 0.500000 0.500000 0.192502
O O16 0.500000 0.000000 0.232863
#
# Coordination Sequence:
#
# PCOD9428279 Si02
#       6
#     8   8   8   8   8   8
#     4  10  21  40  65  93 128 172 218 263 318 380
#     4  12  25  44  67  92 126 166 213 265 323 385
#     4  12  24  40  63  94 129 165 211 262 320 383
#     4  10  21  39  62  89 125 170 215 259 314 377
#     4  12  25  41  64  96 132 170 215 265 323 386
#     4  12  25  44  68  94 126 164 212 267 327 388
#
# _framework density 23.138183000000001
#
# number of rings (size 3 to 8) (size 9 to 14) (size 15 to 20)
#    0.000    0.667    0.000    8.500    0.000    2.667 
#    0.000    0.000    0.000    0.000    0.000    0.000 
#    0.000    0.000    0.000    0.000    0.000    0.000 
#
# Total GULP energy -268540.594320 kJ/mol
# GULP energy per Si atom -5594.595715 kJ/mol
# Density = 2.308552 g / cm^3
# Si number density = 23.138183 Si / 1000 Ang^3
#
#
#
# Elastic Constant Matrix: (Units=GPa)
#
#
# Indices 1 2 3 4 5 6 
#
# 1 59.8396 13.0026 36.8129 0.0000 0.0000 0.0000
# 2 13.0026 98.7935 6.7307 0.0000 0.0000 0.0000
# 3 36.8129 6.7307 99.5246 0.0000 0.0000 0.0000
# 4 0.0000 0.0000 0.0000 32.3954 0.0000 0.0000
# 5 0.0000 0.0000 0.0000 0.0000 38.5312 0.0000
# 6 0.0000 0.0000 0.0000 0.0000 0.0000 41.0775
#
#
#
# Elastic Compliance Matrix: (Units=1/GPa)
#
#
# Indices 1 2 3 4 5 6 
#
# 1 0.022173 -0.002370 -0.008041 0.000000 0.000000 0.000000
# 2 -0.002370 0.010422 0.000172 0.000000 0.000000 0.000000
# 3 -0.008041 0.000172 0.013011 0.000000 0.000000 0.000000
# 4 0.000000 0.000000 0.000000 0.030869 0.000000 0.000000
# 5 0.000000 0.000000 0.000000 0.000000 0.025953 0.000000
# 6 0.000000 0.000000 0.000000 0.000000 0.000000 0.024344
#
#
# Mechanical properties :
#
#
# Convention : Reuss Voigt Hill
#
# Bulk Modulus (GPa) = 39.79848 41.25001 40.52424
# Shear Modulus (GPa) = 32.12802 35.84158 33.98480
#
# Velocity S-wave (km/s) = 3.73034 3.94003 3.83662
# Velocity P-wave (km/s) = 5.98261 6.21006 6.09739
#
# Compressibility (1/GPa) = 0.02512659
#
# Stress axis : x y z
#
# Youngs Moduli (GPa) = 45.09912 95.94724 76.86081
#
# Poissons Ratio (x) = 0.22744 0.61806
# Poissons Ratio (y) = 0.10691 -0.01322
# Poissons Ratio (z) = 0.36266 -0.01650
#
# Static dielectric constant tensor:
#      x y z
#    x 1.900640 0.000000 0.000000 
#    y 0.000000 1.806190 0.000000 
#    z 0.000000 0.000000 1.839460 
# 
# From -- ./inp_files/23976.got.cif
#   From: 2010.05.17/outbox.cif.g08.bks.cpg/sg55_12_cif.got.tgz:23976.got - 2010.06.03 13:27:54.
