data_PCOD9428607
_publ_section_title
;
Structure prediction by ZEFSAII (Michael W. Deem and Ramdas Pophale) SiO2 
 PCOD9428607
Probable space group: P B A M
;
_chemical_formula_sum "Si O2"
_cell_formula_units_Z 32
_cell_length_a 18.619411
_cell_length_b 5.506994
_cell_length_c 12.790642
_cell_angle_alpha 90.000000
_cell_angle_beta 90.000000
_cell_angle_gamma 90.000000
_cell_volume 1311.513863
_symmetry_space_group_name_H-M "P B A M"
_symmetry_group_IT_number 55
_symmetry_cell_setting 'orthorhombic'
loop_
_space_group_symop_operation_xyz
x,y,z
-x,-y,z
1/2+x,1/2-y,-z
1/2-x,1/2+y,-z
-x,-y,-z
x,y,-z
1/2-x,1/2+y,z
1/2+x,1/2-y,z
loop_
_atom_site_type_symbol
_atom_site_label
_atom_site_fract_x
_atom_site_fract_y
_atom_site_fract_z
Si Si1 0.500000 0.500000 0.228248
Si Si2 0.701523 0.930677 0.500000
Si Si3 0.087075 0.349514 0.884805
Si Si4 0.224481 0.047332 0.120859
Si Si5 0.080507 0.620384 0.676111
O O1 0.514296 0.277327 0.151144
O O2 0.562590 0.595681 0.304136
O O3 0.750938 0.682222 0.500000
O O4 0.644479 0.924044 0.403939
O O5 0.142314 0.123994 0.886012
O O6 0.106296 0.511052 0.786466
O O7 0.085943 0.457745 0.000000
O O8 0.260725 0.286714 0.169172
O O9 0.252389 0.022432 0.000000
O O10 0.000000 0.500000 0.650349
#
# Coordination Sequence:
#
# PCOD9428607 Si02
#       5
#     4   4   8   8   8
#     4  10  23  41  68 100 148 197 257 298 374 448
#     4  12  31  53  86 118 150 190 256 336 397 456
#     4  10  22  39  66 104 148 196 248 304 362 441
#     4   9  19  34  53  82 123 175 227 279 343 413
#     4  10  25  48  75 109 152 202 254 311 387 464
#
# _framework density 24.399280999999998
#
# number of rings (size 3 to 8) (size 9 to 14) (size 15 to 20)
#    0.000    2.000    0.000    0.750   10.500    8.000 
#    0.000    0.000    0.000    0.000    0.000    0.000 
#    0.000    0.000    0.000    0.000    0.000    0.000 
#
# Total GULP energy -178432.088002 kJ/mol
# GULP energy per Si atom -5576.002750 kJ/mol
# Density = 2.434375 g / cm^3
# Si number density = 24.399281 Si / 1000 Ang^3
#
#
#
# Elastic Constant Matrix: (Units=GPa)
#
#
# Indices 1 2 3 4 5 6 
#
# 1 142.8808 55.1725 67.6821 0.0000 0.0000 0.0000
# 2 55.1725 131.4758 69.1675 0.0000 0.0000 0.0000
# 3 67.6821 69.1675 159.9914 0.0000 0.0000 0.0000
# 4 0.0000 0.0000 0.0000 14.1547 0.0000 0.0000
# 5 0.0000 0.0000 0.0000 0.0000 22.8974 0.0000
# 6 0.0000 0.0000 0.0000 0.0000 0.0000 62.9529
#
#
#
# Elastic Compliance Matrix: (Units=1/GPa)
#
#
# Indices 1 2 3 4 5 6 
#
# 1 0.009290 -0.002370 -0.002906 0.000000 0.000000 0.000000
# 2 -0.002370 0.010450 -0.003515 0.000000 0.000000 0.000000
# 3 -0.002906 -0.003515 0.008999 0.000000 0.000000 0.000000
# 4 0.000000 0.000000 0.000000 0.070648 0.000000 0.000000
# 5 0.000000 0.000000 0.000000 0.000000 0.043673 0.000000
# 6 0.000000 0.000000 0.000000 0.000000 0.000000 0.015885
#
#
# Mechanical properties :
#
#
# Convention : Reuss Voigt Hill
#
# Bulk Modulus (GPa) = 89.62188 90.93246 90.27717
# Shear Modulus (GPa) = 27.73995 36.15606 31.94801
#
# Velocity S-wave (km/s) = 3.37548 3.85366 3.62247
# Velocity P-wave (km/s) = 7.21130 7.55978 7.38760
#
# Compressibility (1/GPa) = 0.01115799
#
# Stress axis : x y z
#
# Youngs Moduli (GPa) = 107.63848 95.69636 111.12240
#
# Poissons Ratio (x) = 0.22680 0.32287
# Poissons Ratio (y) = 0.25511 0.39060
# Poissons Ratio (z) = 0.31275 0.33637
#
# Static dielectric constant tensor:
#      x y z
#    x 2.085000 0.000000 0.000000 
#    y 0.000000 2.012130 0.000000 
#    z 0.000000 0.000000 1.919870 
# 
# From -- ./inp_files/15133.got.cif
#   From: 2010.05.17/outbox.cif.g08.bks.cpg/sg55_8_cif.got.tgz:15133.got - 2010.06.03 13:27:54.
