data_PCOD9428781
_publ_section_title
;
Structure prediction by ZEFSAII (Michael W. Deem and Ramdas Pophale) SiO2 
 PCOD9428781
Probable space group: P B A M
;
_chemical_formula_sum "Si O2"
_cell_formula_units_Z 56
_cell_length_a 9.820100
_cell_length_b 13.814062
_cell_length_c 18.744679
_cell_angle_alpha 90.000000
_cell_angle_beta 90.000000
_cell_angle_gamma 90.000000
_cell_volume 2542.818244
_symmetry_space_group_name_H-M "P B A M"
_symmetry_group_IT_number 55
_symmetry_cell_setting 'orthorhombic'
loop_
_space_group_symop_operation_xyz
x,y,z
-x,-y,z
1/2+x,1/2-y,-z
1/2-x,1/2+y,-z
-x,-y,-z
x,y,-z
1/2-x,1/2+y,z
1/2+x,1/2-y,z
loop_
_atom_site_type_symbol
_atom_site_label
_atom_site_fract_x
_atom_site_fract_y
_atom_site_fract_z
Si Si1 0.902191 0.083315 0.840395
Si Si2 0.279121 0.226392 0.218585
Si Si3 0.126338 0.437819 0.084209
Si Si4 0.909490 0.094271 0.580883
Si Si5 0.013785 0.254026 0.310497
Si Si6 0.369879 0.706538 0.917556
Si Si7 0.902192 0.585905 0.417902
O O1 0.833941 0.162679 0.788934
O O2 0.771942 0.039702 0.880680
O O3 0.999337 0.143877 0.894433
O O4 0.000000 0.000000 0.809188
O O5 0.133973 0.219571 0.257769
O O6 0.400984 0.185554 0.265927
O O7 0.251341 0.188424 0.138979
O O8 0.101448 0.321884 0.091911
O O9 0.000000 0.500000 0.112676
O O10 0.138407 0.457381 0.000000
O O11 0.929358 0.134941 0.500000
O O12 0.754944 0.058534 0.585117
O O13 0.944864 0.170550 0.642101
O O14 0.000000 0.000000 0.588677
O O15 0.081518 0.323196 0.367848
O O16 0.334132 0.689459 0.000000
O O17 0.937548 0.609349 0.500000
O O18 0.000000 0.500000 0.394569
#
# Coordination Sequence:
#
# PCOD9428781 Si02
#       7
#     8   8   8   8   8   8   8
#     4  11  24  44  67  95 130 174 228 290 348 425
#     4  11  25  46  67  99 133 179 236 283 348 421
#     4   9  20  39  65  99 130 162 214 279 350 418
#     4  10  23  42  71 108 144 187 235 281 338 404
#     4  12  23  47  69  98 144 187 233 280 343 410
#     4  10  22  44  71  96 133 177 230 295 355 416
#     4  10  23  43  69 109 146 185 236 281 335 401
#
# _framework density 22.02281
#
# number of rings (size 3 to 8) (size 9 to 14) (size 15 to 20)
#    0.000    1.571    2.857    0.857    2.000    4.571 
#    2.571    5.000    0.000    0.000    0.000    0.000 
#    0.000    0.000    0.000    0.000    0.000    0.000 
#
# Total GULP energy -312972.288803 kJ/mol
# GULP energy per Si atom -5588.790871 kJ/mol
# Density = 2.197268 g / cm^3
# Si number density = 22.022810 Si / 1000 Ang^3
#
#
#
# Elastic Constant Matrix: (Units=GPa)
#
#
# Indices 1 2 3 4 5 6 
#
# 1 130.0677 26.7886 37.0174 0.0000 0.0000 0.0000
# 2 26.7886 54.1648 21.6612 0.0000 0.0000 0.0000
# 3 37.0174 21.6612 90.7847 0.0000 0.0000 0.0000
# 4 0.0000 0.0000 0.0000 17.3342 0.0000 0.0000
# 5 0.0000 0.0000 0.0000 0.0000 31.3534 0.0000
# 6 0.0000 0.0000 0.0000 0.0000 0.0000 45.8339
#
#
#
# Elastic Compliance Matrix: (Units=1/GPa)
#
#
# Indices 1 2 3 4 5 6 
#
# 1 0.009226 -0.003381 -0.002955 0.000000 0.000000 0.000000
# 2 -0.003381 0.021649 -0.003787 0.000000 0.000000 0.000000
# 3 -0.002955 -0.003787 0.013124 0.000000 0.000000 0.000000
# 4 0.000000 0.000000 0.000000 0.057690 0.000000 0.000000
# 5 0.000000 0.000000 0.000000 0.000000 0.031895 0.000000
# 6 0.000000 0.000000 0.000000 0.000000 0.000000 0.021818
#
#
# Mechanical properties :
#
#
# Convention : Reuss Voigt Hill
#
# Bulk Modulus (GPa) = 42.10134 49.55020 45.82577
# Shear Modulus (GPa) = 27.23860 31.54094 29.38977
#
# Velocity S-wave (km/s) = 3.52068 3.78854 3.65706
# Velocity P-wave (km/s) = 5.97374 6.45645 6.21978
#
# Compressibility (1/GPa) = 0.02375221
#
# Stress axis : x y z
#
# Youngs Moduli (GPa) = 108.39327 46.19203 76.19910
#
# Poissons Ratio (x) = 0.15618 0.22517
# Poissons Ratio (y) = 0.36648 0.28855
# Poissons Ratio (z) = 0.32031 0.17492
#
# Static dielectric constant tensor:
#      x y z
#    x 1.802890 0.000000 0.000000 
#    y 0.000000 1.828360 0.000000 
#    z 0.000000 0.000000 1.838290 
# 
# From -- ./inp_files/22612.got.cif
#   From: 2010.05.17/outbox.cif.g08.bks.cpg/sg55_12_cif.got.tgz:22612.got - 2010.06.03 13:27:54.
