data_PCOD9428634
_publ_section_title
;
Structure prediction by ZEFSAII (Michael W. Deem and Ramdas Pophale) SiO2 
 PCOD9428634
Probable space group: P B A M
;
_chemical_formula_sum "Si O2"
_cell_formula_units_Z 40
_cell_length_a 8.855670
_cell_length_b 13.881552
_cell_length_c 15.585953
_cell_angle_alpha 90.000000
_cell_angle_beta 90.000000
_cell_angle_gamma 90.000000
_cell_volume 1915.988116
_symmetry_space_group_name_H-M "P B A M"
_symmetry_group_IT_number 55
_symmetry_cell_setting 'orthorhombic'
loop_
_space_group_symop_operation_xyz
x,y,z
-x,-y,z
1/2+x,1/2-y,-z
1/2-x,1/2+y,-z
-x,-y,-z
x,y,-z
1/2-x,1/2+y,z
1/2+x,1/2-y,z
loop_
_atom_site_type_symbol
_atom_site_label
_atom_site_fract_x
_atom_site_fract_y
_atom_site_fract_z
Si Si1 0.504305 0.149141 0.000000
Si Si2 0.500000 0.500000 0.141490
Si Si3 0.759436 0.017506 0.269382
Si Si4 0.721853 0.364347 0.596958
Si Si5 0.357808 0.638098 0.000000
Si Si6 0.415681 0.847189 0.598039
Si Si7 0.500000 0.000000 0.145091
O O1 0.322364 0.148359 0.000000
O O2 0.551593 0.086668 0.083159
O O3 0.569181 0.256025 0.000000
O O4 0.616016 0.555641 0.203683
O O5 0.413333 0.575694 0.081365
O O6 0.830890 0.938413 0.331733
O O7 0.672082 0.091037 0.331261
O O8 0.634776 0.969763 0.207372
O O9 0.694022 0.399359 0.500000
O O10 0.640758 0.262074 0.605455
O O11 0.903479 0.353557 0.607540
O O12 0.380925 0.880313 0.500000
#
# Coordination Sequence:
#
# PCOD9428634 Si02
#       7
#     4   4   8   8   4   8   4
#     4  11  26  44  71  93 125 165 203 251 322 380
#     4  11  28  44  63  94 132 156 211 260 310 373
#     4  12  23  42  64  93 125 167 206 261 305 362
#     4  10  22  40  62  91 128 168 211 254 307 368
#     4  11  26  48  67  93 125 167 199 255 320 382
#     4  10  22  40  62  90 127 170 210 255 309 365
#     4  11  24  44  65  96 126 158 211 256 306 383
#
# _framework density 20.876956
#
# number of rings (size 3 to 8) (size 9 to 14) (size 15 to 20)
#    0.000    1.200    4.000    0.600    5.600    4.800 
#    0.000    1.000    0.000    0.000    0.000    0.000 
#    0.000    0.000    0.000    0.000    0.000    0.000 
#
# Total GULP energy -223591.730606 kJ/mol
# GULP energy per Si atom -5589.793265 kJ/mol
# Density = 2.082944 g / cm^3
# Si number density = 20.876956 Si / 1000 Ang^3
#
#
#
# Elastic Constant Matrix: (Units=GPa)
#
#
# Indices 1 2 3 4 5 6 
#
# 1 46.5386 3.9460 36.5264 0.0000 0.0000 0.0000
# 2 3.9460 81.7933 44.4552 0.0000 0.0000 0.0000
# 3 36.5264 44.4552 137.9058 0.0000 0.0000 0.0000
# 4 0.0000 0.0000 0.0000 198.9530 0.0000 0.0000
# 5 0.0000 0.0000 0.0000 0.0000 -35.0906 0.0000
# 6 0.0000 0.0000 0.0000 0.0000 0.0000 33.5445
#
#
#
# Elastic Compliance Matrix: (Units=1/GPa)
#
#
# Indices 1 2 3 4 5 6 
#
# 1 0.027812 0.003227 -0.008407 0.000000 0.000000 0.000000
# 2 0.003227 0.015198 -0.005754 0.000000 0.000000 0.000000
# 3 -0.008407 -0.005754 0.011333 0.000000 0.000000 0.000000
# 4 0.000000 0.000000 0.000000 0.005026 0.000000 0.000000
# 5 0.000000 0.000000 0.000000 0.000000 -0.028498 0.000000
# 6 0.000000 0.000000 0.000000 0.000000 0.000000 0.029811
#
#
# Mechanical properties :
#
#
# Convention : Reuss Voigt Hill
#
# Bulk Modulus (GPa) = 30.79214 48.45476 39.62345
# Shear Modulus (GPa) = 53.54808 51.56873 52.55840
#
# Velocity S-wave (km/s) = 5.07002 4.97543 5.02294
# Velocity P-wave (km/s) = 7.00391 7.50111 7.25677
#
# Compressibility (1/GPa) = 0.03247582
#
# Stress axis : x y z
#
# Youngs Moduli (GPa) = 35.95560 65.80021 88.23929
#
# Poissons Ratio (x) = -0.21236 0.74181
# Poissons Ratio (y) = -0.11604 0.50772
# Poissons Ratio (z) = 0.30227 0.37861
#
# Static dielectric constant tensor:
#      x y z
#    x 1.758020 0.000000 0.000000 
#    y 0.000000 1.697690 0.000000 
#    z 0.000000 0.000000 1.739600 
# 
# From -- ./inp_files/17142.got.cif
#   From: 2010.05.17/outbox.cif.g08.bks.cpg/sg55_9_cif.got.tgz:17142.got - 2010.06.03 13:27:54.
