data_PCOD9428616
_publ_section_title
;
Structure prediction by ZEFSAII (Michael W. Deem and Ramdas Pophale) SiO2 
 PCOD9428616
Probable space group: P B A M
;
_chemical_formula_sum "Si O2"
_cell_formula_units_Z 48
_cell_length_a 15.325372
_cell_length_b 19.174431
_cell_length_c 8.466214
_cell_angle_alpha 90.000000
_cell_angle_beta 90.000000
_cell_angle_gamma 90.000000
_cell_volume 2487.841753
_symmetry_space_group_name_H-M "P B A M"
_symmetry_group_IT_number 55
_symmetry_cell_setting 'orthorhombic'
loop_
_space_group_symop_operation_xyz
x,y,z
-x,-y,z
1/2+x,1/2-y,-z
1/2-x,1/2+y,-z
-x,-y,-z
x,y,-z
1/2-x,1/2+y,z
1/2+x,1/2-y,z
loop_
_atom_site_type_symbol
_atom_site_label
_atom_site_fract_x
_atom_site_fract_y
_atom_site_fract_z
Si Si1 0.752247 0.085984 0.689286
Si Si2 0.305463 0.261956 0.810919
Si Si3 0.147055 0.176147 0.310730
Si Si4 0.499240 0.218767 0.808789
Si Si5 0.402876 0.520442 0.307200
Si Si6 0.058978 0.435199 0.809105
O O1 0.750246 0.085107 0.500000
O O2 0.772680 0.164264 0.744834
O O3 0.658376 0.061764 0.751517
O O4 0.829946 0.034955 0.743912
O O5 0.238480 0.202671 0.756858
O O6 0.403573 0.244198 0.758198
O O7 0.304579 0.265895 0.000000
O O8 0.151602 0.176498 0.500000
O O9 0.122397 0.098362 0.257270
O O10 0.072941 0.230116 0.256658
O O11 0.519072 0.139377 0.759206
O O12 0.502737 0.220811 0.000000
O O13 0.500000 0.500000 0.254150
O O14 0.403780 0.519771 0.500000
O O15 0.000000 0.500000 0.754437
O O16 0.059693 0.436190 0.000000
#
# Coordination Sequence:
#
# PCOD9428616 Si02
#       6
#     8   8   8   8   8   8
#     4  11  22  39  63  91 120 158 202 248 301 356
#     4  11  23  39  60  87 121 159 199 246 299 357
#     4  11  22  38  62  91 120 156 197 245 302 358
#     4  10  22  40  61  86 119 159 200 247 297 354
#     4   9  20  38  59  86 122 156 190 239 298 356
#     4  10  22  40  61  85 119 163 202 245 302 357
#
# _framework density 19.293832999999999
#
# number of rings (size 3 to 8) (size 9 to 14) (size 15 to 20)
#    0.000    1.667    1.667    2.500    2.333    3.000 
#    0.000    2.500    0.000    6.000    0.000    0.000 
#    0.000    0.000    0.000    0.000    0.000    0.000 
#
# Total GULP energy -268288.023534 kJ/mol
# GULP energy per Si atom -5589.333824 kJ/mol
# Density = 1.924992 g / cm^3
# Si number density = 19.293833 Si / 1000 Ang^3
#
#
#
# Elastic Constant Matrix: (Units=GPa)
#
#
# Indices 1 2 3 4 5 6 
#
# 1 124.2408 26.8310 13.0196 0.0000 0.0000 0.0000
# 2 26.8310 101.5519 10.9475 0.0000 0.0000 0.0000
# 3 13.0196 10.9475 11.6256 0.0000 0.0000 0.0000
# 4 0.0000 0.0000 0.0000 10.9852 0.0000 0.0000
# 5 0.0000 0.0000 0.0000 0.0000 9.4651 0.0000
# 6 0.0000 0.0000 0.0000 0.0000 0.0000 42.5378
#
#
#
# Elastic Compliance Matrix: (Units=1/GPa)
#
#
# Indices 1 2 3 4 5 6 
#
# 1 0.009317 -0.001488 -0.009033 0.000000 0.000000 0.000000
# 2 -0.001488 0.011197 -0.008878 0.000000 0.000000 0.000000
# 3 -0.009033 -0.008878 0.104493 0.000000 0.000000 0.000000
# 4 0.000000 0.000000 0.000000 0.091031 0.000000 0.000000
# 5 0.000000 0.000000 0.000000 0.000000 0.105651 0.000000
# 6 0.000000 0.000000 0.000000 0.000000 0.000000 0.023508
#
#
# Mechanical properties :
#
#
# Convention : Reuss Voigt Hill
#
# Bulk Modulus (GPa) = 11.59961 37.66831 24.63396
# Shear Modulus (GPa) = 12.11439 25.03898 18.57668
#
# Velocity S-wave (km/s) = 2.50849 3.60637 3.10632
# Velocity P-wave (km/s) = 3.79673 6.07512 5.06568
#
# Compressibility (1/GPa) = 0.08620982
#
# Stress axis : x y z
#
# Youngs Moduli (GPa) = 107.33322 89.30685 9.57000
#
# Poissons Ratio (x) = 0.13287 0.08644
# Poissons Ratio (y) = 0.15969 0.08496
# Poissons Ratio (z) = 0.96953 0.79287
#
# Static dielectric constant tensor:
#      x y z
#    x 1.642670 0.000000 0.000000 
#    y 0.000000 1.649810 0.000000 
#    z 0.000000 0.000000 1.666860 
# 
# From -- ./inp_files/5602.got.cif
#   From: 2010.05.17/outbox.cif.g08.bks.cpg/sg55_3_cif.got.tgz:5602.got - 2010.06.03 13:27:54.
