data_PCOD9428571
_publ_section_title
;
Structure prediction by ZEFSAII (Michael W. Deem and Ramdas Pophale) SiO2 
 PCOD9428571
Probable space group: P B A M
;
_chemical_formula_sum "Si O2"
_cell_formula_units_Z 32
_cell_length_a 4.717527
_cell_length_b 10.894509
_cell_length_c 24.137861
_cell_angle_alpha 90.000000
_cell_angle_beta 90.000000
_cell_angle_gamma 90.000000
_cell_volume 1240.568754
_symmetry_space_group_name_H-M "P B A M"
_symmetry_group_IT_number 55
_symmetry_cell_setting 'orthorhombic'
loop_
_space_group_symop_operation_xyz
x,y,z
-x,-y,z
1/2+x,1/2-y,-z
1/2-x,1/2+y,-z
-x,-y,-z
x,y,-z
1/2-x,1/2+y,z
1/2+x,1/2-y,z
loop_
_atom_site_type_symbol
_atom_site_label
_atom_site_fract_x
_atom_site_fract_y
_atom_site_fract_z
Si Si1 0.500000 0.000000 0.407060
Si Si2 0.500000 0.500000 0.854337
Si Si3 0.255298 0.671545 0.500000
Si Si4 0.658596 0.165476 0.062913
Si Si5 0.000000 0.000000 0.331526
Si Si6 0.236949 0.669636 0.238696
O O1 0.654968 0.902005 0.446248
O O2 0.750236 0.055676 0.369334
O O3 0.281281 0.426254 0.892606
O O4 0.668253 0.407519 0.814190
O O5 0.587241 0.699299 0.500000
O O6 0.335879 0.207516 0.068641
O O7 0.705310 0.120598 0.000000
O O8 0.159642 0.097597 0.292711
O O9 0.406796 0.798602 0.237764
#
# Coordination Sequence:
#
# PCOD9428571 Si02
#       6
#     4   4   4   8   4   8
#     4  11  24  42  64  96 124 158 211 244 288 364
#     4  11  23  40  63  87 120 159 197 248 304 358
#     4  11  24  41  64  94 130 165 196 245 302 348
#     4  10  22  39  60  88 119 154 198 245 298 361
#     4  11  24  41  65  89 121 162 203 254 296 346
#     4  11  25  42  61  89 121 157 203 250 303 358
#
# _framework density 25.794620999999999
#
# number of rings (size 3 to 8) (size 9 to 14) (size 15 to 20)
#    0.000    1.250    0.000    4.875    0.000   14.000 
#    0.000    3.750    0.000    0.000    0.000    0.000 
#    0.000    0.000    0.000    0.000    0.000    0.000 
#
# Total GULP energy -179783.599496 kJ/mol
# GULP energy per Si atom -5618.237484 kJ/mol
# Density = 2.573591 g / cm^3
# Si number density = 25.794621 Si / 1000 Ang^3
#
#
#
# Elastic Constant Matrix: (Units=GPa)
#
#
# Indices 1 2 3 4 5 6 
#
# 1 101.2034 3.2785 28.0054 0.0000 0.0000 0.0000
# 2 3.2785 61.4360 36.6848 0.0000 0.0000 0.0000
# 3 28.0054 36.6848 151.2218 0.0000 0.0000 0.0000
# 4 0.0000 0.0000 0.0000 27.9499 0.0000 0.0000
# 5 0.0000 0.0000 0.0000 0.0000 14.6920 0.0000
# 6 0.0000 0.0000 0.0000 0.0000 0.0000 46.5945
#
#
#
# Elastic Compliance Matrix: (Units=1/GPa)
#
#
# Indices 1 2 3 4 5 6 
#
# 1 0.010440 0.000699 -0.002103 0.000000 0.000000 0.000000
# 2 0.000699 0.019081 -0.004758 0.000000 0.000000 0.000000
# 3 -0.002103 -0.004758 0.008157 0.000000 0.000000 0.000000
# 4 0.000000 0.000000 0.000000 0.035778 0.000000 0.000000
# 5 0.000000 0.000000 0.000000 0.000000 0.068064 0.000000
# 6 0.000000 0.000000 0.000000 0.000000 0.000000 0.021462
#
#
# Mechanical properties :
#
#
# Convention : Reuss Voigt Hill
#
# Bulk Modulus (GPa) = 39.44341 49.97765 44.71053
# Shear Modulus (GPa) = 27.20960 34.24009 30.72485
#
# Velocity S-wave (km/s) = 3.25138 3.64732 3.45502
# Velocity P-wave (km/s) = 5.42400 6.09545 5.76950
#
# Compressibility (1/GPa) = 0.02535278
#
# Stress axis : x y z
#
# Youngs Moduli (GPa) = 95.78176 52.40793 122.60069
#
# Poissons Ratio (x) = -0.03661 0.25783
# Poissons Ratio (y) = -0.06691 0.58336
# Poissons Ratio (z) = 0.20143 0.24937
#
# Static dielectric constant tensor:
#      x y z
#    x 1.930780 0.000000 0.000000 
#    y 0.000000 2.036140 0.000000 
#    z 0.000000 0.000000 1.986430 
# 
# From -- ./inp_files/23224.got.cif
#   From: 2010.05.17/outbox.cif.g08.bks.cpg/sg55_12_cif.got.tgz:23224.got - 2010.06.03 13:27:54.
