data_PCOD9428705
_publ_section_title
;
Structure prediction by ZEFSAII (Michael W. Deem and Ramdas Pophale) SiO2 
 PCOD9428705
Probable space group: P B A M
;
_chemical_formula_sum "Si O2"
_cell_formula_units_Z 56
_cell_length_a 14.892202
_cell_length_b 8.349889
_cell_length_c 19.086528
_cell_angle_alpha 90.000000
_cell_angle_beta 90.000000
_cell_angle_gamma 90.000000
_cell_volume 2373.376044
_symmetry_space_group_name_H-M "P B A M"
_symmetry_group_IT_number 55
_symmetry_cell_setting 'orthorhombic'
loop_
_space_group_symop_operation_xyz
x,y,z
-x,-y,z
1/2+x,1/2-y,-z
1/2-x,1/2+y,-z
-x,-y,-z
x,y,-z
1/2-x,1/2+y,z
1/2+x,1/2-y,z
loop_
_atom_site_type_symbol
_atom_site_label
_atom_site_fract_x
_atom_site_fract_y
_atom_site_fract_z
Si Si1 0.992123 0.691059 0.208251
Si Si2 0.739102 0.069508 0.875487
Si Si3 0.609800 0.333934 0.077429
Si Si4 0.229413 0.035632 0.635415
Si Si5 0.370766 0.233805 0.419979
Si Si6 0.810277 0.316756 0.224491
Si Si7 0.546597 0.325076 0.347807
O O1 0.089512 0.742405 0.237136
O O2 0.000000 0.500000 0.198267
O O3 0.958230 0.785168 0.139682
O O4 0.931567 0.737732 0.274596
O O5 0.681734 0.187203 0.923193
O O6 0.754657 0.170568 0.805198
O O7 0.830849 0.991915 0.904531
O O8 0.681610 0.922321 0.846763
O O9 0.569413 0.347949 0.000000
O O10 0.315512 0.070226 0.587686
O O11 0.264120 0.088555 0.712482
O O12 0.141810 0.141655 0.616160
O O13 0.189370 0.858646 0.625593
O O14 0.372571 0.289154 0.500000
O O15 0.471781 0.228942 0.391069
O O16 0.500000 0.500000 0.335674
#
# Coordination Sequence:
#
# PCOD9428705 Si02
#       7
#     8   8   8   8   8   8   8
#     4  12  25  41  62  99 131 169 222 285 338 399
#     4  10  22  41  66  93 125 172 222 279 331 405
#     4  11  24  43  65  94 133 177 223 276 345 410
#     4  11  23  40  67  94 130 175 217 275 331 390
#     4  11  24  42  64  98 135 174 220 271 334 405
#     4  11  22  40  67  96 127 169 224 281 335 389
#     4  10  24  42  68  92 126 174 225 274 326 400
#
# _framework density 23.595081
#
# number of rings (size 3 to 8) (size 9 to 14) (size 15 to 20)
#    0.000    1.143    2.857    3.429    6.000    3.429 
#    0.000    2.143    0.000    2.143    0.000    0.000 
#    0.000    0.000    0.000    0.000    0.000    0.000 
#
# Total GULP energy -312695.604354 kJ/mol
# GULP energy per Si atom -5583.850078 kJ/mol
# Density = 2.354138 g / cm^3
# Si number density = 23.595081 Si / 1000 Ang^3
#
#
#
# Elastic Constant Matrix: (Units=GPa)
#
#
# Indices 1 2 3 4 5 6 
#
# 1 96.9470 15.7350 20.3885 0.0000 0.0000 0.0000
# 2 15.7350 43.2183 18.6832 0.0000 0.0000 0.0000
# 3 20.3885 18.6832 119.1418 0.0000 0.0000 0.0000
# 4 0.0000 0.0000 0.0000 12.5938 0.0000 0.0000
# 5 0.0000 0.0000 0.0000 0.0000 33.3191 0.0000
# 6 0.0000 0.0000 0.0000 0.0000 0.0000 31.3222
#
#
#
# Elastic Compliance Matrix: (Units=1/GPa)
#
#
# Indices 1 2 3 4 5 6 
#
# 1 0.011166 -0.003475 -0.001366 0.000000 0.000000 0.000000
# 2 -0.003475 0.025902 -0.003467 0.000000 0.000000 0.000000
# 3 -0.001366 -0.003467 0.009171 0.000000 0.000000 0.000000
# 4 0.000000 0.000000 0.000000 0.079404 0.000000 0.000000
# 5 0.000000 0.000000 0.000000 0.000000 0.030013 0.000000
# 6 0.000000 0.000000 0.000000 0.000000 0.000000 0.031926
#
#
# Mechanical properties :
#
#
# Convention : Reuss Voigt Hill
#
# Bulk Modulus (GPa) = 33.75729 40.99117 37.37423
# Shear Modulus (GPa) = 23.35649 29.08037 26.21843
#
# Velocity S-wave (km/s) = 3.14966 3.51447 3.33706
# Velocity P-wave (km/s) = 5.25025 5.82058 5.54276
#
# Compressibility (1/GPa) = 0.02962323
#
# Stress axis : x y z
#
# Youngs Moduli (GPa) = 89.55624 38.60654 109.04149
#
# Poissons Ratio (x) = 0.13415 0.14894
# Poissons Ratio (y) = 0.31120 0.37807
# Poissons Ratio (z) = 0.12233 0.13386
#
# Static dielectric constant tensor:
#      x y z
#    x 1.949390 0.000000 0.000000 
#    y 0.000000 1.954560 0.000000 
#    z 0.000000 0.000000 1.937670 
# 
# From -- ./inp_files/22971.got.cif
#   From: 2010.05.17/outbox.cif.g08.bks.cpg/sg55_12_cif.got.tgz:22971.got - 2010.06.03 13:27:54.
