data_PCOD9428559
_publ_section_title
;
Structure prediction by ZEFSAII (Michael W. Deem and Ramdas Pophale) SiO2 
 PCOD9428559
Probable space group: P B A M
;
_chemical_formula_sum "Si O2"
_cell_formula_units_Z 48
_cell_length_a 14.556351
_cell_length_b 20.463043
_cell_length_c 8.945399
_cell_angle_alpha 90.000000
_cell_angle_beta 90.000000
_cell_angle_gamma 90.000000
_cell_volume 2664.541279
_symmetry_space_group_name_H-M "P B A M"
_symmetry_group_IT_number 55
_symmetry_cell_setting 'orthorhombic'
loop_
_space_group_symop_operation_xyz
x,y,z
-x,-y,z
1/2+x,1/2-y,-z
1/2-x,1/2+y,-z
-x,-y,-z
x,y,-z
1/2-x,1/2+y,z
1/2+x,1/2-y,z
loop_
_atom_site_type_symbol
_atom_site_label
_atom_site_fract_x
_atom_site_fract_y
_atom_site_fract_z
Si Si1 0.974934 0.268642 0.821771
Si Si2 0.648569 0.173035 0.321180
Si Si3 0.714226 0.559272 0.679166
Si Si4 0.339332 0.573328 0.178055
Si Si5 0.481483 0.374233 0.678665
Si Si6 0.737959 0.790825 0.821885
O O1 0.990888 0.197110 0.751614
O O2 0.870388 0.289234 0.789405
O O3 0.049795 0.317279 0.753443
O O4 0.987076 0.264468 0.000000
O O5 0.640487 0.175259 0.500000
O O6 0.702040 0.106832 0.279317
O O7 0.710746 0.233695 0.266507
O O8 0.716444 0.549070 0.500000
O O9 0.711737 0.490481 0.761887
O O10 0.618704 0.596665 0.713775
O O11 0.437979 0.580536 0.257066
O O12 0.282874 0.639317 0.212672
O O13 0.351622 0.569505 0.000000
O O14 0.490176 0.369115 0.500000
O O15 0.749911 0.778969 0.000000
#
# Coordination Sequence:
#
# PCOD9428559 Si02
#       6
#     8   8   8   8   8   8
#     4  11  22  37  59  88 119 151 193 242 293 345
#     4  11  22  38  61  87 116 153 197 241 291 347
#     4  10  23  40  57  84 120 156 195 239 292 351
#     4  11  23  38  58  87 118 155 197 239 294 350
#     4  11  21  36  58  86 120 154 190 238 294 349
#     4  10  22  39  59  85 118 153 194 242 289 347
#
# _framework density 18.014357
#
# number of rings (size 3 to 8) (size 9 to 14) (size 15 to 20)
#    0.000    1.333    3.333    2.500    0.000    6.000 
#    0.000    0.833    0.000    5.000    0.000    0.000 
#    0.000    0.000    0.000    0.000    0.000    0.000 
#
# Total GULP energy -268326.642198 kJ/mol
# GULP energy per Si atom -5590.138379 kJ/mol
# Density = 1.797336 g / cm^3
# Si number density = 18.014357 Si / 1000 Ang^3
#
#
#
# Elastic Constant Matrix: (Units=GPa)
#
#
# Indices 1 2 3 4 5 6 
#
# 1 63.9358 -2.6252 21.4924 0.0000 0.0000 0.0000
# 2 -2.6252 42.3711 16.1325 0.0000 0.0000 0.0000
# 3 21.4924 16.1325 34.6215 0.0000 0.0000 0.0000
# 4 0.0000 0.0000 0.0000 34.2048 0.0000 0.0000
# 5 0.0000 0.0000 0.0000 0.0000 28.9247 0.0000
# 6 0.0000 0.0000 0.0000 0.0000 0.0000 27.7116
#
#
#
# Elastic Compliance Matrix: (Units=1/GPa)
#
#
# Indices 1 2 3 4 5 6 
#
# 1 0.021734 0.007882 -0.017165 0.000000 0.000000 0.000000
# 2 0.007882 0.031550 -0.019594 0.000000 0.000000 0.000000
# 3 -0.017165 -0.019594 0.048670 0.000000 0.000000 0.000000
# 4 0.000000 0.000000 0.000000 0.029236 0.000000 0.000000
# 5 0.000000 0.000000 0.000000 0.000000 0.034573 0.000000
# 6 0.000000 0.000000 0.000000 0.000000 0.000000 0.036086
#
#
# Mechanical properties :
#
#
# Convention : Reuss Voigt Hill
#
# Bulk Modulus (GPa) = 22.62466 23.43641 23.03054
# Shear Modulus (GPa) = 18.22585 25.23014 21.72799
#
# Velocity S-wave (km/s) = 3.18424 3.74646 3.47673
# Velocity P-wave (km/s) = 5.10937 5.63496 5.37859
#
# Compressibility (1/GPa) = 0.04419956
#
# Stress axis : x y z
#
# Youngs Moduli (GPa) = 46.00984 31.69609 20.54662
#
# Poissons Ratio (x) = -0.24983 0.35269
# Poissons Ratio (y) = -0.36265 0.40259
# Poissons Ratio (z) = 0.78977 0.62106
#
# Static dielectric constant tensor:
#      x y z
#    x 1.612390 0.000000 0.000000 
#    y 0.000000 1.592780 0.000000 
#    z 0.000000 0.000000 1.600680 
# 
# From -- ./inp_files/5560.got.cif
#   From: 2010.05.17/outbox.cif.g08.bks.cpg/sg55_3_cif.got.tgz:5560.got - 2010.06.03 13:27:54.
