data_PCOD9428960
_publ_section_title
;
Structure prediction by ZEFSAII (Michael W. Deem and Ramdas Pophale) SiO2 
 PCOD9428960
Probable space group: P B A M
;
_chemical_formula_sum "Si O2"
_cell_formula_units_Z 48
_cell_length_a 13.630125
_cell_length_b 8.017729
_cell_length_c 17.588724
_cell_angle_alpha 90.000000
_cell_angle_beta 90.000000
_cell_angle_gamma 90.000000
_cell_volume 1922.142342
_symmetry_space_group_name_H-M "P B A M"
_symmetry_group_IT_number 55
_symmetry_cell_setting 'orthorhombic'
loop_
_space_group_symop_operation_xyz
x,y,z
-x,-y,z
1/2+x,1/2-y,-z
1/2-x,1/2+y,-z
-x,-y,-z
x,y,-z
1/2-x,1/2+y,z
1/2+x,1/2-y,z
loop_
_atom_site_type_symbol
_atom_site_label
_atom_site_fract_x
_atom_site_fract_y
_atom_site_fract_z
Si Si1 0.564903 0.837476 0.678466
Si Si2 0.460641 0.269433 0.914670
Si Si3 0.211509 0.462861 0.414173
Si Si4 0.370862 0.647657 0.661223
Si Si5 0.840379 0.577341 0.912211
Si Si6 0.665788 0.600211 0.794017
O O1 0.632217 0.895167 0.608070
O O2 0.484581 0.696925 0.657982
O O3 0.635379 0.760621 0.742424
O O4 0.500000 0.000000 0.703259
O O5 0.570023 0.204738 0.901251
O O6 0.418203 0.398902 0.856621
O O7 0.389944 0.105463 0.909017
O O8 0.452890 0.330580 0.000000
O O9 0.196389 0.405159 0.500000
O O10 0.185651 0.320768 0.353602
O O11 0.321058 0.528386 0.401339
O O12 0.343998 0.558271 0.739426
O O13 0.763788 0.601925 0.844348
O O14 0.802316 0.598939 0.000000
#
# Coordination Sequence:
#
# PCOD9428960 Si02
#       6
#     8   8   8   8   8   8
#     4  10  26  48  73 109 149 195 249 310 383 456
#     4   9  21  43  70 104 147 202 257 308 375 443
#     4  11  25  49  80 109 147 198 249 309 377 456
#     4  11  26  45  71 111 151 190 247 309 374 453
#     4   9  21  43  71 104 148 201 256 310 370 444
#     4  12  24  40  74 109 153 198 249 309 380 446
#
# _framework density 24.972137
#
# number of rings (size 3 to 8) (size 9 to 14) (size 15 to 20)
#    0.000    1.667    0.000    3.500    7.000    6.333 
#    3.000    0.833    0.000   16.000    0.000   10.500 
#    0.000    0.000    0.000    0.000    0.000    0.000 
#
# Total GULP energy -268871.623453 kJ/mol
# GULP energy per Si atom -5601.492155 kJ/mol
# Density = 2.491530 g / cm^3
# Si number density = 24.972137 Si / 1000 Ang^3
#
#
#
# Elastic Constant Matrix: (Units=GPa)
#
#
# Indices 1 2 3 4 5 6 
#
# 1 137.8568 51.8847 94.1912 0.0000 0.0000 0.0000
# 2 51.8847 108.1646 61.7827 0.0000 0.0000 0.0000
# 3 94.1912 61.7827 165.9288 0.0000 0.0000 0.0000
# 4 0.0000 0.0000 0.0000 60.7320 0.0000 0.0000
# 5 0.0000 0.0000 0.0000 0.0000 25.1469 0.0000
# 6 0.0000 0.0000 0.0000 0.0000 0.0000 43.0731
#
#
#
# Elastic Compliance Matrix: (Units=1/GPa)
#
#
# Indices 1 2 3 4 5 6 
#
# 1 0.012335 -0.002435 -0.006095 0.000000 0.000000 0.000000
# 2 -0.002435 0.012223 -0.003169 0.000000 0.000000 0.000000
# 3 -0.006095 -0.003169 0.010667 0.000000 0.000000 0.000000
# 4 0.000000 0.000000 0.000000 0.016466 0.000000 0.000000
# 5 0.000000 0.000000 0.000000 0.000000 0.039766 0.000000
# 6 0.000000 0.000000 0.000000 0.000000 0.000000 0.023216
#
#
# Mechanical properties :
#
#
# Convention : Reuss Voigt Hill
#
# Bulk Modulus (GPa) = 84.55903 91.96305 88.26104
# Shear Modulus (GPa) = 35.20752 39.39649 37.30200
#
# Velocity S-wave (km/s) = 3.75890 3.97623 3.86909
# Velocity P-wave (km/s) = 7.26457 7.61491 7.44180
#
# Compressibility (1/GPa) = 0.01182606
#
# Stress axis : x y z
#
# Youngs Moduli (GPa) = 81.06884 81.81038 93.74955
#
# Poissons Ratio (x) = 0.19924 0.57144
# Poissons Ratio (y) = 0.19743 0.29708
# Poissons Ratio (z) = 0.49415 0.25925
#
# Static dielectric constant tensor:
#      x y z
#    x 1.975170 0.000000 0.000000 
#    y 0.000000 2.052480 0.000000 
#    z 0.000000 0.000000 1.922520 
# 
# From -- ./inp_files/21255.got.cif
#   From: 2010.05.17/outbox.cif.g08.bks.cpg/sg55_11_cif.got.tgz:21255.got - 2010.06.03 13:27:54.
