data_PCOD9428574
_publ_section_title
;
Structure prediction by ZEFSAII (Michael W. Deem and Ramdas Pophale) SiO2 
 PCOD9428574
Probable space group: P B A M
;
_chemical_formula_sum "Si O2"
_cell_formula_units_Z 38
_cell_length_a 4.963460
_cell_length_b 10.227782
_cell_length_c 27.643766
_cell_angle_alpha 90.000000
_cell_angle_beta 90.000000
_cell_angle_gamma 90.000000
_cell_volume 1403.340946
_symmetry_space_group_name_H-M "P B A M"
_symmetry_group_IT_number 55
_symmetry_cell_setting 'orthorhombic'
loop_
_space_group_symop_operation_xyz
x,y,z
-x,-y,z
1/2+x,1/2-y,-z
1/2-x,1/2+y,-z
-x,-y,-z
x,y,-z
1/2-x,1/2+y,z
1/2+x,1/2-y,z
loop_
_atom_site_type_symbol
_atom_site_label
_atom_site_fract_x
_atom_site_fract_y
_atom_site_fract_z
Si Si1 0.500000 0.500000 0.666499
Si Si2 0.306217 0.156672 0.051937
Si Si3 0.316187 0.658453 0.152692
Si Si4 0.500000 0.000000 0.500000
Si Si5 0.827219 0.160374 0.422231
Si Si6 0.811335 0.339240 0.744112
O O1 0.343980 0.399691 0.631221
O O2 0.712680 0.426155 0.700120
O O3 0.600268 0.220658 0.052618
O O4 0.247627 0.085872 0.102509
O O5 0.264946 0.088914 0.000000
O O6 0.615963 0.715642 0.152377
O O7 0.250819 0.594356 0.204014
O O8 0.709960 0.054001 0.458243
O O9 0.622622 0.280611 0.430441
O O10 0.614890 0.212047 0.742492
#
# Coordination Sequence:
#
# PCOD9428574 Si02
#       6
#     4   8   8   2   8   8
#     4  12  26  45  72 104 143 188 228 280 344 398
#     4   8  12  18  32  57  90 131 183 246 316 387
#     4   8  14  26  43  66 102 146 196 258 321 387
#     4  12  28  54  84 110 144 190 224 266 334 394
#     4  12  28  49  76 112 149 186 234 285 334 399
#     4  10  22  39  60  89 126 171 223 276 333 402
#
# _framework density 27.078237000000001
#
# number of rings (size 3 to 8) (size 9 to 14) (size 15 to 20)
#    0.000    2.105    0.000    3.158    0.000    7.158 
#    0.000    0.000    0.000    0.000    0.000    0.737 
#    0.000    0.000    0.000   70.316    0.000    3.789 
#
# Total GULP energy -212453.378377 kJ/mol
# GULP energy per Si atom -5590.878378 kJ/mol
# Density = 2.701661 g / cm^3
# Si number density = 27.078237 Si / 1000 Ang^3
#
#
#
# Elastic Constant Matrix: (Units=GPa)
#
#
# Indices 1 2 3 4 5 6 
#
# 1 111.1990 49.9101 27.3821 0.0000 0.0000 0.0000
# 2 49.9101 92.2949 45.1638 0.0000 0.0000 0.0000
# 3 27.3821 45.1638 207.8418 0.0000 0.0000 0.0000
# 4 0.0000 0.0000 0.0000 -50.3415 0.0000 0.0000
# 5 0.0000 0.0000 0.0000 0.0000 47.2835 0.0000
# 6 0.0000 0.0000 0.0000 0.0000 0.0000 65.6631
#
#
#
# Elastic Compliance Matrix: (Units=1/GPa)
#
#
# Indices 1 2 3 4 5 6 
#
# 1 0.011882 -0.006333 -0.000189 0.000000 0.000000 0.000000
# 2 -0.006333 0.015499 -0.002534 0.000000 0.000000 0.000000
# 3 -0.000189 -0.002534 0.005387 0.000000 0.000000 0.000000
# 4 0.000000 0.000000 0.000000 -0.019864 0.000000 0.000000
# 5 0.000000 0.000000 0.000000 0.000000 0.021149 0.000000
# 6 0.000000 0.000000 0.000000 0.000000 0.000000 0.015229
#
#
# Mechanical properties :
#
#
# Convention : Reuss Voigt Hill
#
# Bulk Modulus (GPa) = 68.22862 72.91640 70.57251
# Shear Modulus (GPa) = 69.17678 31.77966 50.47822
#
# Velocity S-wave (km/s) = 5.05989 3.42954 4.32228
# Velocity P-wave (km/s) = 7.70637 6.53214 7.14342
#
# Compressibility (1/GPa) = 0.01465661
#
# Stress axis : x y z
#
# Youngs Moduli (GPa) = 84.16214 64.51959 185.63734
#
# Poissons Ratio (x) = 0.40858 0.03514
# Poissons Ratio (y) = 0.53297 0.47034
# Poissons Ratio (z) = 0.01593 0.16347
#
# Static dielectric constant tensor:
#      x y z
#    x 2.019180 0.000000 0.000000 
#    y 0.000000 2.338510 0.000000 
#    z 0.000000 0.000000 2.121150 
# 
# From -- ./inp_files/23749.got.cif
#   From: 2010.05.17/outbox.cif.g08.bks.cpg/sg55_12_cif.got.tgz:23749.got - 2010.06.03 13:27:54.
