data_PCOD9428003
_publ_section_title
;
Structure prediction by ZEFSAII (Michael W. Deem and Ramdas Pophale) SiO2 
 PCOD9428003
Probable space group: P B A M
;
_chemical_formula_sum "Si O2"
_cell_formula_units_Z 52
_cell_length_a 25.364886
_cell_length_b 15.091566
_cell_length_c 7.328223
_cell_angle_alpha 90.000000
_cell_angle_beta 90.000000
_cell_angle_gamma 90.000000
_cell_volume 2805.213361
_symmetry_space_group_name_H-M "P B A M"
_symmetry_group_IT_number 55
_symmetry_cell_setting 'orthorhombic'
loop_
_space_group_symop_operation_xyz
x,y,z
-x,-y,z
1/2+x,1/2-y,-z
1/2-x,1/2+y,-z
-x,-y,-z
x,y,-z
1/2-x,1/2+y,z
1/2+x,1/2-y,z
loop_
_atom_site_type_symbol
_atom_site_label
_atom_site_fract_x
_atom_site_fract_y
_atom_site_fract_z
Si Si1 0.330462 0.691944 0.717601
Si Si2 0.538937 0.713342 0.000000
Si Si3 0.383606 0.451590 0.000000
Si Si4 0.418870 0.650840 0.000000
Si Si5 0.971378 0.362377 0.719122
Si Si6 0.420389 0.951706 0.721105
Si Si7 0.704018 0.503486 0.281585
Si Si8 0.306204 0.887133 0.721369
O O1 0.340100 0.694396 0.500000
O O2 0.385241 0.684575 0.826223
O O3 0.298257 0.602024 0.758660
O O4 0.302067 0.783467 0.770190
O O5 0.578080 0.631163 0.000000
O O6 0.546633 0.776062 0.175261
O O7 0.478535 0.681309 0.000000
O O8 0.344956 0.454602 0.174559
O O9 0.415106 0.544242 0.000000
O O10 0.969691 0.352255 0.500000
O O11 0.936620 0.448368 0.769992
O O12 0.031368 0.387893 0.774487
O O13 0.419905 0.949464 0.500000
O O14 0.363142 0.921908 0.784962
O O15 0.698429 0.513504 0.500000
O O16 0.757635 0.551649 0.221872
O O17 0.306797 0.891065 0.500000
#
# Coordination Sequence:
#
# PCOD9428003 Si02
#       8
#     8   4   4   4   8   8   8   8
#     4   9  18  34  56  82 107 136 178 222 264 312
#     4  12  23  35  55  81 102 138 185 217 265 335
#     4  10  23  41  53  72 107 138 176 230 273 313
#     4  10  21  37  58  77 101 137 177 228 271 307
#     4   9  19  35  53  79 116 145 168 213 269 319
#     4   8  15  31  54  80 113 145 174 215 263 312
#     4   9  19  37  56  76 107 143 176 221 272 311
#     4   9  16  30  56  84 106 140 184 217 256 316
#
# _framework density 18.536915
#
# number of rings (size 3 to 8) (size 9 to 14) (size 15 to 20)
#    0.000    2.769    0.000    2.077    0.000    4.308 
#    2.769    2.308    0.000    4.615    0.000    0.000 
#    0.000    0.000    0.000    0.000    0.000    0.000 
#
# Total GULP energy -290169.622216 kJ/mol
# GULP energy per Si atom -5580.185043 kJ/mol
# Density = 1.849472 g / cm^3
# Si number density = 18.536915 Si / 1000 Ang^3
#
#
#
# Elastic Constant Matrix: (Units=GPa)
#
#
# Indices 1 2 3 4 5 6 
#
# 1 93.6272 91.6730 26.5823 0.0000 0.0000 0.0000
# 2 91.6730 142.0954 37.7319 0.0000 0.0000 0.0000
# 3 26.5823 37.7319 78.8279 0.0000 0.0000 0.0000
# 4 0.0000 0.0000 0.0000 24.8136 0.0000 0.0000
# 5 0.0000 0.0000 0.0000 0.0000 15.1974 0.0000
# 6 0.0000 0.0000 0.0000 0.0000 0.0000 29.3305
#
#
#
# Elastic Compliance Matrix: (Units=1/GPa)
#
#
# Indices 1 2 3 4 5 6 
#
# 1 0.029060 -0.018497 -0.000946 0.000000 0.000000 0.000000
# 2 -0.018497 0.019836 -0.003257 0.000000 0.000000 0.000000
# 3 -0.000946 -0.003257 0.014564 0.000000 0.000000 0.000000
# 4 0.000000 0.000000 0.000000 0.040300 0.000000 0.000000
# 5 0.000000 0.000000 0.000000 0.000000 0.065801 0.000000
# 6 0.000000 0.000000 0.000000 0.000000 0.000000 0.034094
#
#
# Mechanical properties :
#
#
# Convention : Reuss Voigt Hill
#
# Bulk Modulus (GPa) = 55.37123 69.61388 62.49255
# Shear Modulus (GPa) = 19.60207 24.43919 22.02063
#
# Velocity S-wave (km/s) = 3.25539 3.63493 3.45038
# Velocity P-wave (km/s) = 6.63820 7.43321 7.04693
#
# Compressibility (1/GPa) = 0.01805992
#
# Stress axis : x y z
#
# Youngs Moduli (GPa) = 34.41136 50.41389 68.66317
#
# Poissons Ratio (x) = 0.93251 0.06494
# Poissons Ratio (y) = 0.63651 0.22364
# Poissons Ratio (z) = 0.03255 0.16420
#
# Static dielectric constant tensor:
#      x y z
#    x 1.602680 0.000000 0.000000 
#    y 0.000000 1.627840 0.000000 
#    z 0.000000 0.000000 1.685610 
# 
# From -- ./inp_files/6377.got.cif
#   From: 2010.05.17/outbox.cif.g08.bks.cpg/sg55_4_cif.got.tgz:6377.got - 2010.06.03 13:27:54.
