data_PCOD9428227
_publ_section_title
;
Structure prediction by ZEFSAII (Michael W. Deem and Ramdas Pophale) SiO2 
 PCOD9428227
Probable space group: P B A M
;
_chemical_formula_sum "Si O2"
_cell_formula_units_Z 48
_cell_length_a 16.996460
_cell_length_b 8.678461
_cell_length_c 14.863130
_cell_angle_alpha 90.000000
_cell_angle_beta 90.000000
_cell_angle_gamma 90.000000
_cell_volume 2192.357977
_symmetry_space_group_name_H-M "P B A M"
_symmetry_group_IT_number 55
_symmetry_cell_setting 'orthorhombic'
loop_
_space_group_symop_operation_xyz
x,y,z
-x,-y,z
1/2+x,1/2-y,-z
1/2-x,1/2+y,-z
-x,-y,-z
x,y,-z
1/2-x,1/2+y,z
1/2+x,1/2-y,z
loop_
_atom_site_type_symbol
_atom_site_label
_atom_site_fract_x
_atom_site_fract_y
_atom_site_fract_z
Si Si1 0.129497 0.344149 0.000000
Si Si2 0.418442 0.408376 0.328188
Si Si3 0.078623 0.410976 0.193070
Si Si4 0.168169 0.212632 0.679137
Si Si5 0.865097 0.251447 0.500000
Si Si6 0.198137 0.399364 0.500000
Si Si7 0.175768 0.712087 0.199316
Si Si8 0.722308 0.833135 0.000000
O O1 0.078833 0.357996 0.910208
O O2 0.183995 0.192964 0.000000
O O3 0.188902 0.492548 0.000000
O O4 0.500000 0.500000 0.327189
O O5 0.350490 0.536575 0.342533
O O6 0.414180 0.287608 0.410549
O O7 0.393185 0.319165 0.238031
O O8 0.098468 0.270887 0.256859
O O9 0.148269 0.535265 0.205062
O O10 0.000000 0.500000 0.216172
O O11 0.168407 0.314668 0.589898
O O12 0.248456 0.229629 0.736375
O O13 0.829148 0.423345 0.500000
O O14 0.790742 0.136492 0.500000
O O15 0.193999 0.741028 0.094347
#
# Coordination Sequence:
#
# PCOD9428227 Si02
#       8
#     4   8   8   8   4   4   8   4
#     4  10  21  38  64  94 131 172 218 276 325 382
#     4  12  26  44  67 100 140 176 216 273 338 394
#     4  11  23  41  64  97 134 175 222 271 332 390
#     4  12  24  42  69  99 128 176 223 272 330 391
#     4  12  25  45  69  96 135 168 223 274 334 387
#     4  12  26  43  72 102 126 172 228 280 319 399
#     4  11  23  42  66  96 131 176 222 277 323 391
#     4  10  22  38  65  96 127 166 226 274 320 386
#
# _framework density 21.894234999999998
#
# number of rings (size 3 to 8) (size 9 to 14) (size 15 to 20)
#    0.000    0.667    3.333    5.000    2.333    0.000 
#    0.000    1.667    0.000    0.000    0.000    0.000 
#    0.000    0.000    0.000    0.000    0.000    0.000 
#
# Total GULP energy -268558.918621 kJ/mol
# GULP energy per Si atom -5594.977471 kJ/mol
# Density = 2.184440 g / cm^3
# Si number density = 21.894235 Si / 1000 Ang^3
#
#
#
# Elastic Constant Matrix: (Units=GPa)
#
#
# Indices 1 2 3 4 5 6 
#
# 1 45.5428 1.9184 21.8454 0.0000 0.0000 0.0000
# 2 1.9184 80.8213 52.2965 0.0000 0.0000 0.0000
# 3 21.8454 52.2965 149.8440 0.0000 0.0000 0.0000
# 4 0.0000 0.0000 0.0000 21.9118 0.0000 0.0000
# 5 0.0000 0.0000 0.0000 0.0000 12.1007 0.0000
# 6 0.0000 0.0000 0.0000 0.0000 0.0000 31.4875
#
#
#
# Elastic Compliance Matrix: (Units=1/GPa)
#
#
# Indices 1 2 3 4 5 6 
#
# 1 0.023902 0.002180 -0.004245 0.000000 0.000000 0.000000
# 2 0.002180 0.016181 -0.005965 0.000000 0.000000 0.000000
# 3 -0.004245 -0.005965 0.009374 0.000000 0.000000 0.000000
# 4 0.000000 0.000000 0.000000 0.045637 0.000000 0.000000
# 5 0.000000 0.000000 0.000000 0.000000 0.082640 0.000000
# 6 0.000000 0.000000 0.000000 0.000000 0.000000 0.031759
#
#
# Mechanical properties :
#
#
# Convention : Reuss Voigt Hill
#
# Bulk Modulus (GPa) = 29.94381 47.59206 38.76794
# Shear Modulus (GPa) = 21.12500 26.44320 23.78410
#
# Velocity S-wave (km/s) = 3.10960 3.47907 3.29951
# Velocity P-wave (km/s) = 5.15743 6.15817 5.67988
#
# Compressibility (1/GPa) = 0.03339588
#
# Stress axis : x y z
#
# Youngs Moduli (GPa) = 41.83764 61.80088 106.67401
#
# Poissons Ratio (x) = -0.13470 0.45287
# Poissons Ratio (y) = -0.09119 0.63631
# Poissons Ratio (z) = 0.17761 0.36864
#
# Static dielectric constant tensor:
#      x y z
#    x 1.807720 0.000000 0.000000 
#    y 0.000000 1.794560 0.000000 
#    z 0.000000 0.000000 1.788700 
# 
# From -- ./inp_files/19396.got.cif
#   From: 2010.05.17/outbox.cif.g08.bks.cpg/sg55_10_cif.got.tgz:19396.got - 2010.06.03 13:27:54.
