data_PCOD9428452
_publ_section_title
;
Structure prediction by ZEFSAII (Michael W. Deem and Ramdas Pophale) SiO2 
 PCOD9428452
Probable space group: P B A M
;
_chemical_formula_sum "Si O2"
_cell_formula_units_Z 40
_cell_length_a 13.463028
_cell_length_b 9.476588
_cell_length_c 11.829708
_cell_angle_alpha 90.000000
_cell_angle_beta 90.000000
_cell_angle_gamma 90.000000
_cell_volume 1509.276374
_symmetry_space_group_name_H-M "P B A M"
_symmetry_group_IT_number 55
_symmetry_cell_setting 'orthorhombic'
loop_
_space_group_symop_operation_xyz
x,y,z
-x,-y,z
1/2+x,1/2-y,-z
1/2-x,1/2+y,-z
-x,-y,-z
x,y,-z
1/2-x,1/2+y,z
1/2+x,1/2-y,z
loop_
_atom_site_type_symbol
_atom_site_label
_atom_site_fract_x
_atom_site_fract_y
_atom_site_fract_z
Si Si1 0.138270 0.960615 0.660581
Si Si2 0.824987 0.903547 0.875077
Si Si3 0.668718 0.222098 0.329813
Si Si4 0.454174 0.191301 0.622495
Si Si5 0.593650 0.894006 0.875791
O O1 0.235417 0.865320 0.639379
O O2 0.050180 0.862815 0.618375
O O3 0.123470 0.982684 0.795134
O O4 0.165661 0.118287 0.622741
O O5 0.834346 0.757898 0.804500
O O6 0.708460 0.943884 0.878944
O O7 0.864485 0.891810 0.000000
O O8 0.568574 0.145863 0.366815
O O9 0.413829 0.144286 0.500000
O O10 0.409081 0.163588 0.746388
O O11 0.500000 0.000000 0.877885
O O12 0.585161 0.815928 0.000000
#
# Coordination Sequence:
#
# PCOD9428452 Si02
#       5
#     8   8   8   8   8
#     4  10  22  43  63  97 135 178 230 284 349 411
#     4   9  20  39  66  95 135 180 226 281 341 413
#     4  10  23  42  64  95 135 182 231 286 343 415
#     4  12  25  42  67 101 140 182 230 288 350 416
#     4  10  21  42  71 103 139 181 232 290 351 415
#
# _framework density 26.502768
#
# number of rings (size 3 to 8) (size 9 to 14) (size 15 to 20)
#    1.200    0.600    2.000    1.800    0.000    5.200 
#    0.000    2.000    0.000    0.000    0.000    0.000 
#    0.000    0.000    0.000    0.000    0.000    0.000 
#
# Total GULP energy -223098.163498 kJ/mol
# GULP energy per Si atom -5577.454087 kJ/mol
# Density = 2.644245 g / cm^3
# Si number density = 26.502768 Si / 1000 Ang^3
#
#
#
# Elastic Constant Matrix: (Units=GPa)
#
#
# Indices 1 2 3 4 5 6 
#
# 1 78.6465 0.2546 18.0376 0.0000 0.0000 0.0000
# 2 0.2546 72.2136 47.9556 0.0000 0.0000 0.0000
# 3 18.0376 47.9556 280.6692 0.0000 0.0000 0.0000
# 4 0.0000 0.0000 0.0000 22.9449 0.0000 0.0000
# 5 0.0000 0.0000 0.0000 0.0000 -11.2638 0.0000
# 6 0.0000 0.0000 0.0000 0.0000 0.0000 35.6871
#
#
#
# Elastic Compliance Matrix: (Units=1/GPa)
#
#
# Indices 1 2 3 4 5 6 
#
# 1 0.012926 0.000571 -0.000928 0.000000 0.000000 0.000000
# 2 0.000571 0.015645 -0.002710 0.000000 0.000000 0.000000
# 3 -0.000928 -0.002710 0.004086 0.000000 0.000000 0.000000
# 4 0.000000 0.000000 0.000000 0.043583 0.000000 0.000000
# 5 0.000000 0.000000 0.000000 0.000000 -0.088780 0.000000
# 6 0.000000 0.000000 0.000000 0.000000 0.000000 0.028021
#
#
# Mechanical properties :
#
#
# Convention : Reuss Voigt Hill
#
# Bulk Modulus (GPa) = 37.70371 62.66941 50.18656
# Shear Modulus (GPa) = 164.16932 33.82574 98.99753
#
# Velocity S-wave (km/s) = 7.87900 3.57642 6.11839
# Velocity P-wave (km/s) = 9.85032 6.38374 8.30003
#
# Compressibility (1/GPa) = 0.02652259
#
# Stress axis : x y z
#
# Youngs Moduli (GPa) = 77.36240 63.91666 244.76309
#
# Poissons Ratio (x) = -0.03649 0.22720
# Poissons Ratio (y) = -0.04416 0.66328
# Poissons Ratio (z) = 0.07181 0.17321
#
# Static dielectric constant tensor:
#      x y z
#    x 2.015140 0.000000 0.000000 
#    y 0.000000 2.136720 0.000000 
#    z 0.000000 0.000000 2.176690 
# 
# From -- ./inp_files/13933.got.cif
#   From: 2010.05.17/outbox.cif.g08.bks.cpg/sg55_7_cif.got.tgz:13933.got - 2010.06.03 13:27:54.
