data_PCOD9428280
_publ_section_title
;
Structure prediction by ZEFSAII (Michael W. Deem and Ramdas Pophale) SiO2 
 PCOD9428280
Probable space group: P B A M
;
_chemical_formula_sum "Si O2"
_cell_formula_units_Z 64
_cell_length_a 24.406389
_cell_length_b 15.511677
_cell_length_c 8.176559
_cell_angle_alpha 90.000000
_cell_angle_beta 90.000000
_cell_angle_gamma 90.000000
_cell_volume 3095.514600
_symmetry_space_group_name_H-M "P B A M"
_symmetry_group_IT_number 55
_symmetry_cell_setting 'orthorhombic'
loop_
_space_group_symop_operation_xyz
x,y,z
-x,-y,z
1/2+x,1/2-y,-z
1/2-x,1/2+y,-z
-x,-y,-z
x,y,-z
1/2-x,1/2+y,z
1/2+x,1/2-y,z
loop_
_atom_site_type_symbol
_atom_site_label
_atom_site_fract_x
_atom_site_fract_y
_atom_site_fract_z
Si Si1 0.803497 0.789110 0.698324
Si Si2 0.572297 0.256821 0.696456
Si Si3 0.617800 0.824946 0.310951
Si Si4 0.750973 0.606547 0.310483
Si Si5 0.135351 0.858059 0.811164
Si Si6 0.013280 0.902779 0.802070
Si Si7 0.784382 0.425790 0.813004
Si Si8 0.000080 0.599008 0.300646
O O1 0.802380 0.795461 0.500000
O O2 0.866651 0.781318 0.754291
O O3 0.773233 0.699741 0.743960
O O4 0.769009 0.869519 0.765466
O O5 0.575769 0.250343 0.500000
O O6 0.529126 0.331786 0.738447
O O7 0.547564 0.164855 0.755558
O O8 0.613914 0.796371 0.500000
O O9 0.636690 0.744853 0.203632
O O10 0.664514 0.896366 0.296060
O O11 0.558598 0.859120 0.258717
O O12 0.766355 0.595921 0.500000
O O13 0.685610 0.605937 0.290874
O O14 0.773903 0.526377 0.211780
O O15 0.075296 0.883323 0.750239
O O16 0.141514 0.885233 0.000000
O O17 0.011677 0.898550 0.000000
O O18 0.000000 0.000000 0.751116
O O19 0.798164 0.407509 0.000000
O O20 0.997117 0.596210 0.500000
O O21 0.000000 0.500000 0.242833
#
# Coordination Sequence:
#
# PCOD9428280 Si02
#       8
#     8   8   8   8   8   8   8   8
#     4  10  23  42  64  91 124 161 206 257 306 366
#     4  10  21  39  62  91 121 154 202 252 299 357
#     4  11  21  38  65  91 120 159 208 257 308 364
#     4  11  24  42  66  92 123 162 208 256 310 367
#     4  11  22  39  63  90 123 160 206 257 309 365
#     4  10  23  41  60  86 123 165 203 244 303 368
#     4  12  26  42  63  90 126 164 206 255 311 372
#     4   9  19  35  61  92 121 156 198 247 303 358
#
# _framework density 20.675077000000002
#
# number of rings (size 3 to 8) (size 9 to 14) (size 15 to 20)
#    0.000    1.500    2.500    2.250    3.500    1.750 
#    0.000    0.000    0.000    1.875    0.000    0.000 
#    0.000    0.000    0.000    0.000    0.000    0.000 
#
# Total GULP energy -357629.989479 kJ/mol
# GULP energy per Si atom -5587.968586 kJ/mol
# Density = 2.062802 g / cm^3
# Si number density = 20.675077 Si / 1000 Ang^3
#
#
#
# Elastic Constant Matrix: (Units=GPa)
#
#
# Indices 1 2 3 4 5 6 
#
# 1 53.6996 -28.5434 -7.3586 0.0000 0.0000 0.0000
# 2 -28.5434 49.0365 -1.3871 0.0000 0.0000 0.0000
# 3 -7.3586 -1.3871 15.1533 0.0000 0.0000 0.0000
# 4 0.0000 0.0000 0.0000 22.4401 0.0000 0.0000
# 5 0.0000 0.0000 0.0000 0.0000 9.3660 0.0000
# 6 0.0000 0.0000 0.0000 0.0000 0.0000 29.5301
#
#
#
# Elastic Compliance Matrix: (Units=1/GPa)
#
#
# Indices 1 2 3 4 5 6 
#
# 1 0.030606 0.018283 0.016536 0.000000 0.000000 0.000000
# 2 0.018283 0.031368 0.011750 0.000000 0.000000 0.000000
# 3 0.016536 0.011750 0.075098 0.000000 0.000000 0.000000
# 4 0.000000 0.000000 0.000000 0.044563 0.000000 0.000000
# 5 0.000000 0.000000 0.000000 0.000000 0.106769 0.000000
# 6 0.000000 0.000000 0.000000 0.000000 0.000000 0.033864
#
#
# Mechanical properties :
#
#
# Convention : Reuss Voigt Hill
#
# Bulk Modulus (GPa) = 4.34382 4.81234 4.57808
# Shear Modulus (GPa) = 16.34704 22.61248 19.47976
#
# Velocity S-wave (km/s) = 2.81493 3.31071 3.07283
# Velocity P-wave (km/s) = 3.55958 4.11668 3.84823
#
# Compressibility (1/GPa) = 0.23021216
#
# Stress axis : x y z
#
# Youngs Moduli (GPa) = 32.67284 31.87981 13.31590
#
# Poissons Ratio (x) = -0.58287 -0.22020
# Poissons Ratio (y) = -0.59737 -0.15646
# Poissons Ratio (z) = -0.54029 -0.37459
#
# Static dielectric constant tensor:
#      x y z
#    x 1.691810 0.000000 0.000000 
#    y 0.000000 1.729670 0.000000 
#    z 0.000000 0.000000 1.720950 
# 
# From -- ./inp_files/9689.got.cif
#   From: 2010.05.17/outbox.cif.g08.bks.cpg/sg55_5_cif.got.tgz:9689.got - 2010.06.03 13:27:54.
