data_PCOD9428782
_publ_section_title
;
Structure prediction by ZEFSAII (Michael W. Deem and Ramdas Pophale) SiO2 
 PCOD9428782
Probable space group: P B A M
;
_chemical_formula_sum "Si O2"
_cell_formula_units_Z 64
_cell_length_a 8.894299
_cell_length_b 13.615519
_cell_length_c 25.537480
_cell_angle_alpha 90.000000
_cell_angle_beta 90.000000
_cell_angle_gamma 90.000000
_cell_volume 3092.601521
_symmetry_space_group_name_H-M "P B A M"
_symmetry_group_IT_number 55
_symmetry_cell_setting 'orthorhombic'
loop_
_space_group_symop_operation_xyz
x,y,z
-x,-y,z
1/2+x,1/2-y,-z
1/2-x,1/2+y,-z
-x,-y,-z
x,y,-z
1/2-x,1/2+y,z
1/2+x,1/2-y,z
loop_
_atom_site_type_symbol
_atom_site_label
_atom_site_fract_x
_atom_site_fract_y
_atom_site_fract_z
Si Si1 0.186981 0.804036 0.274892
Si Si2 0.121159 0.087083 0.560351
Si Si3 0.432801 0.390241 0.062836
Si Si4 0.141916 0.666872 0.819780
Si Si5 0.865086 0.709631 0.110160
Si Si6 0.360656 0.070493 0.642177
Si Si7 0.818450 0.499019 0.752935
Si Si8 0.458249 0.730167 0.651534
O O1 0.116121 0.723962 0.235518
O O2 0.253906 0.893467 0.242873
O O3 0.055696 0.842098 0.312573
O O4 0.319767 0.766250 0.313036
O O5 0.145423 0.114096 0.500000
O O6 0.266775 0.049261 0.590684
O O7 0.078978 0.179285 0.597016
O O8 0.000000 0.000000 0.562168
O O9 0.500000 0.500000 0.079433
O O10 0.260683 0.360626 0.081746
O O11 0.542575 0.297274 0.079116
O O12 0.428477 0.392885 0.000000
O O13 0.260940 0.731125 0.850179
O O14 0.221258 0.567270 0.801923
O O15 0.994832 0.655259 0.855838
O O16 0.432246 0.178027 0.642362
O O17 0.500000 0.000000 0.642564
O O18 0.274712 0.047384 0.696525
O O19 0.000000 0.500000 0.753274
#
# Coordination Sequence:
#
# PCOD9428782 Si02
#       8
#     8   8   8   8   8   8   8   8
#     4  12  22  38  65  91 126 169 213 250 309 387
#     4  11  26  44  62  89 120 152 201 269 335 391
#     4  10  22  44  71  98 133 184 241 294 347 403
#     4  11  22  38  58  93 135 173 210 262 324 388
#     4  10  23  40  64  99 139 179 225 283 342 401
#     4  11  22  41  66  91 118 163 208 256 310 391
#     4  11  20  36  60  88 122 164 205 247 301 376
#     4  12  22  41  65  90 121 160 211 260 313 386
#
# _framework density 20.69455
#
# number of rings (size 3 to 8) (size 9 to 14) (size 15 to 20)
#    0.000    1.000    5.000    2.625    0.000    3.750 
#    0.000    4.375    0.000    6.750    0.000    0.000 
#    0.000    0.000    0.000    0.000    0.000    0.000 
#
# Total GULP energy -356882.927569 kJ/mol
# GULP energy per Si atom -5576.295743 kJ/mol
# Density = 2.064745 g / cm^3
# Si number density = 20.694550 Si / 1000 Ang^3
#
#
#
# Elastic Constant Matrix: (Units=GPa)
#
#
# Indices 1 2 3 4 5 6 
#
# 1 89.2809 29.4353 40.7910 0.0000 0.0000 0.0000
# 2 29.4353 101.9545 38.2540 0.0000 0.0000 0.0000
# 3 40.7910 38.2540 116.2588 0.0000 0.0000 0.0000
# 4 0.0000 0.0000 0.0000 34.9786 0.0000 0.0000
# 5 0.0000 0.0000 0.0000 0.0000 23.7531 0.0000
# 6 0.0000 0.0000 0.0000 0.0000 0.0000 29.5509
#
#
#
# Elastic Compliance Matrix: (Units=1/GPa)
#
#
# Indices 1 2 3 4 5 6 
#
# 1 0.013870 -0.002485 -0.004049 0.000000 0.000000 0.000000
# 2 -0.002485 0.011635 -0.002956 0.000000 0.000000 0.000000
# 3 -0.004049 -0.002956 0.010995 0.000000 0.000000 0.000000
# 4 0.000000 0.000000 0.000000 0.028589 0.000000 0.000000
# 5 0.000000 0.000000 0.000000 0.000000 0.042100 0.000000
# 6 0.000000 0.000000 0.000000 0.000000 0.000000 0.033840
#
#
# Mechanical properties :
#
#
# Convention : Reuss Voigt Hill
#
# Bulk Modulus (GPa) = 57.08099 58.27274 57.67687
# Shear Modulus (GPa) = 30.14798 30.92411 30.53605
#
# Velocity S-wave (km/s) = 3.82096 3.86983 3.84547
# Velocity P-wave (km/s) = 6.86358 6.94169 6.90275
#
# Compressibility (1/GPa) = 0.01751897
#
# Stress axis : x y z
#
# Youngs Moduli (GPa) = 72.09945 85.94687 90.95200
#
# Poissons Ratio (x) = 0.21360 0.36823
# Poissons Ratio (y) = 0.17919 0.26889
# Poissons Ratio (z) = 0.29190 0.25410
#
# Static dielectric constant tensor:
#      x y z
#    x 1.797610 0.000000 0.000000 
#    y 0.000000 1.834330 0.000000 
#    z 0.000000 0.000000 1.729930 
# 
# From -- ./inp_files/23474.got.cif
#   From: 2010.05.17/outbox.cif.g08.bks.cpg/sg55_12_cif.got.tgz:23474.got - 2010.06.03 13:27:54.
