data_PCOD9428877
_publ_section_title
;
Structure prediction by ZEFSAII (Michael W. Deem and Ramdas Pophale) SiO2 
 PCOD9428877
Probable space group: P B A M
;
_chemical_formula_sum "Si O2"
_cell_formula_units_Z 64
_cell_length_a 12.031242
_cell_length_b 16.657400
_cell_length_c 14.073499
_cell_angle_alpha 90.000000
_cell_angle_beta 90.000000
_cell_angle_gamma 90.000000
_cell_volume 2820.458823
_symmetry_space_group_name_H-M "P B A M"
_symmetry_group_IT_number 55
_symmetry_cell_setting 'orthorhombic'
loop_
_space_group_symop_operation_xyz
x,y,z
-x,-y,z
1/2+x,1/2-y,-z
1/2-x,1/2+y,-z
-x,-y,-z
x,y,-z
1/2-x,1/2+y,z
1/2+x,1/2-y,z
loop_
_atom_site_type_symbol
_atom_site_label
_atom_site_fract_x
_atom_site_fract_y
_atom_site_fract_z
Si Si1 0.185647 0.150095 0.767337
Si Si2 0.551199 0.586468 0.785605
Si Si3 0.167177 0.557181 0.886502
Si Si4 0.657089 0.807910 0.611387
Si Si5 0.048447 0.413618 0.615026
Si Si6 0.223853 0.795186 0.889527
Si Si7 0.941424 0.605807 0.110161
Si Si8 0.196287 0.882658 0.612372
O O1 0.223789 0.074279 0.828816
O O2 0.240755 0.149717 0.664406
O O3 0.254587 0.220652 0.820383
O O4 0.053300 0.147146 0.769262
O O5 0.500000 0.500000 0.817632
O O6 0.638333 0.636371 0.852371
O O7 0.614824 0.573320 0.685452
O O8 0.117200 0.473314 0.852017
O O9 0.066798 0.617810 0.858739
O O10 0.189921 0.558062 0.000000
O O11 0.665380 0.825820 0.500000
O O12 0.538966 0.844683 0.644062
O O13 0.668535 0.712188 0.622124
O O14 0.051472 0.413974 0.500000
O O15 0.175369 0.396505 0.643347
O O16 0.000000 0.500000 0.644990
O O17 0.350017 0.827587 0.887410
O O18 0.196297 0.774296 0.000000
O O19 0.958704 0.585407 0.000000
O O20 0.184864 0.903741 0.500000
#
# Coordination Sequence:
#
# PCOD9428877 Si02
#       8
#     8   8   8   8   8   8   8   8
#     4  12  26  41  65 100 133 180 228 278 339 417
#     4  12  29  47  67 103 148 189 237 286 354 436
#     4   9  18  37  64  94 126 162 215 272 332 397
#     4  10  23  43  69  99 138 183 231 292 355 415
#     4   9  20  41  71 104 135 176 236 295 350 410
#     4  11  25  45  70  96 132 177 228 285 345 413
#     4   8  17  36  64  93 123 163 209 270 334 393
#     4  10  23  44  70 100 141 189 236 292 354 419
#
# _framework density 22.691343
#
# number of rings (size 3 to 8) (size 9 to 14) (size 15 to 20)
#    0.000    1.875    1.250    1.875    5.250    3.000 
#    2.250    0.000    0.000    0.000    0.000    0.000 
#    0.000    0.000    0.000    0.000    0.000    0.000 
#
# Total GULP energy -357108.705102 kJ/mol
# GULP energy per Si atom -5579.823517 kJ/mol
# Density = 2.263970 g / cm^3
# Si number density = 22.691343 Si / 1000 Ang^3
#
#
#
# Elastic Constant Matrix: (Units=GPa)
#
#
# Indices 1 2 3 4 5 6 
#
# 1 123.8590 39.5245 25.9030 0.0000 0.0000 0.0000
# 2 39.5245 69.1284 14.9206 0.0000 0.0000 0.0000
# 3 25.9030 14.9206 95.7782 0.0000 0.0000 0.0000
# 4 0.0000 0.0000 0.0000 25.4365 0.0000 0.0000
# 5 0.0000 0.0000 0.0000 0.0000 37.3788 0.0000
# 6 0.0000 0.0000 0.0000 0.0000 0.0000 40.7839
#
#
#
# Elastic Compliance Matrix: (Units=1/GPa)
#
#
# Indices 1 2 3 4 5 6 
#
# 1 0.010204 -0.005421 -0.001915 0.000000 0.000000 0.000000
# 2 -0.005421 0.017849 -0.001315 0.000000 0.000000 0.000000
# 3 -0.001915 -0.001315 0.011164 0.000000 0.000000 0.000000
# 4 0.000000 0.000000 0.000000 0.039314 0.000000 0.000000
# 5 0.000000 0.000000 0.000000 0.000000 0.026753 0.000000
# 6 0.000000 0.000000 0.000000 0.000000 0.000000 0.024519
#
#
# Mechanical properties :
#
#
# Convention : Reuss Voigt Hill
#
# Bulk Modulus (GPa) = 45.62991 49.94020 47.78506
# Shear Modulus (GPa) = 32.38154 34.61434 33.49794
#
# Velocity S-wave (km/s) = 3.78172 3.90993 3.84636
# Velocity P-wave (km/s) = 6.26268 6.51457 6.38987
#
# Compressibility (1/GPa) = 0.02191545
#
# Stress axis : x y z
#
# Youngs Moduli (GPa) = 98.00017 56.02572 89.57743
#
# Poissons Ratio (x) = 0.30371 0.17156
# Poissons Ratio (y) = 0.53124 0.11775
# Poissons Ratio (z) = 0.18769 0.07365
#
# Static dielectric constant tensor:
#      x y z
#    x 1.761080 0.000000 0.000000 
#    y 0.000000 1.887160 0.000000 
#    z 0.000000 0.000000 1.879450 
# 
# From -- ./inp_files/18589.got.cif
#   From: 2010.05.17/outbox.cif.g08.bks.cpg/sg55_10_cif.got.tgz:18589.got - 2010.06.03 13:27:54.
