data_PCOD9428135
_publ_section_title
;
Structure prediction by ZEFSAII (Michael W. Deem and Ramdas Pophale) SiO2 
 PCOD9428135
Probable space group: P B A M
;
_chemical_formula_sum "Si O2"
_cell_formula_units_Z 64
_cell_length_a 14.519351
_cell_length_b 7.463856
_cell_length_c 25.914010
_cell_angle_alpha 90.000000
_cell_angle_beta 90.000000
_cell_angle_gamma 90.000000
_cell_volume 2808.310206
_symmetry_space_group_name_H-M "P B A M"
_symmetry_group_IT_number 55
_symmetry_cell_setting 'orthorhombic'
loop_
_space_group_symop_operation_xyz
x,y,z
-x,-y,z
1/2+x,1/2-y,-z
1/2-x,1/2+y,-z
-x,-y,-z
x,y,-z
1/2-x,1/2+y,z
1/2+x,1/2-y,z
loop_
_atom_site_type_symbol
_atom_site_label
_atom_site_fract_x
_atom_site_fract_y
_atom_site_fract_z
Si Si1 0.615040 0.698749 0.055686
Si Si2 0.827078 0.623891 0.167007
Si Si3 0.458093 0.803012 0.364557
Si Si4 0.116573 0.793398 0.168553
Si Si5 0.392162 0.321460 0.557178
Si Si6 0.828521 0.616303 0.055118
Si Si7 0.808926 0.782110 0.557804
Si Si8 0.529772 0.212381 0.248099
O O1 0.575371 0.658388 0.112216
O O2 0.717320 0.611897 0.055441
O O3 0.632632 0.914439 0.055173
O O4 0.571321 0.656414 0.000000
O O5 0.862488 0.420094 0.166344
O O6 0.717477 0.621521 0.173985
O O7 0.851663 0.702276 0.110233
O O8 0.879725 0.722351 0.212654
O O9 0.531060 0.700302 0.400188
O O10 0.362564 0.810921 0.395655
O O11 0.452264 0.729387 0.306599
O O12 0.500000 0.000000 0.360900
O O13 0.050035 0.815495 0.217045
O O14 0.430187 0.278887 0.500000
O O15 0.300168 0.206591 0.566568
O O16 0.352689 0.521409 0.556366
O O17 0.855944 0.700558 0.000000
O O18 0.821543 0.701281 0.500000
O O19 0.500000 0.000000 0.249523
#
# Coordination Sequence:
#
# PCOD9428135 Si02
#       8
#     8   8   8   8   8   8   8   8
#     4   8  13  22  40  66  91 117 153 198 249 303
#     4   9  17  32  51  69  95 130 166 207 255 304
#     4  11  22  36  55  79 110 147 184 221 262 308
#     4   9  17  32  51  69  95 130 166 207 255 304
#     4  10  21  38  60  86 114 142 174 214 262 315
#     4   8  13  22  40  66  91 117 153 198 249 303
#     4  10  21  38  60  86 114 142 174 214 262 315
#     4   9  20  36  51  71 101 137 174 211 252 298
#
# _framework density 22.789504000000001
#
# number of rings (size 3 to 8) (size 9 to 14) (size 15 to 20)
#    0.000    2.750    0.000    1.500    0.000    4.000 
#    0.000    6.250    0.000    3.750    0.000    0.000 
#    0.000   20.000    0.000    0.000    0.000    0.000 
#
# Total GULP energy -357342.618234 kJ/mol
# GULP energy per Si atom -5583.478410 kJ/mol
# Density = 2.273763 g / cm^3
# Si number density = 22.789504 Si / 1000 Ang^3
#
#
#
# Elastic Constant Matrix: (Units=GPa)
#
#
# Indices 1 2 3 4 5 6 
#
# 1 82.9659 19.4902 82.0064 0.0000 0.0000 0.0000
# 2 19.4902 37.4436 29.3687 0.0000 0.0000 0.0000
# 3 82.0064 29.3687 242.1715 0.0000 0.0000 0.0000
# 4 0.0000 0.0000 0.0000 10.6243 0.0000 0.0000
# 5 0.0000 0.0000 0.0000 0.0000 782.3136 0.0000
# 6 0.0000 0.0000 0.0000 0.0000 0.0000 23.4591
#
#
#
# Elastic Compliance Matrix: (Units=1/GPa)
#
#
# Indices 1 2 3 4 5 6 
#
# 1 0.019045 -0.005365 -0.005799 0.000000 0.000000 0.000000
# 2 -0.005365 0.031026 -0.001946 0.000000 0.000000 0.000000
# 3 -0.005799 -0.001946 0.006329 0.000000 0.000000 0.000000
# 4 0.000000 0.000000 0.000000 0.094124 0.000000 0.000000
# 5 0.000000 0.000000 0.000000 0.000000 0.001278 0.000000
# 6 0.000000 0.000000 0.000000 0.000000 0.000000 0.042627
#
#
# Mechanical properties :
#
#
# Convention : Reuss Voigt Hill
#
# Bulk Modulus (GPa) = 33.13400 69.36795 51.25097
# Shear Modulus (GPa) = 21.67239 178.72710 100.19974
#
# Velocity S-wave (km/s) = 3.08714 8.86541 6.63799
# Velocity P-wave (km/s) = 5.22283 11.63179 9.01600
#
# Compressibility (1/GPa) = 0.03018048
#
# Stress axis : x y z
#
# Youngs Moduli (GPa) = 52.50709 32.23129 158.00714
#
# Poissons Ratio (x) = 0.17293 0.91621
# Poissons Ratio (y) = 0.28172 0.30744
# Poissons Ratio (z) = 0.30446 0.06271
#
# Static dielectric constant tensor:
#      x y z
#    x 1.815260 0.000000 0.000000 
#    y 0.000000 1.915700 0.000000 
#    z 0.000000 0.000000 1.863690 
# 
# From -- ./inp_files/23621.got.cif
#   From: 2010.05.17/outbox.cif.g08.bks.cpg/sg55_12_cif.got.tgz:23621.got - 2010.06.03 13:27:54.
