data_PCOD9428356
_publ_section_title
;
Structure prediction by ZEFSAII (Michael W. Deem and Ramdas Pophale) SiO2 
 PCOD9428356
Probable space group: P B A M
;
_chemical_formula_sum "Si O2"
_cell_formula_units_Z 48
_cell_length_a 16.014333
_cell_length_b 10.023531
_cell_length_c 14.882377
_cell_angle_alpha 90.000000
_cell_angle_beta 90.000000
_cell_angle_gamma 90.000000
_cell_volume 2388.921586
_symmetry_space_group_name_H-M "P B A M"
_symmetry_group_IT_number 55
_symmetry_cell_setting 'orthorhombic'
loop_
_space_group_symop_operation_xyz
x,y,z
-x,-y,z
1/2+x,1/2-y,-z
1/2-x,1/2+y,-z
-x,-y,-z
x,y,-z
1/2-x,1/2+y,z
1/2+x,1/2-y,z
loop_
_atom_site_type_symbol
_atom_site_label
_atom_site_fract_x
_atom_site_fract_y
_atom_site_fract_z
Si Si1 0.218223 0.802543 0.500000
Si Si2 0.874174 0.102647 0.321142
Si Si3 0.092311 0.477093 0.689692
Si Si4 0.652722 0.972187 0.500000
Si Si5 0.058389 0.182582 0.717033
Si Si6 0.263368 0.959312 0.176954
Si Si7 0.846327 0.804466 0.897974
O O1 0.167321 0.845748 0.411654
O O2 0.302916 0.885195 0.500000
O O3 0.222686 0.642972 0.500000
O O4 0.806851 0.105827 0.241365
O O5 0.959393 0.179662 0.297894
O O6 0.901709 0.947696 0.328173
O O7 0.101183 0.540859 0.591624
O O8 0.098973 0.317174 0.680346
O O9 0.165855 0.519012 0.756450
O O10 0.000000 0.500000 0.727732
O O11 0.082363 0.177146 0.822433
O O12 0.304695 0.840076 0.120302
O O13 0.220272 0.077682 0.121580
O O14 0.876157 0.812969 0.000000
#
# Coordination Sequence:
#
# PCOD9428356 Si02
#       7
#     4   8   8   4   8   8   8
#     4  12  26  37  66  90 128 163 218 256 289 368
#     4  10  21  41  61  92 123 164 212 245 314 359
#     4  11  23  39  61  89 129 162 211 253 309 362
#     4  12  27  38  60  95 122 169 214 260 295 361
#     4   9  22  39  64  88 121 166 198 260 311 374
#     4  10  22  37  66  87 123 165 198 250 310 372
#     4  10  21  40  63  92 121 156 206 257 308 374
#
# _framework density 20.092748
#
# number of rings (size 3 to 8) (size 9 to 14) (size 15 to 20)
#    0.000    1.667    1.667    1.750    7.000    2.000 
#    0.000    7.500    0.000    2.500    0.000    0.000 
#    0.000    0.000    0.000    0.000    0.000    0.000 
#
# Total GULP energy -268218.334799 kJ/mol
# GULP energy per Si atom -5587.881975 kJ/mol
# Density = 2.004702 g / cm^3
# Si number density = 20.092748 Si / 1000 Ang^3
#
#
#
# Elastic Constant Matrix: (Units=GPa)
#
#
# Indices 1 2 3 4 5 6 
#
# 1 52.5863 -19.8022 1.3296 0.0000 0.0000 0.0000
# 2 -19.8022 46.2591 12.8305 0.0000 0.0000 0.0000
# 3 1.3296 12.8305 86.3648 0.0000 0.0000 0.0000
# 4 0.0000 0.0000 0.0000 17.9526 0.0000 0.0000
# 5 0.0000 0.0000 0.0000 0.0000 13.7524 0.0000
# 6 0.0000 0.0000 0.0000 0.0000 0.0000 21.9711
#
#
#
# Elastic Compliance Matrix: (Units=1/GPa)
#
#
# Indices 1 2 3 4 5 6 
#
# 1 0.022963 0.010355 -0.001892 0.000000 0.000000 0.000000
# 2 0.010355 0.027216 -0.004203 0.000000 0.000000 0.000000
# 3 -0.001892 -0.004203 0.012232 0.000000 0.000000 0.000000
# 4 0.000000 0.000000 0.000000 0.055702 0.000000 0.000000
# 5 0.000000 0.000000 0.000000 0.000000 0.072715 0.000000
# 6 0.000000 0.000000 0.000000 0.000000 0.000000 0.045514
#
#
# Mechanical properties :
#
#
# Convention : Reuss Voigt Hill
#
# Bulk Modulus (GPa) = 14.09808 19.32513 16.71160
# Shear Modulus (GPa) = 19.88343 23.45871 21.67107
#
# Velocity S-wave (km/s) = 3.14918 3.42061 3.28769
# Velocity P-wave (km/s) = 4.50053 5.02390 4.76940
#
# Compressibility (1/GPa) = 0.07093167
#
# Stress axis : x y z
#
# Youngs Moduli (GPa) = 43.54759 36.74368 81.75097
#
# Poissons Ratio (x) = -0.38047 0.15466
# Poissons Ratio (y) = -0.45092 0.34357
# Poissons Ratio (z) = 0.08239 0.15442
#
# Static dielectric constant tensor:
#      x y z
#    x 1.692110 0.000000 0.000000 
#    y 0.000000 1.747820 0.000000 
#    z 0.000000 0.000000 1.669600 
# 
# From -- ./inp_files/18889.got.cif
#   From: 2010.05.17/outbox.cif.g08.bks.cpg/sg55_10_cif.got.tgz:18889.got - 2010.06.03 13:27:54.
