data_PCOD9428138
_publ_section_title
;
Structure prediction by ZEFSAII (Michael W. Deem and Ramdas Pophale) SiO2 
 PCOD9428138
Probable space group: P B A M
;
_chemical_formula_sum "Si O2"
_cell_formula_units_Z 58
_cell_length_a 27.179908
_cell_length_b 11.408679
_cell_length_c 9.521286
_cell_angle_alpha 90.000000
_cell_angle_beta 90.000000
_cell_angle_gamma 90.000000
_cell_volume 2952.425542
_symmetry_space_group_name_H-M "P B A M"
_symmetry_group_IT_number 55
_symmetry_cell_setting 'orthorhombic'
loop_
_space_group_symop_operation_xyz
x,y,z
-x,-y,z
1/2+x,1/2-y,-z
1/2-x,1/2+y,-z
-x,-y,-z
x,y,-z
1/2-x,1/2+y,z
1/2+x,1/2-y,z
loop_
_atom_site_type_symbol
_atom_site_label
_atom_site_fract_x
_atom_site_fract_y
_atom_site_fract_z
Si Si1 0.875757 0.240976 0.156381
Si Si2 0.385327 0.989408 0.166140
Si Si3 0.801108 0.636963 0.334242
Si Si4 0.158841 0.146928 0.166222
Si Si5 0.000000 0.000000 0.500000
Si Si6 0.313266 0.417682 0.663990
Si Si7 0.971013 0.104029 0.773892
Si Si8 0.946691 0.728633 0.835921
O O1 0.894446 0.373139 0.180051
O O2 0.837842 0.199292 0.273608
O O3 0.922025 0.153742 0.160720
O O4 0.853252 0.236751 0.000000
O O5 0.339430 0.951421 0.261145
O O6 0.430314 0.902699 0.203244
O O7 0.374639 0.964591 0.000000
O O8 0.812319 0.653262 0.500000
O O9 0.808529 0.757573 0.248817
O O10 0.745559 0.591955 0.322177
O O11 0.102680 0.193407 0.179138
O O12 0.166799 0.023614 0.241202
O O13 0.170211 0.142079 0.000000
O O14 0.962428 0.045233 0.623669
O O15 0.324958 0.434158 0.500000
O O16 0.009339 0.210755 0.753524
O O17 0.000000 0.000000 0.852928
O O18 0.961394 0.728999 0.000000
#
# Coordination Sequence:
#
# PCOD9428138 Si02
#       8
#     8   8   8   8   2   8   8   8
#     4  11  24  39  61  93 123 159 205 252 308 365
#     4   9  21  41  61  88 124 159 202 254 304 363
#     4  10  22  41  59  87 117 159 202 245 308 370
#     4  10  21  38  62  90 116 150 201 252 300 356
#     4   8  24  40  54  86 120 164 198 244 306 364
#     4  11  25  39  60  84 122 160 199 251 308 370
#     4  10  21  38  60  86 123 160 203 248 301 359
#     4   9  18  36  61  86 115 153 195 245 297 348
#
# _framework density 19.644864999999999
#
# number of rings (size 3 to 8) (size 9 to 14) (size 15 to 20)
#    0.414    1.655    0.000    3.310    2.897    5.517 
#    4.966    2.069    0.000    0.828    0.000    0.000 
#    0.000    0.000    0.000    0.000    0.000    0.000 
#
# Total GULP energy -323100.786579 kJ/mol
# GULP energy per Si atom -5570.703217 kJ/mol
# Density = 1.960015 g / cm^3
# Si number density = 19.644865 Si / 1000 Ang^3
#
#
#
# Elastic Constant Matrix: (Units=GPa)
#
#
# Indices 1 2 3 4 5 6 
#
# 1 38.9745 10.7214 16.8265 0.0000 0.0000 0.0000
# 2 10.7214 74.3664 26.5148 0.0000 0.0000 0.0000
# 3 16.8265 26.5148 103.1412 0.0000 0.0000 0.0000
# 4 0.0000 0.0000 0.0000 12.9714 0.0000 0.0000
# 5 0.0000 0.0000 0.0000 0.0000 5.9131 0.0000
# 6 0.0000 0.0000 0.0000 0.0000 0.0000 11.5671
#
#
#
# Elastic Compliance Matrix: (Units=1/GPa)
#
#
# Indices 1 2 3 4 5 6 
#
# 1 0.028071 -0.002658 -0.003896 0.000000 0.000000 0.000000
# 2 -0.002658 0.015055 -0.003437 0.000000 0.000000 0.000000
# 3 -0.003896 -0.003437 0.011215 0.000000 0.000000 0.000000
# 4 0.000000 0.000000 0.000000 0.077093 0.000000 0.000000
# 5 0.000000 0.000000 0.000000 0.000000 0.169117 0.000000
# 6 0.000000 0.000000 0.000000 0.000000 0.000000 0.086452
#
#
# Mechanical properties :
#
#
# Convention : Reuss Voigt Hill
#
# Bulk Modulus (GPa) = 29.10408 36.06749 32.58579
# Shear Modulus (GPa) = 11.94919 16.91826 14.43373
#
# Velocity S-wave (km/s) = 2.46897 2.93781 2.71354
# Velocity P-wave (km/s) = 4.79323 5.46875 5.14210
#
# Compressibility (1/GPa) = 0.03435944
#
# Stress axis : x y z
#
# Youngs Moduli (GPa) = 35.62382 66.42112 89.16956
#
# Poissons Ratio (x) = 0.17653 0.34743
# Poissons Ratio (y) = 0.09468 0.30645
# Poissons Ratio (z) = 0.13880 0.22827
#
# Static dielectric constant tensor:
#      x y z
#    x 1.692260 0.000000 0.000000 
#    y 0.000000 1.727990 0.000000 
#    z 0.000000 0.000000 1.633260 
# 
# From -- ./inp_files/10211.got.cif
#   From: 2010.05.17/outbox.cif.g08.bks.cpg/sg55_6_cif.got.tgz:10211.got - 2010.06.03 13:27:54.
