data_PCOD9428765
_publ_section_title
;
Structure prediction by ZEFSAII (Michael W. Deem and Ramdas Pophale) SiO2 
 PCOD9428765
Probable space group: P B A M
;
_chemical_formula_sum "Si O2"
_cell_formula_units_Z 30
_cell_length_a 13.885304
_cell_length_b 6.891797
_cell_length_c 12.541200
_cell_angle_alpha 90.000000
_cell_angle_beta 90.000000
_cell_angle_gamma 90.000000
_cell_volume 1200.126327
_symmetry_space_group_name_H-M "P B A M"
_symmetry_group_IT_number 55
_symmetry_cell_setting 'orthorhombic'
loop_
_space_group_symop_operation_xyz
x,y,z
-x,-y,z
1/2+x,1/2-y,-z
1/2-x,1/2+y,-z
-x,-y,-z
x,y,-z
1/2-x,1/2+y,z
1/2+x,1/2-y,z
loop_
_atom_site_type_symbol
_atom_site_label
_atom_site_fract_x
_atom_site_fract_y
_atom_site_fract_z
Si Si1 0.500000 0.000000 0.304900
Si Si2 0.839614 0.153689 0.846589
Si Si3 0.000000 0.000000 0.000000
Si Si4 0.903613 0.130991 0.384041
Si Si5 0.881830 0.602033 0.883747
O O1 0.435605 0.144073 0.373254
O O2 0.438496 0.859747 0.225337
O O3 0.913974 0.017547 0.907557
O O4 0.841254 0.100596 0.721860
O O5 0.878044 0.367502 0.875128
O O6 0.729100 0.158907 0.881606
O O7 0.858028 0.095233 0.500000
O O8 0.000000 0.000000 0.378955
O O9 0.926246 0.657098 0.000000
#
# Coordination Sequence:
#
# PCOD9428765 Si02
#       5
#     4   8   2   8   8
#     4  10  24  40  66  94 132 167 223 266 324 388
#     4  11  24  39  64  94 130 170 216 267 332 396
#     4  12  20  40  62  92 132 168 210 268 328 390
#     4  10  22  43  67  92 125 171 216 265 323 380
#     4  11  22  40  60  99 131 171 212 271 331 397
#
# _framework density 24.997368000000002
#
# number of rings (size 3 to 8) (size 9 to 14) (size 15 to 20)
#    0.000    1.333    4.000    0.800    3.733    0.000 
#    9.600    6.667    0.000    0.000    0.000    0.000 
#    0.000    0.000    0.000    0.000    0.000    0.000 
#
# Total GULP energy -167416.444631 kJ/mol
# GULP energy per Si atom -5580.548154 kJ/mol
# Density = 2.494047 g / cm^3
# Si number density = 24.997368 Si / 1000 Ang^3
#
#
#
# Elastic Constant Matrix: (Units=GPa)
#
#
# Indices 1 2 3 4 5 6 
#
# 1 94.2352 -45.8217 10.7825 0.0000 0.0000 0.0000
# 2 -45.8217 41.4318 -15.4706 0.0000 0.0000 0.0000
# 3 10.7825 -15.4706 205.9076 0.0000 0.0000 0.0000
# 4 0.0000 0.0000 0.0000 24.6514 0.0000 0.0000
# 5 0.0000 0.0000 0.0000 0.0000 -13.1075 0.0000
# 6 0.0000 0.0000 0.0000 0.0000 0.0000 22.7185
#
#
#
# Elastic Compliance Matrix: (Units=1/GPa)
#
#
# Indices 1 2 3 4 5 6 
#
# 1 0.023064 0.025780 0.000729 0.000000 0.000000 0.000000
# 2 0.025780 0.053648 0.002681 0.000000 0.000000 0.000000
# 3 0.000729 0.002681 0.005020 0.000000 0.000000 0.000000
# 4 0.000000 0.000000 0.000000 0.040566 0.000000 0.000000
# 5 0.000000 0.000000 0.000000 0.000000 -0.076292 0.000000
# 6 0.000000 0.000000 0.000000 0.000000 0.000000 0.044017
#
#
# Mechanical properties :
#
#
# Convention : Reuss Voigt Hill
#
# Bulk Modulus (GPa) = 7.13722 26.72832 16.93277
# Shear Modulus (GPa) = 63.81900 32.99143 48.40521
#
# Velocity S-wave (km/s) = 5.05823 3.63684 4.40524
# Velocity P-wave (km/s) = 6.08076 5.32458 5.71519
#
# Compressibility (1/GPa) = 0.14011060
#
# Stress axis : x y z
#
# Youngs Moduli (GPa) = 43.35838 18.63999 199.21172
#
# Poissons Ratio (x) = -0.48053 -0.14526
# Poissons Ratio (y) = -1.11776 -0.53405
# Poissons Ratio (z) = -0.03162 -0.04997
#
# Static dielectric constant tensor:
#      x y z
#    x 1.894210 0.000000 0.000000 
#    y 0.000000 0.096170 0.000000 
#    z 0.000000 0.000000 1.992480 
# 
# From -- ./inp_files/13784.got.cif
#   From: 2010.05.17/outbox.cif.g08.bks.cpg/sg55_7_cif.got.tgz:13784.got - 2010.06.03 13:27:54.
