data_PCOD9428201
_publ_section_title
;
Structure prediction by ZEFSAII (Michael W. Deem and Ramdas Pophale) SiO2 
 PCOD9428201
Probable space group: P B A M
;
_chemical_formula_sum "Si O2"
_cell_formula_units_Z 48
_cell_length_a 28.723481
_cell_length_b 9.518535
_cell_length_c 8.502722
_cell_angle_alpha 90.000000
_cell_angle_beta 90.000000
_cell_angle_gamma 90.000000
_cell_volume 2324.690613
_symmetry_space_group_name_H-M "P B A M"
_symmetry_group_IT_number 55
_symmetry_cell_setting 'orthorhombic'
loop_
_space_group_symop_operation_xyz
x,y,z
-x,-y,z
1/2+x,1/2-y,-z
1/2-x,1/2+y,-z
-x,-y,-z
x,y,-z
1/2-x,1/2+y,z
1/2+x,1/2-y,z
loop_
_atom_site_type_symbol
_atom_site_label
_atom_site_fract_x
_atom_site_fract_y
_atom_site_fract_z
Si Si1 0.775681 0.323364 0.813704
Si Si2 0.543310 0.904135 0.309507
Si Si3 0.482512 0.657397 0.683230
Si Si4 0.805034 0.017445 0.686399
Si Si5 0.120267 0.177617 0.185571
Si Si6 0.857368 0.520685 0.689302
O O1 0.731049 0.394165 0.732186
O O2 0.817614 0.428286 0.768822
O O3 0.788140 0.165811 0.757846
O O4 0.768013 0.321426 0.000000
O O5 0.546217 0.909021 0.500000
O O6 0.525885 0.751296 0.261551
O O7 0.592838 0.958978 0.255048
O O8 0.500000 0.000000 0.260843
O O9 0.500000 0.500000 0.688500
O O10 0.472513 0.696535 0.500000
O O11 0.434531 0.678524 0.774298
O O12 0.807000 0.033975 0.500000
O O13 0.854648 0.961778 0.748800
O O14 0.142680 0.315938 0.264692
O O15 0.127484 0.185095 0.000000
O O16 0.853219 0.508189 0.500000
#
# Coordination Sequence:
#
# PCOD9428201 Si02
#       6
#     8   8   8   8   8   8
#     4  12  26  46  69 101 137 167 203 266 334 384
#     4   9  17  34  60  91 123 163 216 268 309 363
#     4  10  21  38  62  91 125 170 220 270 321 384
#     4  12  26  47  72  97 126 170 221 262 311 390
#     4  12  25  42  63  94 133 173 214 273 337 382
#     4  11  22  40  67  96 129 174 224 266 313 388
#
# _framework density 20.64791
#
# number of rings (size 3 to 8) (size 9 to 14) (size 15 to 20)
#    0.000    1.000    1.667    6.000    2.333    0.333 
#    0.000    2.500    0.000    0.000    0.000    0.000 
#    0.000    0.000    0.000    0.000    0.000    0.000 
#
# Total GULP energy -268427.563974 kJ/mol
# GULP energy per Si atom -5592.240916 kJ/mol
# Density = 2.060091 g / cm^3
# Si number density = 20.647910 Si / 1000 Ang^3
#
#
#
# Elastic Constant Matrix: (Units=GPa)
#
#
# Indices 1 2 3 4 5 6 
#
# 1 66.0527 -2.1232 -8.8630 0.0000 0.0000 0.0000
# 2 -2.1232 80.2349 -3.0401 0.0000 0.0000 0.0000
# 3 -8.8630 -3.0401 49.4447 0.0000 0.0000 0.0000
# 4 0.0000 0.0000 0.0000 28.0956 0.0000 0.0000
# 5 0.0000 0.0000 0.0000 0.0000 -146.4713 0.0000
# 6 0.0000 0.0000 0.0000 0.0000 0.0000 36.9707
#
#
#
# Elastic Compliance Matrix: (Units=1/GPa)
#
#
# Indices 1 2 3 4 5 6 
#
# 1 0.015534 0.000518 0.002816 0.000000 0.000000 0.000000
# 2 0.000518 0.012510 0.000862 0.000000 0.000000 0.000000
# 3 0.002816 0.000862 0.020782 0.000000 0.000000 0.000000
# 4 0.000000 0.000000 0.000000 0.035593 0.000000 0.000000
# 5 0.000000 0.000000 0.000000 0.000000 -0.006827 0.000000
# 6 0.000000 0.000000 0.000000 0.000000 0.000000 0.027048
#
#
# Mechanical properties :
#
#
# Convention : Reuss Voigt Hill
#
# Bulk Modulus (GPa) = 17.47692 18.63108 18.05400
# Shear Modulus (GPa) = 43.35734 -2.29709 20.53013
#
# Velocity S-wave (km/s) = 4.58737 -1.05590 3.15667
# Velocity P-wave (km/s) = 6.04494 2.74886 4.69561
#
# Compressibility (1/GPa) = 0.05721831
#
# Stress axis : x y z
#
# Youngs Moduli (GPa) = 64.37509 79.93757 48.11751
#
# Poissons Ratio (x) = -0.04139 -0.13551
# Poissons Ratio (y) = -0.03333 -0.04148
# Poissons Ratio (z) = -0.18130 -0.06890
#
# Static dielectric constant tensor:
#      x y z
#    x 1.734970 0.000000 0.000000 
#    y 0.000000 1.783330 0.000000 
#    z 0.000000 0.000000 1.711860 
# 
# From -- ./inp_files/10487.got.cif
#   From: 2010.05.17/outbox.cif.g08.bks.cpg/sg55_6_cif.got.tgz:10487.got - 2010.06.03 13:27:54.
