data_PCOD9428334
_publ_section_title
;
Structure prediction by ZEFSAII (Michael W. Deem and Ramdas Pophale) SiO2 
 PCOD9428334
Probable space group: P B A M
;
_chemical_formula_sum "Si O2"
_cell_formula_units_Z 40
_cell_length_a 15.280889
_cell_length_b 9.893511
_cell_length_c 11.814468
_cell_angle_alpha 90.000000
_cell_angle_beta 90.000000
_cell_angle_gamma 90.000000
_cell_volume 1786.130688
_symmetry_space_group_name_H-M "P B A M"
_symmetry_group_IT_number 55
_symmetry_cell_setting 'orthorhombic'
loop_
_space_group_symop_operation_xyz
x,y,z
-x,-y,z
1/2+x,1/2-y,-z
1/2-x,1/2+y,-z
-x,-y,-z
x,y,-z
1/2-x,1/2+y,z
1/2+x,1/2-y,z
loop_
_atom_site_type_symbol
_atom_site_label
_atom_site_fract_x
_atom_site_fract_y
_atom_site_fract_z
Si Si1 0.788123 0.537789 0.230795
Si Si2 0.405261 0.789892 0.627262
Si Si3 0.582774 0.787617 0.253340
Si Si4 0.597559 0.503321 0.713328
Si Si5 0.944721 0.291959 0.000000
Si Si6 0.369928 0.900852 0.000000
O O1 0.815947 0.644621 0.326994
O O2 0.848922 0.408438 0.257816
O O3 0.688382 0.491488 0.220721
O O4 0.815004 0.607366 0.113483
O O5 0.423772 0.834579 0.500000
O O6 0.484875 0.832071 0.711296
O O7 0.401675 0.626971 0.633062
O O8 0.602878 0.657607 0.330813
O O9 0.584435 0.737720 0.121964
O O10 0.500000 0.500000 0.767665
O O11 0.910451 0.447324 0.000000
O O12 0.049699 0.298172 0.000000
#
# Coordination Sequence:
#
# PCOD9428334 Si02
#       6
#     8   8   8   8   4   4
#     4  11  21  41  68  97 123 166 218 261 310 378
#     4  11  24  42  65  94 127 166 213 268 323 373
#     4  10  21  39  66  93 128 164 210 260 320 387
#     4  10  24  43  59  87 133 171 205 258 320 377
#     4   9  16  35  61  98 127 163 193 255 326 373
#     4   9  18  33  65  97 132 154 196 263 322 363
#
# _framework density 22.394777000000001
#
# number of rings (size 3 to 8) (size 9 to 14) (size 15 to 20)
#    0.000    1.800    2.000    1.800    0.000    6.800 
#    0.000   17.000    0.000    0.000    0.000    0.000 
#    0.000    0.000    0.000    0.000    0.000    0.000 
#
# Total GULP energy -222960.824492 kJ/mol
# GULP energy per Si atom -5574.020612 kJ/mol
# Density = 2.234381 g / cm^3
# Si number density = 22.394777 Si / 1000 Ang^3
#
#
#
# Elastic Constant Matrix: (Units=GPa)
#
#
# Indices 1 2 3 4 5 6 
#
# 1 138.3825 19.6348 28.6274 0.0000 0.0000 0.0000
# 2 19.6348 94.3395 14.0284 0.0000 0.0000 0.0000
# 3 28.6274 14.0284 89.9722 0.0000 0.0000 0.0000
# 4 0.0000 0.0000 0.0000 18.6414 0.0000 0.0000
# 5 0.0000 0.0000 0.0000 0.0000 -1.2206 0.0000
# 6 0.0000 0.0000 0.0000 0.0000 0.0000 26.4335
#
#
#
# Elastic Compliance Matrix: (Units=1/GPa)
#
#
# Indices 1 2 3 4 5 6 
#
# 1 0.007888 -0.001299 -0.002307 0.000000 0.000000 0.000000
# 2 -0.001299 0.011065 -0.001312 0.000000 0.000000 0.000000
# 3 -0.002307 -0.001312 0.012053 0.000000 0.000000 0.000000
# 4 0.000000 0.000000 0.000000 0.053644 0.000000 0.000000
# 5 0.000000 0.000000 0.000000 0.000000 -0.819271 0.000000
# 6 0.000000 0.000000 0.000000 0.000000 0.000000 0.037831
#
#
# Mechanical properties :
#
#
# Convention : Reuss Voigt Hill
#
# Bulk Modulus (GPa) = 47.23549 49.69730 48.46639
# Shear Modulus (GPa) = -7.35406 26.13111 9.38853
#
# Velocity S-wave (km/s) = -1.81410 3.41961 2.04973
# Velocity P-wave (km/s) = 4.09268 6.15071 5.22405
#
# Compressibility (1/GPa) = 0.02117052
#
# Stress axis : x y z
#
# Youngs Moduli (GPa) = 126.77612 90.37178 82.96508
#
# Poissons Ratio (x) = 0.11736 0.19143
# Poissons Ratio (y) = 0.16463 0.10886
# Poissons Ratio (z) = 0.29251 0.11858
#
# Static dielectric constant tensor:
#      x y z
#    x 1.869080 0.000000 0.000000 
#    y 0.000000 1.852830 0.000000 
#    z 0.000000 0.000000 1.794890 
# 
# From -- ./inp_files/13970.got.cif
#   From: 2010.05.17/outbox.cif.g08.bks.cpg/sg55_7_cif.got.tgz:13970.got - 2010.06.03 13:27:54.
