data_PCOD9428767
_publ_section_title
;
Structure prediction by ZEFSAII (Michael W. Deem and Ramdas Pophale) SiO2 
 PCOD9428767
Probable space group: P B A M
;
_chemical_formula_sum "Si O2"
_cell_formula_units_Z 40
_cell_length_a 10.563331
_cell_length_b 12.065496
_cell_length_c 14.852140
_cell_angle_alpha 90.000000
_cell_angle_beta 90.000000
_cell_angle_gamma 90.000000
_cell_volume 1892.932392
_symmetry_space_group_name_H-M "P B A M"
_symmetry_group_IT_number 55
_symmetry_cell_setting 'orthorhombic'
loop_
_space_group_symop_operation_xyz
x,y,z
-x,-y,z
1/2+x,1/2-y,-z
1/2-x,1/2+y,-z
-x,-y,-z
x,y,-z
1/2-x,1/2+y,z
1/2+x,1/2-y,z
loop_
_atom_site_type_symbol
_atom_site_label
_atom_site_fract_x
_atom_site_fract_y
_atom_site_fract_z
Si Si1 0.179523 0.528004 0.394231
Si Si2 0.452380 0.848957 0.294770
Si Si3 0.260260 0.641912 0.097908
Si Si4 0.893820 0.908770 0.725101
Si Si5 0.034504 0.338258 0.097721
O O1 0.156641 0.533602 0.500000
O O2 0.154747 0.404287 0.356551
O O3 0.317573 0.564863 0.365138
O O4 0.080398 0.607029 0.341132
O O5 0.445433 0.716664 0.284486
O O6 0.436082 0.894277 0.192832
O O7 0.297719 0.581153 0.189769
O O8 0.116413 0.687953 0.103808
O O9 0.368238 0.736146 0.095032
O O10 0.268842 0.582842 0.000000
O O11 0.000000 0.000000 0.739744
O O12 0.053118 0.393572 0.000000
#
# Coordination Sequence:
#
# PCOD9428767 Si02
#       5
#     8   8   8   8   8
#     4  11  25  45  67  92 125 173 221 275 339 397
#     4  10  22  43  67  93 129 171 218 267 332 394
#     4   9  18  35  61  96 136 177 217 263 323 393
#     4  11  25  41  67 101 132 168 217 274 332 397
#     4   9  17  33  62  95 131 173 220 266 323 395
#
# _framework density 21.131235
#
# number of rings (size 3 to 8) (size 9 to 14) (size 15 to 20)
#    0.000    2.000    2.000    1.200    2.800    4.000 
#    0.000    3.000    0.000    0.000    0.000    0.000 
#    0.000    0.000    0.000    0.000    0.000    0.000 
#
# Total GULP energy -222899.526272 kJ/mol
# GULP energy per Si atom -5572.488157 kJ/mol
# Density = 2.108314 g / cm^3
# Si number density = 21.131235 Si / 1000 Ang^3
#
#
#
# Elastic Constant Matrix: (Units=GPa)
#
#
# Indices 1 2 3 4 5 6 
#
# 1 87.6093 34.6832 29.4023 0.0000 0.0000 0.0000
# 2 34.6832 108.6826 25.4053 0.0000 0.0000 0.0000
# 3 29.4023 25.4053 198.6181 0.0000 0.0000 0.0000
# 4 0.0000 0.0000 0.0000 20.2919 0.0000 0.0000
# 5 0.0000 0.0000 0.0000 0.0000 28.1412 0.0000
# 6 0.0000 0.0000 0.0000 0.0000 0.0000 25.7013
#
#
#
# Elastic Compliance Matrix: (Units=1/GPa)
#
#
# Indices 1 2 3 4 5 6 
#
# 1 0.013479 -0.003953 -0.001490 0.000000 0.000000 0.000000
# 2 -0.003953 0.010644 -0.000776 0.000000 0.000000 0.000000
# 3 -0.001490 -0.000776 0.005355 0.000000 0.000000 0.000000
# 4 0.000000 0.000000 0.000000 0.049281 0.000000 0.000000
# 5 0.000000 0.000000 0.000000 0.000000 0.035535 0.000000
# 6 0.000000 0.000000 0.000000 0.000000 0.000000 0.038909
#
#
# Mechanical properties :
#
#
# Convention : Reuss Voigt Hill
#
# Bulk Modulus (GPa) = 58.68737 63.76573 61.22655
# Shear Modulus (GPa) = 29.18499 35.18817 32.18658
#
# Velocity S-wave (km/s) = 3.72039 4.08514 3.90702
# Velocity P-wave (km/s) = 6.80354 7.24518 7.02783
#
# Compressibility (1/GPa) = 0.01703944
#
# Stress axis : x y z
#
# Youngs Moduli (GPa) = 74.18756 93.94821 186.75492
#
# Poissons Ratio (x) = 0.37141 0.27821
# Poissons Ratio (y) = 0.29329 0.14497
# Poissons Ratio (z) = 0.11052 0.07293
#
# Static dielectric constant tensor:
#      x y z
#    x 1.767040 0.000000 0.000000 
#    y 0.000000 1.796650 0.000000 
#    z 0.000000 0.000000 1.785420 
# 
# From -- ./inp_files/18158.got.cif
#   From: 2010.05.17/outbox.cif.g08.bks.cpg/sg55_10_cif.got.tgz:18158.got - 2010.06.03 13:27:54.
