data_PCOD9428305
_publ_section_title
;
Structure prediction by ZEFSAII (Michael W. Deem and Ramdas Pophale) SiO2 
 PCOD9428305
Probable space group: P B A M
;
_chemical_formula_sum "Si O2"
_cell_formula_units_Z 40
_cell_length_a 21.743141
_cell_length_b 9.162501
_cell_length_c 9.272446
_cell_angle_alpha 90.000000
_cell_angle_beta 90.000000
_cell_angle_gamma 90.000000
_cell_volume 1847.271075
_symmetry_space_group_name_H-M "P B A M"
_symmetry_group_IT_number 55
_symmetry_cell_setting 'orthorhombic'
loop_
_space_group_symop_operation_xyz
x,y,z
-x,-y,z
1/2+x,1/2-y,-z
1/2-x,1/2+y,-z
-x,-y,-z
x,y,-z
1/2-x,1/2+y,z
1/2+x,1/2-y,z
loop_
_atom_site_type_symbol
_atom_site_label
_atom_site_fract_x
_atom_site_fract_y
_atom_site_fract_z
Si Si1 0.157384 0.508285 0.000000
Si Si2 0.398490 0.834601 0.243275
Si Si3 0.182475 0.446520 0.500000
Si Si4 0.288347 0.344406 0.000000
Si Si5 0.158394 0.042657 0.254223
Si Si6 0.491702 0.829839 0.500000
Si Si7 0.431176 0.428081 0.500000
Si Si8 0.756095 0.818486 0.500000
O O1 0.111274 0.465771 0.868868
O O2 0.215583 0.392663 0.000000
O O3 0.189302 0.671879 0.000000
O O4 0.351282 0.885940 0.364219
O O5 0.374856 0.681413 0.179550
O O6 0.456765 0.800735 0.347051
O O7 0.245446 0.354386 0.500000
O O8 0.189210 0.615998 0.500000
O O9 0.315407 0.426106 0.858282
O O10 0.210742 0.115332 0.357712
O O11 0.107922 0.976059 0.361947
O O12 0.554012 0.741559 0.500000
O O13 0.500000 0.000000 0.500000
O O14 0.500000 0.500000 0.500000
#
# Coordination Sequence:
#
# PCOD9428305 Si02
#       8
#     4   8   4   4   8   4   4   4
#     4  12  26  42  62  90 134 169 208 251 317 378
#     4  10  21  41  61  89 122 165 206 258 308 374
#     4   9  18  32  55  82 114 147 199 244 307 360
#     4  12  26  42  62  94 128 172 206 255 313 383
#     4  10  21  39  64  89 121 160 213 254 310 372
#     4  11  24  41  69  96 129 162 208 265 325 358
#     4  11  20  43  71  96 121 164 212 263 311 371
#     4   9  18  32  53  85 112 149 193 253 299 365
#
# _framework density 21.653563999999999
#
# number of rings (size 3 to 8) (size 9 to 14) (size 15 to 20)
#    0.000    1.600    2.000    4.200    2.800    4.800 
#    3.600    2.000    0.000    0.000    0.000    0.000 
#    0.000    0.000    0.000    0.000    0.000    0.000 
#
# Total GULP energy -222734.421259 kJ/mol
# GULP energy per Si atom -5568.360531 kJ/mol
# Density = 2.160428 g / cm^3
# Si number density = 21.653564 Si / 1000 Ang^3
#
#
#
# Elastic Constant Matrix: (Units=GPa)
#
#
# Indices 1 2 3 4 5 6 
#
# 1 59.6999 9.0484 18.1578 0.0000 0.0000 0.0000
# 2 9.0484 70.7218 39.5640 0.0000 0.0000 0.0000
# 3 18.1578 39.5640 116.0548 0.0000 0.0000 0.0000
# 4 0.0000 0.0000 0.0000 -85.2044 0.0000 0.0000
# 5 0.0000 0.0000 0.0000 0.0000 13.5434 0.0000
# 6 0.0000 0.0000 0.0000 0.0000 0.0000 33.3224
#
#
#
# Elastic Compliance Matrix: (Units=1/GPa)
#
#
# Indices 1 2 3 4 5 6 
#
# 1 0.017632 -0.000881 -0.002458 0.000000 0.000000 0.000000
# 2 -0.000881 0.017516 -0.005834 0.000000 0.000000 0.000000
# 3 -0.002458 -0.005834 0.010990 0.000000 0.000000 0.000000
# 4 0.000000 0.000000 0.000000 -0.011736 0.000000 0.000000
# 5 0.000000 0.000000 0.000000 0.000000 0.073837 0.000000
# 6 0.000000 0.000000 0.000000 0.000000 0.000000 0.030010
#
#
# Mechanical properties :
#
#
# Convention : Reuss Voigt Hill
#
# Bulk Modulus (GPa) = 35.98085 42.22409 39.10247
# Shear Modulus (GPa) = 30.14641 4.31270 17.22955
#
# Velocity S-wave (km/s) = 3.73529 1.41280 2.82386
# Velocity P-wave (km/s) = 5.93766 4.71206 5.36001
#
# Compressibility (1/GPa) = 0.02779256
#
# Stress axis : x y z
#
# Youngs Moduli (GPa) = 56.71620 57.09046 90.99192
#
# Poissons Ratio (x) = 0.05027 0.22370
# Poissons Ratio (y) = 0.04994 0.53081
# Poissons Ratio (z) = 0.13943 0.33304
#
# Static dielectric constant tensor:
#      x y z
#    x 1.893420 0.000000 0.000000 
#    y 0.000000 1.830930 0.000000 
#    z 0.000000 0.000000 1.907180 
# 
# From -- ./inp_files/10057.got.cif
#   From: 2010.05.17/outbox.cif.g08.bks.cpg/sg55_6_cif.got.tgz:10057.got - 2010.06.03 13:27:54.
