data_PCOD9428379
_publ_section_title
;
Structure prediction by ZEFSAII (Michael W. Deem and Ramdas Pophale) SiO2 
 PCOD9428379
Probable space group: P B A M
;
_chemical_formula_sum "Si O2"
_cell_formula_units_Z 64
_cell_length_a 10.609307
_cell_length_b 14.477769
_cell_length_c 18.966001
_cell_angle_alpha 90.000000
_cell_angle_beta 90.000000
_cell_angle_gamma 90.000000
_cell_volume 2913.160608
_symmetry_space_group_name_H-M "P B A M"
_symmetry_group_IT_number 55
_symmetry_cell_setting 'orthorhombic'
loop_
_space_group_symop_operation_xyz
x,y,z
-x,-y,z
1/2+x,1/2-y,-z
1/2-x,1/2+y,-z
-x,-y,-z
x,y,-z
1/2-x,1/2+y,z
1/2+x,1/2-y,z
loop_
_atom_site_type_symbol
_atom_site_label
_atom_site_fract_x
_atom_site_fract_y
_atom_site_fract_z
Si Si1 0.812753 0.942511 0.080712
Si Si2 0.604015 0.229522 0.581512
Si Si3 0.594238 0.638215 0.081450
Si Si4 0.751487 0.650753 0.284397
Si Si5 0.678777 0.797059 0.181016
Si Si6 0.786475 0.444387 0.723776
Si Si7 0.970712 0.898716 0.674077
Si Si8 0.605698 0.920356 0.424567
O O1 0.736260 0.872837 0.128603
O O2 0.954104 0.902512 0.080456
O O3 0.820152 0.049983 0.103549
O O4 0.766903 0.941750 0.000000
O O5 0.649922 0.229655 0.500000
O O6 0.693432 0.179634 0.639287
O O7 0.575363 0.328590 0.614689
O O8 0.472417 0.173729 0.581134
O O9 0.603414 0.724587 0.133399
O O10 0.627112 0.662989 0.000000
O O11 0.770804 0.730659 0.226847
O O12 0.805414 0.551738 0.260438
O O13 0.600191 0.638948 0.292414
O O14 0.624846 0.868035 0.239821
O O15 0.639178 0.416460 0.732230
O O16 0.806349 0.435264 0.640752
O O17 0.000000 0.000000 0.644351
O O18 0.671241 0.925403 0.500000
O O19 0.500000 0.000000 0.422692
#
# Coordination Sequence:
#
# PCOD9428379 Si02
#       8
#     8   8   8   8   8   8   8   8
#     4   9  20  40  65  93 125 164 211 251 303 377
#     4  11  23  41  63  87 118 161 210 262 322 388
#     4   9  20  40  65  93 126 166 209 254 302 373
#     4  11  24  41  61  90 127 165 210 262 323 387
#     4  12  22  35  62  95 124 162 198 262 314 371
#     4  11  23  40  62  94 125 164 214 261 320 382
#     4  10  24  44  62  86 124 164 210 273 323 377
#     4  10  21  40  65  86 118 166 215 262 310 378
#
# _framework density 21.969266000000001
#
# number of rings (size 3 to 8) (size 9 to 14) (size 15 to 20)
#    0.000    1.625    2.500    2.625    1.750    2.250 
#    0.000    2.500    0.000    0.000    0.000    5.250 
#    0.000    0.000    0.000    0.000    0.000    0.000 
#
# Total GULP energy -357294.521369 kJ/mol
# GULP energy per Si atom -5582.726896 kJ/mol
# Density = 2.191926 g / cm^3
# Si number density = 21.969266 Si / 1000 Ang^3
#
#
#
# Elastic Constant Matrix: (Units=GPa)
#
#
# Indices 1 2 3 4 5 6 
#
# 1 10.2797 1.4935 -2.6819 0.0000 0.0000 0.0000
# 2 1.4935 146.1075 30.8802 0.0000 0.0000 0.0000
# 3 -2.6819 30.8802 86.0105 0.0000 0.0000 0.0000
# 4 0.0000 0.0000 0.0000 45.5388 0.0000 0.0000
# 5 0.0000 0.0000 0.0000 0.0000 24.0362 0.0000
# 6 0.0000 0.0000 0.0000 0.0000 0.0000 27.2396
#
#
#
# Elastic Compliance Matrix: (Units=1/GPa)
#
#
# Indices 1 2 3 4 5 6 
#
# 1 0.098509 -0.001792 0.003715 0.000000 0.000000 0.000000
# 2 -0.001792 0.007439 -0.002727 0.000000 0.000000 0.000000
# 3 0.003715 -0.002727 0.012721 0.000000 0.000000 0.000000
# 4 0.000000 0.000000 0.000000 0.021959 0.000000 0.000000
# 5 0.000000 0.000000 0.000000 0.000000 0.041604 0.000000
# 6 0.000000 0.000000 0.000000 0.000000 0.000000 0.036711
#
#
# Mechanical properties :
#
#
# Convention : Reuss Voigt Hill
#
# Bulk Modulus (GPa) = 8.54249 33.53125 21.03687
# Shear Modulus (GPa) = 19.26250 33.54332 26.40291
#
# Velocity S-wave (km/s) = 2.96428 3.91171 3.47048
# Velocity P-wave (km/s) = 3.95130 5.97477 5.06511
#
# Compressibility (1/GPa) = 0.11706182
#
# Stress axis : x y z
#
# Youngs Moduli (GPa) = 10.15134 134.42891 78.60854
#
# Poissons Ratio (x) = 0.24091 -0.29203
# Poissons Ratio (y) = 0.01819 0.21434
# Poissons Ratio (z) = -0.03771 0.36654
#
# Static dielectric constant tensor:
#      x y z
#    x 1.860570 0.000000 0.000000 
#    y 0.000000 1.830010 0.000000 
#    z 0.000000 0.000000 1.854730 
# 
# From -- ./inp_files/21347.got.cif
#   From: 2010.05.17/outbox.cif.g08.bks.cpg/sg55_11_cif.got.tgz:21347.got - 2010.06.03 13:27:54.
