data_PCOD9428926
_publ_section_title
;
Structure prediction by ZEFSAII (Michael W. Deem and Ramdas Pophale) SiO2 
 PCOD9428926
Probable space group: P B A M
;
_chemical_formula_sum "Si O2"
_cell_formula_units_Z 32
_cell_length_a 11.289739
_cell_length_b 12.634665
_cell_length_c 9.978003
_cell_angle_alpha 90.000000
_cell_angle_beta 90.000000
_cell_angle_gamma 90.000000
_cell_volume 1423.283004
_symmetry_space_group_name_H-M "P B A M"
_symmetry_group_IT_number 55
_symmetry_cell_setting 'orthorhombic'
loop_
_space_group_symop_operation_xyz
x,y,z
-x,-y,z
1/2+x,1/2-y,-z
1/2-x,1/2+y,-z
-x,-y,-z
x,y,-z
1/2-x,1/2+y,z
1/2+x,1/2-y,z
loop_
_atom_site_type_symbol
_atom_site_label
_atom_site_fract_x
_atom_site_fract_y
_atom_site_fract_z
Si Si1 0.500687 0.753624 0.148992
Si Si2 0.351489 0.632597 0.347828
Si Si3 0.113680 0.549182 0.735147
Si Si4 0.331073 0.445333 0.154517
O O1 0.405426 0.729439 0.264672
O O2 0.558506 0.868286 0.160670
O O3 0.606555 0.667439 0.168456
O O4 0.449744 0.737184 0.000000
O O5 0.394643 0.630138 0.500000
O O6 0.208792 0.618854 0.347062
O O7 0.384067 0.531511 0.256370
O O8 0.192904 0.458465 0.806222
O O9 0.000000 0.500000 0.662631
O O10 0.346563 0.478434 0.000000
#
# Coordination Sequence:
#
# PCOD9428926 Si02
#       4
#     8   8   8   8
#     4  11  23  41  69 100 132 172 221 276 329 389
#     4  10  24  43  66  95 131 176 219 269 328 391
#     4  10  25  43  65  99 133 173 217 272 329 386
#     4   9  21  41  64  95 129 170 219 272 325 381
#
# _framework density 22.483229999999999
#
# number of rings (size 3 to 8) (size 9 to 14) (size 15 to 20)
#    1.500    0.500    0.000    2.250    3.500    7.500 
#    0.000    2.500    0.000    0.000    0.000    0.000 
#    0.000    0.000    0.000    0.000    0.000    0.000 
#
# Total GULP energy -178251.844492 kJ/mol
# GULP energy per Si atom -5570.370140 kJ/mol
# Density = 2.243206 g / cm^3
# Si number density = 22.483230 Si / 1000 Ang^3
#
#
#
# Elastic Constant Matrix: (Units=GPa)
#
#
# Indices 1 2 3 4 5 6 
#
# 1 128.9062 30.9211 38.4903 0.0000 0.0000 0.0000
# 2 30.9211 72.9897 26.9495 0.0000 0.0000 0.0000
# 3 38.4903 26.9495 156.7994 0.0000 0.0000 0.0000
# 4 0.0000 0.0000 0.0000 20.7159 0.0000 0.0000
# 5 0.0000 0.0000 0.0000 0.0000 4.1622 0.0000
# 6 0.0000 0.0000 0.0000 0.0000 0.0000 18.5266
#
#
#
# Elastic Compliance Matrix: (Units=1/GPa)
#
#
# Indices 1 2 3 4 5 6 
#
# 1 0.009024 -0.003209 -0.001664 0.000000 0.000000 0.000000
# 2 -0.003209 0.015770 -0.001923 0.000000 0.000000 0.000000
# 3 -0.001664 -0.001923 0.007116 0.000000 0.000000 0.000000
# 4 0.000000 0.000000 0.000000 0.048272 0.000000 0.000000
# 5 0.000000 0.000000 0.000000 0.000000 0.240256 0.000000
# 6 0.000000 0.000000 0.000000 0.000000 0.000000 0.053976
#
#
# Mechanical properties :
#
#
# Convention : Reuss Voigt Hill
#
# Bulk Modulus (GPa) = 54.58491 61.26858 57.92674
# Shear Modulus (GPa) = 12.68678 26.16991 19.42834
#
# Velocity S-wave (km/s) = 2.37803 3.41541 2.94279
# Velocity P-wave (km/s) = 5.64542 6.54701 6.11286
#
# Compressibility (1/GPa) = 0.01832008
#
# Stress axis : x y z
#
# Youngs Moduli (GPa) = 110.81550 63.41238 140.51973
#
# Poissons Ratio (x) = 0.20347 0.23378
# Poissons Ratio (y) = 0.35557 0.27019
# Poissons Ratio (z) = 0.18436 0.12193
#
# Static dielectric constant tensor:
#      x y z
#    x 1.934280 0.000000 0.000000 
#    y 0.000000 1.835390 0.000000 
#    z 0.000000 0.000000 1.792590 
# 
# From -- ./inp_files/3403.got.cif
#   From: 2010.05.17/outbox.cif.g08.bks.cpg/sg55_2_cif.got.tgz:3403.got - 2010.06.03 13:27:54.
