data_PCOD9428584
_publ_section_title
;
Structure prediction by ZEFSAII (Michael W. Deem and Ramdas Pophale) SiO2 
 PCOD9428584
Probable space group: P B A M
;
_chemical_formula_sum "Si O2"
_cell_formula_units_Z 64
_cell_length_a 30.937832
_cell_length_b 12.007011
_cell_length_c 9.073397
_cell_angle_alpha 90.000000
_cell_angle_beta 90.000000
_cell_angle_gamma 90.000000
_cell_volume 3370.502851
_symmetry_space_group_name_H-M "P B A M"
_symmetry_group_IT_number 55
_symmetry_cell_setting 'orthorhombic'
loop_
_space_group_symop_operation_xyz
x,y,z
-x,-y,z
1/2+x,1/2-y,-z
1/2-x,1/2+y,-z
-x,-y,-z
x,y,-z
1/2-x,1/2+y,z
1/2+x,1/2-y,z
loop_
_atom_site_type_symbol
_atom_site_label
_atom_site_fract_x
_atom_site_fract_y
_atom_site_fract_z
Si Si1 0.380104 0.166553 0.822418
Si Si2 0.709759 0.445893 0.325110
Si Si3 0.328036 0.756160 0.170667
Si Si4 0.456421 0.567888 0.175121
Si Si5 0.700310 0.988612 0.172607
Si Si6 0.582213 0.236413 0.327691
Si Si7 0.950891 0.485882 0.674368
Si Si8 0.129755 0.925774 0.177176
O O1 0.421652 0.105542 0.754257
O O2 0.375810 0.296098 0.781207
O O3 0.337037 0.097435 0.779497
O O4 0.383376 0.160254 0.000000
O O5 0.707310 0.452234 0.500000
O O6 0.702740 0.320077 0.268268
O O7 0.756305 0.482362 0.266056
O O8 0.671004 0.518383 0.254342
O O9 0.317838 0.886376 0.182215
O O10 0.376050 0.737493 0.230139
O O11 0.324580 0.722378 0.000000
O O12 0.500000 0.500000 0.203897
O O13 0.454343 0.680776 0.268488
O O14 0.414197 0.493380 0.211120
O O15 0.454928 0.593227 0.000000
O O16 0.710307 0.965623 0.000000
O O17 0.590913 0.257146 0.500000
O O18 0.570575 0.107330 0.309463
O O19 0.952712 0.458855 0.500000
O O20 0.000000 0.500000 0.728999
O O21 0.136072 0.930630 0.000000
#
# Coordination Sequence:
#
# PCOD9428584 Si02
#       8
#     8   8   8   8   8   8   8   8
#     4  10  22  41  64  91 119 157 209 254 298 355
#     4  12  26  41  62  93 126 160 202 248 303 367
#     4  11  22  41  67  90 119 158 203 254 306 359
#     4  10  22  39  61  90 122 162 206 252 309 362
#     4  10  23  42  64  90 120 159 205 252 305 360
#     4  11  22  38  62  90 121 159 205 255 306 361
#     4  10  23  41  60  88 127 166 200 244 307 368
#     4  10  22  41  62  87 125 164 202 253 302 357
#
# _framework density 18.988264999999998
#
# number of rings (size 3 to 8) (size 9 to 14) (size 15 to 20)
#    0.000    1.500    2.500    1.875    3.500    3.000 
#    0.000    0.000    0.000    0.000    0.000    0.000 
#    0.000    0.000    0.000    0.000    0.000    0.000 
#
# Total GULP energy -357636.186188 kJ/mol
# GULP energy per Si atom -5588.065409 kJ/mol
# Density = 1.894505 g / cm^3
# Si number density = 18.988265 Si / 1000 Ang^3
#
#
#
# Elastic Constant Matrix: (Units=GPa)
#
#
# Indices 1 2 3 4 5 6 
#
# 1 95.2639 18.0581 35.2562 0.0000 0.0000 0.0000
# 2 18.0581 79.8114 30.7047 0.0000 0.0000 0.0000
# 3 35.2562 30.7047 49.7997 0.0000 0.0000 0.0000
# 4 0.0000 0.0000 0.0000 21.2738 0.0000 0.0000
# 5 0.0000 0.0000 0.0000 0.0000 86.6218 0.0000
# 6 0.0000 0.0000 0.0000 0.0000 0.0000 22.8678
#
#
#
# Elastic Compliance Matrix: (Units=1/GPa)
#
#
# Indices 1 2 3 4 5 6 
#
# 1 0.014269 0.000862 -0.010634 0.000000 0.000000 0.000000
# 2 0.000862 0.016478 -0.010770 0.000000 0.000000 0.000000
# 3 -0.010634 -0.010770 0.034249 0.000000 0.000000 0.000000
# 4 0.000000 0.000000 0.000000 0.047006 0.000000 0.000000
# 5 0.000000 0.000000 0.000000 0.000000 0.011544 0.000000
# 6 0.000000 0.000000 0.000000 0.000000 0.000000 0.043730
#
#
# Mechanical properties :
#
#
# Convention : Reuss Voigt Hill
#
# Bulk Modulus (GPa) = 41.81791 43.65700 42.73745
# Shear Modulus (GPa) = 23.11281 35.54307 29.32794
#
# Velocity S-wave (km/s) = 3.49265 4.33118 3.93431
# Velocity P-wave (km/s) = 6.19158 6.93207 6.57226
#
# Compressibility (1/GPa) = 0.02391320
#
# Stress axis : x y z
#
# Youngs Moduli (GPa) = 70.08161 60.68743 29.19782
#
# Poissons Ratio (x) = -0.05234 0.31048
# Poissons Ratio (y) = -0.06044 0.31447
# Poissons Ratio (z) = 0.74522 0.65362
#
# Static dielectric constant tensor:
#      x y z
#    x 1.652670 0.000000 0.000000 
#    y 0.000000 1.654550 0.000000 
#    z 0.000000 0.000000 1.637580 
# 
# From -- ./inp_files/10764.got.cif
#   From: 2010.05.17/outbox.cif.g08.bks.cpg/sg55_6_cif.got.tgz:10764.got - 2010.06.03 13:27:54.
