data_PCOD9428351
_publ_section_title
;
Structure prediction by ZEFSAII (Michael W. Deem and Ramdas Pophale) SiO2 
 PCOD9428351
Probable space group: P B A M
;
_chemical_formula_sum "Si O2"
_cell_formula_units_Z 40
_cell_length_a 15.553868
_cell_length_b 10.446367
_cell_length_c 13.148355
_cell_angle_alpha 90.000000
_cell_angle_beta 90.000000
_cell_angle_gamma 90.000000
_cell_volume 2136.363304
_symmetry_space_group_name_H-M "P B A M"
_symmetry_group_IT_number 55
_symmetry_cell_setting 'orthorhombic'
loop_
_space_group_symop_operation_xyz
x,y,z
-x,-y,z
1/2+x,1/2-y,-z
1/2-x,1/2+y,-z
-x,-y,-z
x,y,-z
1/2-x,1/2+y,z
1/2+x,1/2-y,z
loop_
_atom_site_type_symbol
_atom_site_label
_atom_site_fract_x
_atom_site_fract_y
_atom_site_fract_z
Si Si1 0.176566 0.721056 0.296159
Si Si2 0.739729 0.938459 0.880354
Si Si3 0.361340 0.726414 0.382673
Si Si4 0.402678 0.485356 0.247194
Si Si5 0.905034 0.532693 0.251170
O O1 0.215313 0.689481 0.183445
O O2 0.258239 0.740745 0.367954
O O3 0.126856 0.588793 0.318880
O O4 0.117015 0.844210 0.289648
O O5 0.831421 0.984656 0.838338
O O6 0.665446 0.034412 0.838842
O O7 0.737851 0.922734 0.000000
O O8 0.384931 0.736065 0.500000
O O9 0.386776 0.590228 0.335008
O O10 0.402662 0.838668 0.315462
O O11 0.500000 0.500000 0.210532
O O12 0.000000 0.500000 0.213182
#
# Coordination Sequence:
#
# PCOD9428351 Si02
#       5
#     8   8   8   8   8
#     4   9  20  40  59  89 121 162 200 256 299 366
#     4   9  21  40  64  90 121 163 202 245 308 364
#     4  11  22  40  64  90 122 165 208 251 313 370
#     4  11  22  40  64  91 129 161 203 259 311 365
#     4  10  21  40  63  89 124 159 203 256 300 363
#
# _framework density 18.723407999999999
#
# number of rings (size 3 to 8) (size 9 to 14) (size 15 to 20)
#    1.200    0.800    2.000    1.200    0.000    5.600 
#    0.000    2.000    0.000    0.000    0.000    0.000 
#    0.000    0.000    0.000    0.000    0.000    0.000 
#
# Total GULP energy -222891.570089 kJ/mol
# GULP energy per Si atom -5572.289252 kJ/mol
# Density = 1.868079 g / cm^3
# Si number density = 18.723408 Si / 1000 Ang^3
#
#
#
# Elastic Constant Matrix: (Units=GPa)
#
#
# Indices 1 2 3 4 5 6 
#
# 1 104.4573 -16.6987 9.8712 0.0000 0.0000 0.0000
# 2 -16.6987 80.8537 7.0958 0.0000 0.0000 0.0000
# 3 9.8712 7.0958 90.5722 0.0000 0.0000 0.0000
# 4 0.0000 0.0000 0.0000 8.8880 0.0000 0.0000
# 5 0.0000 0.0000 0.0000 0.0000 -0.0822 0.0000
# 6 0.0000 0.0000 0.0000 0.0000 0.0000 26.1843
#
#
#
# Elastic Compliance Matrix: (Units=1/GPa)
#
#
# Indices 1 2 3 4 5 6 
#
# 1 0.010042 0.002185 -0.001266 0.000000 0.000000 0.000000
# 2 0.002185 0.012929 -0.001251 0.000000 0.000000 0.000000
# 3 -0.001266 -0.001251 0.011277 0.000000 0.000000 0.000000
# 4 0.000000 0.000000 0.000000 0.112511 0.000000 0.000000
# 5 0.000000 0.000000 0.000000 0.000000-12.160272 0.000000
# 6 0.000000 0.000000 0.000000 0.000000 0.000000 0.038191
#
#
# Mechanical properties :
#
#
# Convention : Reuss Voigt Hill
#
# Bulk Modulus (GPa) = 29.77528 30.71331 30.24429
# Shear Modulus (GPa) = -0.41794 25.37235 12.47721
#
# Velocity S-wave (km/s) = -0.47297 3.68518 2.58427
# Velocity P-wave (km/s) = 3.95461 5.87765 5.00928
#
# Compressibility (1/GPa) = 0.03358491
#
# Stress axis : x y z
#
# Youngs Moduli (GPa) = 99.57970 77.34495 88.67714
#
# Poissons Ratio (x) = -0.16901 0.11223
# Poissons Ratio (y) = -0.21759 0.11094
# Poissons Ratio (z) = 0.12603 0.09676
#
# Static dielectric constant tensor:
#      x y z
#    x 1.666010 0.000000 0.000000 
#    y 0.000000 1.661300 0.000000 
#    z 0.000000 0.000000 1.596620 
# 
# From -- ./inp_files/13943.got.cif
#   From: 2010.05.17/outbox.cif.g08.bks.cpg/sg55_7_cif.got.tgz:13943.got - 2010.06.03 13:27:54.
