data_PCOD9428421
_publ_section_title
;
Structure prediction by ZEFSAII (Michael W. Deem and Ramdas Pophale) SiO2 
 PCOD9428421
Probable space group: P B A M
;
_chemical_formula_sum "Si O2"
_cell_formula_units_Z 48
_cell_length_a 31.707241
_cell_length_b 9.095452
_cell_length_c 8.254259
_cell_angle_alpha 90.000000
_cell_angle_beta 90.000000
_cell_angle_gamma 90.000000
_cell_volume 2380.459691
_symmetry_space_group_name_H-M "P B A M"
_symmetry_group_IT_number 55
_symmetry_cell_setting 'orthorhombic'
loop_
_space_group_symop_operation_xyz
x,y,z
-x,-y,z
1/2+x,1/2-y,-z
1/2-x,1/2+y,-z
-x,-y,-z
x,y,-z
1/2-x,1/2+y,z
1/2+x,1/2-y,z
loop_
_atom_site_type_symbol
_atom_site_label
_atom_site_fract_x
_atom_site_fract_y
_atom_site_fract_z
Si Si1 0.781606 0.627483 0.816755
Si Si2 0.292756 0.555166 0.681351
Si Si3 0.927279 0.569355 0.500000
Si Si4 0.510975 0.791259 0.500000
Si Si5 0.368963 0.371189 0.812134
Si Si6 0.964106 0.122084 0.821671
Si Si7 0.627132 0.978197 0.808132
O O1 0.746258 0.555118 0.705212
O O2 0.787629 0.800974 0.791263
O O3 0.826237 0.546333 0.795360
O O4 0.766908 0.601099 0.000000
O O5 0.293474 0.613606 0.500000
O O6 0.335018 0.463209 0.714381
O O7 0.961089 0.437864 0.500000
O O8 0.900647 0.553412 0.333753
O O9 0.960021 0.703845 0.500000
O O10 0.524845 0.716648 0.333418
O O11 0.416312 0.433703 0.798041
O O12 0.371383 0.197145 0.772325
O O13 0.355920 0.379762 0.000000
O O14 0.963655 0.198549 0.000000
O O15 0.000000 0.000000 0.829085
O O16 0.613784 0.996119 0.000000
#
# Coordination Sequence:
#
# PCOD9428421 Si02
#       7
#     8   8   4   4   8   8   8
#     4  11  24  45  67  92 130 172 213 259 316 385
#     4  12  26  40  65  99 130 165 209 264 319 384
#     4  11  24  38  66  91 131 164 214 259 325 385
#     4  11  23  40  60  97 126 169 204 271 322 382
#     4  10  21  41  66  92 124 170 217 262 322 385
#     4  10  22  41  65  91 126 170 218 269 323 387
#     4  10  23  42  68  94 126 172 217 265 320 384
#
# _framework density 20.164171
#
# number of rings (size 3 to 8) (size 9 to 14) (size 15 to 20)
#    0.000    1.333    1.667    3.250    4.667    3.333 
#    0.000    5.000    0.000    0.000    0.000    0.000 
#    0.000    0.000    0.000    0.000    0.000    0.000 
#
# Total GULP energy -267881.440446 kJ/mol
# GULP energy per Si atom -5580.863343 kJ/mol
# Density = 2.011828 g / cm^3
# Si number density = 20.164171 Si / 1000 Ang^3
#
#
#
# Elastic Constant Matrix: (Units=GPa)
#
#
# Indices 1 2 3 4 5 6 
#
# 1 112.1584 31.1274 47.8228 0.0000 0.0000 0.0000
# 2 31.1274 27.3631 13.8903 0.0000 0.0000 0.0000
# 3 47.8228 13.8903 95.2901 0.0000 0.0000 0.0000
# 4 0.0000 0.0000 0.0000 25.6917 0.0000 0.0000
# 5 0.0000 0.0000 0.0000 0.0000 37.2889 0.0000
# 6 0.0000 0.0000 0.0000 0.0000 0.0000 33.4376
#
#
#
# Elastic Compliance Matrix: (Units=1/GPa)
#
#
# Indices 1 2 3 4 5 6 
#
# 1 0.015354 -0.014638 -0.005572 0.000000 0.000000 0.000000
# 2 -0.014638 0.053421 -0.000441 0.000000 0.000000 0.000000
# 3 -0.005572 -0.000441 0.013355 0.000000 0.000000 0.000000
# 4 0.000000 0.000000 0.000000 0.038923 0.000000 0.000000
# 5 0.000000 0.000000 0.000000 0.000000 0.026818 0.000000
# 6 0.000000 0.000000 0.000000 0.000000 0.000000 0.029906
#
#
# Mechanical properties :
#
#
# Convention : Reuss Voigt Hill
#
# Bulk Modulus (GPa) = 24.49269 46.72141 35.60705
# Shear Modulus (GPa) = 21.48796 28.74838 25.11817
#
# Velocity S-wave (km/s) = 3.26797 3.77996 3.53325
# Velocity P-wave (km/s) = 5.13931 6.50166 5.86021
#
# Compressibility (1/GPa) = 0.04082851
#
# Stress axis : x y z
#
# Youngs Moduli (GPa) = 65.12846 18.71925 74.87872
#
# Poissons Ratio (x) = 0.27401 0.41723
# Poissons Ratio (y) = 0.95335 0.03301
# Poissons Ratio (z) = 0.36290 0.00825
#
# Static dielectric constant tensor:
#      x y z
#    x 1.703240 0.000000 0.000000 
#    y 0.000000 1.732990 0.000000 
#    z 0.000000 0.000000 1.707710 
# 
# From -- ./inp_files/2968.got.cif
#   From: 2010.05.17/outbox.cif.g08.bks.cpg/sg55_2_cif.got.tgz:2968.got - 2010.06.03 13:27:54.
