data_PCOD9428196
_publ_section_title
;
Structure prediction by ZEFSAII (Michael W. Deem and Ramdas Pophale) SiO2 
 PCOD9428196
Probable space group: P B A M
;
_chemical_formula_sum "Si O2"
_cell_formula_units_Z 44
_cell_length_a 13.773318
_cell_length_b 9.838298
_cell_length_c 15.908703
_cell_angle_alpha 90.000000
_cell_angle_beta 90.000000
_cell_angle_gamma 90.000000
_cell_volume 2155.724819
_symmetry_space_group_name_H-M "P B A M"
_symmetry_group_IT_number 55
_symmetry_cell_setting 'orthorhombic'
loop_
_space_group_symop_operation_xyz
x,y,z
-x,-y,z
1/2+x,1/2-y,-z
1/2-x,1/2+y,-z
-x,-y,-z
x,y,-z
1/2-x,1/2+y,z
1/2+x,1/2-y,z
loop_
_atom_site_type_symbol
_atom_site_label
_atom_site_fract_x
_atom_site_fract_y
_atom_site_fract_z
Si Si1 0.000000 0.000000 0.734813
Si Si2 0.825895 0.323552 0.810022
Si Si3 0.697640 0.224335 0.345247
Si Si4 0.048543 0.288852 0.795501
Si Si5 0.218953 0.403786 0.098859
Si Si6 0.347141 0.483985 0.592500
O O1 0.037334 0.125724 0.788764
O O2 0.917205 0.051092 0.670382
O O3 0.773028 0.285554 0.723457
O O4 0.803918 0.196563 0.871013
O O5 0.777288 0.456077 0.850151
O O6 0.940420 0.346525 0.800654
O O7 0.606423 0.173850 0.289954
O O8 0.749516 0.102062 0.392933
O O9 0.668991 0.354203 0.400527
O O10 0.118207 0.333541 0.871086
O O11 0.220654 0.426914 0.000000
O O12 0.386297 0.449749 0.500000
#
# Coordination Sequence:
#
# PCOD9428196 Si02
#       6
#     4   8   8   8   8   8
#     4  10  21  40  61  94 120 162 218 248 297 382
#     4  11  22  42  64  87 123 166 203 255 307 372
#     4  10  21  38  62  90 120 161 214 245 298 380
#     4  10  22  38  66  88 119 168 207 251 305 364
#     4  11  25  40  61  94 123 156 205 256 316 367
#     4  11  21  37  61  90 126 161 200 261 314 353
#
# _framework density 20.410768000000001
#
# number of rings (size 3 to 8) (size 9 to 14) (size 15 to 20)
#    0.000    1.455    1.818    4.091    5.091    2.182 
#    0.000    0.455    0.000    1.091    0.000    0.000 
#    0.000    0.000    0.000    0.000    0.000    0.000 
#
# Total GULP energy -245923.217479 kJ/mol
# GULP energy per Si atom -5589.164034 kJ/mol
# Density = 2.036431 g / cm^3
# Si number density = 20.410768 Si / 1000 Ang^3
#
#
#
# Elastic Constant Matrix: (Units=GPa)
#
#
# Indices 1 2 3 4 5 6 
#
# 1 98.2018 15.1574 4.2458 0.0000 0.0000 0.0000
# 2 15.1574 76.8322 23.2705 0.0000 0.0000 0.0000
# 3 4.2458 23.2705 62.4759 0.0000 0.0000 0.0000
# 4 0.0000 0.0000 0.0000 10.3245 0.0000 0.0000
# 5 0.0000 0.0000 0.0000 0.0000 5.3761 0.0000
# 6 0.0000 0.0000 0.0000 0.0000 0.0000 36.2401
#
#
#
# Elastic Compliance Matrix: (Units=1/GPa)
#
#
# Indices 1 2 3 4 5 6 
#
# 1 0.010503 -0.002092 0.000065 0.000000 0.000000 0.000000
# 2 -0.002092 0.015087 -0.005477 0.000000 0.000000 0.000000
# 3 0.000065 -0.005477 0.018042 0.000000 0.000000 0.000000
# 4 0.000000 0.000000 0.000000 0.096857 0.000000 0.000000
# 5 0.000000 0.000000 0.000000 0.000000 0.186009 0.000000
# 6 0.000000 0.000000 0.000000 0.000000 0.000000 0.027594
#
#
# Mechanical properties :
#
#
# Convention : Reuss Voigt Hill
#
# Bulk Modulus (GPa) = 34.93522 35.87306 35.40414
# Shear Modulus (GPa) = 13.20514 23.37722 18.29118
#
# Velocity S-wave (km/s) = 2.54632 3.38796 2.99683
# Velocity P-wave (km/s) = 5.07919 5.73742 5.41831
#
# Compressibility (1/GPa) = 0.02862441
#
# Stress axis : x y z
#
# Youngs Moduli (GPa) = 95.20937 66.28227 55.42664
#
# Poissons Ratio (x) = 0.13865 -0.00362
# Poissons Ratio (y) = 0.19916 0.30359
# Poissons Ratio (z) = -0.00622 0.36305
#
# Static dielectric constant tensor:
#      x y z
#    x 1.752940 0.000000 0.000000 
#    y 0.000000 1.744240 0.000000 
#    z 0.000000 0.000000 1.710490 
# 
# From -- ./inp_files/21464.got.cif
#   From: 2010.05.17/outbox.cif.g08.bks.cpg/sg55_11_cif.got.tgz:21464.got - 2010.06.03 13:27:54.
