data_PCOD9428778
_publ_section_title
;
Structure prediction by ZEFSAII (Michael W. Deem and Ramdas Pophale) SiO2 
 PCOD9428778
Probable space group: P B A M
;
_chemical_formula_sum "Si O2"
_cell_formula_units_Z 56
_cell_length_a 14.411820
_cell_length_b 8.386910
_cell_length_c 19.909700
_cell_angle_alpha 90.000000
_cell_angle_beta 90.000000
_cell_angle_gamma 90.000000
_cell_volume 2406.498127
_symmetry_space_group_name_H-M "P B A M"
_symmetry_group_IT_number 55
_symmetry_cell_setting 'orthorhombic'
loop_
_space_group_symop_operation_xyz
x,y,z
-x,-y,z
1/2+x,1/2-y,-z
1/2-x,1/2+y,-z
-x,-y,-z
x,y,-z
1/2-x,1/2+y,z
1/2+x,1/2-y,z
loop_
_atom_site_type_symbol
_atom_site_label
_atom_site_fract_x
_atom_site_fract_y
_atom_site_fract_z
Si Si1 0.206346 0.141836 0.715566
Si Si2 0.452172 0.837681 0.647259
Si Si3 0.873374 0.639240 0.923364
Si Si4 0.935158 0.742461 0.500000
Si Si5 0.551479 0.664854 0.080497
Si Si6 0.855178 0.176236 0.646864
Si Si7 0.138668 0.907057 0.500000
Si Si8 0.277604 0.165596 0.865395
O O1 0.299818 0.172406 0.673693
O O2 0.232420 0.162586 0.792567
O O3 0.131504 0.272537 0.691504
O O4 0.167160 0.970534 0.695456
O O5 0.421699 0.852753 0.569035
O O6 0.535217 0.708038 0.646864
O O7 0.500000 0.000000 0.670551
O O8 0.805339 0.791453 0.916322
O O9 0.828834 0.500251 0.879683
O O10 0.976139 0.696766 0.905796
O O11 0.874322 0.582599 0.000000
O O12 0.039719 0.814214 0.500000
O O13 0.874121 0.902565 0.500000
O O14 0.500000 0.500000 0.096591
O O15 0.643447 0.700802 0.122269
O O16 0.571935 0.665377 0.000000
O O17 0.819839 0.139163 0.571633
#
# Coordination Sequence:
#
# PCOD9428778 Si02
#       8
#     8   8   8   4   8   8   4   8
#     4  12  26  44  66  98 142 189 232 276 349 431
#     4  11  23  43  73 104 140 184 235 301 360 416
#     4  11  23  42  72 104 136 178 229 289 348 405
#     4   9  17  37  69 106 133 171 234 295 363 409
#     4  10  22  43  74 109 141 177 229 291 353 411
#     4  11  24  44  68  99 137 181 236 295 350 416
#     4   9  18  37  69 100 131 176 228 294 356 405
#     4  12  25  43  67 101 144 184 229 280 341 421
#
# _framework density 23.270327000000002
#
# number of rings (size 3 to 8) (size 9 to 14) (size 15 to 20)
#    0.000    1.143    1.429    4.929    0.000    4.571 
#    0.000    5.714    0.000    0.000    0.000    0.000 
#    0.000    0.000    0.000    0.000    0.000    0.000 
#
# Total GULP energy -313636.473284 kJ/mol
# GULP energy per Si atom -5600.651309 kJ/mol
# Density = 2.321736 g / cm^3
# Si number density = 23.270327 Si / 1000 Ang^3
#
#
#
# Elastic Constant Matrix: (Units=GPa)
#
#
# Indices 1 2 3 4 5 6 
#
# 1 109.3744 16.0127 61.5688 0.0000 0.0000 0.0000
# 2 16.0127 73.9004 33.5485 0.0000 0.0000 0.0000
# 3 61.5688 33.5485 109.8961 0.0000 0.0000 0.0000
# 4 0.0000 0.0000 0.0000 -2.9045 0.0000 0.0000
# 5 0.0000 0.0000 0.0000 0.0000 38.1091 0.0000
# 6 0.0000 0.0000 0.0000 0.0000 0.0000 44.2255
#
#
#
# Elastic Compliance Matrix: (Units=1/GPa)
#
#
# Indices 1 2 3 4 5 6 
#
# 1 0.013376 0.000585 -0.007673 0.000000 0.000000 0.000000
# 2 0.000585 0.015734 -0.005131 0.000000 0.000000 0.000000
# 3 -0.007673 -0.005131 0.014964 0.000000 0.000000 0.000000
# 4 0.000000 0.000000 0.000000 -0.344289 0.000000 0.000000
# 5 0.000000 0.000000 0.000000 0.000000 0.026240 0.000000
# 6 0.000000 0.000000 0.000000 0.000000 0.000000 0.022611
#
#
# Mechanical properties :
#
#
# Convention : Reuss Voigt Hill
#
# Bulk Modulus (GPa) = 50.92276 57.27009 54.09642
# Shear Modulus (GPa) = -22.68814 28.02207 2.66697
#
# Velocity S-wave (km/s) = -3.12586 3.47392 1.07171
# Velocity P-wave (km/s) = 2.98373 6.38397 4.98286
#
# Compressibility (1/GPa) = 0.01963759
#
# Stress axis : x y z
#
# Youngs Moduli (GPa) = 74.75910 63.55548 66.82563
#
# Poissons Ratio (x) = -0.03716 0.51272
# Poissons Ratio (y) = -0.04371 0.34287
# Poissons Ratio (z) = 0.57359 0.32609
#
# Static dielectric constant tensor:
#      x y z
#    x 1.872070 0.000000 0.000000 
#    y 0.000000 1.902980 0.000000 
#    z 0.000000 0.000000 1.837000 
# 
# From -- ./inp_files/22991.got.cif
#   From: 2010.05.17/outbox.cif.g08.bks.cpg/sg55_12_cif.got.tgz:22991.got - 2010.06.03 13:27:54.
