data_PCOD9428817
_publ_section_title
;
Structure prediction by ZEFSAII (Michael W. Deem and Ramdas Pophale) SiO2 
 PCOD9428817
Probable space group: P B A M
;
_chemical_formula_sum "Si O2"
_cell_formula_units_Z 40
_cell_length_a 13.880704
_cell_length_b 8.723197
_cell_length_c 15.679198
_cell_angle_alpha 90.000000
_cell_angle_beta 90.000000
_cell_angle_gamma 90.000000
_cell_volume 1898.501821
_symmetry_space_group_name_H-M "P B A M"
_symmetry_group_IT_number 55
_symmetry_cell_setting 'orthorhombic'
loop_
_space_group_symop_operation_xyz
x,y,z
-x,-y,z
1/2+x,1/2-y,-z
1/2-x,1/2+y,-z
-x,-y,-z
x,y,-z
1/2-x,1/2+y,z
1/2+x,1/2-y,z
loop_
_atom_site_type_symbol
_atom_site_label
_atom_site_fract_x
_atom_site_fract_y
_atom_site_fract_z
Si Si1 0.000000 0.000000 0.770452
Si Si2 0.000000 0.500000 0.767232
Si Si3 0.503238 0.251926 0.357791
Si Si4 0.145527 0.471816 0.095258
Si Si5 0.642998 0.734442 0.500000
Si Si6 0.358908 0.893448 0.500000
Si Si7 0.859412 0.159511 0.096337
O O1 0.925444 0.085895 0.831703
O O2 0.046524 0.122295 0.705474
O O3 0.956258 0.374712 0.704261
O O4 0.075595 0.419132 0.829889
O O5 0.419488 0.316700 0.418305
O O6 0.581883 0.171658 0.418630
O O7 0.145260 0.656364 0.101489
O O8 0.251863 0.406364 0.105013
O O9 0.110771 0.428268 0.000000
O O10 0.750336 0.669663 0.500000
O O11 0.641207 0.921317 0.500000
O O12 0.893203 0.120515 0.000000
#
# Coordination Sequence:
#
# PCOD9428817 Si02
#       7
#     4   4   8   8   4   4   8
#     4  12  25  41  64  98 124 166 210 263 307 362
#     4  12  21  43  64  92 126 168 206 263 307 368
#     4  11  25  44  65  92 130 158 208 257 309 376
#     4  10  23  40  62  91 127 170 214 256 311 369
#     4  11  25  46  69  93 125 164 202 248 320 378
#     4  11  25  46  69  91 125 168 196 254 318 378
#     4  10  23  42  61  90 129 170 212 258 309 368
#
# _framework density 21.069244000000001
#
# number of rings (size 3 to 8) (size 9 to 14) (size 15 to 20)
#    0.000    1.200    4.000    1.200    5.600    4.000 
#    0.000    0.000    0.000    0.000    0.000    0.000 
#    0.000    0.000    0.000    0.000    0.000    0.000 
#
# Total GULP energy -223540.944890 kJ/mol
# GULP energy per Si atom -5588.523622 kJ/mol
# Density = 2.102129 g / cm^3
# Si number density = 21.069244 Si / 1000 Ang^3
#
#
#
# Elastic Constant Matrix: (Units=GPa)
#
#
# Indices 1 2 3 4 5 6 
#
# 1 86.3388 5.2886 47.4844 0.0000 0.0000 0.0000
# 2 5.2886 45.5688 30.9864 0.0000 0.0000 0.0000
# 3 47.4844 30.9864 151.1319 0.0000 0.0000 0.0000
# 4 0.0000 0.0000 0.0000 5.9538 0.0000 0.0000
# 5 0.0000 0.0000 0.0000 0.0000 146.1100 0.0000
# 6 0.0000 0.0000 0.0000 0.0000 0.0000 33.8437
#
#
#
# Elastic Compliance Matrix: (Units=1/GPa)
#
#
# Indices 1 2 3 4 5 6 
#
# 1 0.014101 0.001599 -0.004758 0.000000 0.000000 0.000000
# 2 0.001599 0.025681 -0.005768 0.000000 0.000000 0.000000
# 3 -0.004758 -0.005768 0.009294 0.000000 0.000000 0.000000
# 4 0.000000 0.000000 0.000000 0.167960 0.000000 0.000000
# 5 0.000000 0.000000 0.000000 0.000000 0.006844 0.000000
# 6 0.000000 0.000000 0.000000 0.000000 0.000000 0.029548
#
#
# Mechanical properties :
#
#
# Convention : Reuss Voigt Hill
#
# Bulk Modulus (GPa) = 32.02790 50.06203 41.04497
# Shear Modulus (GPa) = 17.74998 50.46684 34.10841
#
# Velocity S-wave (km/s) = 2.90566 4.89947 4.02789
# Velocity P-wave (km/s) = 5.14698 7.47120 6.41522
#
# Compressibility (1/GPa) = 0.03122278
#
# Stress axis : x y z
#
# Youngs Moduli (GPa) = 70.91531 38.93877 107.59216
#
# Poissons Ratio (x) = -0.06227 0.51196
# Poissons Ratio (y) = -0.11340 0.62058
# Poissons Ratio (z) = 0.33744 0.22459
#
# Static dielectric constant tensor:
#      x y z
#    x 1.706770 0.000000 0.000000 
#    y 0.000000 1.786710 0.000000 
#    z 0.000000 0.000000 1.759180 
# 
# From -- ./inp_files/18793.got.cif
#   From: 2010.05.17/outbox.cif.g08.bks.cpg/sg55_10_cif.got.tgz:18793.got - 2010.06.03 13:27:54.
