data_PCOD9428294
_publ_section_title
;
Structure prediction by ZEFSAII (Michael W. Deem and Ramdas Pophale) SiO2 
 PCOD9428294
Probable space group: P B A M
;
_chemical_formula_sum "Si O2"
_cell_formula_units_Z 32
_cell_length_a 12.303706
_cell_length_b 4.919759
_cell_length_c 22.889846
_cell_angle_alpha 90.000000
_cell_angle_beta 90.000000
_cell_angle_gamma 90.000000
_cell_volume 1385.551410
_symmetry_space_group_name_H-M "P B A M"
_symmetry_group_IT_number 55
_symmetry_cell_setting 'orthorhombic'
loop_
_space_group_symop_operation_xyz
x,y,z
-x,-y,z
1/2+x,1/2-y,-z
1/2-x,1/2+y,-z
-x,-y,-z
x,y,-z
1/2-x,1/2+y,z
1/2+x,1/2-y,z
loop_
_atom_site_type_symbol
_atom_site_label
_atom_site_fract_x
_atom_site_fract_y
_atom_site_fract_z
Si Si1 0.183313 0.271360 0.626412
Si Si2 0.000000 0.000000 0.294082
Si Si3 0.418564 0.748540 0.500000
Si Si4 0.674321 0.220460 0.874129
Si Si5 0.500000 0.000000 0.216075
Si Si6 0.824367 0.596447 0.000000
O O1 0.211862 0.583196 0.637804
O O2 0.088354 0.149509 0.665661
O O3 0.152025 0.244814 0.558519
O O4 0.044298 0.752575 0.254284
O O5 0.500000 0.500000 0.500000
O O6 0.500000 0.000000 0.500000
O O7 0.780061 0.024405 0.870527
O O8 0.592587 0.133393 0.824005
O O9 0.622435 0.169214 0.938312
O O10 0.715453 0.786276 0.000000
#
# Coordination Sequence:
#
# PCOD9428294 Si02
#       6
#     8   4   4   8   4   4
#     4  12  26  46  72 101 132 176 218 265 331 393
#     4  12  28  45  64  95 134 174 226 276 310 380
#     4  12  24  44  76 103 139 168 204 274 334 383
#     4  10  21  39  63  90 126 163 211 271 329 391
#     4  12  26  41  64  93 124 176 226 262 326 384
#     4   8  16  33  58  89 120 158 202 263 334 391
#
# _framework density 23.095500000000001
#
# number of rings (size 3 to 8) (size 9 to 14) (size 15 to 20)
#    0.000    1.000    1.250    5.250    1.750    6.500 
#    0.000    0.000    0.000   10.500    0.000    0.000 
#    0.000    0.000    0.000    0.000    0.000    0.000 
#
# Total GULP energy -179145.078747 kJ/mol
# GULP energy per Si atom -5598.283711 kJ/mol
# Density = 2.304293 g / cm^3
# Si number density = 23.095500 Si / 1000 Ang^3
#
#
#
# Elastic Constant Matrix: (Units=GPa)
#
#
# Indices 1 2 3 4 5 6 
#
# 1 41.4795 -1.5297 29.8997 0.0000 0.0000 0.0000
# 2 -1.5297 109.4471 15.7541 0.0000 0.0000 0.0000
# 3 29.8997 15.7541 138.9565 0.0000 0.0000 0.0000
# 4 0.0000 0.0000 0.0000 123.2201 0.0000 0.0000
# 5 0.0000 0.0000 0.0000 0.0000 6.3594 0.0000
# 6 0.0000 0.0000 0.0000 0.0000 0.0000 34.5659
#
#
#
# Elastic Compliance Matrix: (Units=1/GPa)
#
#
# Indices 1 2 3 4 5 6 
#
# 1 0.028718 0.001312 -0.006328 0.000000 0.000000 0.000000
# 2 0.001312 0.009348 -0.001342 0.000000 0.000000 0.000000
# 3 -0.006328 -0.001342 0.008710 0.000000 0.000000 0.000000
# 4 0.000000 0.000000 0.000000 0.008116 0.000000 0.000000
# 5 0.000000 0.000000 0.000000 0.000000 0.157248 0.000000
# 6 0.000000 0.000000 0.000000 0.000000 0.000000 0.028930
#
#
# Mechanical properties :
#
#
# Convention : Reuss Voigt Hill
#
# Bulk Modulus (GPa) = 29.35937 42.01460 35.68698
# Shear Modulus (GPa) = 18.85788 49.21299 34.03544
#
# Velocity S-wave (km/s) = 2.86058 4.62112 3.84302
# Velocity P-wave (km/s) = 4.86316 6.83404 5.93104
#
# Compressibility (1/GPa) = 0.03406068
#
# Stress axis : x y z
#
# Youngs Moduli (GPa) = 34.82104 106.97041 114.80619
#
# Poissons Ratio (x) = -0.14037 0.72652
# Poissons Ratio (y) = -0.04569 0.15410
# Poissons Ratio (z) = 0.22035 0.14358
#
# Static dielectric constant tensor:
#      x y z
#    x 1.844110 0.000000 0.000000 
#    y 0.000000 1.798430 0.000000 
#    z 0.000000 0.000000 1.881640 
# 
# From -- ./inp_files/22192.got.cif
#   From: 2010.05.17/outbox.cif.g08.bks.cpg/sg55_12_cif.got.tgz:22192.got - 2010.06.03 13:27:54.
