data_PCOD9428909
_publ_section_title
;
Structure prediction by ZEFSAII (Michael W. Deem and Ramdas Pophale) SiO2 
 PCOD9428909
Probable space group: P B A M
;
_chemical_formula_sum "Si O2"
_cell_formula_units_Z 32
_cell_length_a 10.228004
_cell_length_b 9.592223
_cell_length_c 14.255373
_cell_angle_alpha 90.000000
_cell_angle_beta 90.000000
_cell_angle_gamma 90.000000
_cell_volume 1398.584598
_symmetry_space_group_name_H-M "P B A M"
_symmetry_group_IT_number 55
_symmetry_cell_setting 'orthorhombic'
loop_
_space_group_symop_operation_xyz
x,y,z
-x,-y,z
1/2+x,1/2-y,-z
1/2-x,1/2+y,-z
-x,-y,-z
x,y,-z
1/2-x,1/2+y,z
1/2+x,1/2-y,z
loop_
_atom_site_type_symbol
_atom_site_label
_atom_site_fract_x
_atom_site_fract_y
_atom_site_fract_z
Si Si1 0.724313 0.499061 0.500000
Si Si2 0.356108 0.322241 0.175144
Si Si3 0.646051 0.381577 0.893098
Si Si4 0.407574 0.112433 0.336348
Si Si5 0.990058 0.215511 0.500000
O O1 0.804322 0.462117 0.594298
O O2 0.599795 0.398766 0.500000
O O3 0.656785 0.650681 0.500000
O O4 0.254038 0.237528 0.112780
O O5 0.321344 0.486409 0.173991
O O6 0.504957 0.322776 0.137392
O O7 0.352806 0.234786 0.271178
O O8 0.639212 0.434383 0.000000
O O9 0.502633 0.190682 0.409024
O O10 0.500000 0.000000 0.284347
#
# Coordination Sequence:
#
# PCOD9428909 Si02
#       5
#     4   8   8   8   4
#     4  10  24  41  69  95 138 182 234 286 339 419
#     4  11  27  43  77 103 147 186 239 302 353 436
#     4  11  25  49  73 108 143 190 240 299 363 431
#     4  11  27  42  66 101 143 180 237 284 356 415
#     4  10  24  41  69  93 136 192 224 287 344 412
#
# _framework density 22.880275000000001
#
# number of rings (size 3 to 8) (size 9 to 14) (size 15 to 20)
#    0.000    1.250    0.000    4.500   17.500    2.000 
#    0.000    2.500    0.000    0.000    0.000    0.000 
#    0.000    0.000    0.000    0.000    0.000    0.000 
#
# Total GULP energy -178877.866170 kJ/mol
# GULP energy per Si atom -5589.933318 kJ/mol
# Density = 2.282820 g / cm^3
# Si number density = 22.880275 Si / 1000 Ang^3
#
#
#
# Elastic Constant Matrix: (Units=GPa)
#
#
# Indices 1 2 3 4 5 6 
#
# 1 109.2621 80.3272 19.5162 0.0000 0.0000 0.0000
# 2 80.3272 128.4137 12.0573 0.0000 0.0000 0.0000
# 3 19.5162 12.0573 61.0277 0.0000 0.0000 0.0000
# 4 0.0000 0.0000 0.0000 17.9185 0.0000 0.0000
# 5 0.0000 0.0000 0.0000 0.0000 50.1258 0.0000
# 6 0.0000 0.0000 0.0000 0.0000 0.0000 59.8827
#
#
#
# Elastic Compliance Matrix: (Units=1/GPa)
#
#
# Indices 1 2 3 4 5 6 
#
# 1 0.017661 -0.010716 -0.003531 0.000000 0.000000 0.000000
# 2 -0.010716 0.014437 0.000575 0.000000 0.000000 0.000000
# 3 -0.003531 0.000575 0.017402 0.000000 0.000000 0.000000
# 4 0.000000 0.000000 0.000000 0.055808 0.000000 0.000000
# 5 0.000000 0.000000 0.000000 0.000000 0.019950 0.000000
# 6 0.000000 0.000000 0.000000 0.000000 0.000000 0.016699
#
#
# Mechanical properties :
#
#
# Convention : Reuss Voigt Hill
#
# Bulk Modulus (GPa) = 45.13645 58.05610 51.59627
# Shear Modulus (GPa) = 28.29868 38.03890 33.16879
#
# Velocity S-wave (km/s) = 3.52065 4.08182 3.81158
# Velocity P-wave (km/s) = 6.02468 6.90246 6.47845
#
# Compressibility (1/GPa) = 0.02215504
#
# Stress axis : x y z
#
# Youngs Moduli (GPa) = 56.62094 69.26770 57.46612
#
# Poissons Ratio (x) = 0.74229 0.20290
# Poissons Ratio (y) = 0.60676 -0.03303
# Poissons Ratio (z) = 0.19991 -0.03981
#
# Static dielectric constant tensor:
#      x y z
#    x 1.850290 0.000000 0.000000 
#    y 0.000000 1.891470 0.000000 
#    z 0.000000 0.000000 1.901570 
# 
# From -- ./inp_files/18011.got.cif
#   From: 2010.05.17/outbox.cif.g08.bks.cpg/sg55_10_cif.got.tgz:18011.got - 2010.06.03 13:27:54.
