data_PCOD9428012
_publ_section_title
;
Structure prediction by ZEFSAII (Michael W. Deem and Ramdas Pophale) SiO2 
 PCOD9428012
Probable space group: P B A M
;
_chemical_formula_sum "Si O2"
_cell_formula_units_Z 48
_cell_length_a 20.507441
_cell_length_b 14.227627
_cell_length_c 9.220727
_cell_angle_alpha 90.000000
_cell_angle_beta 90.000000
_cell_angle_gamma 90.000000
_cell_volume 2690.351999
_symmetry_space_group_name_H-M "P B A M"
_symmetry_group_IT_number 55
_symmetry_cell_setting 'orthorhombic'
loop_
_space_group_symop_operation_xyz
x,y,z
-x,-y,z
1/2+x,1/2-y,-z
1/2-x,1/2+y,-z
-x,-y,-z
x,y,-z
1/2-x,1/2+y,z
1/2+x,1/2-y,z
loop_
_atom_site_type_symbol
_atom_site_label
_atom_site_fract_x
_atom_site_fract_y
_atom_site_fract_z
Si Si1 0.071532 0.042270 0.672727
Si Si2 0.935249 0.557522 0.174426
Si Si3 0.693305 0.940176 0.168223
Si Si4 0.607548 0.245702 0.325900
Si Si5 0.238585 0.745174 0.326722
Si Si6 0.682133 0.576542 0.168308
O O1 0.085656 0.035905 0.500000
O O2 0.078012 0.152321 0.712585
O O3 0.124097 0.981804 0.759456
O O4 0.000000 0.000000 0.697740
O O5 0.872167 0.494610 0.211631
O O6 0.927453 0.658484 0.249288
O O7 0.000000 0.500000 0.215049
O O8 0.935476 0.570506 0.000000
O O9 0.710651 0.852394 0.267578
O O10 0.753147 0.012575 0.175066
O O11 0.686320 0.909446 0.000000
O O12 0.602933 0.234762 0.500000
O O13 0.684595 0.246487 0.286764
O O14 0.234302 0.749401 0.500000
O O15 0.198468 0.829231 0.254783
O O16 0.668090 0.596885 0.000000
#
# Coordination Sequence:
#
# PCOD9428012 Si02
#       6
#     8   8   8   8   8   8
#     4  10  22  41  62  87 123 159 198 247 297 354
#     4  10  22  40  61  86 119 157 194 240 295 353
#     4  10  21  37  58  86 116 150 195 242 292 346
#     4  10  21  37  59  86 115 153 197 242 296 355
#     4  11  22  36  60  89 118 154 199 247 296 349
#     4  11  22  37  60  88 119 154 197 245 293 351
#
# _framework density 17.841532999999998
#
# number of rings (size 3 to 8) (size 9 to 14) (size 15 to 20)
#    0.000    1.667    3.333    1.000    0.000    4.667 
#    0.000    3.333    0.000    0.000    0.000    0.000 
#    0.000    0.000    0.000    0.000    0.000    0.000 
#
# Total GULP energy -268118.209155 kJ/mol
# GULP energy per Si atom -5585.796024 kJ/mol
# Density = 1.780092 g / cm^3
# Si number density = 17.841533 Si / 1000 Ang^3
#
#
#
# Elastic Constant Matrix: (Units=GPa)
#
#
# Indices 1 2 3 4 5 6 
#
# 1 90.9361 33.7375 39.6219 0.0000 0.0000 0.0000
# 2 33.7375 112.4291 49.0596 0.0000 0.0000 0.0000
# 3 39.6219 49.0596 50.3972 0.0000 0.0000 0.0000
# 4 0.0000 0.0000 0.0000 37.4314 0.0000 0.0000
# 5 0.0000 0.0000 0.0000 0.0000 22.1717 0.0000
# 6 0.0000 0.0000 0.0000 0.0000 0.0000 27.6595
#
#
#
# Elastic Compliance Matrix: (Units=1/GPa)
#
#
# Indices 1 2 3 4 5 6 
#
# 1 0.016828 0.001258 -0.014454 0.000000 0.000000 0.000000
# 2 0.001258 0.015557 -0.016133 0.000000 0.000000 0.000000
# 3 -0.014454 -0.016133 0.046911 0.000000 0.000000 0.000000
# 4 0.000000 0.000000 0.000000 0.026716 0.000000 0.000000
# 5 0.000000 0.000000 0.000000 0.000000 0.045103 0.000000
# 6 0.000000 0.000000 0.000000 0.000000 0.000000 0.036154
#
#
# Mechanical properties :
#
#
# Convention : Reuss Voigt Hill
#
# Bulk Modulus (GPa) = 48.45694 55.40005 51.92850
# Shear Modulus (GPa) = 19.77807 26.20874 22.99341
#
# Velocity S-wave (km/s) = 3.33309 3.83688 3.59382
# Velocity P-wave (km/s) = 6.48315 7.12372 6.81097
#
# Compressibility (1/GPa) = 0.02063688
#
# Stress axis : x y z
#
# Youngs Moduli (GPa) = 59.42441 64.28086 21.31711
#
# Poissons Ratio (x) = -0.08084 0.30812
# Poissons Ratio (y) = -0.07473 0.34390
# Poissons Ratio (z) = 0.85894 1.03701
#
# Static dielectric constant tensor:
#      x y z
#    x 1.588080 0.000000 0.000000 
#    y 0.000000 1.579520 0.000000 
#    z 0.000000 0.000000 1.599960 
# 
# From -- ./inp_files/5553.got.cif
#   From: 2010.05.17/outbox.cif.g08.bks.cpg/sg55_3_cif.got.tgz:5553.got - 2010.06.03 13:27:54.
