data_PCOD9428845
_publ_section_title
;
Structure prediction by ZEFSAII (Michael W. Deem and Ramdas Pophale) SiO2 
 PCOD9428845
Probable space group: P B A M
;
_chemical_formula_sum "Si O2"
_cell_formula_units_Z 64
_cell_length_a 19.727688
_cell_length_b 17.131617
_cell_length_c 8.659391
_cell_angle_alpha 90.000000
_cell_angle_beta 90.000000
_cell_angle_gamma 90.000000
_cell_volume 2926.590088
_symmetry_space_group_name_H-M "P B A M"
_symmetry_group_IT_number 55
_symmetry_cell_setting 'orthorhombic'
loop_
_space_group_symop_operation_xyz
x,y,z
-x,-y,z
1/2+x,1/2-y,-z
1/2-x,1/2+y,-z
-x,-y,-z
x,y,-z
1/2-x,1/2+y,z
1/2+x,1/2-y,z
loop_
_atom_site_type_symbol
_atom_site_label
_atom_site_fract_x
_atom_site_fract_y
_atom_site_fract_z
Si Si1 0.173152 0.493493 0.818808
Si Si2 0.282121 0.763534 0.679077
Si Si3 0.420991 0.501580 0.186394
Si Si4 0.467951 0.228191 0.817308
Si Si5 0.844412 0.344741 0.676030
Si Si6 0.593621 0.324778 0.185423
Si Si7 0.042606 0.419911 0.681296
Si Si8 0.702005 0.584215 0.684620
O O1 0.149252 0.581652 0.787296
O O2 0.118429 0.437520 0.737843
O O3 0.246017 0.482492 0.740350
O O4 0.176803 0.477613 0.000000
O O5 0.297917 0.780333 0.500000
O O6 0.229708 0.691779 0.685148
O O7 0.350482 0.736533 0.759745
O O8 0.239974 0.837312 0.741954
O O9 0.500000 0.500000 0.231728
O O10 0.393320 0.586725 0.237058
O O11 0.371984 0.434890 0.250623
O O12 0.418804 0.497054 0.000000
O O13 0.398682 0.220471 0.723786
O O14 0.518709 0.296672 0.767466
O O15 0.508313 0.148213 0.779748
O O16 0.454645 0.234682 0.000000
O O17 0.858249 0.370589 0.500000
O O18 0.594126 0.324864 0.000000
O O19 0.041888 0.398980 0.500000
O O20 0.000000 0.500000 0.699500
O O21 0.698316 0.587594 0.500000
#
# Coordination Sequence:
#
# PCOD9428845 Si02
#       8
#     8   8   8   8   8   8   8   8
#     4  12  24  39  62  92 125 164 208 256 311 374
#     4  10  24  43  64  91 124 162 207 261 319 379
#     4  10  23  44  69  97 133 174 219 271 329 388
#     4  11  23  38  60  92 125 162 209 258 310 374
#     4  11  23  40  61  89 123 161 205 254 311 374
#     4  10  23  42  64  94 129 166 214 265 319 384
#     4  11  22  37  58  86 125 168 208 254 313 375
#     4  11  24  43  66  95 129 165 215 268 321 385
#
# _framework density 21.868455000000001
#
# number of rings (size 3 to 8) (size 9 to 14) (size 15 to 20)
#    0.000    1.250    1.250    4.125    1.750    8.250 
#    0.000    0.000    0.000    0.000    0.000    0.000 
#    0.000    0.000    0.000    0.000    0.000    0.000 
#
# Total GULP energy -358052.442057 kJ/mol
# GULP energy per Si atom -5594.569407 kJ/mol
# Density = 2.181868 g / cm^3
# Si number density = 21.868455 Si / 1000 Ang^3
#
#
#
# Elastic Constant Matrix: (Units=GPa)
#
#
# Indices 1 2 3 4 5 6 
#
# 1 110.9512 4.5115 15.4210 0.0000 0.0000 0.0000
# 2 4.5115 58.8437 -1.0573 0.0000 0.0000 0.0000
# 3 15.4210 -1.0573 35.0448 0.0000 0.0000 0.0000
# 4 0.0000 0.0000 0.0000 19.7254 0.0000 0.0000
# 5 0.0000 0.0000 0.0000 0.0000 32.7353 0.0000
# 6 0.0000 0.0000 0.0000 0.0000 0.0000 31.5356
#
#
#
# Elastic Compliance Matrix: (Units=1/GPa)
#
#
# Indices 1 2 3 4 5 6 
#
# 1 0.009639 -0.000816 -0.004266 0.000000 0.000000 0.000000
# 2 -0.000816 0.017072 0.000874 0.000000 0.000000 0.000000
# 3 -0.004266 0.000874 0.030439 0.000000 0.000000 0.000000
# 4 0.000000 0.000000 0.000000 0.050696 0.000000 0.000000
# 5 0.000000 0.000000 0.000000 0.000000 0.030548 0.000000
# 6 0.000000 0.000000 0.000000 0.000000 0.000000 0.031710
#
#
# Mechanical properties :
#
#
# Convention : Reuss Voigt Hill
#
# Bulk Modulus (GPa) = 20.51941 26.95447 23.73694
# Shear Modulus (GPa) = 25.67198 29.19690 27.43444
#
# Velocity S-wave (km/s) = 3.42998 3.65789 3.54576
# Velocity P-wave (km/s) = 5.00897 5.49479 5.25749
#
# Compressibility (1/GPa) = 0.04873434
#
# Stress axis : x y z
#
# Youngs Moduli (GPa) = 103.74428 58.57407 32.85310
#
# Poissons Ratio (x) = 0.04778 0.14016
# Poissons Ratio (y) = 0.08462 -0.02871
# Poissons Ratio (z) = 0.44259 -0.05119
#
# Static dielectric constant tensor:
#      x y z
#    x 1.801630 0.000000 0.000000 
#    y 0.000000 1.829310 0.000000 
#    z 0.000000 0.000000 1.737380 
# 
# From -- ./inp_files/8985.got.cif
#   From: 2010.05.17/outbox.cif.g08.bks.cpg/sg55_5_cif.got.tgz:8985.got - 2010.06.03 13:27:54.
