data_PCOD9428903
_publ_section_title
;
Structure prediction by ZEFSAII (Michael W. Deem and Ramdas Pophale) SiO2 
 PCOD9428903
Probable space group: P B A M
;
_chemical_formula_sum "Si O2"
_cell_formula_units_Z 32
_cell_length_a 17.687716
_cell_length_b 7.921686
_cell_length_c 9.788372
_cell_angle_alpha 90.000000
_cell_angle_beta 90.000000
_cell_angle_gamma 90.000000
_cell_volume 1371.512741
_symmetry_space_group_name_H-M "P B A M"
_symmetry_group_IT_number 55
_symmetry_cell_setting 'orthorhombic'
loop_
_space_group_symop_operation_xyz
x,y,z
-x,-y,z
1/2+x,1/2-y,-z
1/2-x,1/2+y,-z
-x,-y,-z
x,y,-z
1/2-x,1/2+y,z
1/2+x,1/2-y,z
loop_
_atom_site_type_symbol
_atom_site_label
_atom_site_fract_x
_atom_site_fract_y
_atom_site_fract_z
Si Si1 0.277733 0.355667 0.352133
Si Si2 0.422358 0.548249 0.718732
Si Si3 0.885576 0.281824 0.153800
Si Si4 0.399117 0.917738 0.340872
O O1 0.287985 0.267349 0.500000
O O2 0.342116 0.501922 0.351314
O O3 0.302423 0.250079 0.219249
O O4 0.192355 0.413051 0.342398
O O5 0.500000 0.500000 0.643572
O O6 0.421769 0.405322 0.837184
O O7 0.421960 0.747297 0.737988
O O8 0.921726 0.413582 0.260211
O O9 0.884828 0.344759 0.000000
O O10 0.423341 0.911146 0.500000
#
# Coordination Sequence:
#
# PCOD9428903 Si02
#       4
#     8   8   8   8
#     4   9  20  41  65  93 128 169 216 265 323 381
#     4  10  24  42  65  98 127 168 217 271 320 375
#     4  10  24  41  61  93 129 169 214 261 320 387
#     4  11  22  41  69  95 127 171 213 268 327 378
#
# _framework density 23.331903000000001
#
# number of rings (size 3 to 8) (size 9 to 14) (size 15 to 20)
#    1.500    0.500    0.000    3.000    0.000    9.500 
#    0.000    2.500    0.000    0.000    0.000    0.000 
#    0.000    0.000    0.000    0.000    0.000    0.000 
#
# Total GULP energy -178180.116667 kJ/mol
# GULP energy per Si atom -5568.128646 kJ/mol
# Density = 2.327880 g / cm^3
# Si number density = 23.331903 Si / 1000 Ang^3
#
#
#
# Elastic Constant Matrix: (Units=GPa)
#
#
# Indices 1 2 3 4 5 6 
#
# 1 118.9220 24.5763 -17.4546 0.0000 0.0000 0.0000
# 2 24.5763 149.9724 44.5791 0.0000 0.0000 0.0000
# 3 -17.4546 44.5791 106.6464 0.0000 0.0000 0.0000
# 4 0.0000 0.0000 0.0000 12.0861 0.0000 0.0000
# 5 0.0000 0.0000 0.0000 0.0000 -2.6144 0.0000
# 6 0.0000 0.0000 0.0000 0.0000 0.0000 28.8390
#
#
#
# Elastic Compliance Matrix: (Units=1/GPa)
#
#
# Indices 1 2 3 4 5 6 
#
# 1 0.009231 -0.002240 0.002447 0.000000 0.000000 0.000000
# 2 -0.002240 0.008158 -0.003777 0.000000 0.000000 0.000000
# 3 0.002447 -0.003777 0.011356 0.000000 0.000000 0.000000
# 4 0.000000 0.000000 0.000000 0.082740 0.000000 0.000000
# 5 0.000000 0.000000 0.000000 0.000000 -0.382491 0.000000
# 6 0.000000 0.000000 0.000000 0.000000 0.000000 0.034675
#
#
# Mechanical properties :
#
#
# Convention : Reuss Voigt Hill
#
# Bulk Modulus (GPa) = 46.28442 53.21583 49.75012
# Shear Modulus (GPa) = -22.52350 29.25145 3.36397
#
# Velocity S-wave (km/s) = -3.11038 3.54462 1.20205
# Velocity P-wave (km/s) = 2.64219 6.29366 4.82656
#
# Compressibility (1/GPa) = 0.02160554
#
# Stress axis : x y z
#
# Youngs Moduli (GPa) = 108.33059 122.58550 88.05951
#
# Poissons Ratio (x) = 0.27461 -0.21550
# Poissons Ratio (y) = 0.24268 0.33256
# Poissons Ratio (z) = -0.26511 0.46295
#
# Static dielectric constant tensor:
#      x y z
#    x 1.928530 0.000000 0.000000 
#    y 0.000000 1.950250 0.000000 
#    z 0.000000 0.000000 1.808980 
# 
# From -- ./inp_files/15148.got.cif
#   From: 2010.05.17/outbox.cif.g08.bks.cpg/sg55_8_cif.got.tgz:15148.got - 2010.06.03 13:27:54.
