data_PCOD9428083
_publ_section_title
;
Structure prediction by ZEFSAII (Michael W. Deem and Ramdas Pophale) SiO2 
 PCOD9428083
Probable space group: P B A M
;
_chemical_formula_sum "Si O2"
_cell_formula_units_Z 64
_cell_length_a 34.424851
_cell_length_b 5.298710
_cell_length_c 14.670720
_cell_angle_alpha 90.000000
_cell_angle_beta 90.000000
_cell_angle_gamma 90.000000
_cell_volume 2676.046457
_symmetry_space_group_name_H-M "P B A M"
_symmetry_group_IT_number 55
_symmetry_cell_setting 'orthorhombic'
loop_
_space_group_symop_operation_xyz
x,y,z
-x,-y,z
1/2+x,1/2-y,-z
1/2-x,1/2+y,-z
-x,-y,-z
x,y,-z
1/2-x,1/2+y,z
1/2+x,1/2-y,z
loop_
_atom_site_type_symbol
_atom_site_label
_atom_site_fract_x
_atom_site_fract_y
_atom_site_fract_z
Si Si1 0.764394 0.437519 0.852545
Si Si2 0.387873 0.700925 0.392128
Si Si3 0.887873 0.700925 0.107872
Si Si4 0.652265 0.703197 0.889205
Si Si5 0.021353 0.251236 0.640584
Si Si6 0.978647 0.751236 0.140584
Si Si7 0.347735 0.203198 0.610795
Si Si8 0.764394 0.062481 0.647454
O O1 0.763164 0.718989 0.894300
O O2 0.806261 0.308579 0.857853
O O3 0.750000 0.500000 0.750000
O O4 0.380198 0.695051 0.500000
O O5 0.361260 0.928975 0.354880
O O6 0.433068 0.756893 0.379464
O O7 0.377709 0.420858 0.358962
O O8 0.877709 0.420858 0.141038
O O9 0.933068 0.756893 0.120536
O O10 0.861260 0.928975 0.145120
O O11 0.880198 0.695051 0.000000
O O12 0.653247 0.692107 0.000000
O O13 0.017661 0.250000 0.750000
O O14 0.000000 0.500000 0.605892
O O15 0.000000 0.000000 0.606467
O O16 0.000000 0.500000 0.106467
O O17 0.000000 0.000000 0.105892
O O18 0.346753 0.192107 0.500000
O O19 0.306261 0.308579 0.642147
O O20 0.763164 0.781011 0.605700
#
# Coordination Sequence:
#
# PCOD9428083 Si02
#       8
#     8   8   8   8   8   8   8   8
#     4  10  21  38  56  81 115 147 189 245 281 348
#     4  10  21  38  59  88 117 150 196 240 288 348
#     4  10  21  38  59  88 117 150 196 240 288 348
#     4  10  21  38  59  83 117 152 191 242 295 346
#     4  10  21  38  58  84 120 154 194 236 285 344
#     4  10  21  38  58  84 120 154 194 236 285 344
#     4  10  21  38  59  83 117 152 191 242 295 346
#     4  10  21  38  56  81 115 147 189 245 281 348
#
# _framework density 23.915877999999999
#
# number of rings (size 3 to 8) (size 9 to 14) (size 15 to 20)
#    0.000    2.000    0.000    3.000    0.000    2.000 
#   13.500    0.000    0.000    0.000    0.000    0.000 
#    0.000    0.000    0.000    0.000    0.000    0.000 
#
# Total GULP energy -357755.374259 kJ/mol
# GULP energy per Si atom -5589.927723 kJ/mol
# Density = 2.386144 g / cm^3
# Si number density = 23.915878 Si / 1000 Ang^3
#
#
#
# Elastic Constant Matrix: (Units=GPa)
#
#
# Indices 1 2 3 4 5 6 
#
# 1 86.3403 21.3077 -36.8191 0.0000 0.0000 0.0000
# 2 21.3077 179.0456 -2.5758 0.0000 0.0000 0.0000
# 3 -36.8191 -2.5758 74.5085 0.0000 0.0000 0.0000
# 4 0.0000 0.0000 0.0000 -5.8730 0.0000 0.0000
# 5 0.0000 0.0000 0.0000 0.0000 34.7279 0.0000
# 6 0.0000 0.0000 0.0000 0.0000 0.0000 53.6597
#
#
#
# Elastic Compliance Matrix: (Units=1/GPa)
#
#
# Indices 1 2 3 4 5 6 
#
# 1 0.015174 -0.001699 0.007440 0.000000 0.000000 0.000000
# 2 -0.001699 0.005778 -0.000640 0.000000 0.000000 0.000000
# 3 0.007440 -0.000640 0.017076 0.000000 0.000000 0.000000
# 4 0.000000 0.000000 0.000000 -0.170272 0.000000 0.000000
# 5 0.000000 0.000000 0.000000 0.000000 0.028795 0.000000
# 6 0.000000 0.000000 0.000000 0.000000 0.000000 0.018636
#
#
# Mechanical properties :
#
#
# Convention : Reuss Voigt Hill
#
# Bulk Modulus (GPa) = 20.73411 33.74668 27.24040
# Shear Modulus (GPa) = -63.34006 40.36837 -11.48585
#
# Velocity S-wave (km/s) = -5.15189 4.11290 -2.19386
# Velocity P-wave (km/s) = 5.16729 6.05771 2.23550
#
# Compressibility (1/GPa) = 0.04822969
#
# Stress axis : x y z
#
# Youngs Moduli (GPa) = 65.90285 173.06633 58.56338
#
# Poissons Ratio (x) = 0.29400 -0.43569
# Poissons Ratio (y) = 0.11195 0.03746
# Poissons Ratio (z) = -0.49029 0.11071
#
# Static dielectric constant tensor:
#      x y z
#    x 1.859950 0.000000 0.000000 
#    y 0.000000 1.976850 0.000000 
#    z 0.000000 0.000000 2.011990 
# 
# From -- ./inp_files/22158.got.cif
#   From: 2010.05.17/outbox.cif.g08.bks.cpg/sg55_12_cif.got.tgz:22158.got - 2010.06.03 13:27:54.
