data_PCOD9428789
_publ_section_title
;
Structure prediction by ZEFSAII (Michael W. Deem and Ramdas Pophale) SiO2 
 PCOD9428789
Probable space group: P B A M
;
_chemical_formula_sum "Si O2"
_cell_formula_units_Z 40
_cell_length_a 8.747933
_cell_length_b 12.543642
_cell_length_c 17.212735
_cell_angle_alpha 90.000000
_cell_angle_beta 90.000000
_cell_angle_gamma 90.000000
_cell_volume 1888.769588
_symmetry_space_group_name_H-M "P B A M"
_symmetry_group_IT_number 55
_symmetry_cell_setting 'orthorhombic'
loop_
_space_group_symop_operation_xyz
x,y,z
-x,-y,z
1/2+x,1/2-y,-z
1/2-x,1/2+y,-z
-x,-y,-z
x,y,-z
1/2-x,1/2+y,z
1/2+x,1/2-y,z
loop_
_atom_site_type_symbol
_atom_site_label
_atom_site_fract_x
_atom_site_fract_y
_atom_site_fract_z
Si Si1 0.451388 0.621008 0.907405
Si Si2 0.744283 0.018550 0.587799
Si Si3 0.590567 0.150331 0.713959
Si Si4 0.828457 0.280905 0.817965
Si Si5 0.036056 0.175700 0.413870
O O1 0.500000 0.500000 0.889666
O O2 0.293968 0.650179 0.864927
O O3 0.576423 0.702892 0.874088
O O4 0.437033 0.632310 0.000000
O O5 0.678097 0.023793 0.500000
O O6 0.645130 0.052102 0.661392
O O7 0.885974 0.102083 0.588479
O O8 0.819690 0.902639 0.597210
O O9 0.732794 0.204774 0.759393
O O10 0.450900 0.144359 0.774062
O O11 0.535187 0.236217 0.650700
O O12 0.046969 0.223462 0.500000
#
# Coordination Sequence:
#
# PCOD9428789 Si02
#       5
#     8   8   8   8   8
#     4  10  22  45  72  95 126 168 203 249 315 383
#     4   9  18  33  55  80 113 166 219 260 304 361
#     4  11  19  36  55  86 126 160 199 255 321 359
#     4  10  23  37  62  98 128 159 206 255 311 387
#     4   9  18  33  54  79 113 165 219 258 303 362
#
# _framework density 21.177807000000001
#
# number of rings (size 3 to 8) (size 9 to 14) (size 15 to 20)
#    0.000    2.200    2.000    2.400    0.000    3.200 
#    0.000    9.000    0.000   13.200    0.000    0.000 
#    0.000    0.000    0.000    0.000    0.000    0.000 
#
# Total GULP energy -223728.906858 kJ/mol
# GULP energy per Si atom -5593.222671 kJ/mol
# Density = 2.112961 g / cm^3
# Si number density = 21.177807 Si / 1000 Ang^3
#
#
#
# Elastic Constant Matrix: (Units=GPa)
#
#
# Indices 1 2 3 4 5 6 
#
# 1 137.7177 38.1153 72.3381 0.0000 0.0000 0.0000
# 2 38.1153 45.8915 49.1158 0.0000 0.0000 0.0000
# 3 72.3381 49.1158 122.3899 0.0000 0.0000 0.0000
# 4 0.0000 0.0000 0.0000 19.5973 0.0000 0.0000
# 5 0.0000 0.0000 0.0000 0.0000 27.6491 0.0000
# 6 0.0000 0.0000 0.0000 0.0000 0.0000 16.6416
#
#
#
# Elastic Compliance Matrix: (Units=1/GPa)
#
#
# Indices 1 2 3 4 5 6 
#
# 1 0.010892 -0.003780 -0.004921 0.000000 0.000000 0.000000
# 2 -0.003780 0.039507 -0.013620 0.000000 0.000000 0.000000
# 3 -0.004921 -0.013620 0.016545 0.000000 0.000000 0.000000
# 4 0.000000 0.000000 0.000000 0.051028 0.000000 0.000000
# 5 0.000000 0.000000 0.000000 0.000000 0.036168 0.000000
# 6 0.000000 0.000000 0.000000 0.000000 0.000000 0.060090
#
#
# Mechanical properties :
#
#
# Convention : Reuss Voigt Hill
#
# Bulk Modulus (GPa) = 44.83878 69.45971 57.14924
# Shear Modulus (GPa) = 18.77537 22.53958 20.65747
#
# Velocity S-wave (km/s) = 2.98074 3.26590 3.12658
# Velocity P-wave (km/s) = 5.75021 6.86229 6.33072
#
# Compressibility (1/GPa) = 0.02230213
#
# Stress axis : x y z
#
# Youngs Moduli (GPa) = 91.80954 25.31175 60.44117
#
# Poissons Ratio (x) = 0.09568 0.29742
# Poissons Ratio (y) = 0.34703 0.82323
# Poissons Ratio (z) = 0.45178 0.34476
#
# Static dielectric constant tensor:
#      x y z
#    x 1.788720 0.000000 0.000000 
#    y 0.000000 1.765890 0.000000 
#    z 0.000000 0.000000 1.734070 
# 
# From -- ./inp_files/17067.got.cif
#   From: 2010.05.17/outbox.cif.g08.bks.cpg/sg55_9_cif.got.tgz:17067.got - 2010.06.03 13:27:54.
