data_PCOD9428409
_publ_section_title
;
Structure prediction by ZEFSAII (Michael W. Deem and Ramdas Pophale) SiO2 
 PCOD9428409
Probable space group: P B A M
;
_chemical_formula_sum "Si O2"
_cell_formula_units_Z 58
_cell_length_a 27.116474
_cell_length_b 10.995368
_cell_length_c 10.138898
_cell_angle_alpha 90.000000
_cell_angle_beta 90.000000
_cell_angle_gamma 90.000000
_cell_volume 3022.969323
_symmetry_space_group_name_H-M "P B A M"
_symmetry_group_IT_number 55
_symmetry_cell_setting 'orthorhombic'
loop_
_space_group_symop_operation_xyz
x,y,z
-x,-y,z
1/2+x,1/2-y,-z
1/2-x,1/2+y,-z
-x,-y,-z
x,y,-z
1/2-x,1/2+y,z
1/2+x,1/2-y,z
loop_
_atom_site_type_symbol
_atom_site_label
_atom_site_fract_x
_atom_site_fract_y
_atom_site_fract_z
Si Si1 0.053047 0.836034 0.283417
Si Si2 0.204010 0.752851 0.154776
Si Si3 0.362091 0.482024 0.843842
Si Si4 0.516091 0.142697 0.152332
Si Si5 0.865616 0.356015 0.358033
Si Si6 0.500000 0.500000 0.500000
Si Si7 0.178861 0.249036 0.843469
Si Si8 0.395129 0.872130 0.653026
O O1 0.094347 0.750448 0.350038
O O2 0.016976 0.900949 0.385119
O O3 0.025772 0.743093 0.183546
O O4 0.086311 0.941511 0.217824
O O5 0.173735 0.658339 0.242308
O O6 0.262342 0.749554 0.174577
O O7 0.180154 0.883381 0.190571
O O8 0.194616 0.730498 0.000000
O O9 0.343420 0.616198 0.813180
O O10 0.368105 0.475424 0.000000
O O11 0.558348 0.167788 0.259908
O O12 0.500000 0.000000 0.166507
O O13 0.532701 0.156754 0.000000
O O14 0.839811 0.350820 0.500000
O O15 0.894431 0.482099 0.350009
O O16 0.152470 0.334685 0.737992
O O17 0.169387 0.277319 0.000000
O O18 0.395461 0.828787 0.500000
#
# Coordination Sequence:
#
# PCOD9428409 Si02
#       8
#     8   8   8   8   8   2   8   8
#     4  11  23  42  63  92 125 165 218 259 316 397
#     4   9  20  37  65  92 119 164 209 258 319 384
#     4   9  20  40  61  87 125 163 202 262 323 373
#     4  11  24  42  67  96 125 166 220 275 328 386
#     4  10  21  41  63  88 125 164 209 262 317 377
#     4  12  28  40  68  92 124 176 218 254 328 388
#     4  10  22  40  62  93 128 162 212 265 318 386
#     4  11  25  40  62  91 128 170 209 267 326 380
#
# _framework density 19.186433999999998
#
# number of rings (size 3 to 8) (size 9 to 14) (size 15 to 20)
#    0.000    1.793    2.069    0.828    4.828    2.483 
#    0.000    0.690    0.000    0.000    0.000    0.000 
#    0.000    0.000    0.000    0.000    0.000    0.000 
#
# Total GULP energy -322927.409669 kJ/mol
# GULP energy per Si atom -5567.713960 kJ/mol
# Density = 1.914276 g / cm^3
# Si number density = 19.186434 Si / 1000 Ang^3
#
#
#
# Elastic Constant Matrix: (Units=GPa)
#
#
# Indices 1 2 3 4 5 6 
#
# 1 65.8415 16.1049 48.6873 0.0000 0.0000 0.0000
# 2 16.1049 57.0149 37.6665 0.0000 0.0000 0.0000
# 3 48.6873 37.6665 86.3847 0.0000 0.0000 0.0000
# 4 0.0000 0.0000 0.0000 24.6758 0.0000 0.0000
# 5 0.0000 0.0000 0.0000 0.0000 13.5083 0.0000
# 6 0.0000 0.0000 0.0000 0.0000 0.0000 21.9433
#
#
#
# Elastic Compliance Matrix: (Units=1/GPa)
#
#
# Indices 1 2 3 4 5 6 
#
# 1 0.026487 0.003344 -0.016387 0.000000 0.000000 0.000000
# 2 0.003344 0.025058 -0.012811 0.000000 0.000000 0.000000
# 3 -0.016387 -0.012811 0.026398 0.000000 0.000000 0.000000
# 4 0.000000 0.000000 0.000000 0.040525 0.000000 0.000000
# 5 0.000000 0.000000 0.000000 0.000000 0.074028 0.000000
# 6 0.000000 0.000000 0.000000 0.000000 0.000000 0.045572
#
#
# Mechanical properties :
#
#
# Convention : Reuss Voigt Hill
#
# Bulk Modulus (GPa) = 38.11540 46.01762 42.06651
# Shear Modulus (GPa) = 16.74923 19.14432 17.94678
#
# Velocity S-wave (km/s) = 2.95782 3.16223 3.06173
# Velocity P-wave (km/s) = 5.61906 6.11306 5.87126
#
# Compressibility (1/GPa) = 0.02623612
#
# Stress axis : x y z
#
# Youngs Moduli (GPa) = 37.75394 39.90728 37.88214
#
# Poissons Ratio (x) = -0.13344 0.62076
# Poissons Ratio (y) = -0.12624 0.48530
# Poissons Ratio (z) = 0.61866 0.51124
#
# Static dielectric constant tensor:
#      x y z
#    x 1.660190 0.000000 0.000000 
#    y 0.000000 1.706900 0.000000 
#    z 0.000000 0.000000 1.666860 
# 
# From -- ./inp_files/4288.got.cif
#   From: 2010.05.17/outbox.cif.g08.bks.cpg/sg55_3_cif.got.tgz:4288.got - 2010.06.03 13:27:54.
