data_PCOD9428155
_publ_section_title
;
Structure prediction by ZEFSAII (Michael W. Deem and Ramdas Pophale) SiO2 
 PCOD9428155
Probable space group: P B A M
;
_chemical_formula_sum "Si O2"
_cell_formula_units_Z 40
_cell_length_a 24.876102
_cell_length_b 8.312344
_cell_length_c 9.332246
_cell_angle_alpha 90.000000
_cell_angle_beta 90.000000
_cell_angle_gamma 90.000000
_cell_volume 1929.709857
_symmetry_space_group_name_H-M "P B A M"
_symmetry_group_IT_number 55
_symmetry_cell_setting 'orthorhombic'
loop_
_space_group_symop_operation_xyz
x,y,z
-x,-y,z
1/2+x,1/2-y,-z
1/2-x,1/2+y,-z
-x,-y,-z
x,y,-z
1/2-x,1/2+y,z
1/2+x,1/2-y,z
loop_
_atom_site_type_symbol
_atom_site_label
_atom_site_fract_x
_atom_site_fract_y
_atom_site_fract_z
Si Si1 0.977616 0.180973 0.167629
Si Si2 0.924707 0.677120 0.667762
Si Si3 0.171361 0.172443 0.167147
Si Si4 0.716160 0.687684 0.167254
Si Si5 0.619719 0.815702 0.667566
O O1 0.920695 0.201894 0.244684
O O2 0.020774 0.294261 0.245528
O O3 0.972465 0.220126 0.000000
O O4 0.000000 0.000000 0.180231
O O5 0.934036 0.709120 0.500000
O O6 0.878918 0.791881 0.733002
O O7 0.902828 0.496070 0.683425
O O8 0.221028 0.291274 0.199787
O O9 0.195612 0.994281 0.183270
O O10 0.155257 0.192926 0.000000
O O11 0.678566 0.796670 0.265772
O O12 0.709532 0.735049 0.000000
O O13 0.619823 0.774320 0.500000
#
# Coordination Sequence:
#
# PCOD9428155 Si02
#       5
#     8   8   8   8   8
#     4  11  24  41  62  88 116 149 192 239 288 344
#     4  11  24  40  59  86 119 154 193 237 287 343
#     4  10  21  38  61  88 117 152 195 240 287 341
#     4  10  21  38  61  88 117 152 195 240 287 341
#     4  11  24  40  59  86 119 154 193 237 287 343
#
# _framework density 20.728505999999999
#
# number of rings (size 3 to 8) (size 9 to 14) (size 15 to 20)
#    0.000    1.400    0.000    4.800    0.000   15.200 
#    0.000    0.000    0.000    0.000    0.000    0.000 
#    0.000    0.000    0.000    0.000    0.000    0.000 
#
# Total GULP energy -223888.693146 kJ/mol
# GULP energy per Si atom -5597.217329 kJ/mol
# Density = 2.068133 g / cm^3
# Si number density = 20.728506 Si / 1000 Ang^3
#
#
#
# Elastic Constant Matrix: (Units=GPa)
#
#
# Indices 1 2 3 4 5 6 
#
# 1 54.8558 4.9295 27.8924 0.0000 0.0000 0.0000
# 2 4.9295 36.9687 34.7336 0.0000 0.0000 0.0000
# 3 27.8924 34.7336 81.8158 0.0000 0.0000 0.0000
# 4 0.0000 0.0000 0.0000 24.7082 0.0000 0.0000
# 5 0.0000 0.0000 0.0000 0.0000 -55.1873 0.0000
# 6 0.0000 0.0000 0.0000 0.0000 0.0000 39.1198
#
#
#
# Elastic Compliance Matrix: (Units=1/GPa)
#
#
# Indices 1 2 3 4 5 6 
#
# 1 0.023150 0.007200 -0.010949 0.000000 0.000000 0.000000
# 2 0.007200 0.047238 -0.022509 0.000000 0.000000 0.000000
# 3 -0.010949 -0.022509 0.025511 0.000000 0.000000 0.000000
# 4 0.000000 0.000000 0.000000 0.040472 0.000000 0.000000
# 5 0.000000 0.000000 0.000000 0.000000 -0.018120 0.000000
# 6 0.000000 0.000000 0.000000 0.000000 0.000000 0.025562
#
#
# Mechanical properties :
#
#
# Convention : Reuss Voigt Hill
#
# Bulk Modulus (GPa) = 23.05024 34.30568 28.67796
# Shear Modulus (GPa) = 23.72040 8.80045 16.26042
#
# Velocity S-wave (km/s) = 3.38647 2.06272 2.80384
# Velocity P-wave (km/s) = 5.14151 4.71794 4.93428
#
# Compressibility (1/GPa) = 0.04338349
#
# Stress axis : x y z
#
# Youngs Moduli (GPa) = 43.19710 21.16954 39.19892
#
# Poissons Ratio (x) = -0.15242 0.42918
# Poissons Ratio (y) = -0.31102 0.88231
# Poissons Ratio (z) = 0.47296 0.47650
#
# Static dielectric constant tensor:
#      x y z
#    x 1.708620 0.000000 0.000000 
#    y 0.000000 1.760890 0.000000 
#    z 0.000000 0.000000 1.694530 
# 
# From -- ./inp_files/2290.got.cif
#   From: 2010.05.17/outbox.cif.g08.bks.cpg/sg55_2_cif.got.tgz:2290.got - 2010.06.03 13:27:54.
