data_PCOD9428653
_publ_section_title
;
Structure prediction by ZEFSAII (Michael W. Deem and Ramdas Pophale) SiO2 
 PCOD9428653
Probable space group: P B A M
;
_chemical_formula_sum "Si O2"
_cell_formula_units_Z 32
_cell_length_a 8.662396
_cell_length_b 11.224242
_cell_length_c 13.696623
_cell_angle_alpha 90.000000
_cell_angle_beta 90.000000
_cell_angle_gamma 90.000000
_cell_volume 1331.706616
_symmetry_space_group_name_H-M "P B A M"
_symmetry_group_IT_number 55
_symmetry_cell_setting 'orthorhombic'
loop_
_space_group_symop_operation_xyz
x,y,z
-x,-y,z
1/2+x,1/2-y,-z
1/2-x,1/2+y,-z
-x,-y,-z
x,y,-z
1/2-x,1/2+y,z
1/2+x,1/2-y,z
loop_
_atom_site_type_symbol
_atom_site_label
_atom_site_fract_x
_atom_site_fract_y
_atom_site_fract_z
Si Si1 0.947409 0.653870 0.112485
Si Si2 0.069964 0.133384 0.615791
Si Si3 0.084253 0.620613 0.692051
Si Si4 0.104084 0.902186 0.887527
O O1 0.773258 0.631939 0.150304
O O2 0.989248 0.791901 0.108694
O O3 0.071487 0.608061 0.190296
O O4 0.963577 0.615669 0.000000
O O5 0.069071 0.158676 0.500000
O O6 0.243013 0.125130 0.655195
O O7 0.991132 0.250671 0.664885
O O8 0.000000 0.000000 0.626926
O O9 0.000000 0.500000 0.652886
O O10 0.135743 0.940345 0.000000
O O11 0.000000 0.000000 0.835963
#
# Coordination Sequence:
#
# PCOD9428653 Si02
#       4
#     8   8   8   8
#     4  10  22  40  63  97 142 191 241 289 343 413
#     4  11  26  50  79 109 143 183 233 302 378 444
#     4  12  26  44  72 110 147 190 242 294 357 433
#     4   9  19  37  61  88 125 178 237 295 348 400
#
# _framework density 24.029316999999999
#
# number of rings (size 3 to 8) (size 9 to 14) (size 15 to 20)
#    0.000    1.500    0.000    3.750    0.000    9.500 
#    0.000    5.000    0.000    5.250    0.000    0.000 
#    0.000    0.000    0.000    0.000    0.000    0.000 
#
# Total GULP energy -178797.931778 kJ/mol
# GULP energy per Si atom -5587.435368 kJ/mol
# Density = 2.397462 g / cm^3
# Si number density = 24.029317 Si / 1000 Ang^3
#
#
#
# Elastic Constant Matrix: (Units=GPa)
#
#
# Indices 1 2 3 4 5 6 
#
# 1 166.4178 97.4799 48.7377 0.0000 0.0000 0.0000
# 2 97.4799 202.1853 24.7047 0.0000 0.0000 0.0000
# 3 48.7377 24.7047 142.4630 0.0000 0.0000 0.0000
# 4 0.0000 0.0000 0.0000 -11.4149 0.0000 0.0000
# 5 0.0000 0.0000 0.0000 0.0000 19.9189 0.0000
# 6 0.0000 0.0000 0.0000 0.0000 0.0000 49.8856
#
#
#
# Elastic Compliance Matrix: (Units=1/GPa)
#
#
# Indices 1 2 3 4 5 6 
#
# 1 0.009116 -0.004101 -0.002408 0.000000 0.000000 0.000000
# 2 -0.004101 0.006898 0.000207 0.000000 0.000000 0.000000
# 3 -0.002408 0.000207 0.007807 0.000000 0.000000 0.000000
# 4 0.000000 0.000000 0.000000 -0.087605 0.000000 0.000000
# 5 0.000000 0.000000 0.000000 0.000000 0.050204 0.000000
# 6 0.000000 0.000000 0.000000 0.000000 0.000000 0.020046
#
#
# Mechanical properties :
#
#
# Convention : Reuss Voigt Hill
#
# Bulk Modulus (GPa) = 89.14459 94.76786 91.95623
# Shear Modulus (GPa) = 219.21573 34.35418 126.78495
#
# Velocity S-wave (km/s) = 9.56172 3.78521 7.27167
# Velocity P-wave (km/s) = 12.61272 7.65688 10.43333
#
# Compressibility (1/GPa) = 0.01121773
#
# Stress axis : x y z
#
# Youngs Moduli (GPa) = 109.69383 144.97077 128.08768
#
# Poissons Ratio (x) = 0.59454 0.30838
# Poissons Ratio (y) = 0.44986 -0.02649
# Poissons Ratio (z) = 0.26410 -0.02998
#
# Static dielectric constant tensor:
#      x y z
#    x 1.890570 0.000000 0.000000 
#    y 0.000000 2.139490 0.000000 
#    z 0.000000 0.000000 1.947820 
# 
# From -- ./inp_files/16857.got.cif
#   From: 2010.05.17/outbox.cif.g08.bks.cpg/sg55_9_cif.got.tgz:16857.got - 2010.06.03 13:27:54.
