data_PCOD9428680
_publ_section_title
;
Structure prediction by ZEFSAII (Michael W. Deem and Ramdas Pophale) SiO2 
 PCOD9428680
Probable space group: P B A M
;
_chemical_formula_sum "Si O2"
_cell_formula_units_Z 44
_cell_length_a 10.044275
_cell_length_b 24.159512
_cell_length_c 7.125696
_cell_angle_alpha 90.000000
_cell_angle_beta 90.000000
_cell_angle_gamma 90.000000
_cell_volume 1729.155469
_symmetry_space_group_name_H-M "P B A M"
_symmetry_group_IT_number 55
_symmetry_cell_setting 'orthorhombic'
loop_
_space_group_symop_operation_xyz
x,y,z
-x,-y,z
1/2+x,1/2-y,-z
1/2-x,1/2+y,-z
-x,-y,-z
x,y,-z
1/2-x,1/2+y,z
1/2+x,1/2-y,z
loop_
_atom_site_type_symbol
_atom_site_label
_atom_site_fract_x
_atom_site_fract_y
_atom_site_fract_z
Si Si1 0.708159 0.450783 0.500000
Si Si2 0.608603 0.310038 0.226454
Si Si3 0.991747 0.069859 0.226458
Si Si4 0.281766 0.878403 0.226945
Si Si5 0.341122 0.260574 0.227645
Si Si6 0.550835 0.936373 0.216587
O O1 0.598682 0.466597 0.665695
O O2 0.818752 0.434237 0.661095
O O3 0.556941 0.369898 0.281707
O O4 0.493762 0.266818 0.285162
O O5 0.753130 0.290957 0.290274
O O6 0.609924 0.310387 0.000000
O O7 0.837394 0.079892 0.280761
O O8 0.997216 0.062977 0.000000
O O9 0.236403 0.816895 0.282069
O O10 0.426509 0.899179 0.284372
O O11 0.283110 0.878452 0.000000
O O12 0.342984 0.259581 0.000000
O O13 0.500000 0.000000 0.221791
O O14 0.579781 0.921459 0.000000
#
# Coordination Sequence:
#
# PCOD9428680 Si02
#       6
#     4   8   8   8   8   8
#     4  12  23  36  59  88 114 142 182 232 281 334
#     4   8  14  25  44  73 107 140 178 223 269 321
#     4   9  19  36  56  81 114 149 184 226 278 335
#     4   8  16  34  58  80 108 150 192 229 281 346
#     4   8  13  23  45  76 104 138 184 227 273 330
#     4  10  22  41  62  85 115 149 189 240 295 351
#
# _framework density 25.445947
#
# number of rings (size 3 to 8) (size 9 to 14) (size 15 to 20)
#    0.000    3.091    0.000    3.000    0.000    2.182 
#    0.000    7.273    0.000   14.182    0.000    0.000 
#    0.000    0.000    0.000    0.000    0.000    0.000 
#
# Total GULP energy -245037.736647 kJ/mol
# GULP energy per Si atom -5569.039469 kJ/mol
# Density = 2.538803 g / cm^3
# Si number density = 25.445947 Si / 1000 Ang^3
#
#
#
# Elastic Constant Matrix: (Units=GPa)
#
#
# Indices 1 2 3 4 5 6 
#
# 1 130.1923 7.9716 25.5951 0.0000 0.0000 0.0000
# 2 7.9716 31.2327 -28.2543 0.0000 0.0000 0.0000
# 3 25.5951 -28.2543 167.7897 0.0000 0.0000 0.0000
# 4 0.0000 0.0000 0.0000 -32.8764 0.0000 0.0000
# 5 0.0000 0.0000 0.0000 0.0000 95.1785 0.0000
# 6 0.0000 0.0000 0.0000 0.0000 0.0000 38.9075
#
#
#
# Elastic Compliance Matrix: (Units=1/GPa)
#
#
# Indices 1 2 3 4 5 6 
#
# 1 0.008293 -0.003847 -0.001913 0.000000 0.000000 0.000000
# 2 -0.003847 0.039556 0.007248 0.000000 0.000000 0.000000
# 3 -0.001913 0.007248 0.007472 0.000000 0.000000 0.000000
# 4 0.000000 0.000000 0.000000 -0.030417 0.000000 0.000000
# 5 0.000000 0.000000 0.000000 0.000000 0.010507 0.000000
# 6 0.000000 0.000000 0.000000 0.000000 0.000000 0.025702
#
#
# Mechanical properties :
#
#
# Convention : Reuss Voigt Hill
#
# Bulk Modulus (GPa) = 17.15358 37.75995 27.45677
# Shear Modulus (GPa) = 64.45922 41.83539 53.14730
#
# Velocity S-wave (km/s) = 5.03853 4.05914 4.57512
# Velocity P-wave (km/s) = 6.37220 6.06962 6.22275
#
# Compressibility (1/GPa) = 0.05829686
#
# Stress axis : x y z
#
# Youngs Moduli (GPa) = 120.59056 25.28056 133.83184
#
# Poissons Ratio (x) = 0.09725 0.25599
# Poissons Ratio (y) = 0.46390 -0.96997
# Poissons Ratio (z) = 0.23066 -0.18323
#
# Static dielectric constant tensor:
#      x y z
#    x 1.928060 0.000000 0.000000 
#    y 0.000000 2.178060 0.000000 
#    z 0.000000 0.000000 2.016840 
# 
# From -- ./inp_files/2711.got.cif
#   From: 2010.05.17/outbox.cif.g08.bks.cpg/sg55_2_cif.got.tgz:2711.got - 2010.06.03 13:27:54.
