data_PCOD9428701
_publ_section_title
;
Structure prediction by ZEFSAII (Michael W. Deem and Ramdas Pophale) SiO2 
 PCOD9428701
Probable space group: P B A M
;
_chemical_formula_sum "Si O2"
_cell_formula_units_Z 48
_cell_length_a 16.169266
_cell_length_b 10.219412
_cell_length_c 13.533972
_cell_angle_alpha 90.000000
_cell_angle_beta 90.000000
_cell_angle_gamma 90.000000
_cell_volume 2236.358825
_symmetry_space_group_name_H-M "P B A M"
_symmetry_group_IT_number 55
_symmetry_cell_setting 'orthorhombic'
loop_
_space_group_symop_operation_xyz
x,y,z
-x,-y,z
1/2+x,1/2-y,-z
1/2-x,1/2+y,-z
-x,-y,-z
x,y,-z
1/2-x,1/2+y,z
1/2+x,1/2-y,z
loop_
_atom_site_type_symbol
_atom_site_label
_atom_site_fract_x
_atom_site_fract_y
_atom_site_fract_z
Si Si1 0.369637 0.050568 0.817672
Si Si2 0.345523 0.733198 0.389353
Si Si3 0.067797 0.916445 0.806707
Si Si4 0.702519 0.795440 0.000000
Si Si5 0.722501 0.545292 0.319863
Si Si6 0.154944 0.000684 0.000000
Si Si7 0.470451 0.820575 0.216521
O O1 0.287997 0.012302 0.758971
O O2 0.443983 0.108034 0.750100
O O3 0.414059 0.915414 0.849778
O O4 0.344835 0.148482 0.904208
O O5 0.379633 0.744223 0.500000
O O6 0.311497 0.585285 0.373673
O O7 0.413000 0.770014 0.305533
O O8 0.272181 0.841310 0.377088
O O9 0.011998 0.796830 0.842089
O O10 0.145798 0.889077 0.737697
O O11 0.102260 0.991945 0.900882
O O12 0.000000 0.000000 0.747422
O O13 0.789013 0.871456 0.000000
O O14 0.705965 0.638216 0.000000
#
# Coordination Sequence:
#
# PCOD9428701 Si02
#       7
#     8   8   8   4   8   4   8
#     4  10  22  41  66  94 133 178 226 257 327 391
#     4  11  24  44  69 101 129 168 223 279 340 405
#     4  12  23  42  65  98 135 175 220 271 330 391
#     4  12  24  40  67 100 134 179 230 272 309 399
#     4  11  23  42  72  93 134 175 216 271 343 399
#     4  12  27  39  66 101 138 175 234 271 319 385
#     4  10  22  41  65  96 128 176 212 277 330 391
#
# _framework density 21.463460999999999
#
# number of rings (size 3 to 8) (size 9 to 14) (size 15 to 20)
#    0.000    1.000    5.000    1.750    0.000    3.333 
#    0.000   11.667    0.000    0.000    0.000    0.000 
#    0.000    0.000    0.000    0.000    0.000    0.000 
#
# Total GULP energy -267644.711449 kJ/mol
# GULP energy per Si atom -5575.931489 kJ/mol
# Density = 2.141461 g / cm^3
# Si number density = 21.463461 Si / 1000 Ang^3
#
#
#
# Elastic Constant Matrix: (Units=GPa)
#
#
# Indices 1 2 3 4 5 6 
#
# 1 110.8116 24.5586 19.1996 0.0000 0.0000 0.0000
# 2 24.5586 85.4378 0.5910 0.0000 0.0000 0.0000
# 3 19.1996 0.5910 50.4140 0.0000 0.0000 0.0000
# 4 0.0000 0.0000 0.0000 44.0011 0.0000 0.0000
# 5 0.0000 0.0000 0.0000 0.0000 12.5386 0.0000
# 6 0.0000 0.0000 0.0000 0.0000 0.0000 49.3454
#
#
#
# Elastic Compliance Matrix: (Units=1/GPa)
#
#
# Indices 1 2 3 4 5 6 
#
# 1 0.010355 -0.002950 -0.003909 0.000000 0.000000 0.000000
# 2 -0.002950 0.012545 0.000976 0.000000 0.000000 0.000000
# 3 -0.003909 0.000976 0.021313 0.000000 0.000000 0.000000
# 4 0.000000 0.000000 0.000000 0.022727 0.000000 0.000000
# 5 0.000000 0.000000 0.000000 0.000000 0.079753 0.000000
# 6 0.000000 0.000000 0.000000 0.000000 0.000000 0.020265
#
#
# Mechanical properties :
#
#
# Convention : Reuss Voigt Hill
#
# Bulk Modulus (GPa) = 30.81760 37.26243 34.04001
# Shear Modulus (GPa) = 26.37957 34.66464 30.52211
#
# Velocity S-wave (km/s) = 3.50958 4.02313 3.77510
# Velocity P-wave (km/s) = 5.55087 6.24334 5.90726
#
# Compressibility (1/GPa) = 0.03244899
#
# Stress axis : x y z
#
# Youngs Moduli (GPa) = 96.56864 79.70991 46.91957
#
# Poissons Ratio (x) = 0.23511 0.18342
# Poissons Ratio (y) = 0.28483 -0.04580
# Poissons Ratio (z) = 0.37750 -0.07782
#
# Static dielectric constant tensor:
#      x y z
#    x 1.773340 0.000000 0.000000 
#    y 0.000000 1.937600 0.000000 
#    z 0.000000 0.000000 1.724250 
# 
# From -- ./inp_files/18901.got.cif
#   From: 2010.05.17/outbox.cif.g08.bks.cpg/sg55_10_cif.got.tgz:18901.got - 2010.06.03 13:27:54.
