data_PCOD9428419
_publ_section_title
;
Structure prediction by ZEFSAII (Michael W. Deem and Ramdas Pophale) SiO2 
 PCOD9428419
Probable space group: P B A M
;
_chemical_formula_sum "Si O2"
_cell_formula_units_Z 34
_cell_length_a 8.643040
_cell_length_b 22.749653
_cell_length_c 7.471948
_cell_angle_alpha 90.000000
_cell_angle_beta 90.000000
_cell_angle_gamma 90.000000
_cell_volume 1469.180449
_symmetry_space_group_name_H-M "P B A M"
_symmetry_group_IT_number 55
_symmetry_cell_setting 'orthorhombic'
loop_
_space_group_symop_operation_xyz
x,y,z
-x,-y,z
1/2+x,1/2-y,-z
1/2-x,1/2+y,-z
-x,-y,-z
x,y,-z
1/2-x,1/2+y,z
1/2+x,1/2-y,z
loop_
_atom_site_type_symbol
_atom_site_label
_atom_site_fract_x
_atom_site_fract_y
_atom_site_fract_z
Si Si1 0.500000 0.500000 0.500000
Si Si2 0.063298 0.916879 0.791904
Si Si3 0.426265 0.175896 0.716421
Si Si4 0.079155 0.203798 0.716328
Si Si5 0.593807 0.054868 0.790440
O O1 0.452849 0.547896 0.341222
O O2 0.234021 0.933750 0.718163
O O3 0.036951 0.847402 0.774946
O O4 0.044162 0.932350 0.000000
O O5 0.426997 0.175589 0.500000
O O6 0.250627 0.186281 0.776546
O O7 0.527637 0.231699 0.776362
O O8 0.496455 0.114314 0.775605
O O9 0.078589 0.204636 0.500000
O O10 0.500000 0.000000 0.712132
O O11 0.619147 0.042115 0.000000
#
# Coordination Sequence:
#
# PCOD9428419 Si02
#       5
#     2   8   8   8   8
#     4  12  26  44  70  94 140 172 218 272 324 398
#     4  11  25  43  68  98 132 175 221 271 330 393
#     4  10  22  38  67  96 130 175 221 272 332 394
#     4  10  21  41  65  98 133 171 221 275 330 390
#     4  10  24  43  62  91 132 173 220 273 329 394
#
# _framework density 23.142156
#
# number of rings (size 3 to 8) (size 9 to 14) (size 15 to 20)
#    0.000    1.647    1.176    1.765    4.941    4.235 
#    0.000    0.000    0.000    0.000    0.000    0.000 
#    0.000    0.000    0.000    0.000    0.000    0.000 
#
# Total GULP energy -189711.042192 kJ/mol
# GULP energy per Si atom -5579.736535 kJ/mol
# Density = 2.308948 g / cm^3
# Si number density = 23.142156 Si / 1000 Ang^3
#
#
#
# Elastic Constant Matrix: (Units=GPa)
#
#
# Indices 1 2 3 4 5 6 
#
# 1 105.7104 40.9244 -5.0559 0.0000 0.0000 0.0000
# 2 40.9244 170.5076 2.7342 0.0000 0.0000 0.0000
# 3 -5.0559 2.7342 115.5147 0.0000 0.0000 0.0000
# 4 0.0000 0.0000 0.0000 30.9061 0.0000 0.0000
# 5 0.0000 0.0000 0.0000 0.0000 10.2742 0.0000
# 6 0.0000 0.0000 0.0000 0.0000 0.0000 39.7185
#
#
#
# Elastic Compliance Matrix: (Units=1/GPa)
#
#
# Indices 1 2 3 4 5 6 
#
# 1 0.010460 -0.002519 0.000517 0.000000 0.000000 0.000000
# 2 -0.002519 0.006474 -0.000263 0.000000 0.000000 0.000000
# 3 0.000517 -0.000263 0.008686 0.000000 0.000000 0.000000
# 4 0.000000 0.000000 0.000000 0.032356 0.000000 0.000000
# 5 0.000000 0.000000 0.000000 0.000000 0.097331 0.000000
# 6 0.000000 0.000000 0.000000 0.000000 0.000000 0.025177
#
#
# Mechanical properties :
#
#
# Convention : Reuss Voigt Hill
#
# Bulk Modulus (GPa) = 47.41715 52.10424 49.76070
# Shear Modulus (GPa) = 26.03580 39.72174 32.87877
#
# Velocity S-wave (km/s) = 3.35780 4.14747 3.77335
# Velocity P-wave (km/s) = 5.96381 6.74530 6.36656
#
# Compressibility (1/GPa) = 0.02108941
#
# Stress axis : x y z
#
# Youngs Moduli (GPa) = 95.60533 154.47329 115.13058
#
# Poissons Ratio (x) = 0.38908 -0.05957
# Poissons Ratio (y) = 0.24081 0.03033
# Poissons Ratio (z) = -0.04947 0.04070
#
# Static dielectric constant tensor:
#      x y z
#    x 1.920860 0.000000 0.000000 
#    y 0.000000 1.871560 0.000000 
#    z 0.000000 0.000000 1.868430 
# 
# From -- ./inp_files/2115.got.cif
#   From: 2010.05.17/outbox.cif.g08.bks.cpg/sg55_2_cif.got.tgz:2115.got - 2010.06.03 13:27:54.
