data_PCOD9428016
_publ_section_title
;
Structure prediction by ZEFSAII (Michael W. Deem and Ramdas Pophale) SiO2 
 PCOD9428016
Probable space group: P B A M
;
_chemical_formula_sum "Si O2"
_cell_formula_units_Z 64
_cell_length_a 9.707771
_cell_length_b 13.435276
_cell_length_c 23.342271
_cell_angle_alpha 90.000000
_cell_angle_beta 90.000000
_cell_angle_gamma 90.000000
_cell_volume 3044.452640
_symmetry_space_group_name_H-M "P B A M"
_symmetry_group_IT_number 55
_symmetry_cell_setting 'orthorhombic'
loop_
_space_group_symop_operation_xyz
x,y,z
-x,-y,z
1/2+x,1/2-y,-z
1/2-x,1/2+y,-z
-x,-y,-z
x,y,-z
1/2-x,1/2+y,z
1/2+x,1/2-y,z
loop_
_atom_site_type_symbol
_atom_site_label
_atom_site_fract_x
_atom_site_fract_y
_atom_site_fract_z
Si Si1 0.153292 0.117324 0.723833
Si Si2 0.656280 0.379456 0.064698
Si Si3 0.156280 0.879456 0.064698
Si Si4 0.500000 0.881018 0.431225
Si Si5 0.153293 0.882677 0.276167
Si Si6 0.750000 0.250000 0.622046
Si Si7 0.345667 0.120414 0.829236
Si Si8 0.654333 0.120414 0.829235
O O1 0.170734 0.176308 0.665233
O O2 0.265511 0.145081 0.771197
O O3 1.000000 0.132895 0.747813
O O4 0.168947 0.000000 0.712221
O O5 0.500000 0.343479 0.074424
O O6 0.649803 0.500000 0.066031
O O7 0.760878 0.351875 0.114442
O O8 0.698708 0.353067 0.000000
O O9 0.260878 0.851875 0.114442
O O10 0.198709 0.853066 0.000000
O O11 0.500000 0.882724 0.500000
O O12 0.636081 0.818263 0.410834
O O13 0.363919 0.818263 0.410835
O O14 0.500000 0.000000 0.412151
O O15 0.170734 0.823692 0.334767
O O16 0.265512 0.854919 0.228804
O O17 0.500000 0.159893 0.829249
O O18 0.352563 0.000000 0.829916
#
# Coordination Sequence:
#
# PCOD9428016 Si02
#       8
#     8   8   8   8   8   8   8   8
#     4  10  21  37  58  86 123 167 216 270 330 398
#     4   8  13  22  37  59  94 145 203 264 331 403
#     4   8  13  22  37  59  94 145 203 264 331 403
#     4  11  26  48  75 109 149 189 231 284 338 396
#     4  10  21  37  58  86 123 167 216 270 330 398
#     4  12  23  44  70 102 137 182 230 276 336 400
#     4   9  17  27  43  71 108 152 205 270 338 399
#     4   9  17  27  43  71 108 152 205 270 338 399
#
# _framework density 21.021840999999998
#
# number of rings (size 3 to 8) (size 9 to 14) (size 15 to 20)
#    0.000    2.375    1.250    2.625    1.750    3.500 
#    0.000    2.500    0.000    3.000    0.000    0.875 
#    0.000    0.000    0.000    0.000    0.000    0.750 
#
# Total GULP energy -357393.663013 kJ/mol
# GULP energy per Si atom -5584.275985 kJ/mol
# Density = 2.097399 g / cm^3
# Si number density = 21.021841 Si / 1000 Ang^3
#
#
#
# Elastic Constant Matrix: (Units=GPa)
#
#
# Indices 1 2 3 4 5 6 
#
# 1 136.5769 55.7348 81.6908 0.0000 0.0000 0.0000
# 2 55.7348 140.9311 47.3151 0.0000 0.0000 0.0000
# 3 81.6908 47.3151 131.9586 0.0000 0.0000 0.0000
# 4 0.0000 0.0000 0.0000-2051.9047 0.0000 0.0000
# 5 0.0000 0.0000 0.0000 0.0000 47.4253 0.0000
# 6 0.0000 0.0000 0.0000 0.0000 0.0000 14.2378
#
#
#
# Elastic Compliance Matrix: (Units=1/GPa)
#
#
# Indices 1 2 3 4 5 6 
#
# 1 0.012443 -0.002654 -0.006751 0.000000 0.000000 0.000000
# 2 -0.002654 0.008633 -0.001452 0.000000 0.000000 0.000000
# 3 -0.006751 -0.001452 0.012278 0.000000 0.000000 0.000000
# 4 0.000000 0.000000 0.000000 -0.000487 0.000000 0.000000
# 5 0.000000 0.000000 0.000000 0.000000 0.021086 0.000000
# 6 0.000000 0.000000 0.000000 0.000000 0.000000 0.070236
#
#
# Mechanical properties :
#
#
# Convention : Reuss Voigt Hill
#
# Bulk Modulus (GPa) = 85.92074 86.54978 86.23526
# Shear Modulus (GPa) = 33.38130 -383.06661 -174.84265
#
# Velocity S-wave (km/s) = 3.98921 -13.51365 -9.12976
# Velocity P-wave (km/s) = 7.88538 14.22079 8.36814
#
# Compressibility (1/GPa) = 0.01163863
#
# Stress axis : x y z
#
# Youngs Moduli (GPa) = 80.36419 115.83528 81.44350
#
# Poissons Ratio (x) = 0.30747 0.54987
# Poissons Ratio (y) = 0.21331 0.11827
# Poissons Ratio (z) = 0.54258 0.16822
#
# Static dielectric constant tensor:
#      x y z
#    x 1.758690 0.000000 0.000000 
#    y 0.000000 1.849330 0.000000 
#    z 0.000000 0.000000 1.698890 
# 
# From -- ./inp_files/23565.got.cif
#   From: 2010.05.17/outbox.cif.g08.bks.cpg/sg55_12_cif.got.tgz:23565.got - 2010.06.03 13:27:54.
