data_PCOD9428183
_publ_section_title
;
Structure prediction by ZEFSAII (Michael W. Deem and Ramdas Pophale) SiO2 
 PCOD9428183
Probable space group: P B A M
;
_chemical_formula_sum "Si O2"
_cell_formula_units_Z 32
_cell_length_a 18.297888
_cell_length_b 5.031138
_cell_length_c 13.177014
_cell_angle_alpha 90.000000
_cell_angle_beta 90.000000
_cell_angle_gamma 90.000000
_cell_volume 1213.065362
_symmetry_space_group_name_H-M "P B A M"
_symmetry_group_IT_number 55
_symmetry_cell_setting 'orthorhombic'
loop_
_space_group_symop_operation_xyz
x,y,z
-x,-y,z
1/2+x,1/2-y,-z
1/2-x,1/2+y,-z
-x,-y,-z
x,y,-z
1/2-x,1/2+y,z
1/2+x,1/2-y,z
loop_
_atom_site_type_symbol
_atom_site_label
_atom_site_fract_x
_atom_site_fract_y
_atom_site_fract_z
Si Si1 0.912378 0.489334 0.889288
Si Si2 0.338738 0.635560 0.608972
Si Si3 0.795156 0.899660 0.163692
Si Si4 0.421541 0.144438 0.335347
O O1 0.872244 0.773975 0.872076
O O2 0.899686 0.337073 0.783711
O O3 0.000000 0.500000 0.892473
O O4 0.890161 0.386141 0.000000
O O5 0.303377 0.581630 0.500000
O O6 0.295507 0.592570 0.713104
O O7 0.407813 0.433268 0.619077
O O8 0.366892 0.935714 0.614116
O O9 0.736730 0.677809 0.128685
O O10 0.500000 0.000000 0.342795
#
# Coordination Sequence:
#
# PCOD9428183 Si02
#       4
#     8   8   8   8
#     4   9  20  42  70  99 135 181 231 286 351 422
#     4  11  23  39  61  91 130 177 227 281 344 413
#     4  11  24  43  66  96 134 176 228 288 349 419
#     4  10  21  38  61  94 134 174 224 283 342 412
#
# _framework density 26.379451
#
# number of rings (size 3 to 8) (size 9 to 14) (size 15 to 20)
#    0.000    1.750    0.000    4.500    0.000    5.000 
#    0.000   13.750    0.000   34.500    0.000    0.000 
#    0.000    0.000    0.000    0.000    0.000    0.000 
#
# Total GULP energy -179016.266269 kJ/mol
# GULP energy per Si atom -5594.258321 kJ/mol
# Density = 2.631941 g / cm^3
# Si number density = 26.379451 Si / 1000 Ang^3
#
#
#
# Elastic Constant Matrix: (Units=GPa)
#
#
# Indices 1 2 3 4 5 6 
#
# 1 137.3562 55.3136 26.4734 0.0000 0.0000 0.0000
# 2 55.3136 39.5557 26.2082 0.0000 0.0000 0.0000
# 3 26.4734 26.2082 202.8028 0.0000 0.0000 0.0000
# 4 0.0000 0.0000 0.0000 -164.0993 0.0000 0.0000
# 5 0.0000 0.0000 0.0000 0.0000 13.1479 0.0000
# 6 0.0000 0.0000 0.0000 0.0000 0.0000 47.5790
#
#
#
# Elastic Compliance Matrix: (Units=1/GPa)
#
#
# Indices 1 2 3 4 5 6 
#
# 1 0.016821 -0.024134 0.000923 0.000000 0.000000 0.000000
# 2 -0.024134 0.062274 -0.004897 0.000000 0.000000 0.000000
# 3 0.000923 -0.004897 0.005443 0.000000 0.000000 0.000000
# 4 0.000000 0.000000 0.000000 -0.006094 0.000000 0.000000
# 5 0.000000 0.000000 0.000000 0.000000 0.076058 0.000000
# 6 0.000000 0.000000 0.000000 0.000000 0.000000 0.021018
#
#
# Mechanical properties :
#
#
# Convention : Reuss Voigt Hill
#
# Bulk Modulus (GPa) = 35.30828 66.18944 50.74886
# Shear Modulus (GPa) = 20.73174 -2.55982 9.08596
#
# Velocity S-wave (km/s) = 2.80644 -0.98615 1.85790
# Velocity P-wave (km/s) = 4.89033 4.88355 4.88694
#
# Compressibility (1/GPa) = 0.02832197
#
# Stress axis : x y z
#
# Youngs Moduli (GPa) = 59.44890 16.05818 183.71283
#
# Poissons Ratio (x) = 0.38754 -0.16957
# Poissons Ratio (y) = 1.43473 0.89968
# Poissons Ratio (z) = -0.05487 0.07864
#
# Static dielectric constant tensor:
#      x y z
#    x 2.081240 0.000000 0.000000 
#    y 0.000000 2.014360 0.000000 
#    z 0.000000 0.000000 2.058530 
# 
# From -- ./inp_files/19170.got.cif
#   From: 2010.05.17/outbox.cif.g08.bks.cpg/sg55_10_cif.got.tgz:19170.got - 2010.06.03 13:27:54.
