data_PCOD9428411
_publ_section_title
;
Structure prediction by ZEFSAII (Michael W. Deem and Ramdas Pophale) SiO2 
 PCOD9428411
Probable space group: P B A M
;
_chemical_formula_sum "Si O2"
_cell_formula_units_Z 56
_cell_length_a 21.691327
_cell_length_b 14.915400
_cell_length_c 8.938457
_cell_angle_alpha 90.000000
_cell_angle_beta 90.000000
_cell_angle_gamma 90.000000
_cell_volume 2891.902065
_symmetry_space_group_name_H-M "P B A M"
_symmetry_group_IT_number 55
_symmetry_cell_setting 'orthorhombic'
loop_
_space_group_symop_operation_xyz
x,y,z
-x,-y,z
1/2+x,1/2-y,-z
1/2-x,1/2+y,-z
-x,-y,-z
x,y,-z
1/2-x,1/2+y,z
1/2+x,1/2-y,z
loop_
_atom_site_type_symbol
_atom_site_label
_atom_site_fract_x
_atom_site_fract_y
_atom_site_fract_z
Si Si1 0.263348 0.111780 0.320917
Si Si2 0.488477 0.722265 0.321429
Si Si3 0.283769 0.300473 0.821733
Si Si4 0.410329 0.406839 0.177623
Si Si5 0.534612 0.091257 0.819917
Si Si6 0.323116 0.936132 0.819515
Si Si7 0.880053 0.905950 0.320430
O O1 0.266868 0.108096 0.500000
O O2 0.287984 0.206516 0.262133
O O3 0.191172 0.104750 0.275988
O O4 0.299710 0.028541 0.251154
O O5 0.494217 0.725717 0.500000
O O6 0.538773 0.654751 0.255120
O O7 0.494157 0.820705 0.253069
O O8 0.421591 0.680067 0.283056
O O9 0.343588 0.361723 0.795186
O O10 0.223478 0.356679 0.774514
O O11 0.279758 0.283622 0.000000
O O12 0.408460 0.506451 0.243717
O O13 0.421026 0.409906 0.000000
O O14 0.606567 0.084141 0.777932
O O15 0.500000 0.000000 0.776386
O O16 0.530684 0.099530 0.000000
O O17 0.319859 0.944102 0.000000
O O18 0.882319 0.918045 0.500000
#
# Coordination Sequence:
#
# PCOD9428411 Si02
#       7
#     8   8   8   8   8   8   8
#     4  11  23  37  61  92 122 157 199 247 302 362
#     4  11  24  41  62  88 124 164 203 249 307 366
#     4  10  22  39  60  87 120 160 203 249 301 359
#     4  11  23  39  62  91 122 158 206 255 302 359
#     4  10  23  42  64  90 121 159 206 255 303 358
#     4  10  21  41  64  88 121 161 202 249 304 358
#     4  10  22  41  61  89 126 162 198 247 306 363
#
# _framework density 19.364418000000001
#
# number of rings (size 3 to 8) (size 9 to 14) (size 15 to 20)
#    0.000    1.571    1.429    2.571    2.000    6.000 
#    0.000    0.000    0.000    0.000    0.000    0.000 
#    0.000    0.000    0.000    0.000    0.000    0.000 
#
# Total GULP energy -313140.358399 kJ/mol
# GULP energy per Si atom -5591.792114 kJ/mol
# Density = 1.932034 g / cm^3
# Si number density = 19.364418 Si / 1000 Ang^3
#
#
#
# Elastic Constant Matrix: (Units=GPa)
#
#
# Indices 1 2 3 4 5 6 
#
# 1 33.1784 -11.7374 8.5857 0.0000 0.0000 0.0000
# 2 -11.7374 98.8719 18.0993 0.0000 0.0000 0.0000
# 3 8.5857 18.0993 10.0107 0.0000 0.0000 0.0000
# 4 0.0000 0.0000 0.0000 33.0971 0.0000 0.0000
# 5 0.0000 0.0000 0.0000 0.0000 24.6027 0.0000
# 6 0.0000 0.0000 0.0000 0.0000 0.0000 23.0680
#
#
#
# Elastic Compliance Matrix: (Units=1/GPa)
#
#
# Indices 1 2 3 4 5 6 
#
# 1 0.068585 0.028264 -0.109924 0.000000 0.000000 0.000000
# 2 0.028264 0.026766 -0.072633 0.000000 0.000000 0.000000
# 3 -0.109924 -0.072633 0.325492 0.000000 0.000000 0.000000
# 4 0.000000 0.000000 0.000000 0.030214 0.000000 0.000000
# 5 0.000000 0.000000 0.000000 0.000000 0.040646 0.000000
# 6 0.000000 0.000000 0.000000 0.000000 0.000000 0.043350
#
#
# Mechanical properties :
#
#
# Convention : Reuss Voigt Hill
#
# Bulk Modulus (GPa) = 8.90822 19.10624 14.00723
# Shear Modulus (GPa) = 5.67500 24.62778 15.15139
#
# Velocity S-wave (km/s) = 1.71377 3.57011 2.80024
# Velocity P-wave (km/s) = 2.91998 5.18482 4.20765
#
# Compressibility (1/GPa) = 0.11225585
#
# Stress axis : x y z
#
# Youngs Moduli (GPa) = 14.58051 37.36141 3.07227
#
# Poissons Ratio (x) = -1.05600 0.33772
# Poissons Ratio (y) = -0.41211 0.22315
# Poissons Ratio (z) = 1.60275 2.71369
#
# Static dielectric constant tensor:
#      x y z
#    x 1.677170 0.000000 0.000000 
#    y 0.000000 1.626370 0.000000 
#    z 0.000000 0.000000 1.645820 
# 
# From -- ./inp_files/8691.got.cif
#   From: 2010.05.17/outbox.cif.g08.bks.cpg/sg55_5_cif.got.tgz:8691.got - 2010.06.03 13:27:54.
