data_PCOD9428443
_publ_section_title
;
Structure prediction by ZEFSAII (Michael W. Deem and Ramdas Pophale) SiO2 
 PCOD9428443
Probable space group: P B A M
;
_chemical_formula_sum "Si O2"
_cell_formula_units_Z 40
_cell_length_a 10.623116
_cell_length_b 18.473810
_cell_length_c 8.421317
_cell_angle_alpha 90.000000
_cell_angle_beta 90.000000
_cell_angle_gamma 90.000000
_cell_volume 1652.678632
_symmetry_space_group_name_H-M "P B A M"
_symmetry_group_IT_number 55
_symmetry_cell_setting 'orthorhombic'
loop_
_space_group_symop_operation_xyz
x,y,z
-x,-y,z
1/2+x,1/2-y,-z
1/2-x,1/2+y,-z
-x,-y,-z
x,y,-z
1/2-x,1/2+y,z
1/2+x,1/2-y,z
loop_
_atom_site_type_symbol
_atom_site_label
_atom_site_fract_x
_atom_site_fract_y
_atom_site_fract_z
Si Si1 0.800405 0.682348 0.500000
Si Si2 0.365143 0.478484 0.183230
Si Si3 0.779944 0.657477 0.829404
Si Si4 0.884277 0.291210 0.824120
Si Si5 0.982584 0.226238 0.500000
Si Si6 0.117915 0.551203 0.687787
O O1 0.844460 0.643333 0.660966
O O2 0.862653 0.763657 0.500000
O O3 0.647436 0.677415 0.500000
O O4 0.500000 0.500000 0.250191
O O5 0.344865 0.392243 0.175476
O O6 0.248487 0.509879 0.278997
O O7 0.358786 0.505292 0.000000
O O8 0.741482 0.741571 0.825804
O O9 0.838623 0.638273 0.000000
O O10 0.871285 0.375814 0.790845
O O11 0.957115 0.261607 0.671670
O O12 0.938862 0.278022 0.000000
O O13 0.107654 0.568466 0.500000
O O14 0.000000 0.500000 0.733322
#
# Coordination Sequence:
#
# PCOD9428443 Si02
#       6
#     4   8   8   8   4   8
#     4  10  22  40  66  92 136 173 215 272 332 386
#     4  10  23  45  67  94 134 177 222 279 343 406
#     4   9  21  42  67  96 130 173 221 270 331 401
#     4  10  21  42  67  97 132 172 219 275 334 395
#     4  10  22  42  62  97 132 171 219 271 328 398
#     4  11  25  43  66  97 137 175 226 280 338 410
#
# _framework density 24.203133000000001
#
# number of rings (size 3 to 8) (size 9 to 14) (size 15 to 20)
#    0.000    2.000    1.000    0.600    4.200    2.800 
#   14.400    0.000    0.000    0.000    0.000    0.000 
#    0.000    0.000    0.000    0.000    0.000    0.000 
#
# Total GULP energy -222675.186640 kJ/mol
# GULP energy per Si atom -5566.879666 kJ/mol
# Density = 2.414805 g / cm^3
# Si number density = 24.203133 Si / 1000 Ang^3
#
#
#
# Elastic Constant Matrix: (Units=GPa)
#
#
# Indices 1 2 3 4 5 6 
#
# 1 98.9401 13.0484 24.8080 0.0000 0.0000 0.0000
# 2 13.0484 72.8610 24.7368 0.0000 0.0000 0.0000
# 3 24.8080 24.7368 213.1816 0.0000 0.0000 0.0000
# 4 0.0000 0.0000 0.0000 31.3645 0.0000 0.0000
# 5 0.0000 0.0000 0.0000 0.0000 -31.6275 0.0000
# 6 0.0000 0.0000 0.0000 0.0000 0.0000 31.0405
#
#
#
# Elastic Compliance Matrix: (Units=1/GPa)
#
#
# Indices 1 2 3 4 5 6 
#
# 1 0.010574 -0.001536 -0.001052 0.000000 0.000000 0.000000
# 2 -0.001536 0.014511 -0.001505 0.000000 0.000000 0.000000
# 3 -0.001052 -0.001505 0.004988 0.000000 0.000000 0.000000
# 4 0.000000 0.000000 0.000000 0.031883 0.000000 0.000000
# 5 0.000000 0.000000 0.000000 0.000000 -0.031618 0.000000
# 6 0.000000 0.000000 0.000000 0.000000 0.000000 0.032216
#
#
# Mechanical properties :
#
#
# Convention : Reuss Voigt Hill
#
# Bulk Modulus (GPa) = 45.69285 56.68547 51.18916
# Shear Modulus (GPa) = 64.07334 27.64814 45.86074
#
# Velocity S-wave (km/s) = 5.15079 3.38351 4.35768
# Velocity P-wave (km/s) = 7.36845 6.22381 6.82019
#
# Compressibility (1/GPa) = 0.02188526
#
# Stress axis : x y z
#
# Youngs Moduli (GPa) = 94.57553 68.91392 200.48467
#
# Poissons Ratio (x) = 0.10588 0.21094
# Poissons Ratio (y) = 0.14530 0.30173
# Poissons Ratio (z) = 0.09951 0.10372
#
# Static dielectric constant tensor:
#      x y z
#    x 1.984090 0.000000 0.000000 
#    y 0.000000 1.957340 0.000000 
#    z 0.000000 0.000000 1.966420 
# 
# From -- ./inp_files/3680.got.cif
#   From: 2010.05.17/outbox.cif.g08.bks.cpg/sg55_2_cif.got.tgz:3680.got - 2010.06.03 13:27:54.
