data_PCOD9428375
_publ_section_title
;
Structure prediction by ZEFSAII (Michael W. Deem and Ramdas Pophale) SiO2 
 PCOD9428375
Probable space group: P B A M
;
_chemical_formula_sum "Si O2"
_cell_formula_units_Z 40
_cell_length_a 15.363316
_cell_length_b 11.720949
_cell_length_c 11.589062
_cell_angle_alpha 90.000000
_cell_angle_beta 90.000000
_cell_angle_gamma 90.000000
_cell_volume 2086.873028
_symmetry_space_group_name_H-M "P B A M"
_symmetry_group_IT_number 55
_symmetry_cell_setting 'orthorhombic'
loop_
_space_group_symop_operation_xyz
x,y,z
-x,-y,z
1/2+x,1/2-y,-z
1/2-x,1/2+y,-z
-x,-y,-z
x,y,-z
1/2-x,1/2+y,z
1/2+x,1/2-y,z
loop_
_atom_site_type_symbol
_atom_site_label
_atom_site_fract_x
_atom_site_fract_y
_atom_site_fract_z
Si Si1 0.134994 0.731471 0.255498
Si Si2 0.602126 0.018340 0.243123
Si Si3 0.310656 0.229479 0.000000
Si Si4 0.683067 0.227478 0.363712
Si Si5 0.476642 0.629016 0.638939
Si Si6 0.801322 0.534656 0.000000
O O1 0.139236 0.599763 0.291655
O O2 0.133772 0.732604 0.116906
O O3 0.225638 0.783907 0.298559
O O4 0.050300 0.791313 0.306167
O O5 0.625371 0.119113 0.329424
O O6 0.500000 0.000000 0.229828
O O7 0.643289 0.041738 0.117637
O O8 0.266424 0.100059 0.000000
O O9 0.256583 0.348988 0.000000
O O10 0.699255 0.233570 0.500000
O O11 0.621299 0.333645 0.327745
O O12 0.500000 0.500000 0.670608
O O13 0.481546 0.640038 0.500000
#
# Coordination Sequence:
#
# PCOD9428375 Si02
#       6
#     8   8   4   8   8   4
#     4  11  23  42  63  91 125 162 208 262 312 374
#     4  11  22  41  65  92 123 162 210 263 315 372
#     4  10  22  38  65  94 122 163 213 254 318 379
#     4  11  24  39  62  92 123 168 209 250 316 374
#     4  10  23  42  62  88 127 166 206 256 310 373
#     4  10  21  40  64  92 126 165 209 263 318 376
#
# _framework density 19.167432000000002
#
# number of rings (size 3 to 8) (size 9 to 14) (size 15 to 20)
#    0.000    1.400    4.000    0.900    2.800    2.000 
#    0.000    1.500    0.000    0.000    0.000    0.000 
#    0.000    0.000    0.000    0.000    0.000    0.000 
#
# Total GULP energy -223085.072086 kJ/mol
# GULP energy per Si atom -5577.126802 kJ/mol
# Density = 1.912381 g / cm^3
# Si number density = 19.167432 Si / 1000 Ang^3
#
#
#
# Elastic Constant Matrix: (Units=GPa)
#
#
# Indices 1 2 3 4 5 6 
#
# 1 58.1203 -7.1216 7.0955 0.0000 0.0000 0.0000
# 2 -7.1216 53.7065 -0.6311 0.0000 0.0000 0.0000
# 3 7.0955 -0.6311 39.0221 0.0000 0.0000 0.0000
# 4 0.0000 0.0000 0.0000 -8.6474 0.0000 0.0000
# 5 0.0000 0.0000 0.0000 0.0000 28.4587 0.0000
# 6 0.0000 0.0000 0.0000 0.0000 0.0000 32.9301
#
#
#
# Elastic Compliance Matrix: (Units=1/GPa)
#
#
# Indices 1 2 3 4 5 6 
#
# 1 0.017884 0.002334 -0.003214 0.000000 0.000000 0.000000
# 2 0.002334 0.018928 -0.000118 0.000000 0.000000 0.000000
# 3 -0.003214 -0.000118 0.026209 0.000000 0.000000 0.000000
# 4 0.000000 0.000000 0.000000 -0.115642 0.000000 0.000000
# 5 0.000000 0.000000 0.000000 0.000000 0.035139 0.000000
# 6 0.000000 0.000000 0.000000 0.000000 0.000000 0.030367
#
#
# Mechanical properties :
#
#
# Convention : Reuss Voigt Hill
#
# Bulk Modulus (GPa) = 16.38715 16.61495 16.50105
# Shear Modulus (GPa) = 141.95173 20.64868 81.30021
#
# Velocity S-wave (km/s) = 8.61508 3.28575 6.51981
# Velocity P-wave (km/s) = 10.36955 4.80438 8.08114
#
# Compressibility (1/GPa) = 0.06102343
#
# Stress axis : x y z
#
# Youngs Moduli (GPa) = 55.91579 52.83242 38.15482
#
# Poissons Ratio (x) = -0.12329 0.12264
# Poissons Ratio (y) = -0.13049 0.00451
# Poissons Ratio (z) = 0.17972 0.00624
#
# Static dielectric constant tensor:
#      x y z
#    x 1.681330 0.000000 0.000000 
#    y 0.000000 1.707320 0.000000 
#    z 0.000000 0.000000 1.636070 
# 
# From -- ./inp_files/13035.got.cif
#   From: 2010.05.17/outbox.cif.g08.bks.cpg/sg55_7_cif.got.tgz:13035.got - 2010.06.03 13:27:54.
