data_PCOD9428414
_publ_section_title
;
Structure prediction by ZEFSAII (Michael W. Deem and Ramdas Pophale) SiO2 
 PCOD9428414
Probable space group: P B A M
;
_chemical_formula_sum "Si O2"
_cell_formula_units_Z 52
_cell_length_a 23.228298
_cell_length_b 14.994500
_cell_length_c 7.438698
_cell_angle_alpha 90.000000
_cell_angle_beta 90.000000
_cell_angle_gamma 90.000000
_cell_volume 2590.874073
_symmetry_space_group_name_H-M "P B A M"
_symmetry_group_IT_number 55
_symmetry_cell_setting 'orthorhombic'
loop_
_space_group_symop_operation_xyz
x,y,z
-x,-y,z
1/2+x,1/2-y,-z
1/2-x,1/2+y,-z
-x,-y,-z
x,y,-z
1/2-x,1/2+y,z
1/2+x,1/2-y,z
loop_
_atom_site_type_symbol
_atom_site_label
_atom_site_fract_x
_atom_site_fract_y
_atom_site_fract_z
Si Si1 0.563826 0.958479 0.000000
Si Si2 0.570018 0.256294 0.709056
Si Si3 0.560555 0.556161 0.000000
Si Si4 0.974420 0.261559 0.000000
Si Si5 0.873634 0.948413 0.289885
Si Si6 0.744611 0.353697 0.718980
Si Si7 0.341248 0.014730 0.283470
Si Si8 0.191823 0.325193 0.717594
O O1 0.599859 0.988862 0.174406
O O2 0.500000 0.000000 0.000000
O O3 0.562827 0.850760 0.000000
O O4 0.560551 0.236044 0.500000
O O5 0.515976 0.233299 0.827721
O O6 0.585823 0.360821 0.725128
O O7 0.627530 0.205215 0.769597
O O8 0.500000 0.500000 0.000000
O O9 0.551935 0.662326 0.000000
O O10 0.597578 0.524036 0.828856
O O11 0.869828 0.973047 0.500000
O O12 0.810786 0.913507 0.228879
O O13 0.743113 0.353382 0.500000
O O14 0.803932 0.399442 0.770033
O O15 0.734275 0.252457 0.781474
O O16 0.350152 0.014082 0.500000
O O17 0.302857 0.927955 0.234081
O O18 0.193823 0.321614 0.500000
#
# Coordination Sequence:
#
# PCOD9428414 Si02
#       8
#     4   8   4   4   8   8   8   8
#     4  12  28  45  60  84 117 155 208 255 290 348
#     4   9  17  32  56  81 108 148 198 241 275 323
#     4  12  22  35  53  83 119 157 195 235 293 355
#     4  12  24  38  53  79 116 150 195 242 284 342
#     4   9  18  34  56  84 117 153 193 239 285 341
#     4   8  16  34  61  91 117 144 189 241 291 351
#     4  10  21  41  65  89 119 154 193 243 302 356
#     4   8  15  31  59  89 111 142 190 236 283 344
#
# _framework density 20.070446
#
# number of rings (size 3 to 8) (size 9 to 14) (size 15 to 20)
#    0.000    2.462    1.538    2.769    0.000    2.462 
#    2.769    1.538    0.000    0.000    0.000    0.000 
#    0.000    0.000    0.000    0.000    0.000    0.000 
#
# Total GULP energy -290186.281880 kJ/mol
# GULP energy per Si atom -5580.505421 kJ/mol
# Density = 2.002476 g / cm^3
# Si number density = 20.070446 Si / 1000 Ang^3
#
#
#
# Elastic Constant Matrix: (Units=GPa)
#
#
# Indices 1 2 3 4 5 6 
#
# 1 78.1608 38.8870 27.8172 0.0000 0.0000 0.0000
# 2 38.8870 114.3521 25.5378 0.0000 0.0000 0.0000
# 3 27.8172 25.5378 76.3699 0.0000 0.0000 0.0000
# 4 0.0000 0.0000 0.0000 20.2317 0.0000 0.0000
# 5 0.0000 0.0000 0.0000 0.0000 25.4929 0.0000
# 6 0.0000 0.0000 0.0000 0.0000 0.0000 25.0875
#
#
#
# Elastic Compliance Matrix: (Units=1/GPa)
#
#
# Indices 1 2 3 4 5 6 
#
# 1 0.016735 -0.004679 -0.004531 0.000000 0.000000 0.000000
# 2 -0.004679 0.010759 -0.001893 0.000000 0.000000 0.000000
# 3 -0.004531 -0.001893 0.015378 0.000000 0.000000 0.000000
# 4 0.000000 0.000000 0.000000 0.049427 0.000000 0.000000
# 5 0.000000 0.000000 0.000000 0.000000 0.039227 0.000000
# 6 0.000000 0.000000 0.000000 0.000000 0.000000 0.039861
#
#
# Mechanical properties :
#
#
# Convention : Reuss Voigt Hill
#
# Bulk Modulus (GPa) = 48.39183 50.37407 49.38295
# Shear Modulus (GPa) = 24.94010 25.93847 25.43929
#
# Velocity S-wave (km/s) = 3.52892 3.59886 3.56406
# Velocity P-wave (km/s) = 6.38496 6.51323 6.44941
#
# Compressibility (1/GPa) = 0.02066464
#
# Stress axis : x y z
#
# Youngs Moduli (GPa) = 59.75660 92.94610 65.02940
#
# Poissons Ratio (x) = 0.43489 0.29464
# Poissons Ratio (y) = 0.27960 0.12313
# Poissons Ratio (z) = 0.27075 0.17599
#
# Static dielectric constant tensor:
#      x y z
#    x 1.678760 0.000000 0.000000 
#    y 0.000000 1.727820 0.000000 
#    z 0.000000 0.000000 1.730230 
# 
# From -- ./inp_files/8652.got.cif
#   From: 2010.05.17/outbox.cif.g08.bks.cpg/sg55_5_cif.got.tgz:8652.got - 2010.06.03 13:27:54.
