data_PCOD9428232
_publ_section_title
;
Structure prediction by ZEFSAII (Michael W. Deem and Ramdas Pophale) SiO2 
 PCOD9428232
Probable space group: P B A M
;
_chemical_formula_sum "Si O2"
_cell_formula_units_Z 54
_cell_length_a 11.621015
_cell_length_b 15.417288
_cell_length_c 14.161618
_cell_angle_alpha 90.000000
_cell_angle_beta 90.000000
_cell_angle_gamma 90.000000
_cell_volume 2537.259705
_symmetry_space_group_name_H-M "P B A M"
_symmetry_group_IT_number 55
_symmetry_cell_setting 'orthorhombic'
loop_
_space_group_symop_operation_xyz
x,y,z
-x,-y,z
1/2+x,1/2-y,-z
1/2-x,1/2+y,-z
-x,-y,-z
x,y,-z
1/2-x,1/2+y,z
1/2+x,1/2-y,z
loop_
_atom_site_type_symbol
_atom_site_label
_atom_site_fract_x
_atom_site_fract_y
_atom_site_fract_z
Si Si1 0.383737 0.122609 0.397134
Si Si2 0.568885 0.648106 0.109715
Si Si3 0.519205 0.205803 0.236718
Si Si4 0.260471 0.463623 0.659289
Si Si5 0.693579 0.230741 0.395192
Si Si6 0.000000 0.000000 0.244076
Si Si7 0.176870 0.422080 0.859842
Si Si8 0.500000 0.000000 0.000000
O O1 0.444137 0.122030 0.500000
O O2 0.462922 0.132998 0.304949
O O3 0.300988 0.039926 0.396078
O O4 0.302966 0.206900 0.389848
O O5 0.566252 0.732859 0.177543
O O6 0.491561 0.580740 0.170629
O O7 0.697056 0.607520 0.106243
O O8 0.532478 0.662303 0.000000
O O9 0.602632 0.252895 0.312868
O O10 0.600242 0.163155 0.157953
O O11 0.237740 0.368050 0.617919
O O12 0.391882 0.482742 0.687634
O O13 0.197793 0.463750 0.759436
O O14 0.643836 0.242722 0.500000
O O15 0.100349 0.485164 0.920632
#
# Coordination Sequence:
#
# PCOD9428232 Si02
#       8
#     8   8   8   8   8   4   8   2
#     4  11  22  37  61  92 123 161 214 263 321 399
#     4  11  23  41  63  92 128 166 220 275 329 398
#     4  11  22  40  62  88 123 167 208 268 326 387
#     4  10  21  41  61  92 127 171 206 271 326 393
#     4  10  22  40  63  93 130 171 216 269 329 399
#     4  10  21  38  65  86 126 174 209 262 331 390
#     4  10  23  39  63  87 124 164 212 264 326 389
#     4  12  20  40  60  82 118 158 204 264 312 388
#
# _framework density 21.282803999999999
#
# number of rings (size 3 to 8) (size 9 to 14) (size 15 to 20)
#    0.000    1.481    0.741    5.556    1.037    1.778 
#    0.000    6.667    0.000    0.000    0.000    0.000 
#    0.000    0.000    0.000    0.000    0.000    0.000 
#
# Total GULP energy -300702.359613 kJ/mol
# GULP energy per Si atom -5568.562215 kJ/mol
# Density = 2.123436 g / cm^3
# Si number density = 21.282804 Si / 1000 Ang^3
#
#
#
# Elastic Constant Matrix: (Units=GPa)
#
#
# Indices 1 2 3 4 5 6 
#
# 1 64.7633 15.2405 2.4831 0.0000 0.0000 0.0000
# 2 15.2405 49.9800 15.5700 0.0000 0.0000 0.0000
# 3 2.4831 15.5700 83.5999 0.0000 0.0000 0.0000
# 4 0.0000 0.0000 0.0000 -158.5156 0.0000 0.0000
# 5 0.0000 0.0000 0.0000 0.0000 36.3774 0.0000
# 6 0.0000 0.0000 0.0000 0.0000 0.0000 24.0754
#
#
#
# Elastic Compliance Matrix: (Units=1/GPa)
#
#
# Indices 1 2 3 4 5 6 
#
# 1 0.016653 -0.005227 0.000479 0.000000 0.000000 0.000000
# 2 -0.005227 0.022881 -0.004106 0.000000 0.000000 0.000000
# 3 0.000479 -0.004106 0.012712 0.000000 0.000000 0.000000
# 4 0.000000 0.000000 0.000000 -0.006309 0.000000 0.000000
# 5 0.000000 0.000000 0.000000 0.000000 0.027490 0.000000
# 6 0.000000 0.000000 0.000000 0.000000 0.000000 0.041536
#
#
# Mechanical properties :
#
#
# Convention : Reuss Voigt Hill
#
# Bulk Modulus (GPa) = 28.95437 29.43672 29.19554
# Shear Modulus (GPa) = 34.67779 -8.60926 13.03427
#
# Velocity S-wave (km/s) = 4.04094 -2.01344 2.47742
# Velocity P-wave (km/s) = 5.95032 2.90792 4.68307
#
# Compressibility (1/GPa) = 0.03453710
#
# Stress axis : x y z
#
# Youngs Moduli (GPa) = 60.05083 43.70414 78.66416
#
# Poissons Ratio (x) = 0.22845 -0.03767
# Poissons Ratio (y) = 0.31389 0.32301
# Poissons Ratio (z) = -0.02876 0.17946
#
# Static dielectric constant tensor:
#      x y z
#    x 1.817550 0.000000 0.000000 
#    y 0.000000 1.823100 0.000000 
#    z 0.000000 0.000000 1.786850 
# 
# From -- ./inp_files/18430.got.cif
#   From: 2010.05.17/outbox.cif.g08.bks.cpg/sg55_10_cif.got.tgz:18430.got - 2010.06.03 13:27:54.
