data_PCOD9428004
_publ_section_title
;
Structure prediction by ZEFSAII (Michael W. Deem and Ramdas Pophale) SiO2 
 PCOD9428004
Probable space group: P B A M
;
_chemical_formula_sum "Si O2"
_cell_formula_units_Z 48
_cell_length_a 20.785118
_cell_length_b 14.474481
_cell_length_c 7.928430
_cell_angle_alpha 90.000000
_cell_angle_beta 90.000000
_cell_angle_gamma 90.000000
_cell_volume 2385.298258
_symmetry_space_group_name_H-M "P B A M"
_symmetry_group_IT_number 55
_symmetry_cell_setting 'orthorhombic'
loop_
_space_group_symop_operation_xyz
x,y,z
-x,-y,z
1/2+x,1/2-y,-z
1/2-x,1/2+y,-z
-x,-y,-z
x,y,-z
1/2-x,1/2+y,z
1/2+x,1/2-y,z
loop_
_atom_site_type_symbol
_atom_site_label
_atom_site_fract_x
_atom_site_fract_y
_atom_site_fract_z
Si Si1 0.063437 0.053235 0.705763
Si Si2 0.933301 0.547204 0.204469
Si Si3 0.681187 0.919195 0.195209
Si Si4 0.612503 0.249122 0.299096
Si Si5 0.238442 0.768144 0.201125
Si Si6 0.698807 0.531049 0.303904
O O1 0.059924 0.054633 0.500000
O O2 0.074644 0.159325 0.761357
O O3 0.127669 0.997040 0.752262
O O4 0.000000 0.000000 0.766590
O O5 0.874802 0.483011 0.269344
O O6 0.922398 0.652685 0.258808
O O7 0.000000 0.500000 0.256922
O O8 0.931381 0.548235 0.000000
O O9 0.698308 0.819397 0.268427
O O10 0.747011 0.976322 0.203335
O O11 0.663462 0.903635 0.000000
O O12 0.618569 0.256798 0.500000
O O13 0.685365 0.246388 0.229738
O O14 0.214145 0.861612 0.284763
O O15 0.229076 0.776227 0.000000
O O16 0.705189 0.503630 0.500000
#
# Coordination Sequence:
#
# PCOD9428004 Si02
#       6
#     8   8   8   8   8   8
#     4   9  20  38  58  84 121 156 188 236 295 348
#     4  10  22  40  60  84 118 158 194 236 296 353
#     4  10  21  37  58  83 114 155 194 238 289 343
#     4  11  21  36  60  87 113 150 199 242 294 349
#     4  11  22  36  57  85 119 155 195 241 297 348
#     4  11  21  35  59  88 115 149 196 242 286 341
#
# _framework density 20.123270999999999
#
# number of rings (size 3 to 8) (size 9 to 14) (size 15 to 20)
#    0.000    1.667    3.333    1.500    0.000    2.333 
#    0.000    0.000    0.000    7.000    0.000    0.000 
#    0.000    0.000    0.000    0.000    0.000    0.000 
#
# Total GULP energy -268050.683206 kJ/mol
# GULP energy per Si atom -5584.389233 kJ/mol
# Density = 2.007747 g / cm^3
# Si number density = 20.123271 Si / 1000 Ang^3
#
#
#
# Elastic Constant Matrix: (Units=GPa)
#
#
# Indices 1 2 3 4 5 6 
#
# 1 102.1298 25.9389 -5.4964 0.0000 0.0000 0.0000
# 2 25.9389 115.5425 -13.3840 0.0000 0.0000 0.0000
# 3 -5.4964 -13.3840 29.7018 0.0000 0.0000 0.0000
# 4 0.0000 0.0000 0.0000 54.0942 0.0000 0.0000
# 5 0.0000 0.0000 0.0000 0.0000 -0.0604 0.0000
# 6 0.0000 0.0000 0.0000 0.0000 0.0000 33.9171
#
#
#
# Elastic Compliance Matrix: (Units=1/GPa)
#
#
# Indices 1 2 3 4 5 6 
#
# 1 0.010407 -0.002230 0.000921 0.000000 0.000000 0.000000
# 2 -0.002230 0.009609 0.003917 0.000000 0.000000 0.000000
# 3 0.000921 0.003917 0.035604 0.000000 0.000000 0.000000
# 4 0.000000 0.000000 0.000000 0.018486 0.000000 0.000000
# 5 0.000000 0.000000 0.000000 0.000000-16.548163 0.000000
# 6 0.000000 0.000000 0.000000 0.000000 0.000000 0.029484
#
#
# Mechanical properties :
#
#
# Convention : Reuss Voigt Hill
#
# Bulk Modulus (GPa) = 16.43714 29.05458 22.74586
# Shear Modulus (GPa) = -0.30433 33.61121 16.65344
#
# Velocity S-wave (km/s) = -0.38931 4.09132 2.87987
# Velocity P-wave (km/s) = 2.82558 6.06533 4.73139
#
# Compressibility (1/GPa) = 0.06083783
#
# Stress axis : x y z
#
# Youngs Moduli (GPa) = 96.08602 104.06730 28.08701
#
# Poissons Ratio (x) = 0.23204 -0.02587
# Poissons Ratio (y) = 0.21424 -0.11003
# Poissons Ratio (z) = -0.08851 -0.40767
#
# Static dielectric constant tensor:
#      x y z
#    x 1.681790 0.000000 0.000000 
#    y 0.000000 1.721420 0.000000 
#    z 0.000000 0.000000 1.736670 
# 
# From -- ./inp_files/5836.got.cif
#   From: 2010.05.17/outbox.cif.g08.bks.cpg/sg55_3_cif.got.tgz:5836.got - 2010.06.03 13:27:54.
