data_PCOD9428309
_publ_section_title
;
Structure prediction by ZEFSAII (Michael W. Deem and Ramdas Pophale) SiO2 
 PCOD9428309
Probable space group: P B A M
;
_chemical_formula_sum "Si O2"
_cell_formula_units_Z 52
_cell_length_a 8.922953
_cell_length_b 15.304427
_cell_length_c 17.564032
_cell_angle_alpha 90.000000
_cell_angle_beta 90.000000
_cell_angle_gamma 90.000000
_cell_volume 2398.556203
_symmetry_space_group_name_H-M "P B A M"
_symmetry_group_IT_number 55
_symmetry_cell_setting 'orthorhombic'
loop_
_space_group_symop_operation_xyz
x,y,z
-x,-y,z
1/2+x,1/2-y,-z
1/2-x,1/2+y,-z
-x,-y,-z
x,y,-z
1/2-x,1/2+y,z
1/2+x,1/2-y,z
loop_
_atom_site_type_symbol
_atom_site_label
_atom_site_fract_x
_atom_site_fract_y
_atom_site_fract_z
Si Si1 0.816919 0.783874 0.000000
Si Si2 0.000000 0.500000 0.704609
Si Si3 0.118758 0.623081 0.413030
Si Si4 0.600896 0.886436 0.832579
Si Si5 0.573576 0.415345 0.127730
Si Si6 0.991269 0.366352 0.000000
Si Si7 0.347494 0.765749 0.350168
Si Si8 0.596329 0.696170 0.761042
O O1 0.884312 0.836416 0.928787
O O2 0.853848 0.683040 0.000000
O O3 0.640043 0.794204 0.000000
O O4 0.879569 0.457898 0.646081
O O5 0.007365 0.422009 0.766628
O O6 0.128620 0.594305 0.500000
O O7 0.247294 0.694796 0.395288
O O8 0.959197 0.672481 0.397816
O O9 0.765740 0.930177 0.831241
O O10 0.621854 0.783731 0.812151
O O11 0.536022 0.906129 0.916771
O O12 0.500000 0.500000 0.089782
O O13 0.447537 0.382439 0.185270
O O14 0.230975 0.817637 0.297281
O O15 0.453286 0.714861 0.291586
#
# Coordination Sequence:
#
# PCOD9428309 Si02
#       8
#     4   4   8   8   8   4   8   8
#     4  10  21  40  60  88 124 169 218 279 324 385
#     4  12  23  41  64  92 132 164 216 263 331 364
#     4  11  23  41  67  97 127 164 213 266 325 393
#     4  11  23  41  62  93 128 172 220 271 319 394
#     4  11  23  37  61  92 127 166 218 276 329 381
#     4  10  22  41  64  90 126 169 226 264 329 384
#     4  10  21  39  64  91 124 166 210 257 316 391
#     4  11  19  38  62  90 127 168 217 255 322 387
#
# _framework density 21.679708000000002
#
# number of rings (size 3 to 8) (size 9 to 14) (size 15 to 20)
#    0.000    1.231    6.154    0.923    2.154    0.308 
#    2.769    0.000    0.000    0.000    0.000    6.462 
#    0.000    0.000    0.000    0.000    0.000    0.000 
#
# Total GULP energy -289955.953170 kJ/mol
# GULP energy per Si atom -5576.076023 kJ/mol
# Density = 2.163036 g / cm^3
# Si number density = 21.679708 Si / 1000 Ang^3
#
#
#
# Elastic Constant Matrix: (Units=GPa)
#
#
# Indices 1 2 3 4 5 6 
#
# 1 86.1511 22.8456 30.8152 0.0000 0.0000 0.0000
# 2 22.8456 59.1625 16.3442 0.0000 0.0000 0.0000
# 3 30.8152 16.3442 135.8491 0.0000 0.0000 0.0000
# 4 0.0000 0.0000 0.0000 5.1412 0.0000 0.0000
# 5 0.0000 0.0000 0.0000 0.0000 5.2076 0.0000
# 6 0.0000 0.0000 0.0000 0.0000 0.0000 17.5466
#
#
#
# Elastic Compliance Matrix: (Units=1/GPa)
#
#
# Indices 1 2 3 4 5 6 
#
# 1 0.013744 -0.004599 -0.002564 0.000000 0.000000 0.000000
# 2 -0.004599 0.019023 -0.001245 0.000000 0.000000 0.000000
# 3 -0.002564 -0.001245 0.008093 0.000000 0.000000 0.000000
# 4 0.000000 0.000000 0.000000 0.194507 0.000000 0.000000
# 5 0.000000 0.000000 0.000000 0.000000 0.192026 0.000000
# 6 0.000000 0.000000 0.000000 0.000000 0.000000 0.056991
#
#
# Mechanical properties :
#
#
# Convention : Reuss Voigt Hill
#
# Bulk Modulus (GPa) = 41.59387 46.79696 44.19541
# Shear Modulus (GPa) = 9.81903 19.65627 14.73765
#
# Velocity S-wave (km/s) = 2.13048 3.01436 2.61011
# Velocity P-wave (km/s) = 5.02784 5.80927 5.43262
#
# Compressibility (1/GPa) = 0.02404201
#
# Stress axis : x y z
#
# Youngs Moduli (GPa) = 72.75739 52.56921 123.56912
#
# Poissons Ratio (x) = 0.24176 0.31688
# Poissons Ratio (y) = 0.33461 0.15390
# Poissons Ratio (z) = 0.18658 0.06547
#
# Static dielectric constant tensor:
#      x y z
#    x 1.802670 0.000000 0.000000 
#    y 0.000000 1.854660 0.000000 
#    z 0.000000 0.000000 1.800380 
# 
# From -- ./inp_files/20972.got.cif
#   From: 2010.05.17/outbox.cif.g08.bks.cpg/sg55_11_cif.got.tgz:20972.got - 2010.06.03 13:27:54.
