data_PCOD9428341
_publ_section_title
;
Structure prediction by ZEFSAII (Michael W. Deem and Ramdas Pophale) SiO2 
 PCOD9428341
Probable space group: P B A M
;
_chemical_formula_sum "Si O2"
_cell_formula_units_Z 64
_cell_length_a 13.512127
_cell_length_b 15.401396
_cell_length_c 16.091688
_cell_angle_alpha 90.000000
_cell_angle_beta 90.000000
_cell_angle_gamma 90.000000
_cell_volume 3348.770688
_symmetry_space_group_name_H-M "P B A M"
_symmetry_group_IT_number 55
_symmetry_cell_setting 'orthorhombic'
loop_
_space_group_symop_operation_xyz
x,y,z
-x,-y,z
1/2+x,1/2-y,-z
1/2-x,1/2+y,-z
-x,-y,-z
x,y,-z
1/2-x,1/2+y,z
1/2+x,1/2-y,z
loop_
_atom_site_type_symbol
_atom_site_label
_atom_site_fract_x
_atom_site_fract_y
_atom_site_fract_z
Si Si1 0.991941 0.600926 0.900369
Si Si2 0.844189 0.003628 0.248184
Si Si3 0.768132 0.896589 0.402898
Si Si4 0.487688 0.637308 0.790045
Si Si5 0.294092 0.854905 0.806501
Si Si6 0.888098 0.735573 0.339722
Si Si7 0.539694 0.907789 0.599022
Si Si8 0.124570 0.756197 0.901651
O O1 0.087623 0.659368 0.879819
O O2 0.000000 0.500000 0.878511
O O3 0.897619 0.639201 0.853411
O O4 0.977511 0.607485 0.000000
O O5 0.754501 0.050234 0.201530
O O6 0.927889 0.078226 0.252946
O O7 0.815269 0.964545 0.337585
O O8 0.894517 0.925779 0.196304
O O9 0.772318 0.923764 0.500000
O O10 0.828476 0.806443 0.393192
O O11 0.652868 0.887395 0.376166
O O12 0.452384 0.710091 0.726474
O O13 0.536408 0.680424 0.870417
O O14 0.310648 0.819927 0.713889
O O15 0.220807 0.789777 0.853960
O O16 0.962608 0.668614 0.382328
O O17 0.543917 0.917107 0.500000
O O18 0.500000 0.000000 0.634377
O O19 0.138803 0.762467 0.000000
#
# Coordination Sequence:
#
# PCOD9428341 Si02
#       8
#     8   8   8   8   8   8   8   8
#     4  10  22  40  59  86 121 155 197 249 301 357
#     4   9  20  37  59  85 118 150 199 245 296 351
#     4  10  22  40  61  88 122 158 199 247 303 362
#     4   9  19  39  57  84 118 153 195 250 289 358
#     4  11  22  36  61  90 116 158 201 249 296 360
#     4  11  22  36  60  88 119 155 201 246 294 353
#     4  10  22  40  59  85 120 155 196 245 300 358
#     4  10  21  40  62  86 122 161 200 248 305 362
#
# _framework density 19.111491000000001
#
# number of rings (size 3 to 8) (size 9 to 14) (size 15 to 20)
#    0.000    2.000    1.250    1.500    3.500    3.500 
#    0.000   11.875    0.000    0.000    0.000    0.000 
#    0.000    0.000    0.000    0.000    0.000    0.000 
#
# Total GULP energy -357039.184213 kJ/mol
# GULP energy per Si atom -5578.737253 kJ/mol
# Density = 1.906799 g / cm^3
# Si number density = 19.111491 Si / 1000 Ang^3
#
#
#
# Elastic Constant Matrix: (Units=GPa)
#
#
# Indices 1 2 3 4 5 6 
#
# 1 54.7484 26.0986 13.1155 0.0000 0.0000 0.0000
# 2 26.0986 94.3397 9.3433 0.0000 0.0000 0.0000
# 3 13.1155 9.3433 26.3371 0.0000 0.0000 0.0000
# 4 0.0000 0.0000 0.0000 24.8065 0.0000 0.0000
# 5 0.0000 0.0000 0.0000 0.0000 26.0796 0.0000
# 6 0.0000 0.0000 0.0000 0.0000 0.0000 24.9897
#
#
#
# Elastic Compliance Matrix: (Units=1/GPa)
#
#
# Indices 1 2 3 4 5 6 
#
# 1 0.023167 -0.005458 -0.009601 0.000000 0.000000 0.000000
# 2 -0.005458 0.012272 -0.001635 0.000000 0.000000 0.000000
# 3 -0.009601 -0.001635 0.043330 0.000000 0.000000 0.000000
# 4 0.000000 0.000000 0.000000 0.040312 0.000000 0.000000
# 5 0.000000 0.000000 0.000000 0.000000 0.038344 0.000000
# 6 0.000000 0.000000 0.000000 0.000000 0.000000 0.040017
#
#
# Mechanical properties :
#
#
# Convention : Reuss Voigt Hill
#
# Bulk Modulus (GPa) = 22.03567 30.28223 26.15895
# Shear Modulus (GPa) = 20.32868 23.63301 21.98084
#
# Velocity S-wave (km/s) = 3.26496 3.52033 3.39505
# Velocity P-wave (km/s) = 5.07626 5.69237 5.39312
#
# Compressibility (1/GPa) = 0.04538097
#
# Stress axis : x y z
#
# Youngs Moduli (GPa) = 43.16441 81.48657 23.07849
#
# Poissons Ratio (x) = 0.44478 0.22157
# Poissons Ratio (y) = 0.23560 0.03774
# Poissons Ratio (z) = 0.41441 0.13327
#
# Static dielectric constant tensor:
#      x y z
#    x 1.677130 0.000000 0.000000 
#    y 0.000000 1.679390 0.000000 
#    z 0.000000 0.000000 1.638290 
# 
# From -- ./inp_files/21342.got.cif
#   From: 2010.05.17/outbox.cif.g08.bks.cpg/sg55_11_cif.got.tgz:21342.got - 2010.06.03 13:27:54.
