data_PCOD9428631
_publ_section_title
;
Structure prediction by ZEFSAII (Michael W. Deem and Ramdas Pophale) SiO2 
 PCOD9428631
Probable space group: P B A M
;
_chemical_formula_sum "Si O2"
_cell_formula_units_Z 64
_cell_length_a 8.995255
_cell_length_b 17.258912
_cell_length_c 20.305515
_cell_angle_alpha 90.000000
_cell_angle_beta 90.000000
_cell_angle_gamma 90.000000
_cell_volume 3152.396978
_symmetry_space_group_name_H-M "P B A M"
_symmetry_group_IT_number 55
_symmetry_cell_setting 'orthorhombic'
loop_
_space_group_symop_operation_xyz
x,y,z
-x,-y,z
1/2+x,1/2-y,-z
1/2-x,1/2+y,-z
-x,-y,-z
x,y,-z
1/2-x,1/2+y,z
1/2+x,1/2-y,z
loop_
_atom_site_type_symbol
_atom_site_label
_atom_site_fract_x
_atom_site_fract_y
_atom_site_fract_z
Si Si1 0.076568 0.416973 0.166682
Si Si2 0.280659 0.172178 0.162736
Si Si3 0.778864 0.174323 0.075923
Si Si4 0.627381 0.139424 0.309798
Si Si5 0.577105 0.417254 0.926957
Si Si6 0.208466 0.704383 0.688626
Si Si7 0.385024 0.616187 0.575054
Si Si8 0.219733 0.938482 0.425519
O O1 0.194079 0.396876 0.110468
O O2 0.136971 0.406664 0.240940
O O3 0.000000 0.500000 0.159528
O O4 0.952811 0.350050 0.160158
O O5 0.255950 0.250390 0.121253
O O6 0.193257 0.102917 0.128483
O O7 0.237070 0.178334 0.238892
O O8 0.950483 0.148643 0.075352
O O9 0.731919 0.186930 0.000000
O O10 0.464789 0.179709 0.315828
O O11 0.754517 0.204919 0.311391
O O12 0.660722 0.084863 0.371497
O O13 0.500000 0.500000 0.918502
O O14 0.646472 0.416001 0.000000
O O15 0.302908 0.666433 0.629902
O O16 0.362056 0.645365 0.500000
O O17 0.562257 0.605865 0.585119
O O18 0.318987 0.529303 0.578340
O O19 0.269738 0.920985 0.500000
#
# Coordination Sequence:
#
# PCOD9428631 Si02
#       8
#     8   8   8   8   8   8   8   8
#     4  11  25  42  63  92 131 168 209 271 323 388
#     4  11  23  40  60  91 125 164 212 254 317 381
#     4  11  23  41  67  92 122 167 209 256 317 381
#     4  11  24  40  63  90 132 166 218 265 324 384
#     4  10  22  40  62  90 122 156 205 261 309 371
#     4  11  24  39  60  91 122 170 207 264 320 378
#     4   9  20  41  66  95 129 166 214 260 319 384
#     4   9  20  40  66  94 127 168 210 263 316 382
#
# _framework density 20.302011
#
# number of rings (size 3 to 8) (size 9 to 14) (size 15 to 20)
#    0.000    1.625    1.250    3.375    5.250    4.250 
#    2.250    1.250    0.000    0.000    0.000    0.000 
#    0.000    0.000    0.000    0.000    0.000    0.000 
#
# Total GULP energy -357560.559848 kJ/mol
# GULP energy per Si atom -5586.883748 kJ/mol
# Density = 2.025580 g / cm^3
# Si number density = 20.302011 Si / 1000 Ang^3
#
#
#
# Elastic Constant Matrix: (Units=GPa)
#
#
# Indices 1 2 3 4 5 6 
#
# 1 35.2247 12.9713 55.8326 0.0000 0.0000 0.0000
# 2 12.9713 54.1010 41.7854 0.0000 0.0000 0.0000
# 3 55.8326 41.7854 163.9260 0.0000 0.0000 0.0000
# 4 0.0000 0.0000 0.0000 34.5766 0.0000 0.0000
# 5 0.0000 0.0000 0.0000 0.0000 -512.9888 0.0000
# 6 0.0000 0.0000 0.0000 0.0000 0.0000 24.2057
#
#
#
# Elastic Compliance Matrix: (Units=1/GPa)
#
#
# Indices 1 2 3 4 5 6 
#
# 1 0.061836 0.001794 -0.021519 0.000000 0.000000 0.000000
# 2 0.001794 0.023067 -0.006491 0.000000 0.000000 0.000000
# 3 -0.021519 -0.006491 0.015084 0.000000 0.000000 0.000000
# 4 0.000000 0.000000 0.000000 0.028921 0.000000 0.000000
# 5 0.000000 0.000000 0.000000 0.000000 -0.001949 0.000000
# 6 0.000000 0.000000 0.000000 0.000000 0.000000 0.041313
#
#
# Mechanical properties :
#
#
# Convention : Reuss Voigt Hill
#
# Bulk Modulus (GPa) = 21.02756 52.71450 36.87103
# Shear Modulus (GPa) = 21.13672 -81.33048 -30.09688
#
# Velocity S-wave (km/s) = 3.23013 -6.33619 -3.85445
# Velocity P-wave (km/s) = 4.92864 5.24482 1.26820
#
# Compressibility (1/GPa) = 0.04755664
#
# Stress axis : x y z
#
# Youngs Moduli (GPa) = 16.17173 43.35168 66.29526
#
# Poissons Ratio (x) = -0.07778 1.42658
# Poissons Ratio (y) = -0.02901 0.43032
# Poissons Ratio (z) = 0.34799 0.28140
#
# Static dielectric constant tensor:
#      x y z
#    x 1.728180 0.000000 0.000000 
#    y 0.000000 1.727720 0.000000 
#    z 0.000000 0.000000 1.716070 
# 
# From -- ./inp_files/22706.got.cif
#   From: 2010.05.17/outbox.cif.g08.bks.cpg/sg55_12_cif.got.tgz:22706.got - 2010.06.03 13:27:54.
