data_PCOD9428018
_publ_section_title
;
Structure prediction by ZEFSAII (Michael W. Deem and Ramdas Pophale) SiO2 
 PCOD9428018
Probable space group: P B A M
;
_chemical_formula_sum "Si O2"
_cell_formula_units_Z 48
_cell_length_a 14.433487
_cell_length_b 10.802116
_cell_length_c 14.919723
_cell_angle_alpha 90.000000
_cell_angle_beta 90.000000
_cell_angle_gamma 90.000000
_cell_volume 2326.166849
_symmetry_space_group_name_H-M "P B A M"
_symmetry_group_IT_number 55
_symmetry_cell_setting 'orthorhombic'
loop_
_space_group_symop_operation_xyz
x,y,z
-x,-y,z
1/2+x,1/2-y,-z
1/2-x,1/2+y,-z
-x,-y,-z
x,y,-z
1/2-x,1/2+y,z
1/2+x,1/2-y,z
loop_
_atom_site_type_symbol
_atom_site_label
_atom_site_fract_x
_atom_site_fract_y
_atom_site_fract_z
Si Si1 0.895645 0.512451 0.146816
Si Si2 0.029841 0.646116 0.603136
Si Si3 0.433222 0.619083 0.097997
Si Si4 0.204241 0.913766 0.095893
Si Si5 0.176439 0.720616 0.755800
Si Si6 0.889477 0.733343 0.270641
O O1 0.815436 0.585327 0.095029
O O2 0.854764 0.380170 0.171293
O O3 0.896706 0.591122 0.238518
O O4 0.000000 0.500000 0.111740
O O5 0.054616 0.669489 0.500000
O O6 0.111201 0.689382 0.671287
O O7 0.000000 0.500000 0.607921
O O8 0.943854 0.731178 0.636619
O O9 0.500000 0.500000 0.101709
O O10 0.332880 0.553866 0.098097
O O11 0.440607 0.698486 0.187459
O O12 0.447114 0.680029 0.000000
O O13 0.169796 0.847008 0.185918
O O14 0.171625 0.859787 0.000000
O O15 0.284379 0.718915 0.726775
#
# Coordination Sequence:
#
# PCOD9428018 Si02
#       6
#     8   8   8   8   8   8
#     4  11  21  39  62  90 122 169 215 260 311 369
#     4  11  23  43  69  95 125 159 209 267 325 388
#     4  10  21  37  58  88 127 172 213 249 308 379
#     4  10  23  39  58  91 129 172 212 254 308 371
#     4  11  21  39  67  89 129 165 207 263 314 376
#     4  11  21  37  67  91 126 164 211 258 318 373
#
# _framework density 20.634806000000001
#
# number of rings (size 3 to 8) (size 9 to 14) (size 15 to 20)
#    0.000    1.333    5.000    1.000    0.000    4.333 
#    0.000    0.000    0.000    5.500    0.000    0.000 
#    0.000    0.000    0.000    0.000    0.000    0.000 
#
# Total GULP energy -267411.831278 kJ/mol
# GULP energy per Si atom -5571.079818 kJ/mol
# Density = 2.058784 g / cm^3
# Si number density = 20.634806 Si / 1000 Ang^3
#
#
#
# Elastic Constant Matrix: (Units=GPa)
#
#
# Indices 1 2 3 4 5 6 
#
# 1 132.7288 17.9755 38.3380 0.0000 0.0000 0.0000
# 2 17.9755 45.9400 28.3541 0.0000 0.0000 0.0000
# 3 38.3380 28.3541 149.7135 0.0000 0.0000 0.0000
# 4 0.0000 0.0000 0.0000 14.8661 0.0000 0.0000
# 5 0.0000 0.0000 0.0000 0.0000 22.9805 0.0000
# 6 0.0000 0.0000 0.0000 0.0000 0.0000 26.5183
#
#
#
# Elastic Compliance Matrix: (Units=1/GPa)
#
#
# Indices 1 2 3 4 5 6 
#
# 1 0.008328 -0.002199 -0.001716 0.000000 0.000000 0.000000
# 2 -0.002199 0.025230 -0.004215 0.000000 0.000000 0.000000
# 3 -0.001716 -0.004215 0.007917 0.000000 0.000000 0.000000
# 4 0.000000 0.000000 0.000000 0.067267 0.000000 0.000000
# 5 0.000000 0.000000 0.000000 0.000000 0.043515 0.000000
# 6 0.000000 0.000000 0.000000 0.000000 0.000000 0.037710
#
#
# Mechanical properties :
#
#
# Convention : Reuss Voigt Hill
#
# Bulk Modulus (GPa) = 39.66099 55.30194 47.48147
# Shear Modulus (GPa) = 23.29569 29.12061 26.20815
#
# Velocity S-wave (km/s) = 3.36363 3.76072 3.56770
# Velocity P-wave (km/s) = 5.86068 6.76135 6.32706
#
# Compressibility (1/GPa) = 0.02521369
#
# Stress axis : x y z
#
# Youngs Moduli (GPa) = 120.08153 39.63596 126.30848
#
# Poissons Ratio (x) = 0.08717 0.21674
# Poissons Ratio (y) = 0.26410 0.53239
# Poissons Ratio (z) = 0.20606 0.16707
#
# Static dielectric constant tensor:
#      x y z
#    x 1.844830 0.000000 0.000000 
#    y 0.000000 1.789960 0.000000 
#    z 0.000000 0.000000 1.756870 
# 
# From -- ./inp_files/18292.got.cif
#   From: 2010.05.17/outbox.cif.g08.bks.cpg/sg55_10_cif.got.tgz:18292.got - 2010.06.03 13:27:54.
