data_PCOD9428886
_publ_section_title
;
Structure prediction by ZEFSAII (Michael W. Deem and Ramdas Pophale) SiO2 
 PCOD9428886
Probable space group: P B A M
;
_chemical_formula_sum "Si O2"
_cell_formula_units_Z 38
_cell_length_a 5.049449
_cell_length_b 24.682452
_cell_length_c 11.619798
_cell_angle_alpha 90.000000
_cell_angle_beta 90.000000
_cell_angle_gamma 90.000000
_cell_volume 1448.207758
_symmetry_space_group_name_H-M "P B A M"
_symmetry_group_IT_number 55
_symmetry_cell_setting 'orthorhombic'
loop_
_space_group_symop_operation_xyz
x,y,z
-x,-y,z
1/2+x,1/2-y,-z
1/2-x,1/2+y,-z
-x,-y,-z
x,y,-z
1/2-x,1/2+y,z
1/2+x,1/2-y,z
loop_
_atom_site_type_symbol
_atom_site_label
_atom_site_fract_x
_atom_site_fract_y
_atom_site_fract_z
Si Si1 0.052991 0.284127 0.128639
Si Si2 0.500000 0.500000 0.500000
Si Si3 0.079795 0.936493 0.868188
Si Si4 0.497210 0.288238 0.500000
Si Si5 0.252242 0.641495 0.302514
Si Si6 0.133049 0.443745 0.658067
O O1 0.860984 0.231337 0.135973
O O2 0.943067 0.320235 0.229827
O O3 0.005168 0.306941 0.000000
O O4 0.414086 0.454682 0.599276
O O5 0.348975 0.938420 0.795133
O O6 0.907607 0.895116 0.791625
O O7 0.098203 0.919175 0.000000
O O8 0.000000 0.000000 0.866464
O O9 0.208689 0.261375 0.500000
O O10 0.559341 0.324205 0.386760
O O11 0.053341 0.604533 0.376895
O O12 0.000000 0.500000 0.622866
#
# Coordination Sequence:
#
# PCOD9428886 Si02
#       6
#     8   2   8   4   8   8
#     4  10  23  44  72 107 147 195 258 328 393 470
#     4  12  24  46  68  98 144 196 252 312 366 444
#     4  11  25  46  72 112 160 204 258 319 381 471
#     4  12  31  55  81 117 157 202 269 351 409 481
#     4  12  26  47  77 109 148 210 256 321 405 477
#     4  12  25  46  72 110 152 204 258 319 380 471
#
# _framework density 26.239332000000001
#
# number of rings (size 3 to 8) (size 9 to 14) (size 15 to 20)
#    0.000    0.632    3.158    2.842    5.895    4.632 
#    0.000    0.000    0.000    0.000    0.000    0.000 
#    0.000    0.000    0.000    0.000    0.000    0.000 
#
# Total GULP energy -212315.637040 kJ/mol
# GULP energy per Si atom -5587.253606 kJ/mol
# Density = 2.617961 g / cm^3
# Si number density = 26.239332 Si / 1000 Ang^3
#
#
#
# Elastic Constant Matrix: (Units=GPa)
#
#
# Indices 1 2 3 4 5 6 
#
# 1 60.5362 17.5454 18.2933 0.0000 0.0000 0.0000
# 2 17.5454 98.6692 57.3069 0.0000 0.0000 0.0000
# 3 18.2933 57.3069 220.6075 0.0000 0.0000 0.0000
# 4 0.0000 0.0000 0.0000 16.8752 0.0000 0.0000
# 5 0.0000 0.0000 0.0000 0.0000 54.2359 0.0000
# 6 0.0000 0.0000 0.0000 0.0000 0.0000 46.9837
#
#
#
# Elastic Compliance Matrix: (Units=1/GPa)
#
#
# Indices 1 2 3 4 5 6 
#
# 1 0.017524 -0.002676 -0.000758 0.000000 0.000000 0.000000
# 2 -0.002676 0.012344 -0.002985 0.000000 0.000000 0.000000
# 3 -0.000758 -0.002985 0.005371 0.000000 0.000000 0.000000
# 4 0.000000 0.000000 0.000000 0.059259 0.000000 0.000000
# 5 0.000000 0.000000 0.000000 0.000000 0.018438 0.000000
# 6 0.000000 0.000000 0.000000 0.000000 0.000000 0.021284
#
#
# Mechanical properties :
#
#
# Convention : Reuss Voigt Hill
#
# Bulk Modulus (GPa) = 44.63914 62.90046 53.76980
# Shear Modulus (GPa) = 32.35743 42.73012 37.54377
#
# Velocity S-wave (km/s) = 3.51545 4.03982 3.78672
# Velocity P-wave (km/s) = 5.79026 6.76639 6.29727
#
# Compressibility (1/GPa) = 0.02240186
#
# Stress axis : x y z
#
# Youngs Moduli (GPa) = 57.06572 81.00949 186.18017
#
# Poissons Ratio (x) = 0.21677 0.14113
# Poissons Ratio (y) = 0.15270 0.55570
# Poissons Ratio (z) = 0.04326 0.24179
#
# Static dielectric constant tensor:
#      x y z
#    x 2.246710 0.000000 0.000000 
#    y 0.000000 2.122820 0.000000 
#    z 0.000000 0.000000 2.066310 
# 
# From -- ./inp_files/11327.got.cif
#   From: 2010.05.17/outbox.cif.g08.bks.cpg/sg55_6_cif.got.tgz:11327.got - 2010.06.03 13:27:54.
