data_PCOD9428342
_publ_section_title
;
Structure prediction by ZEFSAII (Michael W. Deem and Ramdas Pophale) SiO2 
 PCOD9428342
Probable space group: P B A M
;
_chemical_formula_sum "Si O2"
_cell_formula_units_Z 56
_cell_length_a 18.178745
_cell_length_b 10.904892
_cell_length_c 14.072005
_cell_angle_alpha 90.000000
_cell_angle_beta 90.000000
_cell_angle_gamma 90.000000
_cell_volume 2789.595586
_symmetry_space_group_name_H-M "P B A M"
_symmetry_group_IT_number 55
_symmetry_cell_setting 'orthorhombic'
loop_
_space_group_symop_operation_xyz
x,y,z
-x,-y,z
1/2+x,1/2-y,-z
1/2-x,1/2+y,-z
-x,-y,-z
x,y,-z
1/2-x,1/2+y,z
1/2+x,1/2-y,z
loop_
_atom_site_type_symbol
_atom_site_label
_atom_site_fract_x
_atom_site_fract_y
_atom_site_fract_z
Si Si1 0.065774 0.401254 0.105337
Si Si2 0.333087 0.529252 0.110787
Si Si3 0.116935 0.818091 0.762644
Si Si4 0.324400 0.659309 0.614428
Si Si5 0.776291 0.111277 0.613156
Si Si6 0.673288 0.886985 0.891321
Si Si7 0.553453 0.328031 0.229838
O O1 0.141829 0.475413 0.110029
O O2 0.058240 0.310800 0.192610
O O3 0.000000 0.500000 0.107338
O O4 0.061451 0.340652 0.000000
O O5 0.333016 0.406818 0.172505
O O6 0.260078 0.609451 0.127763
O O7 0.404859 0.598730 0.147084
O O8 0.335803 0.500933 0.000000
O O9 0.150231 0.832392 0.658780
O O10 0.128967 0.688520 0.813183
O O11 0.032325 0.857091 0.762325
O O12 0.336058 0.659341 0.500000
O O13 0.286014 0.789062 0.641895
O O14 0.276541 0.535250 0.637442
O O15 0.399144 0.649759 0.675241
O O16 0.778309 0.115848 0.500000
O O17 0.660289 0.841236 0.000000
#
# Coordination Sequence:
#
# PCOD9428342 Si02
#       7
#     8   8   8   8   8   8   8
#     4  10  21  40  62  88 125 171 214 258 317 381
#     4  11  25  39  58  89 125 166 209 259 310 370
#     4  12  24  39  62  92 126 162 207 258 319 384
#     4  10  23  44  70  97 129 167 216 270 326 387
#     4  10  23  44  69  96 125 165 213 267 323 384
#     4  10  23  41  61  88 123 169 218 263 311 375
#     4  12  24  39  62  93 127 166 209 259 322 385
#
# _framework density 20.074594000000001
#
# number of rings (size 3 to 8) (size 9 to 14) (size 15 to 20)
#    0.000    1.286    2.857    2.143    4.000    2.857 
#    0.000    1.429    0.000    0.429    0.000    0.000 
#    0.000    0.000    0.000    0.000    0.000    0.000 
#
# Total GULP energy -312514.954056 kJ/mol
# GULP energy per Si atom -5580.624180 kJ/mol
# Density = 2.002890 g / cm^3
# Si number density = 20.074594 Si / 1000 Ang^3
#
#
#
# Elastic Constant Matrix: (Units=GPa)
#
#
# Indices 1 2 3 4 5 6 
#
# 1 88.8637 10.9034 14.2344 0.0000 0.0000 0.0000
# 2 10.9034 66.3201 24.1278 0.0000 0.0000 0.0000
# 3 14.2344 24.1278 42.1629 0.0000 0.0000 0.0000
# 4 0.0000 0.0000 0.0000 28.2370 0.0000 0.0000
# 5 0.0000 0.0000 0.0000 0.0000 18.9086 0.0000
# 6 0.0000 0.0000 0.0000 0.0000 0.0000 25.2707
#
#
#
# Elastic Compliance Matrix: (Units=1/GPa)
#
#
# Indices 1 2 3 4 5 6 
#
# 1 0.011917 -0.000626 -0.003665 0.000000 0.000000 0.000000
# 2 -0.000626 0.019076 -0.010705 0.000000 0.000000 0.000000
# 3 -0.003665 -0.010705 0.031081 0.000000 0.000000 0.000000
# 4 0.000000 0.000000 0.000000 0.035415 0.000000 0.000000
# 5 0.000000 0.000000 0.000000 0.000000 0.052886 0.000000
# 6 0.000000 0.000000 0.000000 0.000000 0.000000 0.039571
#
#
# Mechanical properties :
#
#
# Convention : Reuss Voigt Hill
#
# Bulk Modulus (GPa) = 31.17013 32.87531 32.02272
# Shear Modulus (GPa) = 21.67961 24.35533 23.01747
#
# Velocity S-wave (km/s) = 3.28983 3.48694 3.38982
# Velocity P-wave (km/s) = 5.47645 5.71172 5.59532
#
# Compressibility (1/GPa) = 0.03208200
#
# Stress axis : x y z
#
# Youngs Moduli (GPa) = 83.91324 52.42239 32.17418
#
# Poissons Ratio (x) = 0.03281 0.11792
# Poissons Ratio (y) = 0.05252 0.34442
# Poissons Ratio (z) = 0.30755 0.56118
#
# Static dielectric constant tensor:
#      x y z
#    x 1.706660 0.000000 0.000000 
#    y 0.000000 1.786830 0.000000 
#    z 0.000000 0.000000 1.696240 
# 
# From -- ./inp_files/18954.got.cif
#   From: 2010.05.17/outbox.cif.g08.bks.cpg/sg55_10_cif.got.tgz:18954.got - 2010.06.03 13:27:54.
