data_PCOD9428888
_publ_section_title
;
Structure prediction by ZEFSAII (Michael W. Deem and Ramdas Pophale) SiO2 
 PCOD9428888
Probable space group: P B A M
;
_chemical_formula_sum "Si O2"
_cell_formula_units_Z 32
_cell_length_a 10.548875
_cell_length_b 7.938542
_cell_length_c 13.863760
_cell_angle_alpha 90.000000
_cell_angle_beta 90.000000
_cell_angle_gamma 90.000000
_cell_volume 1160.988518
_symmetry_space_group_name_H-M "P B A M"
_symmetry_group_IT_number 55
_symmetry_cell_setting 'orthorhombic'
loop_
_space_group_symop_operation_xyz
x,y,z
-x,-y,z
1/2+x,1/2-y,-z
1/2-x,1/2+y,-z
-x,-y,-z
x,y,-z
1/2-x,1/2+y,z
1/2+x,1/2-y,z
loop_
_atom_site_type_symbol
_atom_site_label
_atom_site_fract_x
_atom_site_fract_y
_atom_site_fract_z
Si Si1 0.302788 0.028440 0.205075
Si Si2 0.932758 0.672633 0.647355
Si Si3 0.101862 0.858138 0.107948
Si Si4 0.162375 0.926878 0.391803
O O1 0.365619 0.205211 0.179795
O O2 0.201247 0.033022 0.295102
O O3 0.396103 0.883225 0.243474
O O4 0.231867 0.963575 0.111666
O O5 0.793003 0.681002 0.601629
O O6 0.035946 0.816978 0.629221
O O7 0.000000 0.500000 0.610373
O O8 0.070572 0.799089 0.000000
O O9 0.000000 0.000000 0.136700
O O10 0.147541 0.997346 0.500000
#
# Coordination Sequence:
#
# PCOD9428888 Si02
#       4
#     8   8   8   8
#     4  10  25  47  79 126 176 212 281 357 437 495
#     4  10  23  46  74 117 171 230 281 353 421 496
#     4  11  25  52  90 123 162 219 284 354 439 529
#     4  10  23  44  80 121 172 234 293 351 417 498
#
# _framework density 27.562719000000001
#
# number of rings (size 3 to 8) (size 9 to 14) (size 15 to 20)
#    1.500    0.250    0.000    3.000    0.000    6.000 
#    0.000    1.250    0.000   25.500    0.000    0.000 
#    0.000    0.000    0.000    0.000    0.000    0.000 
#
# Total GULP energy -178603.175241 kJ/mol
# GULP energy per Si atom -5581.349226 kJ/mol
# Density = 2.749998 g / cm^3
# Si number density = 27.562719 Si / 1000 Ang^3
#
#
#
# Elastic Constant Matrix: (Units=GPa)
#
#
# Indices 1 2 3 4 5 6 
#
# 1 205.9727 71.9726 69.4914 0.0000 0.0000 0.0000
# 2 71.9726 191.1756 77.7277 0.0000 0.0000 0.0000
# 3 69.4914 77.7277 183.7343 0.0000 0.0000 0.0000
# 4 0.0000 0.0000 0.0000 19.8676 0.0000 0.0000
# 5 0.0000 0.0000 0.0000 0.0000 25.5576 0.0000
# 6 0.0000 0.0000 0.0000 0.0000 0.0000 56.7207
#
#
#
# Elastic Compliance Matrix: (Units=1/GPa)
#
#
# Indices 1 2 3 4 5 6 
#
# 1 0.005944 -0.001599 -0.001572 0.000000 0.000000 0.000000
# 2 -0.001599 0.006747 -0.002250 0.000000 0.000000 0.000000
# 3 -0.001572 -0.002250 0.006989 0.000000 0.000000 0.000000
# 4 0.000000 0.000000 0.000000 0.050333 0.000000 0.000000
# 5 0.000000 0.000000 0.000000 0.000000 0.039127 0.000000
# 6 0.000000 0.000000 0.000000 0.000000 0.000000 0.017630
#
#
# Mechanical properties :
#
#
# Convention : Reuss Voigt Hill
#
# Bulk Modulus (GPa) = 113.12635 113.25177 113.18906
# Shear Modulus (GPa) = 35.57253 44.54191 40.05722
#
# Velocity S-wave (km/s) = 3.59639 4.02434 3.81637
# Velocity P-wave (km/s) = 7.64053 7.92286 7.78298
#
# Compressibility (1/GPa) = 0.00883967
#
# Stress axis : x y z
#
# Youngs Moduli (GPa) = 168.23893 148.20592 143.08460
#
# Poissons Ratio (x) = 0.23693 0.22490
# Poissons Ratio (y) = 0.26896 0.32191
# Poissons Ratio (z) = 0.26443 0.33343
#
# Static dielectric constant tensor:
#      x y z
#    x 2.203030 0.000000 0.000000 
#    y 0.000000 2.432470 0.000000 
#    z 0.000000 0.000000 2.119170 
# 
# From -- ./inp_files/18665.got.cif
#   From: 2010.05.17/outbox.cif.g08.bks.cpg/sg55_10_cif.got.tgz:18665.got - 2010.06.03 13:27:54.
