data_PCOD9428966
_publ_section_title
;
Structure prediction by ZEFSAII (Michael W. Deem and Ramdas Pophale) SiO2 
 PCOD9428966
Probable space group: P B A M
;
_chemical_formula_sum "Si O2"
_cell_formula_units_Z 24
_cell_length_a 8.123124
_cell_length_b 16.698012
_cell_length_c 7.917152
_cell_angle_alpha 90.000000
_cell_angle_beta 90.000000
_cell_angle_gamma 90.000000
_cell_volume 1073.882672
_symmetry_space_group_name_H-M "P B A M"
_symmetry_group_IT_number 55
_symmetry_cell_setting 'orthorhombic'
loop_
_space_group_symop_operation_xyz
x,y,z
-x,-y,z
1/2+x,1/2-y,-z
1/2-x,1/2+y,-z
-x,-y,-z
x,y,-z
1/2-x,1/2+y,z
1/2+x,1/2-y,z
loop_
_atom_site_type_symbol
_atom_site_label
_atom_site_fract_x
_atom_site_fract_y
_atom_site_fract_z
Si Si1 0.924703 0.126025 0.000000
Si Si2 0.614158 0.261404 0.196645
Si Si3 0.102931 0.623186 0.312283
Si Si4 0.270657 0.027592 0.000000
O O1 0.952346 0.181952 0.836051
O O2 0.093706 0.073077 0.000000
O O3 0.773778 0.065699 0.000000
O O4 0.744114 0.314451 0.295973
O O5 0.554762 0.178823 0.275117
O O6 0.668828 0.249558 0.000000
O O7 0.097734 0.589304 0.500000
O O8 0.136122 0.559545 0.165081
#
# Coordination Sequence:
#
# PCOD9428966 Si02
#       4
#     4   8   8   4
#     4   7  15  28  53  63  96 131 152 192 238 281
#     4   9  17  33  50  70  96 127 159 192 238 277
#     4  11  19  30  51  74  97 124 158 199 237 279
#     4   9  15  32  45  71  98 123 156 194 238 283
#
# _framework density 22.348807999999998
#
# number of rings (size 3 to 8) (size 9 to 14) (size 15 to 20)
#    1.000    1.667    3.333    1.000    0.000    0.000 
#    0.000   15.000    0.000    4.000    0.000    4.667 
#    0.000    0.000    0.000    0.000    0.000    0.000 
#
# Total GULP energy -133938.608747 kJ/mol
# GULP energy per Si atom -5580.775364 kJ/mol
# Density = 2.229794 g / cm^3
# Si number density = 22.348808 Si / 1000 Ang^3
#
#
#
# Elastic Constant Matrix: (Units=GPa)
#
#
# Indices 1 2 3 4 5 6 
#
# 1 73.0292 28.5242 23.4836 0.0000 0.0000 0.0000
# 2 28.5242 79.2553 32.0926 0.0000 0.0000 0.0000
# 3 23.4836 32.0926 161.7720 0.0000 0.0000 0.0000
# 4 0.0000 0.0000 0.0000 -10.3912 0.0000 0.0000
# 5 0.0000 0.0000 0.0000 0.0000 17.1139 0.0000
# 6 0.0000 0.0000 0.0000 0.0000 0.0000 55.6074
#
#
#
# Elastic Compliance Matrix: (Units=1/GPa)
#
#
# Indices 1 2 3 4 5 6 
#
# 1 0.016180 -0.005298 -0.001298 0.000000 0.000000 0.000000
# 2 -0.005298 0.015454 -0.002297 0.000000 0.000000 0.000000
# 3 -0.001298 -0.002297 0.006826 0.000000 0.000000 0.000000
# 4 0.000000 0.000000 0.000000 -0.096236 0.000000 0.000000
# 5 0.000000 0.000000 0.000000 0.000000 0.058432 0.000000
# 6 0.000000 0.000000 0.000000 0.000000 0.000000 0.017983
#
#
# Mechanical properties :
#
#
# Convention : Reuss Voigt Hill
#
# Bulk Modulus (GPa) = 48.36756 53.58413 50.97585
# Shear Modulus (GPa) = 115.43363 27.79643 71.61503
#
# Velocity S-wave (km/s) = 7.19465 3.53052 5.66690
# Velocity P-wave (km/s) = 9.52400 6.37556 8.10414
#
# Compressibility (1/GPa) = 0.02067501
#
# Stress axis : x y z
#
# Youngs Moduli (GPa) = 61.80611 64.70771 146.50790
#
# Poissons Ratio (x) = 0.34280 0.19013
# Poissons Ratio (y) = 0.32742 0.33650
# Poissons Ratio (z) = 0.08021 0.14862
#
# Static dielectric constant tensor:
#      x y z
#    x 1.917960 0.000000 0.000000 
#    y 0.000000 1.856510 0.000000 
#    z 0.000000 0.000000 1.775210 
# 
# From -- ./inp_files/1917.got.cif
#   From: 2010.05.17/outbox.cif.g08.bks.cpg/sg55_1_cif.got.tgz:1917.got - 2010.06.03 13:27:54.
