data_PCOD9428821
_publ_section_title
;
Structure prediction by ZEFSAII (Michael W. Deem and Ramdas Pophale) SiO2 
 PCOD9428821
Probable space group: P B A M
;
_chemical_formula_sum "Si O2"
_cell_formula_units_Z 64
_cell_length_a 29.166338
_cell_length_b 12.358120
_cell_length_c 9.227005
_cell_angle_alpha 90.000000
_cell_angle_beta 90.000000
_cell_angle_gamma 90.000000
_cell_volume 3325.791878
_symmetry_space_group_name_H-M "P B A M"
_symmetry_group_IT_number 55
_symmetry_cell_setting 'orthorhombic'
loop_
_space_group_symop_operation_xyz
x,y,z
-x,-y,z
1/2+x,1/2-y,-z
1/2-x,1/2+y,-z
-x,-y,-z
x,y,-z
1/2-x,1/2+y,z
1/2+x,1/2-y,z
loop_
_atom_site_type_symbol
_atom_site_label
_atom_site_fract_x
_atom_site_fract_y
_atom_site_fract_z
Si Si1 0.410601 0.933040 0.171511
Si Si2 0.570716 0.457587 0.331746
Si Si3 0.218210 0.925144 0.330502
Si Si4 0.670496 0.346478 0.662016
Si Si5 0.689007 0.133960 0.828125
Si Si6 0.377836 0.332247 0.675325
Si Si7 0.942297 0.357314 0.326941
Si Si8 0.524320 0.268627 0.171317
O O1 0.357390 0.928790 0.216469
O O2 0.432960 0.814630 0.190499
O O3 0.437245 0.023922 0.260697
O O4 0.413729 0.958422 0.000000
O O5 0.555630 0.464992 0.500000
O O6 0.619164 0.393351 0.330009
O O7 0.585434 0.576395 0.275709
O O8 0.536139 0.384747 0.240170
O O9 0.224744 0.897073 0.500000
O O10 0.264624 0.904963 0.245963
O O11 0.173548 0.859101 0.274077
O O12 0.203307 0.050219 0.323205
O O13 0.676644 0.299499 0.500000
O O14 0.680521 0.257128 0.780077
O O15 0.692762 0.125628 0.000000
O O16 0.376494 0.346120 0.500000
O O17 0.396804 0.213732 0.706216
O O18 0.948435 0.361557 0.500000
O O19 0.983258 0.290895 0.253837
O O20 0.515238 0.277771 0.000000
#
# Coordination Sequence:
#
# PCOD9428821 Si02
#       8
#     8   8   8   8   8   8   8   8
#     4  10  23  41  56  76 114 155 187 230 289 341
#     4   9  17  34  61  85 107 141 188 234 274 330
#     4   9  19  37  59  83 111 147 189 232 284 339
#     4   9  18  34  57  81 107 141 184 235 280 326
#     4  11  22  36  56  84 115 149 187 231 285 344
#     4   8  18  38  59  82 115 149 182 233 295 335
#     4  11  23  38  59  85 113 149 193 238 281 339
#     4  11  22  38  58  82 115 153 187 232 290 342
#
# _framework density 19.243538000000001
#
# number of rings (size 3 to 8) (size 9 to 14) (size 15 to 20)
#    0.000    2.250    1.250    3.000    0.000    5.500 
#    0.000   10.625    0.000    0.000    0.000    0.000 
#    0.000    0.000    0.000    0.000    0.000    0.000 
#
# Total GULP energy -357244.309631 kJ/mol
# GULP energy per Si atom -5581.942338 kJ/mol
# Density = 1.919974 g / cm^3
# Si number density = 19.243538 Si / 1000 Ang^3
#
#
#
# Elastic Constant Matrix: (Units=GPa)
#
#
# Indices 1 2 3 4 5 6 
#
# 1 75.9880 -0.3674 23.0241 0.0000 0.0000 0.0000
# 2 -0.3674 35.5313 16.0409 0.0000 0.0000 0.0000
# 3 23.0241 16.0409 42.9776 0.0000 0.0000 0.0000
# 4 0.0000 0.0000 0.0000 53.6829 0.0000 0.0000
# 5 0.0000 0.0000 0.0000 0.0000 25.8316 0.0000
# 6 0.0000 0.0000 0.0000 0.0000 0.0000 23.5311
#
#
#
# Elastic Compliance Matrix: (Units=1/GPa)
#
#
# Indices 1 2 3 4 5 6 
#
# 1 0.016411 0.004977 -0.010649 0.000000 0.000000 0.000000
# 2 0.004977 0.035357 -0.015863 0.000000 0.000000 0.000000
# 3 -0.010649 -0.015863 0.034894 0.000000 0.000000 0.000000
# 4 0.000000 0.000000 0.000000 0.018628 0.000000 0.000000
# 5 0.000000 0.000000 0.000000 0.000000 0.038712 0.000000
# 6 0.000000 0.000000 0.000000 0.000000 0.000000 0.042497
#
#
# Mechanical properties :
#
#
# Convention : Reuss Voigt Hill
#
# Bulk Modulus (GPa) = 22.94025 25.76578 24.35301
# Shear Modulus (GPa) = 20.48342 28.32906 24.40624
#
# Velocity S-wave (km/s) = 3.26610 3.84100 3.56516
# Velocity P-wave (km/s) = 5.11567 5.75234 5.44332
#
# Compressibility (1/GPa) = 0.04359150
#
# Stress axis : x y z
#
# Youngs Moduli (GPa) = 60.93561 28.28277 28.65836
#
# Poissons Ratio (x) = -0.14078 0.30519
# Poissons Ratio (y) = -0.30330 0.45461
# Poissons Ratio (z) = 0.64893 0.44866
#
# Static dielectric constant tensor:
#      x y z
#    x 1.687760 0.000000 0.000000 
#    y 0.000000 1.665240 0.000000 
#    z 0.000000 0.000000 1.650200 
# 
# From -- ./inp_files/10792.got.cif
#   From: 2010.05.17/outbox.cif.g08.bks.cpg/sg55_6_cif.got.tgz:10792.got - 2010.06.03 13:27:54.
