data_PCOD9428702
_publ_section_title
;
Structure prediction by ZEFSAII (Michael W. Deem and Ramdas Pophale) SiO2 
 PCOD9428702
Probable space group: P B A M
;
_chemical_formula_sum "Si O2"
_cell_formula_units_Z 48
_cell_length_a 18.046546
_cell_length_b 11.490987
_cell_length_c 11.339117
_cell_angle_alpha 90.000000
_cell_angle_beta 90.000000
_cell_angle_gamma 90.000000
_cell_volume 2351.422463
_symmetry_space_group_name_H-M "P B A M"
_symmetry_group_IT_number 55
_symmetry_cell_setting 'orthorhombic'
loop_
_space_group_symop_operation_xyz
x,y,z
-x,-y,z
1/2+x,1/2-y,-z
1/2-x,1/2+y,-z
-x,-y,-z
x,y,-z
1/2-x,1/2+y,z
1/2+x,1/2-y,z
loop_
_atom_site_type_symbol
_atom_site_label
_atom_site_fract_x
_atom_site_fract_y
_atom_site_fract_z
Si Si1 0.197450 0.601327 0.135142
Si Si2 0.625497 0.648751 0.137641
Si Si3 0.037809 0.183867 0.862368
Si Si4 0.078539 0.431356 0.241551
Si Si5 0.339525 0.556383 0.265770
Si Si6 0.564250 0.395760 0.500000
Si Si7 0.558037 0.112764 0.500000
O O1 0.149591 0.717970 0.136238
O O2 0.142228 0.498411 0.172204
O O3 0.262801 0.615958 0.230515
O O4 0.225141 0.583838 0.000000
O O5 0.541443 0.644598 0.185073
O O6 0.673689 0.577748 0.231533
O O7 0.631518 0.610076 0.000000
O O8 0.062865 0.305839 0.811259
O O9 0.101127 0.093695 0.832992
O O10 0.026559 0.196596 0.000000
O O11 0.099653 0.410166 0.377863
O O12 0.000000 0.500000 0.235540
O O13 0.381967 0.584343 0.386619
O O14 0.500000 0.500000 0.500000
O O15 0.537909 0.255659 0.500000
O O16 0.500000 0.000000 0.500000
#
# Coordination Sequence:
#
# PCOD9428702 Si02
#       7
#     8   8   8   8   8   4   4
#     4  11  25  43  66 100 141 183 225 290 370 429
#     4  10  22  41  65  97 134 173 225 285 351 426
#     4  11  21  37  66  96 128 170 223 281 341 411
#     4  11  22  41  68  97 136 178 235 283 342 412
#     4  12  26  42  65  97 135 178 232 283 356 418
#     4  12  26  47  74 100 139 191 242 291 347 422
#     4  10  24  43  72 104 134 179 236 298 343 395
#
# _framework density 20.413176
#
# number of rings (size 3 to 8) (size 9 to 14) (size 15 to 20)
#    0.000    1.000    3.333    3.500    2.333    2.667 
#    0.000    0.833    0.000    0.000    0.000    0.000 
#    0.000    0.000    0.000    0.000    0.000    0.000 
#
# Total GULP energy -267578.392752 kJ/mol
# GULP energy per Si atom -5574.549849 kJ/mol
# Density = 2.036672 g / cm^3
# Si number density = 20.413176 Si / 1000 Ang^3
#
#
#
# Elastic Constant Matrix: (Units=GPa)
#
#
# Indices 1 2 3 4 5 6 
#
# 1 75.9172 4.1447 3.2646 0.0000 0.0000 0.0000
# 2 4.1447 100.0479 15.0716 0.0000 0.0000 0.0000
# 3 3.2646 15.0716 63.7173 0.0000 0.0000 0.0000
# 4 0.0000 0.0000 0.0000 18.9831 0.0000 0.0000
# 5 0.0000 0.0000 0.0000 0.0000 24.0013 0.0000
# 6 0.0000 0.0000 0.0000 0.0000 0.0000 24.5153
#
#
#
# Elastic Compliance Matrix: (Units=1/GPa)
#
#
# Indices 1 2 3 4 5 6 
#
# 1 0.013222 -0.000462 -0.000568 0.000000 0.000000 0.000000
# 2 -0.000462 0.010381 -0.002432 0.000000 0.000000 0.000000
# 3 -0.000568 -0.002432 0.016299 0.000000 0.000000 0.000000
# 4 0.000000 0.000000 0.000000 0.052678 0.000000 0.000000
# 5 0.000000 0.000000 0.000000 0.000000 0.041664 0.000000
# 6 0.000000 0.000000 0.000000 0.000000 0.000000 0.040791
#
#
# Mechanical properties :
#
#
# Convention : Reuss Voigt Hill
#
# Bulk Modulus (GPa) = 30.32402 31.62713 30.97557
# Shear Modulus (GPa) = 25.91325 27.98003 26.94664
#
# Velocity S-wave (km/s) = 3.56678 3.70629 3.63721
# Velocity P-wave (km/s) = 5.64358 5.81744 5.73117
#
# Compressibility (1/GPa) = 0.03297716
#
# Stress axis : x y z
#
# Youngs Moduli (GPa) = 75.63203 96.33269 61.35487
#
# Poissons Ratio (x) = 0.04452 0.03486
# Poissons Ratio (y) = 0.03495 0.14920
# Poissons Ratio (z) = 0.04297 0.23426
#
# Static dielectric constant tensor:
#      x y z
#    x 1.768350 0.000000 0.000000 
#    y 0.000000 1.880950 0.000000 
#    z 0.000000 0.000000 1.726810 
# 
# From -- ./inp_files/14819.got.cif
#   From: 2010.05.17/outbox.cif.g08.bks.cpg/sg55_8_cif.got.tgz:14819.got - 2010.06.03 13:27:54.
