data_PCOD9428764
_publ_section_title
;
Structure prediction by ZEFSAII (Michael W. Deem and Ramdas Pophale) SiO2 
 PCOD9428764
Probable space group: P B A M
;
_chemical_formula_sum "Si O2"
_cell_formula_units_Z 48
_cell_length_a 11.057493
_cell_length_b 23.341896
_cell_length_c 8.977846
_cell_angle_alpha 90.000000
_cell_angle_beta 90.000000
_cell_angle_gamma 90.000000
_cell_volume 2317.207654
_symmetry_space_group_name_H-M "P B A M"
_symmetry_group_IT_number 55
_symmetry_cell_setting 'orthorhombic'
loop_
_space_group_symop_operation_xyz
x,y,z
-x,-y,z
1/2+x,1/2-y,-z
1/2-x,1/2+y,-z
-x,-y,-z
x,y,-z
1/2-x,1/2+y,z
1/2+x,1/2-y,z
loop_
_atom_site_type_symbol
_atom_site_label
_atom_site_fract_x
_atom_site_fract_y
_atom_site_fract_z
Si Si1 0.669882 0.182822 0.175991
Si Si2 0.199597 0.914557 0.323535
Si Si3 0.195361 0.198451 0.669857
Si Si4 0.577638 0.419854 0.326380
Si Si5 0.196690 0.521928 0.176259
Si Si6 0.560667 0.876460 0.675261
O O1 0.778380 0.146467 0.248187
O O2 0.679924 0.249017 0.220392
O O3 0.550143 0.155157 0.247463
O O4 0.668763 0.175590 0.000000
O O5 0.218066 0.910937 0.500000
O O6 0.061390 0.934363 0.298595
O O7 0.291413 0.959996 0.251713
O O8 0.189260 0.220650 0.500000
O O9 0.095802 0.148586 0.686175
O O10 0.322137 0.165037 0.688132
O O11 0.608327 0.434948 0.500000
O O12 0.674780 0.448438 0.218571
O O13 0.097230 0.563799 0.247633
O O14 0.180621 0.517376 0.000000
O O15 0.537622 0.885493 0.500000
#
# Coordination Sequence:
#
# PCOD9428764 Si02
#       6
#     8   8   8   8   8   8
#     4  12  26  40  58  91 127 158 197 253 314 360
#     4  11  23  40  62  89 122 164 211 249 290 357
#     4   9  20  40  64  88 116 157 205 250 295 356
#     4   9  20  39  64  91 119 161 210 250 291 354
#     4  11  22  38  62  93 127 158 195 252 314 359
#     4  10  22  43  67  87 115 161 210 246 291 363
#
# _framework density 20.714587999999999
#
# number of rings (size 3 to 8) (size 9 to 14) (size 15 to 20)
#    0.000    1.667    0.000    5.500    2.333    7.333 
#    0.000    3.333    0.000    0.000    0.000    0.000 
#    0.000    0.000    0.000    0.000    0.000    0.000 
#
# Total GULP energy -268511.929573 kJ/mol
# GULP energy per Si atom -5593.998533 kJ/mol
# Density = 2.066744 g / cm^3
# Si number density = 20.714588 Si / 1000 Ang^3
#
#
#
# Elastic Constant Matrix: (Units=GPa)
#
#
# Indices 1 2 3 4 5 6 
#
# 1 52.2763 -4.5735 19.2737 0.0000 0.0000 0.0000
# 2 -4.5735 60.7389 29.2538 0.0000 0.0000 0.0000
# 3 19.2737 29.2538 120.9868 0.0000 0.0000 0.0000
# 4 0.0000 0.0000 0.0000 46.4883 0.0000 0.0000
# 5 0.0000 0.0000 0.0000 0.0000 23.3555 0.0000
# 6 0.0000 0.0000 0.0000 0.0000 0.0000 17.2613
#
#
#
# Elastic Compliance Matrix: (Units=1/GPa)
#
#
# Indices 1 2 3 4 5 6 
#
# 1 0.021001 0.003613 -0.004219 0.000000 0.000000 0.000000
# 2 0.003613 0.019256 -0.005232 0.000000 0.000000 0.000000
# 3 -0.004219 -0.005232 0.010202 0.000000 0.000000 0.000000
# 4 0.000000 0.000000 0.000000 0.021511 0.000000 0.000000
# 5 0.000000 0.000000 0.000000 0.000000 0.042817 0.000000
# 6 0.000000 0.000000 0.000000 0.000000 0.000000 0.057933
#
#
# Mechanical properties :
#
#
# Convention : Reuss Voigt Hill
#
# Bulk Modulus (GPa) = 25.78364 35.76779 30.77571
# Shear Modulus (GPa) = 25.33927 30.09087 27.71507
#
# Velocity S-wave (km/s) = 3.50130 3.81549 3.66177
# Velocity P-wave (km/s) = 5.36839 6.05929 5.72428
#
# Compressibility (1/GPa) = 0.03878428
#
# Stress axis : x y z
#
# Youngs Moduli (GPa) = 47.61715 51.93283 98.01571
#
# Poissons Ratio (x) = -0.18765 0.41355
# Poissons Ratio (y) = -0.17206 0.51277
# Poissons Ratio (z) = 0.20091 0.27169
#
# Static dielectric constant tensor:
#      x y z
#    x 1.758980 0.000000 0.000000 
#    y 0.000000 1.747500 0.000000 
#    z 0.000000 0.000000 1.682270 
# 
# From -- ./inp_files/4031.got.cif
#   From: 2010.05.17/outbox.cif.g08.bks.cpg/sg55_3_cif.got.tgz:4031.got - 2010.06.03 13:27:54.
