data_PCOD9428300
_publ_section_title
;
Structure prediction by ZEFSAII (Michael W. Deem and Ramdas Pophale) SiO2 
 PCOD9428300
Probable space group: P B A M
;
_chemical_formula_sum "Si O2"
_cell_formula_units_Z 48
_cell_length_a 9.422976
_cell_length_b 16.234729
_cell_length_c 16.375543
_cell_angle_alpha 90.000000
_cell_angle_beta 90.000000
_cell_angle_gamma 90.000000
_cell_volume 2505.121754
_symmetry_space_group_name_H-M "P B A M"
_symmetry_group_IT_number 55
_symmetry_cell_setting 'orthorhombic'
loop_
_space_group_symop_operation_xyz
x,y,z
-x,-y,z
1/2+x,1/2-y,-z
1/2-x,1/2+y,-z
-x,-y,-z
x,y,-z
1/2-x,1/2+y,z
1/2+x,1/2-y,z
loop_
_atom_site_type_symbol
_atom_site_label
_atom_site_fract_x
_atom_site_fract_y
_atom_site_fract_z
Si Si1 0.908177 0.582733 0.751650
Si Si2 0.902284 0.276086 0.671133
Si Si3 0.956283 0.686031 0.906510
Si Si4 0.251348 0.687533 0.168721
Si Si5 0.626109 0.349437 0.404725
Si Si6 0.652479 0.474655 0.735950
O O1 0.988328 0.650839 0.697038
O O2 0.752404 0.553592 0.727783
O O3 0.000000 0.500000 0.746480
O O4 0.905709 0.615573 0.844218
O O5 0.313929 0.239480 0.754899
O O6 0.000378 0.204431 0.635961
O O7 0.779043 0.305206 0.609603
O O8 0.125836 0.686208 0.896781
O O9 0.887824 0.768827 0.868827
O O10 0.914145 0.675117 0.000000
O O11 0.282571 0.597546 0.206486
O O12 0.600566 0.361116 0.500000
O O13 0.635480 0.432362 0.352154
O O14 0.500000 0.500000 0.768554
#
# Coordination Sequence:
#
# PCOD9428300 Si02
#       6
#     8   8   8   8   8   8
#     4  11  20  41  62  87 114 159 206 233 294 363
#     4  10  21  39  64  87 117 163 202 239 288 369
#     4  11  23  38  63  91 122 154 199 253 298 347
#     4  10  21  41  61  90 117 161 204 236 292 365
#     4  11  23  40  61  91 122 153 200 251 298 344
#     4  11  24  39  63  87 120 160 203 246 292 362
#
# _framework density 19.160746
#
# number of rings (size 3 to 8) (size 9 to 14) (size 15 to 20)
#    0.000    1.333    5.000    5.000    7.000    0.667 
#    0.000    2.500    0.000    2.500    0.000    0.000 
#    0.000    0.000    0.000    0.000    0.000    0.000 
#
# Total GULP energy -267948.851782 kJ/mol
# GULP energy per Si atom -5582.267745 kJ/mol
# Density = 1.911714 g / cm^3
# Si number density = 19.160746 Si / 1000 Ang^3
#
#
#
# Elastic Constant Matrix: (Units=GPa)
#
#
# Indices 1 2 3 4 5 6 
#
# 1 107.7348 22.1758 13.1552 0.0000 0.0000 0.0000
# 2 22.1758 30.4411 21.2017 0.0000 0.0000 0.0000
# 3 13.1552 21.2017 79.7368 0.0000 0.0000 0.0000
# 4 0.0000 0.0000 0.0000 8.6213 0.0000 0.0000
# 5 0.0000 0.0000 0.0000 0.0000 17.9873 0.0000
# 6 0.0000 0.0000 0.0000 0.0000 0.0000 43.3820
#
#
#
# Elastic Compliance Matrix: (Units=1/GPa)
#
#
# Indices 1 2 3 4 5 6 
#
# 1 0.010929 -0.008230 0.000385 0.000000 0.000000 0.000000
# 2 -0.008230 0.046514 -0.011010 0.000000 0.000000 0.000000
# 3 0.000385 -0.011010 0.015405 0.000000 0.000000 0.000000
# 4 0.000000 0.000000 0.000000 0.115992 0.000000 0.000000
# 5 0.000000 0.000000 0.000000 0.000000 0.055595 0.000000
# 6 0.000000 0.000000 0.000000 0.000000 0.000000 0.023051
#
#
# Mechanical properties :
#
#
# Convention : Reuss Voigt Hill
#
# Bulk Modulus (GPa) = 28.45865 36.77536 32.61700
# Shear Modulus (GPa) = 15.77742 24.75677 20.26710
#
# Velocity S-wave (km/s) = 2.87265 3.59842 3.25582
# Velocity P-wave (km/s) = 5.08799 6.04149 5.58512
#
# Compressibility (1/GPa) = 0.03513870
#
# Stress axis : x y z
#
# Youngs Moduli (GPa) = 91.49930 21.49886 64.91289
#
# Poissons Ratio (x) = 0.17693 -0.02500
# Poissons Ratio (y) = 0.75303 0.71470
# Poissons Ratio (z) = -0.03525 0.23671
#
# Static dielectric constant tensor:
#      x y z
#    x 1.719950 0.000000 0.000000 
#    y 0.000000 1.674530 0.000000 
#    z 0.000000 0.000000 1.638850 
# 
# From -- ./inp_files/20907.got.cif
#   From: 2010.05.17/outbox.cif.g08.bks.cpg/sg55_11_cif.got.tgz:20907.got - 2010.06.03 13:27:54.
