data_PCOD9428467
_publ_section_title
;
Structure prediction by ZEFSAII (Michael W. Deem and Ramdas Pophale) SiO2 
 PCOD9428467
Probable space group: P B A M
;
_chemical_formula_sum "Si O2"
_cell_formula_units_Z 58
_cell_length_a 29.501811
_cell_length_b 12.065417
_cell_length_c 7.450586
_cell_angle_alpha 90.000000
_cell_angle_beta 90.000000
_cell_angle_gamma 90.000000
_cell_volume 2652.048395
_symmetry_space_group_name_H-M "P B A M"
_symmetry_group_IT_number 55
_symmetry_cell_setting 'orthorhombic'
loop_
_space_group_symop_operation_xyz
x,y,z
-x,-y,z
1/2+x,1/2-y,-z
1/2-x,1/2+y,-z
-x,-y,-z
x,y,-z
1/2-x,1/2+y,z
1/2+x,1/2-y,z
loop_
_atom_site_type_symbol
_atom_site_label
_atom_site_fract_x
_atom_site_fract_y
_atom_site_fract_z
Si Si1 0.622881 0.444435 0.783235
Si Si2 0.500000 0.000000 0.500000
Si Si3 0.789036 0.805254 0.712579
Si Si4 0.616482 0.694903 0.784503
Si Si5 0.531649 0.850716 0.784091
Si Si6 0.348709 0.899518 0.717807
Si Si7 0.191473 0.629056 0.290916
Si Si8 0.935696 0.741466 0.208613
O O1 0.672602 0.398241 0.738613
O O2 0.615408 0.568896 0.718032
O O3 0.586765 0.353394 0.715121
O O4 0.619381 0.444492 0.000000
O O5 0.464711 0.042624 0.659355
O O6 0.782742 0.788189 0.500000
O O7 0.811015 0.690420 0.779284
O O8 0.740691 0.842638 0.788036
O O9 0.571426 0.764427 0.744258
O O10 0.659444 0.764503 0.720165
O O11 0.619705 0.690022 0.000000
O O12 0.483597 0.799031 0.717650
O O13 0.530869 0.873071 0.000000
O O14 0.350592 0.897699 0.500000
O O15 0.396756 0.851135 0.779550
O O16 0.334796 0.021436 0.782416
O O17 0.199184 0.601540 0.500000
O O18 0.945419 0.763329 0.000000
#
# Coordination Sequence:
#
# PCOD9428467 Si02
#       8
#     8   2   8   8   8   8   8   8
#     4   9  19  38  62  85 116 156 201 249 306 366
#     4  12  26  40  68  88 128 168 210 252 298 362
#     4   9  19  36  56  83 111 150 195 247 302 360
#     4  10  23  40  57  86 123 157 198 250 306 366
#     4  10  24  42  63  94 127 166 210 253 312 366
#     4   9  19  34  54  81 113 146 193 244 297 360
#     4  10  22  35  56  81 114 154 197 243 304 367
#     4   9  19  37  61  86 113 154 201 248 299 360
#
# _framework density 21.869889000000001
#
# number of rings (size 3 to 8) (size 9 to 14) (size 15 to 20)
#    0.000    2.483    0.000    0.207    5.793    2.207 
#    0.000    2.759    0.000    0.828    0.000    0.000 
#    0.000    0.000    0.000    0.000    0.000    0.000 
#
# Total GULP energy -323404.035894 kJ/mol
# GULP energy per Si atom -5575.931653 kJ/mol
# Density = 2.182011 g / cm^3
# Si number density = 21.869889 Si / 1000 Ang^3
#
#
#
# Elastic Constant Matrix: (Units=GPa)
#
#
# Indices 1 2 3 4 5 6 
#
# 1 90.3571 26.3676 4.4886 0.0000 0.0000 0.0000
# 2 26.3676 105.7520 3.1836 0.0000 0.0000 0.0000
# 3 4.4886 3.1836 69.8247 0.0000 0.0000 0.0000
# 4 0.0000 0.0000 0.0000 8.4476 0.0000 0.0000
# 5 0.0000 0.0000 0.0000 0.0000 12.2625 0.0000
# 6 0.0000 0.0000 0.0000 0.0000 0.0000 17.9106
#
#
#
# Elastic Compliance Matrix: (Units=1/GPa)
#
#
# Indices 1 2 3 4 5 6 
#
# 1 0.011964 -0.002964 -0.000634 0.000000 0.000000 0.000000
# 2 -0.002964 0.010203 -0.000275 0.000000 0.000000 0.000000
# 3 -0.000634 -0.000275 0.014375 0.000000 0.000000 0.000000
# 4 0.000000 0.000000 0.000000 0.118377 0.000000 0.000000
# 5 0.000000 0.000000 0.000000 0.000000 0.081550 0.000000
# 6 0.000000 0.000000 0.000000 0.000000 0.000000 0.055833
#
#
# Mechanical properties :
#
#
# Convention : Reuss Voigt Hill
#
# Bulk Modulus (GPa) = 34.72601 37.11259 35.91930
# Shear Modulus (GPa) = 16.14751 23.18373 19.66562
#
# Velocity S-wave (km/s) = 2.72020 3.25941 3.00194
# Velocity P-wave (km/s) = 5.07729 5.58315 5.33622
#
# Compressibility (1/GPa) = 0.02879686
#
# Stress axis : x y z
#
# Youngs Moduli (GPa) = 83.58697 98.00706 69.56594
#
# Poissons Ratio (x) = 0.29048 0.04410
# Poissons Ratio (y) = 0.24774 0.01911
# Poissons Ratio (z) = 0.05299 0.02692
#
# Static dielectric constant tensor:
#      x y z
#    x 1.781100 0.000000 0.000000 
#    y 0.000000 1.837510 0.000000 
#    z 0.000000 0.000000 1.833500 
# 
# From -- ./inp_files/10204.got.cif
#   From: 2010.05.17/outbox.cif.g08.bks.cpg/sg55_6_cif.got.tgz:10204.got - 2010.06.03 13:27:54.
