data_PCOD9428841
_publ_section_title
;
Structure prediction by ZEFSAII (Michael W. Deem and Ramdas Pophale) SiO2 
 PCOD9428841
Probable space group: P B A M
;
_chemical_formula_sum "Si O2"
_cell_formula_units_Z 36
_cell_length_a 16.356133
_cell_length_b 8.599142
_cell_length_c 13.499689
_cell_angle_alpha 90.000000
_cell_angle_beta 90.000000
_cell_angle_gamma 90.000000
_cell_volume 1898.713846
_symmetry_space_group_name_H-M "P B A M"
_symmetry_group_IT_number 55
_symmetry_cell_setting 'orthorhombic'
loop_
_space_group_symop_operation_xyz
x,y,z
-x,-y,z
1/2+x,1/2-y,-z
1/2-x,1/2+y,-z
-x,-y,-z
x,y,-z
1/2-x,1/2+y,z
1/2+x,1/2-y,z
loop_
_atom_site_type_symbol
_atom_site_label
_atom_site_fract_x
_atom_site_fract_y
_atom_site_fract_z
Si Si1 0.905225 0.040433 0.500000
Si Si2 0.167387 0.113193 0.700592
Si Si3 0.337564 0.971753 0.698540
Si Si4 0.000000 0.500000 0.168493
Si Si5 0.087616 0.591205 0.500000
Si Si6 0.553127 0.342383 0.892166
O O1 0.912308 0.224743 0.500000
O O2 0.864559 0.975721 0.601921
O O3 0.000000 0.000000 0.500000
O O4 0.178192 0.292611 0.674030
O O5 0.106812 0.125942 0.794424
O O6 0.253048 0.042496 0.735930
O O7 0.415747 0.999304 0.768868
O O8 0.362836 0.046510 0.596195
O O9 0.007043 0.326625 0.118334
O O10 0.000000 0.500000 0.500000
O O11 0.500000 0.500000 0.896535
O O12 0.596763 0.332426 0.000000
#
# Coordination Sequence:
#
# PCOD9428841 Si02
#       6
#     4   8   8   4   4   8
#     4  12  25  38  63  95 131 177 211 275 317 402
#     4  11  24  41  63  95 133 164 221 263 336 379
#     4  11  23  40  63  94 128 175 208 276 319 401
#     4  10  23  41  70  92 130 171 218 268 333 392
#     4  12  23  38  61  92 130 172 220 252 328 386
#     4  10  23  43  69  95 127 170 219 271 326 392
#
# _framework density 18.960204000000001
#
# number of rings (size 3 to 8) (size 9 to 14) (size 15 to 20)
#    0.000    1.111    1.111    5.000    9.333    0.000 
#    0.000    5.556    0.000    0.000    0.000    0.000 
#    0.000    0.000    0.000    0.000    0.000    0.000 
#
# Total GULP energy -200487.001765 kJ/mol
# GULP energy per Si atom -5569.083382 kJ/mol
# Density = 1.891705 g / cm^3
# Si number density = 18.960204 Si / 1000 Ang^3
#
#
#
# Elastic Constant Matrix: (Units=GPa)
#
#
# Indices 1 2 3 4 5 6 
#
# 1 91.9969 53.3927 30.2572 0.0000 0.0000 0.0000
# 2 53.3927 189.6500 56.0053 0.0000 0.0000 0.0000
# 3 30.2572 56.0053 106.6615 0.0000 0.0000 0.0000
# 4 0.0000 0.0000 0.0000 13.5435 0.0000 0.0000
# 5 0.0000 0.0000 0.0000 0.0000 0.9527 0.0000
# 6 0.0000 0.0000 0.0000 0.0000 0.0000 29.4650
#
#
#
# Elastic Compliance Matrix: (Units=1/GPa)
#
#
# Indices 1 2 3 4 5 6 
#
# 1 0.013398 -0.003136 -0.002154 0.000000 0.000000 0.000000
# 2 -0.003136 0.006975 -0.002773 0.000000 0.000000 0.000000
# 3 -0.002154 -0.002773 0.011442 0.000000 0.000000 0.000000
# 4 0.000000 0.000000 0.000000 0.073836 0.000000 0.000000
# 5 0.000000 0.000000 0.000000 0.000000 1.049636 0.000000
# 6 0.000000 0.000000 0.000000 0.000000 0.000000 0.033939
#
#
# Mechanical properties :
#
#
# Convention : Reuss Voigt Hill
#
# Bulk Modulus (GPa) = 63.73522 74.17987 68.95754
# Shear Modulus (GPa) = 4.13025 25.36913 14.74969
#
# Velocity S-wave (km/s) = 1.47753 3.66186 2.79216
# Velocity P-wave (km/s) = 6.04971 7.55565 6.84423
#
# Compressibility (1/GPa) = 0.01568991
#
# Stress axis : x y z
#
# Youngs Moduli (GPa) = 74.63544 143.37934 87.39473
#
# Poissons Ratio (x) = 0.44963 0.18827
# Poissons Ratio (y) = 0.23405 0.24231
# Poissons Ratio (z) = 0.16078 0.39753
#
# Static dielectric constant tensor:
#      x y z
#    x 1.495920 0.000000 0.000000 
#    y 0.000000 1.796630 0.000000 
#    z 0.000000 0.000000 1.662180 
# 
# From -- ./inp_files/18716.got.cif
#   From: 2010.05.17/outbox.cif.g08.bks.cpg/sg55_10_cif.got.tgz:18716.got - 2010.06.03 13:27:54.
