data_PCOD9428372
_publ_section_title
;
Structure prediction by ZEFSAII (Michael W. Deem and Ramdas Pophale) SiO2 
 PCOD9428372
Probable space group: P B A M
;
_chemical_formula_sum "Si O2"
_cell_formula_units_Z 48
_cell_length_a 18.530041
_cell_length_b 14.238141
_cell_length_c 7.840149
_cell_angle_alpha 90.000000
_cell_angle_beta 90.000000
_cell_angle_gamma 90.000000
_cell_volume 2068.492669
_symmetry_space_group_name_H-M "P B A M"
_symmetry_group_IT_number 55
_symmetry_cell_setting 'orthorhombic'
loop_
_space_group_symop_operation_xyz
x,y,z
-x,-y,z
1/2+x,1/2-y,-z
1/2-x,1/2+y,-z
-x,-y,-z
x,y,-z
1/2-x,1/2+y,z
1/2+x,1/2-y,z
loop_
_atom_site_type_symbol
_atom_site_label
_atom_site_fract_x
_atom_site_fract_y
_atom_site_fract_z
Si Si1 0.037474 0.354070 0.295932
Si Si2 0.835241 0.125605 0.695590
Si Si3 0.859679 0.921455 0.802042
Si Si4 0.774456 0.316433 0.300266
Si Si5 0.113003 0.533971 0.704396
Si Si6 0.495066 0.348979 0.803207
O O1 0.046777 0.339124 0.500000
O O2 0.097639 0.428315 0.232844
O O3 0.030423 0.254231 0.207679
O O4 0.960792 0.407190 0.273224
O O5 0.812146 0.111219 0.500000
O O6 0.793121 0.214385 0.772381
O O7 0.920131 0.151335 0.703898
O O8 0.828301 0.025351 0.783031
O O9 0.807614 0.847539 0.713078
O O10 0.941829 0.917092 0.737212
O O11 0.863096 0.896249 0.000000
O O12 0.795026 0.309215 0.500000
O O13 0.823106 0.401021 0.225849
O O14 0.123970 0.523353 0.500000
O O15 0.477315 0.373100 0.000000
#
# Coordination Sequence:
#
# PCOD9428372 Si02
#       6
#     8   8   8   8   8   8
#     4   9  16  31  58  87 116 152 194 244 298 351
#     4  11  23  42  69  93 116 154 207 259 305 357
#     4  11  26  43  59  87 127 165 201 245 304 369
#     4  10  21  40  64  91 120 155 204 255 304 361
#     4   8  15  31  56  86 118 150 192 246 299 349
#     4  11  23  39  59  87 125 163 202 250 302 363
#
# _framework density 23.205302
#
# number of rings (size 3 to 8) (size 9 to 14) (size 15 to 20)
#    0.000    2.000    1.667    3.000    0.000    7.333 
#    0.000    7.500    0.000    0.000    0.000    0.000 
#    0.000    0.000    0.000    0.000    0.000    0.000 
#
# Total GULP energy -268217.649988 kJ/mol
# GULP energy per Si atom -5587.867708 kJ/mol
# Density = 2.315249 g / cm^3
# Si number density = 23.205302 Si / 1000 Ang^3
#
#
#
# Elastic Constant Matrix: (Units=GPa)
#
#
# Indices 1 2 3 4 5 6 
#
# 1 58.4539 28.3378 -0.8988 0.0000 0.0000 0.0000
# 2 28.3378 108.0198 -0.5856 0.0000 0.0000 0.0000
# 3 -0.8988 -0.5856 30.4281 0.0000 0.0000 0.0000
# 4 0.0000 0.0000 0.0000 27.2339 0.0000 0.0000
# 5 0.0000 0.0000 0.0000 0.0000 22.5106 0.0000
# 6 0.0000 0.0000 0.0000 0.0000 0.0000 24.7028
#
#
#
# Elastic Compliance Matrix: (Units=1/GPa)
#
#
# Indices 1 2 3 4 5 6 
#
# 1 0.019607 -0.005141 0.000480 0.000000 0.000000 0.000000
# 2 -0.005141 0.010607 0.000052 0.000000 0.000000 0.000000
# 3 0.000480 0.000052 0.032880 0.000000 0.000000 0.000000
# 4 0.000000 0.000000 0.000000 0.036719 0.000000 0.000000
# 5 0.000000 0.000000 0.000000 0.000000 0.044423 0.000000
# 6 0.000000 0.000000 0.000000 0.000000 0.000000 0.040481
#
#
# Mechanical properties :
#
#
# Convention : Reuss Voigt Hill
#
# Bulk Modulus (GPa) = 18.56113 27.84540 23.20326
# Shear Modulus (GPa) = 23.59682 26.22602 24.91142
#
# Velocity S-wave (km/s) = 3.19230 3.36545 3.28002
# Velocity P-wave (km/s) = 4.64798 5.20839 4.93615
#
# Compressibility (1/GPa) = 0.05387604
#
# Stress axis : x y z
#
# Youngs Moduli (GPa) = 51.00152 94.28117 30.41407
#
# Poissons Ratio (x) = 0.48471 -0.01461
# Poissons Ratio (y) = 0.26221 -0.00159
# Poissons Ratio (z) = -0.02449 -0.00493
#
# Static dielectric constant tensor:
#      x y z
#    x 1.874440 0.000000 0.000000 
#    y 0.000000 1.892000 0.000000 
#    z 0.000000 0.000000 1.827230 
# 
# From -- ./inp_files/7430.got.cif
#   From: 2010.05.17/outbox.cif.g08.bks.cpg/sg55_4_cif.got.tgz:7430.got - 2010.06.03 13:27:54.
