data_PCOD9428166
_publ_section_title
;
Structure prediction by ZEFSAII (Michael W. Deem and Ramdas Pophale) SiO2 
 PCOD9428166
Probable space group: P B A M
;
_chemical_formula_sum "Si O2"
_cell_formula_units_Z 48
_cell_length_a 10.853903
_cell_length_b 11.934278
_cell_length_c 15.305330
_cell_angle_alpha 90.000000
_cell_angle_beta 90.000000
_cell_angle_gamma 90.000000
_cell_volume 1982.552899
_symmetry_space_group_name_H-M "P B A M"
_symmetry_group_IT_number 55
_symmetry_cell_setting 'orthorhombic'
loop_
_space_group_symop_operation_xyz
x,y,z
-x,-y,z
1/2+x,1/2-y,-z
1/2-x,1/2+y,-z
-x,-y,-z
x,y,-z
1/2-x,1/2+y,z
1/2+x,1/2-y,z
loop_
_atom_site_type_symbol
_atom_site_label
_atom_site_fract_x
_atom_site_fract_y
_atom_site_fract_z
Si Si1 0.267187 0.724434 0.903961
Si Si2 0.384948 0.935793 0.830236
Si Si3 0.421890 0.758577 0.326628
Si Si4 0.042732 0.852496 0.105339
Si Si5 0.666236 0.666152 0.600187
Si Si6 0.844228 0.980552 0.249136
O O1 0.316996 0.853391 0.897504
O O2 0.396281 0.663674 0.881512
O O3 0.128369 0.745465 0.869189
O O4 0.242911 0.680374 0.000000
O O5 0.417780 0.853559 0.748721
O O6 0.292525 0.028803 0.790668
O O7 0.500000 0.000000 0.868127
O O8 0.302904 0.783259 0.386683
O O9 0.554884 0.749620 0.372162
O O10 0.394225 0.635949 0.286280
O O11 0.094274 0.942851 0.173228
O O12 0.059239 0.873672 0.000000
O O13 0.648163 0.632800 0.500000
O O14 0.658973 0.562376 0.666840
#
# Coordination Sequence:
#
# PCOD9428166 Si02
#       6
#     8   8   8   8   8   8
#     4   9  18  33  56  87 123 165 213 265 320 375
#     4  10  21  38  61  88 121 163 210 257 313 378
#     4  11  23  42  65  91 127 166 208 261 321 382
#     4   9  18  36  62  94 132 173 218 269 325 385
#     4  11  24  41  65  95 126 165 212 263 322 386
#     4  10  22  39  63  94 129 167 212 264 321 385
#
# _framework density 24.211209
#
# number of rings (size 3 to 8) (size 9 to 14) (size 15 to 20)
#    0.000    2.000    0.000    3.000    0.000    5.000 
#    0.000    2.500    0.000   10.500    0.000    0.000 
#    0.000    0.000    0.000    0.000    0.000    0.000 
#
# Total GULP energy -267671.832560 kJ/mol
# GULP energy per Si atom -5576.496512 kJ/mol
# Density = 2.415610 g / cm^3
# Si number density = 24.211209 Si / 1000 Ang^3
#
#
#
# Elastic Constant Matrix: (Units=GPa)
#
#
# Indices 1 2 3 4 5 6 
#
# 1 109.1031 16.2941 3.9480 0.0000 0.0000 0.0000
# 2 16.2941 67.5996 5.5478 0.0000 0.0000 0.0000
# 3 3.9480 5.5478 118.0639 0.0000 0.0000 0.0000
# 4 0.0000 0.0000 0.0000 -40.7377 0.0000 0.0000
# 5 0.0000 0.0000 0.0000 0.0000 56.0582 0.0000
# 6 0.0000 0.0000 0.0000 0.0000 0.0000 47.0546
#
#
#
# Elastic Compliance Matrix: (Units=1/GPa)
#
#
# Indices 1 2 3 4 5 6 
#
# 1 0.009513 -0.002276 -0.000211 0.000000 0.000000 0.000000
# 2 -0.002276 0.015395 -0.000647 0.000000 0.000000 0.000000
# 3 -0.000211 -0.000647 0.008507 0.000000 0.000000 0.000000
# 4 0.000000 0.000000 0.000000 -0.024547 0.000000 0.000000
# 5 0.000000 0.000000 0.000000 0.000000 0.017839 0.000000
# 6 0.000000 0.000000 0.000000 0.000000 0.000000 0.021252
#
#
# Mechanical properties :
#
#
# Convention : Reuss Voigt Hill
#
# Bulk Modulus (GPa) = 36.83663 38.48296 37.65979
# Shear Modulus (GPa) = 79.01915 30.40680 54.71298
#
# Velocity S-wave (km/s) = 5.71911 3.54771 4.75891
# Velocity P-wave (km/s) = 7.67195 5.71934 6.76645
#
# Compressibility (1/GPa) = 0.02714689
#
# Stress axis : x y z
#
# Youngs Moduli (GPa) = 105.11765 64.95762 117.54375
#
# Poissons Ratio (x) = 0.14782 0.02482
# Poissons Ratio (y) = 0.23922 0.07609
# Poissons Ratio (z) = 0.02220 0.04205
#
# Static dielectric constant tensor:
#      x y z
#    x 2.101820 0.000000 0.000000 
#    y 0.000000 2.053910 0.000000 
#    z 0.000000 0.000000 1.920280 
# 
# From -- ./inp_files/18593.got.cif
#   From: 2010.05.17/outbox.cif.g08.bks.cpg/sg55_10_cif.got.tgz:18593.got - 2010.06.03 13:27:54.
