data_PCOD9428596
_publ_section_title
;
Structure prediction by ZEFSAII (Michael W. Deem and Ramdas Pophale) SiO2 
 PCOD9428596
Probable space group: P B A M
;
_chemical_formula_sum "Si O2"
_cell_formula_units_Z 64
_cell_length_a 23.895986
_cell_length_b 15.279132
_cell_length_c 9.349424
_cell_angle_alpha 90.000000
_cell_angle_beta 90.000000
_cell_angle_gamma 90.000000
_cell_volume 3413.567489
_symmetry_space_group_name_H-M "P B A M"
_symmetry_group_IT_number 55
_symmetry_cell_setting 'orthorhombic'
loop_
_space_group_symop_operation_xyz
x,y,z
-x,-y,z
1/2+x,1/2-y,-z
1/2-x,1/2+y,-z
-x,-y,-z
x,y,-z
1/2-x,1/2+y,z
1/2+x,1/2-y,z
loop_
_atom_site_type_symbol
_atom_site_label
_atom_site_fract_x
_atom_site_fract_y
_atom_site_fract_z
Si Si1 0.174829 0.266529 0.672352
Si Si2 0.871886 0.347631 0.664998
Si Si3 0.373542 0.331661 0.165677
Si Si4 0.457332 0.764700 0.330288
Si Si5 0.743582 0.407412 0.333600
Si Si6 0.250465 0.910055 0.167632
Si Si7 0.030047 0.907650 0.334351
Si Si8 0.469551 0.092455 0.164579
O O1 0.181985 0.276365 0.500000
O O2 0.108666 0.264430 0.704375
O O3 0.203659 0.173335 0.711670
O O4 0.205730 0.346914 0.750918
O O5 0.889142 0.343377 0.500000
O O6 0.880540 0.254949 0.740473
O O7 0.807062 0.372293 0.671699
O O8 0.911411 0.413386 0.750422
O O9 0.310094 0.364115 0.176977
O O10 0.417302 0.399826 0.230610
O O11 0.385822 0.314105 0.000000
O O12 0.462333 0.783768 0.500000
O O13 0.486440 0.670824 0.305272
O O14 0.491547 0.835948 0.241113
O O15 0.730149 0.428527 0.500000
O O16 0.743125 0.495023 0.239986
O O17 0.265600 0.918567 0.000000
O O18 0.048650 0.898453 0.500000
O O19 0.000000 0.000000 0.319120
O O20 0.500000 0.000000 0.168367
O O21 0.459429 0.117208 0.000000
#
# Coordination Sequence:
#
# PCOD9428596 Si02
#       8
#     8   8   8   8   8   8   8   8
#     4  10  22  42  64  89 123 161 205 253 300 360
#     4  11  22  40  66  92 118 155 206 260 306 354
#     4  11  23  40  62  90 123 161 204 252 306 364
#     4  10  22  40  62  90 122 159 204 251 299 354
#     4  10  23  41  65  93 120 158 205 252 305 360
#     4  11  25  41  61  91 126 162 202 249 306 367
#     4  10  22  39  63  93 122 159 203 250 305 359
#     4  11  25  42  61  89 125 164 202 246 305 366
#
# _framework density 18.748712999999999
#
# number of rings (size 3 to 8) (size 9 to 14) (size 15 to 20)
#    0.000    1.500    2.500    1.500    3.500    4.750 
#    0.000    0.000    0.000    0.000    0.000    0.000 
#    0.000    0.000    0.000    0.000    0.000    0.000 
#
# Total GULP energy -357585.136815 kJ/mol
# GULP energy per Si atom -5587.267763 kJ/mol
# Density = 1.870604 g / cm^3
# Si number density = 18.748713 Si / 1000 Ang^3
#
#
#
# Elastic Constant Matrix: (Units=GPa)
#
#
# Indices 1 2 3 4 5 6 
#
# 1 72.3791 0.2493 36.1327 0.0000 0.0000 0.0000
# 2 0.2493 66.7383 32.8973 0.0000 0.0000 0.0000
# 3 36.1327 32.8973 85.6461 0.0000 0.0000 0.0000
# 4 0.0000 0.0000 0.0000 35.2717 0.0000 0.0000
# 5 0.0000 0.0000 0.0000 0.0000 1005.4130 0.0000
# 6 0.0000 0.0000 0.0000 0.0000 0.0000 21.3372
#
#
#
# Elastic Compliance Matrix: (Units=1/GPa)
#
#
# Indices 1 2 3 4 5 6 
#
# 1 0.018621 0.004691 -0.009658 0.000000 0.000000 0.000000
# 2 0.004691 0.019665 -0.009533 0.000000 0.000000 0.000000
# 3 -0.009658 -0.009533 0.019412 0.000000 0.000000 0.000000
# 4 0.000000 0.000000 0.000000 0.028351 0.000000 0.000000
# 5 0.000000 0.000000 0.000000 0.000000 0.000995 0.000000
# 6 0.000000 0.000000 0.000000 0.000000 0.000000 0.046866
#
#
# Mechanical properties :
#
#
# Convention : Reuss Voigt Hill
#
# Bulk Modulus (GPa) = 34.84355 40.36912 37.60633
# Shear Modulus (GPa) = 28.98938 222.76998 125.87968
#
# Velocity S-wave (km/s) = 3.93645 10.91223 8.20282
# Velocity P-wave (km/s) = 6.26783 13.42935 10.47934
#
# Compressibility (1/GPa) = 0.02869972
#
# Stress axis : x y z
#
# Youngs Moduli (GPa) = 53.70176 50.85086 51.51428
#
# Poissons Ratio (x) = -0.23855 0.49752
# Poissons Ratio (y) = -0.25192 0.49107
# Poissons Ratio (z) = 0.51865 0.48475
#
# Static dielectric constant tensor:
#      x y z
#    x 1.642040 0.000000 0.000000 
#    y 0.000000 1.631100 0.000000 
#    z 0.000000 0.000000 1.642640 
# 
# From -- ./inp_files/6732.got.cif
#   From: 2010.05.17/outbox.cif.g08.bks.cpg/sg55_4_cif.got.tgz:6732.got - 2010.06.03 13:27:54.
