data_PCOD9428706
_publ_section_title
;
Structure prediction by ZEFSAII (Michael W. Deem and Ramdas Pophale) SiO2 
 PCOD9428706
Probable space group: P B A M
;
_chemical_formula_sum "Si O2"
_cell_formula_units_Z 48
_cell_length_a 18.731913
_cell_length_b 15.099020
_cell_length_c 8.678405
_cell_angle_alpha 90.000000
_cell_angle_beta 90.000000
_cell_angle_gamma 90.000000
_cell_volume 2454.543912
_symmetry_space_group_name_H-M "P B A M"
_symmetry_group_IT_number 55
_symmetry_cell_setting 'orthorhombic'
loop_
_space_group_symop_operation_xyz
x,y,z
-x,-y,z
1/2+x,1/2-y,-z
1/2-x,1/2+y,-z
-x,-y,-z
x,y,-z
1/2-x,1/2+y,z
1/2+x,1/2-y,z
loop_
_atom_site_type_symbol
_atom_site_label
_atom_site_fract_x
_atom_site_fract_y
_atom_site_fract_z
Si Si1 0.745789 0.196556 0.183278
Si Si2 0.513609 0.897185 0.817479
Si Si3 0.062996 0.066618 0.814923
Si Si4 0.407065 0.754934 0.681651
Si Si5 0.834107 0.351718 0.681287
Si Si6 0.724217 0.492132 0.815889
O O1 0.667529 0.229878 0.230797
O O2 0.803077 0.256745 0.270178
O O3 0.754919 0.093017 0.220167
O O4 0.755242 0.207732 0.000000
O O5 0.459938 0.834013 0.726475
O O6 0.594145 0.873050 0.773451
O O7 0.500000 0.000000 0.780878
O O8 0.501734 0.884651 0.000000
O O9 0.059660 0.161789 0.734890
O O10 0.141096 0.025884 0.782239
O O11 0.057713 0.079269 0.000000
O O12 0.000000 0.000000 0.768062
O O13 0.393401 0.753608 0.500000
O O14 0.848351 0.355167 0.500000
O O15 0.774113 0.423551 0.726964
O O16 0.734716 0.478459 0.000000
#
# Coordination Sequence:
#
# PCOD9428706 Si02
#       6
#     8   8   8   8   8   8
#     4  11  23  41  66  94 127 171 220 264 312 380
#     4  11  25  45  69  94 125 171 220 264 316 384
#     4  10  22  41  66  94 126 170 220 267 317 380
#     4  12  25  42  65  98 134 170 210 264 331 385
#     4  12  25  41  64  98 134 166 206 265 327 381
#     4  10  22  41  66  94 125 168 218 266 315 376
#
# _framework density 19.555568999999998
#
# number of rings (size 3 to 8) (size 9 to 14) (size 15 to 20)
#    0.000    1.000    1.667    5.000    2.333    7.000 
#    0.000    0.000    0.000    0.000    0.000    0.000 
#    0.000    0.000    0.000    0.000    0.000    0.000 
#
# Total GULP energy -268642.023895 kJ/mol
# GULP energy per Si atom -5596.708831 kJ/mol
# Density = 1.951106 g / cm^3
# Si number density = 19.555569 Si / 1000 Ang^3
#
#
#
# Elastic Constant Matrix: (Units=GPa)
#
#
# Indices 1 2 3 4 5 6 
#
# 1 38.2604 -13.4347 -15.0120 0.0000 0.0000 0.0000
# 2 -13.4347 81.9902 22.8741 0.0000 0.0000 0.0000
# 3 -15.0120 22.8741 24.1980 0.0000 0.0000 0.0000
# 4 0.0000 0.0000 0.0000 -11.2840 0.0000 0.0000
# 5 0.0000 0.0000 0.0000 0.0000 104.2794 0.0000
# 6 0.0000 0.0000 0.0000 0.0000 0.0000 35.7636
#
#
#
# Elastic Compliance Matrix: (Units=1/GPa)
#
#
# Indices 1 2 3 4 5 6 
#
# 1 0.034557 -0.000433 0.021848 0.000000 0.000000 0.000000
# 2 -0.000433 0.016571 -0.015932 0.000000 0.000000 0.000000
# 3 0.021848 -0.015932 0.069940 0.000000 0.000000 0.000000
# 4 0.000000 0.000000 0.000000 -0.088621 0.000000 0.000000
# 5 0.000000 0.000000 0.000000 0.000000 0.009590 0.000000
# 6 0.000000 0.000000 0.000000 0.000000 0.000000 0.027961
#
#
# Mechanical properties :
#
#
# Convention : Reuss Voigt Hill
#
# Bulk Modulus (GPa) = 7.57388 14.81148 11.19268
# Shear Modulus (GPa) = 48.52296 35.75320 42.13808
#
# Velocity S-wave (km/s) = 4.98665 4.28049 4.64700
# Velocity P-wave (km/s) = 6.08581 5.65867 5.87612
#
# Compressibility (1/GPa) = 0.13203267
#
# Stress axis : x y z
#
# Youngs Moduli (GPa) = 28.93771 60.34791 14.29793
#
# Poissons Ratio (x) = 0.02612 -0.31238
# Poissons Ratio (y) = 0.01252 0.22780
# Poissons Ratio (z) = -0.63222 0.96149
#
# Static dielectric constant tensor:
#      x y z
#    x 1.651380 0.000000 0.000000 
#    y 0.000000 1.657970 0.000000 
#    z 0.000000 0.000000 1.661340 
# 
# From -- ./inp_files/5671.got.cif
#   From: 2010.05.17/outbox.cif.g08.bks.cpg/sg55_3_cif.got.tgz:5671.got - 2010.06.03 13:27:54.
