data_PCOD9428007
_publ_section_title
;
Structure prediction by ZEFSAII (Michael W. Deem and Ramdas Pophale) SiO2 
 PCOD9428007
Probable space group: P B A M
;
_chemical_formula_sum "Si O2"
_cell_formula_units_Z 36
_cell_length_a 11.330692
_cell_length_b 4.884036
_cell_length_c 27.278034
_cell_angle_alpha 90.000000
_cell_angle_beta 90.000000
_cell_angle_gamma 90.000000
_cell_volume 1509.552971
_symmetry_space_group_name_H-M "P B A M"
_symmetry_group_IT_number 55
_symmetry_cell_setting 'orthorhombic'
loop_
_space_group_symop_operation_xyz
x,y,z
-x,-y,z
1/2+x,1/2-y,-z
1/2-x,1/2+y,-z
-x,-y,-z
x,y,-z
1/2-x,1/2+y,z
1/2+x,1/2-y,z
loop_
_atom_site_type_symbol
_atom_site_label
_atom_site_fract_x
_atom_site_fract_y
_atom_site_fract_z
Si Si1 0.500000 0.500000 0.679059
Si Si2 0.669730 0.686236 0.500000
Si Si3 0.334429 0.188708 0.606160
Si Si4 0.828347 0.907781 0.762615
Si Si5 0.174866 0.444186 0.000000
Si Si6 0.000000 0.000000 0.848534
Si Si7 0.500000 0.000000 0.914899
O O1 0.427218 0.289770 0.645770
O O2 0.590210 0.350870 0.715947
O O3 0.710630 0.372185 0.500000
O O4 0.612672 0.760471 0.551739
O O5 0.218837 0.386357 0.610375
O O6 0.785931 0.219901 0.760773
O O7 0.901233 0.875369 0.812463
O O8 0.099958 0.386795 0.048585
O O9 0.291166 0.261997 0.000000
O O10 0.044451 0.750450 0.881804
#
# Coordination Sequence:
#
# PCOD9428007 Si02
#       7
#     4   4   8   8   4   4   4
#     4  11  24  39  62  86 116 155 196 241 300 360
#     4   8  16  33  54  79 112 146 186 235 286 345
#     4  10  21  37  58  84 115 151 191 239 292 352
#     4  11  25  43  62  88 120 155 199 251 304 358
#     4  11  24  41  64  94 134 173 200 243 300 346
#     4  11  24  41  66  92 120 161 206 255 300 344
#     4  11  24  42  64  98 128 158 214 251 282 358
#
# _framework density 23.848120999999999
#
# number of rings (size 3 to 8) (size 9 to 14) (size 15 to 20)
#    0.000    1.556    0.000    4.000    0.000   12.889 
#    0.000    0.000    0.000    8.000    0.000    0.000 
#    0.000    0.000    0.000    0.000    0.000    0.000 
#
# Total GULP energy -201644.711128 kJ/mol
# GULP energy per Si atom -5601.241976 kJ/mol
# Density = 2.379384 g / cm^3
# Si number density = 23.848121 Si / 1000 Ang^3
#
#
#
# Elastic Constant Matrix: (Units=GPa)
#
#
# Indices 1 2 3 4 5 6 
#
# 1 53.1373 -6.2632 40.9191 0.0000 0.0000 0.0000
# 2 -6.2632 67.0313 16.7238 0.0000 0.0000 0.0000
# 3 40.9191 16.7238 167.1194 0.0000 0.0000 0.0000
# 4 0.0000 0.0000 0.0000 12.7290 0.0000 0.0000
# 5 0.0000 0.0000 0.0000 0.0000 7.5773 0.0000
# 6 0.0000 0.0000 0.0000 0.0000 0.0000 30.3463
#
#
#
# Elastic Compliance Matrix: (Units=1/GPa)
#
#
# Indices 1 2 3 4 5 6 
#
# 1 0.024110 0.003821 -0.006286 0.000000 0.000000 0.000000
# 2 0.003821 0.015906 -0.002527 0.000000 0.000000 0.000000
# 3 -0.006286 -0.002527 0.007776 0.000000 0.000000 0.000000
# 4 0.000000 0.000000 0.000000 0.078561 0.000000 0.000000
# 5 0.000000 0.000000 0.000000 0.000000 0.131973 0.000000
# 6 0.000000 0.000000 0.000000 0.000000 0.000000 0.032953
#
#
# Mechanical properties :
#
#
# Convention : Reuss Voigt Hill
#
# Bulk Modulus (GPa) = 26.44967 43.33857 34.89412
# Shear Modulus (GPa) = 15.93044 25.85776 20.89410
#
# Velocity S-wave (km/s) = 2.58736 3.29639 2.96316
# Velocity P-wave (km/s) = 4.47671 5.71843 5.13524
#
# Compressibility (1/GPa) = 0.03780765
#
# Stress axis : x y z
#
# Youngs Moduli (GPa) = 41.47671 62.86950 128.60588
#
# Poissons Ratio (x) = -0.24022 0.80837
# Poissons Ratio (y) = -0.15848 0.32502
# Poissons Ratio (z) = 0.26071 0.15889
#
# Static dielectric constant tensor:
#      x y z
#    x 1.886990 0.000000 0.000000 
#    y 0.000000 1.829690 0.000000 
#    z 0.000000 0.000000 1.877790 
# 
# From -- ./inp_files/23540.got.cif
#   From: 2010.05.17/outbox.cif.g08.bks.cpg/sg55_12_cif.got.tgz:23540.got - 2010.06.03 13:27:54.
