data_PCOD9428147
_publ_section_title
;
Structure prediction by ZEFSAII (Michael W. Deem and Ramdas Pophale) SiO2 
 PCOD9428147
Probable space group: P B A M
;
_chemical_formula_sum "Si O2"
_cell_formula_units_Z 48
_cell_length_a 8.104501
_cell_length_b 28.928650
_cell_length_c 9.808031
_cell_angle_alpha 90.000000
_cell_angle_beta 90.000000
_cell_angle_gamma 90.000000
_cell_volume 2299.515160
_symmetry_space_group_name_H-M "P B A M"
_symmetry_group_IT_number 55
_symmetry_cell_setting 'orthorhombic'
loop_
_space_group_symop_operation_xyz
x,y,z
-x,-y,z
1/2+x,1/2-y,-z
1/2-x,1/2+y,-z
-x,-y,-z
x,y,-z
1/2-x,1/2+y,z
1/2+x,1/2-y,z
loop_
_atom_site_type_symbol
_atom_site_label
_atom_site_fract_x
_atom_site_fract_y
_atom_site_fract_z
Si Si1 0.738271 0.472875 0.845223
Si Si2 0.746043 0.645741 0.342687
Si Si3 0.233932 0.680079 0.156362
Si Si4 0.619051 0.397145 0.657643
Si Si5 0.367968 0.777842 0.156479
Si Si6 0.894388 0.570307 0.154920
O O1 0.630799 0.445802 0.735925
O O2 0.772169 0.526976 0.821675
O O3 0.920930 0.449812 0.839280
O O4 0.675631 0.466758 0.000000
O O5 0.793738 0.651329 0.500000
O O6 0.564035 0.623973 0.336662
O O7 0.758645 0.693728 0.262310
O O8 0.862361 0.609885 0.262988
O O9 0.267949 0.639228 0.260644
O O10 0.356572 0.723140 0.180269
O O11 0.052458 0.702269 0.167742
O O12 0.254195 0.663236 0.000000
O O13 0.668322 0.401901 0.500000
O O14 0.310761 0.785209 0.000000
O O15 0.867855 0.587775 0.000000
#
# Coordination Sequence:
#
# PCOD9428147 Si02
#       6
#     8   8   8   8   8   8
#     4   9  19  37  60  84 109 140 182 230 277 326
#     4  11  24  38  53  79 115 151 185 223 270 324
#     4  10  21  38  61  86 110 140 181 227 274 325
#     4  11  24  38  53  79 115 151 185 223 270 324
#     4  10  21  38  61  86 110 140 181 227 274 325
#     4   9  19  37  60  84 109 140 182 230 277 326
#
# _framework density 20.873965999999999
#
# number of rings (size 3 to 8) (size 9 to 14) (size 15 to 20)
#    0.000    2.000    0.000    4.000    0.000   11.333 
#    0.000    5.000    0.000    0.000    0.000    0.000 
#    0.000    0.000    0.000    0.000    0.000    0.000 
#
# Total GULP energy -268444.178909 kJ/mol
# GULP energy per Si atom -5592.587061 kJ/mol
# Density = 2.082646 g / cm^3
# Si number density = 20.873966 Si / 1000 Ang^3
#
#
#
# Elastic Constant Matrix: (Units=GPa)
#
#
# Indices 1 2 3 4 5 6 
#
# 1 43.1511 6.5360 29.1667 0.0000 0.0000 0.0000
# 2 6.5360 61.2627 46.0169 0.0000 0.0000 0.0000
# 3 29.1667 46.0169 113.4286 0.0000 0.0000 0.0000
# 4 0.0000 0.0000 0.0000 8.3508 0.0000 0.0000
# 5 0.0000 0.0000 0.0000 0.0000 -23.4723 0.0000
# 6 0.0000 0.0000 0.0000 0.0000 0.0000 33.2645
#
#
#
# Elastic Compliance Matrix: (Units=1/GPa)
#
#
# Indices 1 2 3 4 5 6 
#
# 1 0.028577 0.003554 -0.008790 0.000000 0.000000 0.000000
# 2 0.003554 0.023919 -0.010618 0.000000 0.000000 0.000000
# 3 -0.008790 -0.010618 0.015384 0.000000 0.000000 0.000000
# 4 0.000000 0.000000 0.000000 0.119749 0.000000 0.000000
# 5 0.000000 0.000000 0.000000 0.000000 -0.042603 0.000000
# 6 0.000000 0.000000 0.000000 0.000000 0.000000 0.030062
#
#
# Mechanical properties :
#
#
# Convention : Reuss Voigt Hill
#
# Bulk Modulus (GPa) = 27.64518 42.36461 35.00490
# Shear Modulus (GPa) = 22.84630 12.70344 17.77487
#
# Velocity S-wave (km/s) = 3.31189 2.46961 2.92127
# Velocity P-wave (km/s) = 5.28180 5.33587 5.30890
#
# Compressibility (1/GPa) = 0.03617267
#
# Stress axis : x y z
#
# Youngs Moduli (GPa) = 34.99265 41.80713 65.00332
#
# Poissons Ratio (x) = -0.14857 0.57138
# Poissons Ratio (y) = -0.12435 0.69018
# Poissons Ratio (z) = 0.30759 0.44389
#
# Static dielectric constant tensor:
#      x y z
#    x 1.786860 0.000000 0.000000 
#    y 0.000000 1.732380 0.000000 
#    z 0.000000 0.000000 1.704960 
# 
# From -- ./inp_files/2809.got.cif
#   From: 2010.05.17/outbox.cif.g08.bks.cpg/sg55_2_cif.got.tgz:2809.got - 2010.06.03 13:27:54.
