data_PCOD9428051
_publ_section_title
;
Structure prediction by ZEFSAII (Michael W. Deem and Ramdas Pophale) SiO2 
 PCOD9428051
Probable space group: P B A M
;
_chemical_formula_sum "Si O2"
_cell_formula_units_Z 32
_cell_length_a 15.381659
_cell_length_b 9.567197
_cell_length_c 10.415736
_cell_angle_alpha 90.000000
_cell_angle_beta 90.000000
_cell_angle_gamma 90.000000
_cell_volume 1532.773063
_symmetry_space_group_name_H-M "P B A M"
_symmetry_group_IT_number 55
_symmetry_cell_setting 'orthorhombic'
loop_
_space_group_symop_operation_xyz
x,y,z
-x,-y,z
1/2+x,1/2-y,-z
1/2-x,1/2+y,-z
-x,-y,-z
x,y,-z
1/2-x,1/2+y,z
1/2+x,1/2-y,z
loop_
_atom_site_type_symbol
_atom_site_label
_atom_site_fract_x
_atom_site_fract_y
_atom_site_fract_z
Si Si1 0.404290 0.567881 0.145392
Si Si2 0.200484 0.903929 0.354168
Si Si3 0.107706 0.353813 0.265503
Si Si4 0.922560 0.361137 0.642460
O O1 0.500000 0.500000 0.172295
O O2 0.335405 0.512156 0.249475
O O3 0.402239 0.736506 0.156850
O O4 0.381548 0.525897 0.000000
O O5 0.195629 0.959637 0.500000
O O6 0.297058 0.849016 0.326117
O O7 0.137018 0.771880 0.342741
O O8 0.095673 0.521649 0.250004
O O9 0.023329 0.319772 0.351696
O O10 0.904274 0.421106 0.500000
#
# Coordination Sequence:
#
# PCOD9428051 Si02
#       4
#     8   8   8   8
#     4  11  25  46  66  92 133 179 221 266 321 387
#     4  11  23  40  68 101 128 168 218 270 331 390
#     4  11  21  39  64  91 129 172 211 267 322 387
#     4  10  21  37  60  95 134 167 207 272 332 382
#
# _framework density 20.877193999999999
#
# number of rings (size 3 to 8) (size 9 to 14) (size 15 to 20)
#    0.000    1.250    2.500    4.500    0.000    6.500 
#    0.000    3.750    0.000    0.000    0.000    0.000 
#    0.000    0.000    0.000    0.000    0.000    0.000 
#
# Total GULP energy -178350.046103 kJ/mol
# GULP energy per Si atom -5573.438941 kJ/mol
# Density = 2.082968 g / cm^3
# Si number density = 20.877194 Si / 1000 Ang^3
#
#
#
# Elastic Constant Matrix: (Units=GPa)
#
#
# Indices 1 2 3 4 5 6 
#
# 1 135.0137 29.0140 46.2080 0.0000 0.0000 0.0000
# 2 29.0140 62.3001 50.2424 0.0000 0.0000 0.0000
# 3 46.2080 50.2424 101.7587 0.0000 0.0000 0.0000
# 4 0.0000 0.0000 0.0000 24.9536 0.0000 0.0000
# 5 0.0000 0.0000 0.0000 0.0000 10.2936 0.0000
# 6 0.0000 0.0000 0.0000 0.0000 0.0000 33.4632
#
#
#
# Elastic Compliance Matrix: (Units=1/GPa)
#
#
# Indices 1 2 3 4 5 6 
#
# 1 0.008849 -0.001463 -0.003296 0.000000 0.000000 0.000000
# 2 -0.001463 0.026913 -0.012624 0.000000 0.000000 0.000000
# 3 -0.003296 -0.012624 0.017557 0.000000 0.000000 0.000000
# 4 0.000000 0.000000 0.000000 0.040074 0.000000 0.000000
# 5 0.000000 0.000000 0.000000 0.000000 0.097147 0.000000
# 6 0.000000 0.000000 0.000000 0.000000 0.000000 0.029884
#
#
# Mechanical properties :
#
#
# Convention : Reuss Voigt Hill
#
# Bulk Modulus (GPa) = 53.89838 61.11127 57.50482
# Shear Modulus (GPa) = 19.12963 25.31595 22.22279
#
# Velocity S-wave (km/s) = 3.03032 3.48604 3.26614
# Velocity P-wave (km/s) = 6.17387 6.74823 6.46743
#
# Compressibility (1/GPa) = 0.01855343
#
# Stress axis : x y z
#
# Youngs Moduli (GPa) = 113.00597 37.15632 56.95827
#
# Poissons Ratio (x) = 0.05436 0.18773
# Poissons Ratio (y) = 0.16534 0.71903
# Poissons Ratio (z) = 0.37246 0.46905
#
# Static dielectric constant tensor:
#      x y z
#    x 1.756920 0.000000 0.000000 
#    y 0.000000 1.796440 0.000000 
#    z 0.000000 0.000000 1.726300 
# 
# From -- ./inp_files/13750.got.cif
#   From: 2010.05.17/outbox.cif.g08.bks.cpg/sg55_7_cif.got.tgz:13750.got - 2010.06.03 13:27:54.
