data_PCOD9428057
_publ_section_title
;
Structure prediction by ZEFSAII (Michael W. Deem and Ramdas Pophale) SiO2 
 PCOD9428057
Probable space group: P B A M
;
_chemical_formula_sum "Si O2"
_cell_formula_units_Z 48
_cell_length_a 23.273945
_cell_length_b 12.215387
_cell_length_c 8.548469
_cell_angle_alpha 90.000000
_cell_angle_beta 90.000000
_cell_angle_gamma 90.000000
_cell_volume 2430.331833
_symmetry_space_group_name_H-M "P B A M"
_symmetry_group_IT_number 55
_symmetry_cell_setting 'orthorhombic'
loop_
_space_group_symop_operation_xyz
x,y,z
-x,-y,z
1/2+x,1/2-y,-z
1/2-x,1/2+y,-z
-x,-y,-z
x,y,-z
1/2-x,1/2+y,z
1/2+x,1/2-y,z
loop_
_atom_site_type_symbol
_atom_site_label
_atom_site_fract_x
_atom_site_fract_y
_atom_site_fract_z
Si Si1 0.066960 0.994869 0.810370
Si Si2 0.278414 0.123116 0.311791
Si Si3 0.560420 0.939763 0.179259
Si Si4 0.153881 0.182540 0.814809
Si Si5 0.110058 0.764756 0.311879
Si Si6 0.344373 0.918493 0.319209
O O1 0.098662 0.887137 0.745545
O O2 0.103285 0.101575 0.759666
O O3 0.067355 0.989723 0.000000
O O4 0.000000 0.000000 0.760843
O O5 0.280022 0.121321 0.500000
O O6 0.215561 0.153420 0.256531
O O7 0.328400 0.209800 0.263992
O O8 0.294409 0.999633 0.259092
O O9 0.562345 0.814333 0.233777
O O10 0.500000 0.000000 0.181589
O O11 0.600904 0.003527 0.299399
O O12 0.582597 0.946362 0.000000
O O13 0.143912 0.308662 0.773403
O O14 0.157524 0.170001 0.000000
O O15 0.106603 0.760480 0.500000
O O16 0.333378 0.890660 0.500000
#
# Coordination Sequence:
#
# PCOD9428057 Si02
#       6
#     8   8   8   8   8   8
#     4  10  24  44  62  86 125 168 208 253 310 368
#     4   9  21  41  62  88 121 158 196 248 312 364
#     4  10  21  37  61  89 120 158 197 245 302 355
#     4  11  24  39  62  92 121 159 204 252 304 366
#     4  10  22  40  63  91 121 158 204 252 305 363
#     4  10  22  40  61  88 122 157 198 249 303 361
#
# _framework density 19.750388000000001
#
# number of rings (size 3 to 8) (size 9 to 14) (size 15 to 20)
#    0.000    2.000    0.000    3.000    4.667    7.000 
#    0.000    0.000    0.000    0.000    0.000    0.000 
#    0.000    0.000    0.000    0.000    0.000    0.000 
#
# Total GULP energy -267863.313485 kJ/mol
# GULP energy per Si atom -5580.485698 kJ/mol
# Density = 1.970544 g / cm^3
# Si number density = 19.750388 Si / 1000 Ang^3
#
#
#
# Elastic Constant Matrix: (Units=GPa)
#
#
# Indices 1 2 3 4 5 6 
#
# 1 66.0062 37.1988 11.1229 0.0000 0.0000 0.0000
# 2 37.1988 135.2170 8.5096 0.0000 0.0000 0.0000
# 3 11.1229 8.5096 16.6726 0.0000 0.0000 0.0000
# 4 0.0000 0.0000 0.0000 30.4292 0.0000 0.0000
# 5 0.0000 0.0000 0.0000 0.0000 25.9754 0.0000
# 6 0.0000 0.0000 0.0000 0.0000 0.0000 9.7029
#
#
#
# Elastic Compliance Matrix: (Units=1/GPa)
#
#
# Indices 1 2 3 4 5 6 
#
# 1 0.019610 -0.004723 -0.010672 0.000000 0.000000 0.000000
# 2 -0.004723 0.008779 -0.001329 0.000000 0.000000 0.000000
# 3 -0.010672 -0.001329 0.067777 0.000000 0.000000 0.000000
# 4 0.000000 0.000000 0.000000 0.032863 0.000000 0.000000
# 5 0.000000 0.000000 0.000000 0.000000 0.038498 0.000000
# 6 0.000000 0.000000 0.000000 0.000000 0.000000 0.103062
#
#
# Mechanical properties :
#
#
# Convention : Reuss Voigt Hill
#
# Bulk Modulus (GPa) = 15.94486 36.83984 26.39235
# Shear Modulus (GPa) = 15.38727 23.95913 19.67320
#
# Velocity S-wave (km/s) = 2.79424 3.48673 3.15952
# Velocity P-wave (km/s) = 4.30129 5.90787 5.16740
#
# Compressibility (1/GPa) = 0.06271615
#
# Stress axis : x y z
#
# Youngs Moduli (GPa) = 50.99344 113.91360 14.75430
#
# Poissons Ratio (x) = 0.53805 0.15746
# Poissons Ratio (y) = 0.24086 0.01962
# Poissons Ratio (z) = 0.54421 0.15144
#
# Static dielectric constant tensor:
#      x y z
#    x 1.704610 0.000000 0.000000 
#    y 0.000000 1.717110 0.000000 
#    z 0.000000 0.000000 1.684110 
# 
# From -- ./inp_files/9433.got.cif
#   From: 2010.05.17/outbox.cif.g08.bks.cpg/sg55_5_cif.got.tgz:9433.got - 2010.06.03 13:27:54.
