data_PCOD9428806
_publ_section_title
;
Structure prediction by ZEFSAII (Michael W. Deem and Ramdas Pophale) SiO2 
 PCOD9428806
Probable space group: P B A M
;
_chemical_formula_sum "Si O2"
_cell_formula_units_Z 58
_cell_length_a 9.240359
_cell_length_b 26.916156
_cell_length_c 12.398987
_cell_angle_alpha 90.000000
_cell_angle_beta 90.000000
_cell_angle_gamma 90.000000
_cell_volume 3083.813362
_symmetry_space_group_name_H-M "P B A M"
_symmetry_group_IT_number 55
_symmetry_cell_setting 'orthorhombic'
loop_
_space_group_symop_operation_xyz
x,y,z
-x,-y,z
1/2+x,1/2-y,-z
1/2-x,1/2+y,-z
-x,-y,-z
x,y,-z
1/2-x,1/2+y,z
1/2+x,1/2-y,z
loop_
_atom_site_type_symbol
_atom_site_label
_atom_site_fract_x
_atom_site_fract_y
_atom_site_fract_z
Si Si1 0.423867 0.796580 0.121588
Si Si2 0.350948 0.347351 0.626934
Si Si3 0.814523 0.850383 0.372097
Si Si4 0.190664 0.743749 0.252379
Si Si5 0.864734 0.444570 0.705266
Si Si6 0.827849 0.004462 0.876197
Si Si7 0.660522 0.096749 0.798124
Si Si8 0.500000 0.000000 0.500000
O O1 0.283164 0.764782 0.152743
O O2 0.544698 0.780389 0.207322
O O3 0.385710 0.854428 0.136297
O O4 0.471262 0.786778 0.000000
O O5 0.320255 0.348978 0.500000
O O6 0.516942 0.363203 0.645863
O O7 0.335954 0.291246 0.671317
O O8 0.241949 0.382325 0.692172
O O9 0.792100 0.845303 0.500000
O O10 0.777889 0.798558 0.315089
O O11 0.711219 0.892877 0.326323
O O12 0.760106 0.472816 0.788401
O O13 0.898466 0.474744 0.596242
O O14 0.017225 0.432721 0.763040
O O15 0.769296 0.060467 0.860361
O O16 0.798522 0.988639 0.000000
O O17 0.000000 0.000000 0.858147
#
# Coordination Sequence:
#
# PCOD9428806 Si02
#       8
#     8   8   8   8   8   8   8   2
#     4  11  23  39  62  87 121 165 211 262 316 376
#     4  10  23  39  62  93 127 168 210 256 320 385
#     4  11  22  39  61  90 126 165 209 259 319 385
#     4  11  21  41  59  88 126 162 211 259 315 384
#     4  12  24  42  67  98 130 167 217 269 332 388
#     4  11  25  46  69  95 132 175 221 273 327 389
#     4  11  23  41  66  93 129 162 216 267 321 390
#     4  12  24  44  64 100 132 164 210 278 336 396
#
# _framework density 18.807880999999998
#
# number of rings (size 3 to 8) (size 9 to 14) (size 15 to 20)
#    0.000    0.966    4.828    2.069    0.966    1.655 
#    0.000    0.345    0.000    0.000    0.000    0.000 
#    0.000    0.000    0.000    0.000    0.000    0.000 
#
# Total GULP energy -323555.701870 kJ/mol
# GULP energy per Si atom -5578.546584 kJ/mol
# Density = 1.876507 g / cm^3
# Si number density = 18.807881 Si / 1000 Ang^3
#
#
#
# Elastic Constant Matrix: (Units=GPa)
#
#
# Indices 1 2 3 4 5 6 
#
# 1 95.4979 37.6026 48.6291 0.0000 0.0000 0.0000
# 2 37.6026 73.5180 34.4163 0.0000 0.0000 0.0000
# 3 48.6291 34.4163 102.4026 0.0000 0.0000 0.0000
# 4 0.0000 0.0000 0.0000 7.6065 0.0000 0.0000
# 5 0.0000 0.0000 0.0000 0.0000 24.6945 0.0000
# 6 0.0000 0.0000 0.0000 0.0000 0.0000 35.1526
#
#
#
# Elastic Compliance Matrix: (Units=1/GPa)
#
#
# Indices 1 2 3 4 5 6 
#
# 1 0.015359 -0.005270 -0.005522 0.000000 0.000000 0.000000
# 2 -0.005270 0.017950 -0.003530 0.000000 0.000000 0.000000
# 3 -0.005522 -0.003530 0.013574 0.000000 0.000000 0.000000
# 4 0.000000 0.000000 0.000000 0.131466 0.000000 0.000000
# 5 0.000000 0.000000 0.000000 0.000000 0.040495 0.000000
# 6 0.000000 0.000000 0.000000 0.000000 0.000000 0.028447
#
#
# Mechanical properties :
#
#
# Convention : Reuss Voigt Hill
#
# Bulk Modulus (GPa) = 54.83125 56.96828 55.89976
# Shear Modulus (GPa) = 17.72948 23.54210 20.63579
#
# Velocity S-wave (km/s) = 3.07361 3.54180 3.31598
# Velocity P-wave (km/s) = 6.46628 6.86157 6.66685
#
# Compressibility (1/GPa) = 0.01823778
#
# Stress axis : x y z
#
# Youngs Moduli (GPa) = 65.10969 55.70920 73.66916
#
# Poissons Ratio (x) = 0.29361 0.40682
# Poissons Ratio (y) = 0.34316 0.26006
# Poissons Ratio (z) = 0.35955 0.19666
#
# Static dielectric constant tensor:
#      x y z
#    x 1.646870 0.000000 0.000000 
#    y 0.000000 1.647800 0.000000 
#    z 0.000000 0.000000 1.612800 
# 
# From -- ./inp_files/12466.got.cif
#   From: 2010.05.17/outbox.cif.g08.bks.cpg/sg55_7_cif.got.tgz:12466.got - 2010.06.03 13:27:54.
