data_PCOD9428383
_publ_section_title
;
Structure prediction by ZEFSAII (Michael W. Deem and Ramdas Pophale) SiO2 
 PCOD9428383
Probable space group: P B A M
;
_chemical_formula_sum "Si O2"
_cell_formula_units_Z 32
_cell_length_a 14.742313
_cell_length_b 4.815807
_cell_length_c 19.256436
_cell_angle_alpha 90.000000
_cell_angle_beta 90.000000
_cell_angle_gamma 90.000000
_cell_volume 1367.132513
_symmetry_space_group_name_H-M "P B A M"
_symmetry_group_IT_number 55
_symmetry_cell_setting 'orthorhombic'
loop_
_space_group_symop_operation_xyz
x,y,z
-x,-y,z
1/2+x,1/2-y,-z
1/2-x,1/2+y,-z
-x,-y,-z
x,y,-z
1/2-x,1/2+y,z
1/2+x,1/2-y,z
loop_
_atom_site_type_symbol
_atom_site_label
_atom_site_fract_x
_atom_site_fract_y
_atom_site_fract_z
Si Si1 0.187603 0.190794 0.422663
Si Si2 0.566699 0.741964 0.921955
Si Si3 0.188091 0.616996 0.795657
Si Si4 0.557906 0.240300 0.301474
O O1 0.149564 0.142403 0.500000
O O2 0.222078 0.505422 0.416898
O O3 0.122802 0.129202 0.359221
O O4 0.500000 0.500000 0.894009
O O5 0.648846 0.838385 0.873113
O O6 0.500000 0.000000 0.927418
O O7 0.597085 0.659441 0.000000
O O8 0.276210 0.425964 0.780601
O O9 0.110130 0.453332 0.754211
O O10 0.500000 0.500000 0.272617
O O11 0.500000 0.000000 0.339388
#
# Coordination Sequence:
#
# PCOD9428383 Si02
#       4
#     8   8   8   8
#     4  10  21  40  65  92 126 166 210 266 333 398
#     4  10  22  42  67  95 129 167 209 263 328 391
#     4  12  25  41  64  93 129 170 217 271 325 389
#     4  12  25  41  63  91 128 171 220 274 328 391
#
# _framework density 23.406655000000001
#
# number of rings (size 3 to 8) (size 9 to 14) (size 15 to 20)
#    0.000    1.000    0.000    6.750    0.000    4.000 
#    0.000    0.000    0.000    0.000    0.000    0.000 
#    0.000    0.000    0.000    0.000    0.000    0.000 
#
# Total GULP energy -178663.828501 kJ/mol
# GULP energy per Si atom -5583.244641 kJ/mol
# Density = 2.335338 g / cm^3
# Si number density = 23.406655 Si / 1000 Ang^3
#
#
#
# Elastic Constant Matrix: (Units=GPa)
#
#
# Indices 1 2 3 4 5 6 
#
# 1 54.7796 20.0275 48.8465 0.0000 0.0000 0.0000
# 2 20.0275 124.4978 23.8799 0.0000 0.0000 0.0000
# 3 48.8465 23.8799 135.6790 0.0000 0.0000 0.0000
# 4 0.0000 0.0000 0.0000 29.0625 0.0000 0.0000
# 5 0.0000 0.0000 0.0000 0.0000 -169.8718 0.0000
# 6 0.0000 0.0000 0.0000 0.0000 0.0000 39.3459
#
#
#
# Elastic Compliance Matrix: (Units=1/GPa)
#
#
# Indices 1 2 3 4 5 6 
#
# 1 0.027695 -0.002632 -0.009507 0.000000 0.000000 0.000000
# 2 -0.002632 0.008563 -0.000560 0.000000 0.000000 0.000000
# 3 -0.009507 -0.000560 0.010892 0.000000 0.000000 0.000000
# 4 0.000000 0.000000 0.000000 0.034409 0.000000 0.000000
# 5 0.000000 0.000000 0.000000 0.000000 -0.005887 0.000000
# 6 0.000000 0.000000 0.000000 0.000000 0.000000 0.025416
#
#
# Mechanical properties :
#
#
# Convention : Reuss Voigt Hill
#
# Bulk Modulus (GPa) = 45.97260 55.60713 50.78986
# Shear Modulus (GPa) = 37.38745 -5.47921 15.95412
#
# Velocity S-wave (km/s) = 4.00096 -1.53165 2.61359
# Velocity P-wave (km/s) = 6.40523 4.54759 5.55462
#
# Compressibility (1/GPa) = 0.02175209
#
# Stress axis : x y z
#
# Youngs Moduli (GPa) = 36.10797 116.78209 91.81350
#
# Poissons Ratio (x) = 0.30732 0.87290
# Poissons Ratio (y) = 0.09502 0.05139
# Poissons Ratio (z) = 0.34329 0.06536
#
# Static dielectric constant tensor:
#      x y z
#    x 1.947460 0.000000 0.000000 
#    y 0.000000 1.694180 0.000000 
#    z 0.000000 0.000000 1.904160 
# 
# From -- ./inp_files/21405.got.cif
#   From: 2010.05.17/outbox.cif.g08.bks.cpg/sg55_11_cif.got.tgz:21405.got - 2010.06.03 13:27:54.
