data_PCOD9428403
_publ_section_title
;
Structure prediction by ZEFSAII (Michael W. Deem and Ramdas Pophale) SiO2 
 PCOD9428403
Probable space group: P B A M
;
_chemical_formula_sum "Si O2"
_cell_formula_units_Z 32
_cell_length_a 12.615298
_cell_length_b 4.989429
_cell_length_c 23.202438
_cell_angle_alpha 90.000000
_cell_angle_beta 90.000000
_cell_angle_gamma 90.000000
_cell_volume 1460.434157
_symmetry_space_group_name_H-M "P B A M"
_symmetry_group_IT_number 55
_symmetry_cell_setting 'orthorhombic'
loop_
_space_group_symop_operation_xyz
x,y,z
-x,-y,z
1/2+x,1/2-y,-z
1/2-x,1/2+y,-z
-x,-y,-z
x,y,-z
1/2-x,1/2+y,z
1/2+x,1/2-y,z
loop_
_atom_site_type_symbol
_atom_site_label
_atom_site_fract_x
_atom_site_fract_y
_atom_site_fract_z
Si Si1 0.325316 0.654550 0.000000
Si Si2 0.500000 0.000000 0.829603
Si Si3 0.575155 0.249200 0.500000
Si Si4 0.000000 0.000000 0.906550
Si Si5 0.186500 0.366029 0.619366
Si Si6 0.323511 0.767577 0.254909
O O1 0.402679 0.603086 0.054231
O O2 0.228028 0.445365 0.000000
O O3 0.461342 0.246992 0.869001
O O4 0.590321 0.134763 0.790330
O O5 0.500000 0.500000 0.500000
O O6 0.639047 0.227484 0.440816
O O7 0.500000 0.000000 0.500000
O O8 0.207130 0.683155 0.621200
O O9 0.131679 0.294736 0.679793
O O10 0.276726 0.470045 0.249104
#
# Coordination Sequence:
#
# PCOD9428403 Si02
#       6
#     4   4   4   4   8   8
#     4  11  24  45  70  96 134 175 208 263 314 366
#     4  12  24  41  66  95 136 170 208 276 304 372
#     4  12  24  36  58  94 116 150 206 266 320 390
#     4  11  26  42  64 104 130 167 222 252 316 377
#     4  10  21  41  61  81 118 161 202 256 318 381
#     4  10  23  41  62  91 124 169 216 257 319 382
#
# _framework density 21.911293000000001
#
# number of rings (size 3 to 8) (size 9 to 14) (size 15 to 20)
#    0.000    1.250    0.000    5.250    1.750    8.000 
#    2.250    0.000    0.000    0.000    0.000    0.000 
#    0.000    0.000    0.000    0.000    0.000    0.000 
#
# Total GULP energy -178837.884407 kJ/mol
# GULP energy per Si atom -5588.683888 kJ/mol
# Density = 2.186142 g / cm^3
# Si number density = 21.911293 Si / 1000 Ang^3
#
#
#
# Elastic Constant Matrix: (Units=GPa)
#
#
# Indices 1 2 3 4 5 6 
#
# 1 29.8415 -13.5414 22.2701 0.0000 0.0000 0.0000
# 2 -13.5414 97.6784 10.6157 0.0000 0.0000 0.0000
# 3 22.2701 10.6157 129.7470 0.0000 0.0000 0.0000
# 4 0.0000 0.0000 0.0000 -155.6175 0.0000 0.0000
# 5 0.0000 0.0000 0.0000 0.0000 17.5798 0.0000
# 6 0.0000 0.0000 0.0000 0.0000 0.0000 38.5071
#
#
#
# Elastic Compliance Matrix: (Units=1/GPa)
#
#
# Indices 1 2 3 4 5 6 
#
# 1 0.042407 0.006730 -0.007830 0.000000 0.000000 0.000000
# 2 0.006730 0.011398 -0.002088 0.000000 0.000000 0.000000
# 3 -0.007830 -0.002088 0.009222 0.000000 0.000000 0.000000
# 4 0.000000 0.000000 0.000000 -0.006426 0.000000 0.000000
# 5 0.000000 0.000000 0.000000 0.000000 0.056883 0.000000
# 6 0.000000 0.000000 0.000000 0.000000 0.000000 0.025969
#
#
# Mechanical properties :
#
#
# Convention : Reuss Voigt Hill
#
# Bulk Modulus (GPa) = 17.65156 32.88399 25.26778
# Shear Modulus (GPa) = 30.35599 -4.04463 13.15568
#
# Velocity S-wave (km/s) = 3.72614 -1.36012 2.45298
# Velocity P-wave (km/s) = 5.15612 3.54596 4.42489
#
# Compressibility (1/GPa) = 0.05665221
#
# Stress axis : x y z
#
# Youngs Moduli (GPa) = 23.58088 87.73815 108.43631
#
# Poissons Ratio (x) = -0.59047 0.84901
# Poissons Ratio (y) = -0.15870 0.22638
# Poissons Ratio (z) = 0.18463 0.18317
#
# Static dielectric constant tensor:
#      x y z
#    x 1.780960 0.000000 0.000000 
#    y 0.000000 1.762250 0.000000 
#    z 0.000000 0.000000 1.878630 
# 
# From -- ./inp_files/22797.got.cif
#   From: 2010.05.17/outbox.cif.g08.bks.cpg/sg55_12_cif.got.tgz:22797.got - 2010.06.03 13:27:54.
