data_PCOD9428285
_publ_section_title
;
Structure prediction by ZEFSAII (Michael W. Deem and Ramdas Pophale) SiO2 
 PCOD9428285
Probable space group: P B A M
;
_chemical_formula_sum "Si O2"
_cell_formula_units_Z 52
_cell_length_a 20.272967
_cell_length_b 15.445218
_cell_length_c 7.494166
_cell_angle_alpha 90.000000
_cell_angle_beta 90.000000
_cell_angle_gamma 90.000000
_cell_volume 2346.576217
_symmetry_space_group_name_H-M "P B A M"
_symmetry_group_IT_number 55
_symmetry_cell_setting 'orthorhombic'
loop_
_space_group_symop_operation_xyz
x,y,z
-x,-y,z
1/2+x,1/2-y,-z
1/2-x,1/2+y,-z
-x,-y,-z
x,y,-z
1/2-x,1/2+y,z
1/2+x,1/2-y,z
loop_
_atom_site_type_symbol
_atom_site_label
_atom_site_fract_x
_atom_site_fract_y
_atom_site_fract_z
Si Si1 0.491997 0.756318 0.710019
Si Si2 0.049980 0.925000 0.202205
Si Si3 0.944210 0.432301 0.715813
Si Si4 0.813906 0.889155 0.783844
Si Si5 0.119221 0.003914 0.500000
Si Si6 0.839895 0.700311 0.785981
Si Si7 0.303374 0.986523 0.208985
O O1 0.503400 0.745451 0.500000
O O2 0.512753 0.666234 0.796574
O O3 0.536129 0.836551 0.776561
O O4 0.415987 0.783780 0.734805
O O5 0.108726 0.930138 0.342071
O O6 0.069453 0.945986 0.000000
O O7 0.000000 0.000000 0.270806
O O8 0.945661 0.432038 0.500000
O O9 0.872920 0.465225 0.772297
O O10 0.000000 0.500000 0.776675
O O11 0.872613 0.922059 0.659070
O O12 0.801356 0.788390 0.742340
O O13 0.754905 0.952557 0.721834
O O14 0.824624 0.895031 0.000000
O O15 0.811877 0.609866 0.713300
O O16 0.839749 0.692605 0.000000
O O17 0.288376 0.977145 0.000000
#
# Coordination Sequence:
#
# PCOD9428285 Si02
#       7
#     8   8   8   8   4   8   8
#     4  11  22  38  63  97 132 173 219 273 336 403
#     4  11  24  41  63  97 138 172 216 275 327 392
#     4  10  21  39  62  96 132 163 210 277 338 399
#     4  10  24  44  64  96 133 172 226 280 324 388
#     4  12  23  42  66  92 124 181 222 265 321 394
#     4  10  21  39  65  94 127 171 224 272 329 398
#     4  10  22  42  66  93 131 173 220 277 335 399
#
# _framework density 22.159945
#
# number of rings (size 3 to 8) (size 9 to 14) (size 15 to 20)
#    0.000    1.538    2.308    2.077    4.308    4.000 
#    2.769    0.000    0.000    0.000    0.000    0.000 
#    0.000    0.000    0.000    0.000    0.000    0.000 
#
# Total GULP energy -289537.366645 kJ/mol
# GULP energy per Si atom -5568.026282 kJ/mol
# Density = 2.210951 g / cm^3
# Si number density = 22.159945 Si / 1000 Ang^3
#
#
#
# Elastic Constant Matrix: (Units=GPa)
#
#
# Indices 1 2 3 4 5 6 
#
# 1 48.0629 53.3943 6.7482 0.0000 0.0000 0.0000
# 2 53.3943 199.7194 18.0148 0.0000 0.0000 0.0000
# 3 6.7482 18.0148 89.8138 0.0000 0.0000 0.0000
# 4 0.0000 0.0000 0.0000 18.9236 0.0000 0.0000
# 5 0.0000 0.0000 0.0000 0.0000 25.7003 0.0000
# 6 0.0000 0.0000 0.0000 0.0000 0.0000 34.4526
#
#
#
# Elastic Compliance Matrix: (Units=1/GPa)
#
#
# Indices 1 2 3 4 5 6 
#
# 1 0.029633 -0.007864 -0.000649 0.000000 0.000000 0.000000
# 2 -0.007864 0.007186 -0.000851 0.000000 0.000000 0.000000
# 3 -0.000649 -0.000851 0.011354 0.000000 0.000000 0.000000
# 4 0.000000 0.000000 0.000000 0.052844 0.000000 0.000000
# 5 0.000000 0.000000 0.000000 0.000000 0.038910 0.000000
# 6 0.000000 0.000000 0.000000 0.000000 0.000000 0.029025
#
#
# Mechanical properties :
#
#
# Convention : Reuss Voigt Hill
#
# Bulk Modulus (GPa) = 33.96064 54.87895 44.41980
# Shear Modulus (GPa) = 25.31714 33.11124 29.21419
#
# Velocity S-wave (km/s) = 3.38372 3.86967 3.63482
# Velocity P-wave (km/s) = 5.53395 6.69212 6.14040
#
# Compressibility (1/GPa) = 0.02944585
#
# Stress axis : x y z
#
# Youngs Moduli (GPa) = 33.74582 139.15752 88.07837
#
# Poissons Ratio (x) = 1.09431 0.05718
# Poissons Ratio (y) = 0.26537 0.07491
# Poissons Ratio (z) = 0.02191 0.11836
#
# Static dielectric constant tensor:
#      x y z
#    x 1.884970 0.000000 0.000000 
#    y 0.000000 1.848540 0.000000 
#    z 0.000000 0.000000 1.839890 
# 
# From -- ./inp_files/8602.got.cif
#   From: 2010.05.17/outbox.cif.g08.bks.cpg/sg55_5_cif.got.tgz:8602.got - 2010.06.03 13:27:54.
