data_PCOD9428508
_publ_section_title
;
Structure prediction by ZEFSAII (Michael W. Deem and Ramdas Pophale) SiO2 
 PCOD9428508
Probable space group: P B A M
;
_chemical_formula_sum "Si O2"
_cell_formula_units_Z 58
_cell_length_a 25.986142
_cell_length_b 14.770604
_cell_length_c 7.687534
_cell_angle_alpha 90.000000
_cell_angle_beta 90.000000
_cell_angle_gamma 90.000000
_cell_volume 2950.713962
_symmetry_space_group_name_H-M "P B A M"
_symmetry_group_IT_number 55
_symmetry_cell_setting 'orthorhombic'
loop_
_space_group_symop_operation_xyz
x,y,z
-x,-y,z
1/2+x,1/2-y,-z
1/2-x,1/2+y,-z
-x,-y,-z
x,y,-z
1/2-x,1/2+y,z
1/2+x,1/2-y,z
loop_
_atom_site_type_symbol
_atom_site_label
_atom_site_fract_x
_atom_site_fract_y
_atom_site_fract_z
Si Si1 0.595741 0.257476 0.800145
Si Si2 0.117070 0.857022 0.709189
Si Si3 0.142346 0.054401 0.700149
Si Si4 0.998473 0.148929 0.698599
Si Si5 0.191408 0.350860 0.210283
Si Si6 0.790684 0.268865 0.706768
Si Si7 0.741237 0.964076 0.797570
Si Si8 0.500000 0.500000 0.000000
O O1 0.624959 0.354614 0.793400
O O2 0.541568 0.273829 0.708308
O O3 0.636793 0.186367 0.724636
O O4 0.585384 0.233812 0.000000
O O5 0.124853 0.864470 0.500000
O O6 0.162913 0.793880 0.775402
O O7 0.059938 0.820732 0.739328
O O8 0.120328 0.960414 0.776179
O O9 0.124846 0.063583 0.500000
O O10 0.203899 0.044692 0.704379
O O11 0.997737 0.112771 0.500000
O O12 0.011581 0.075714 0.845429
O O13 0.237043 0.282125 0.258849
O O14 0.208770 0.450472 0.268661
O O15 0.188187 0.351273 0.000000
O O16 0.796916 0.278322 0.500000
O O17 0.787948 0.369202 0.782524
O O18 0.753365 0.981208 0.000000
#
# Coordination Sequence:
#
# PCOD9428508 Si02
#       8
#     8   8   8   8   8   8   8   2
#     4  11  22  38  57  84 115 155 202 245 293 350
#     4   9  21  38  57  81 116 154 194 242 289 349
#     4  11  20  33  54  82 116 158 191 233 291 348
#     4  11  23  41  59  85 123 161 203 246 297 356
#     4  10  22  38  57  81 116 154 193 243 292 352
#     4  11  21  37  59  84 113 149 195 242 294 354
#     4  11  22  37  53  84 119 153 193 241 297 352
#     4  12  22  40  60  94 120 166 198 248 296 352
#
# _framework density 19.65626
#
# number of rings (size 3 to 8) (size 9 to 14) (size 15 to 20)
#    0.000    1.379    3.448    2.690    0.000    2.207 
#    3.724    0.000    0.000    0.828    0.000    5.793 
#    0.000    0.000    0.000    0.000    0.000    0.000 
#
# Total GULP energy -323530.850543 kJ/mol
# GULP energy per Si atom -5578.118113 kJ/mol
# Density = 1.961152 g / cm^3
# Si number density = 19.656260 Si / 1000 Ang^3
#
#
#
# Elastic Constant Matrix: (Units=GPa)
#
#
# Indices 1 2 3 4 5 6 
#
# 1 75.4915 7.8649 -2.5294 0.0000 0.0000 0.0000
# 2 7.8649 69.4599 -7.0635 0.0000 0.0000 0.0000
# 3 -2.5294 -7.0635 70.8114 0.0000 0.0000 0.0000
# 4 0.0000 0.0000 0.0000 19.5120 0.0000 0.0000
# 5 0.0000 0.0000 0.0000 0.0000 24.7424 0.0000
# 6 0.0000 0.0000 0.0000 0.0000 0.0000 25.0127
#
#
#
# Elastic Compliance Matrix: (Units=1/GPa)
#
#
# Indices 1 2 3 4 5 6 
#
# 1 0.013412 -0.001485 0.000331 0.000000 0.000000 0.000000
# 2 -0.001485 0.014709 0.001414 0.000000 0.000000 0.000000
# 3 0.000331 0.001414 0.014275 0.000000 0.000000 0.000000
# 4 0.000000 0.000000 0.000000 0.051251 0.000000 0.000000
# 5 0.000000 0.000000 0.000000 0.000000 0.040416 0.000000
# 6 0.000000 0.000000 0.000000 0.000000 0.000000 0.039980
#
#
# Mechanical properties :
#
#
# Convention : Reuss Voigt Hill
#
# Bulk Modulus (GPa) = 23.30122 23.58964 23.44543
# Shear Modulus (GPa) = 26.62012 28.35280 27.48646
#
# Velocity S-wave (km/s) = 3.68405 3.80206 3.74352
# Velocity P-wave (km/s) = 5.47507 5.59476 5.53524
#
# Compressibility (1/GPa) = 0.04291622
#
# Stress axis : x y z
#
# Youngs Moduli (GPa) = 74.55827 67.98676 70.05301
#
# Poissons Ratio (x) = 0.10096 -0.02319
# Poissons Ratio (y) = 0.11072 -0.09907
# Poissons Ratio (z) = -0.02468 -0.09614
#
# Static dielectric constant tensor:
#      x y z
#    x 1.716530 0.000000 0.000000 
#    y 0.000000 1.679610 0.000000 
#    z 0.000000 0.000000 1.712870 
# 
# From -- ./inp_files/10272.got.cif
#   From: 2010.05.17/outbox.cif.g08.bks.cpg/sg55_6_cif.got.tgz:10272.got - 2010.06.03 13:27:54.
