data_PCOD9428766
_publ_section_title
;
Structure prediction by ZEFSAII (Michael W. Deem and Ramdas Pophale) SiO2 
 PCOD9428766
Probable space group: P B A M
;
_chemical_formula_sum "Si O2"
_cell_formula_units_Z 64
_cell_length_a 31.281147
_cell_length_b 12.174670
_cell_length_c 8.410352
_cell_angle_alpha 90.000000
_cell_angle_beta 90.000000
_cell_angle_gamma 90.000000
_cell_volume 3202.978624
_symmetry_space_group_name_H-M "P B A M"
_symmetry_group_IT_number 55
_symmetry_cell_setting 'orthorhombic'
loop_
_space_group_symop_operation_xyz
x,y,z
-x,-y,z
1/2+x,1/2-y,-z
1/2-x,1/2+y,-z
-x,-y,-z
x,y,-z
1/2-x,1/2+y,z
1/2+x,1/2-y,z
loop_
_atom_site_type_symbol
_atom_site_label
_atom_site_fract_x
_atom_site_fract_y
_atom_site_fract_z
Si Si1 0.161907 0.499441 0.314478
Si Si2 0.950067 0.749237 0.810959
Si Si3 0.068663 0.499640 0.186132
Si Si4 0.126934 0.853777 0.693617
Si Si5 0.041281 0.728504 0.311320
Si Si6 0.303508 0.774575 0.185311
Si Si7 0.127513 0.107138 0.310457
Si Si8 0.710621 0.781615 0.308770
O O1 0.149824 0.513247 0.500000
O O2 0.119214 0.514316 0.212799
O O3 0.180847 0.379726 0.284322
O O4 0.196137 0.593598 0.276892
O O5 0.942061 0.623239 0.756829
O O6 0.916184 0.829367 0.729747
O O7 0.998976 0.775284 0.770611
O O8 0.942762 0.752635 0.000000
O O9 0.045470 0.599263 0.273663
O O10 0.057699 0.506587 0.000000
O O11 0.126540 0.850346 0.500000
O O12 0.084842 0.787337 0.745580
O O13 0.170816 0.794598 0.742195
O O14 0.125533 0.980612 0.742480
O O15 0.037582 0.744235 0.500000
O O16 0.333871 0.672921 0.229776
O O17 0.254662 0.748177 0.225693
O O18 0.308758 0.800516 0.000000
O O19 0.134289 0.108877 0.500000
O O20 0.716191 0.769640 0.500000
#
# Coordination Sequence:
#
# PCOD9428766 Si02
#       8
#     8   8   8   8   8   8   8   8
#     4  11  22  40  69  95 122 163 212 257 304 365
#     4  11  24  41  60  90 129 165 202 256 316 371
#     4  11  22  38  61  91 131 165 199 255 317 366
#     4   9  21  42  65  91 121 156 208 265 307 352
#     4  11  22  40  65  93 123 161 210 259 307 373
#     4  12  26  42  61  94 133 164 201 255 313 372
#     4  11  23  42  67  90 118 164 214 258 304 365
#     4  10  22  43  67  93 123 162 210 259 304 362
#
# _framework density 19.981401999999999
#
# number of rings (size 3 to 8) (size 9 to 14) (size 15 to 20)
#    0.000    1.250    2.500    3.375    1.750    4.500 
#    0.000    5.625    0.000    0.000    0.000    0.000 
#    0.000    0.000    0.000    0.000    0.000    0.000 
#
# Total GULP energy -357938.460892 kJ/mol
# GULP energy per Si atom -5592.788451 kJ/mol
# Density = 1.993592 g / cm^3
# Si number density = 19.981402 Si / 1000 Ang^3
#
#
#
# Elastic Constant Matrix: (Units=GPa)
#
#
# Indices 1 2 3 4 5 6 
#
# 1 92.5255 18.9472 -1.5411 0.0000 0.0000 0.0000
# 2 18.9472 101.7081 2.9695 0.0000 0.0000 0.0000
# 3 -1.5411 2.9695 17.5320 0.0000 0.0000 0.0000
# 4 0.0000 0.0000 0.0000 -20.5447 0.0000 0.0000
# 5 0.0000 0.0000 0.0000 0.0000 -3.1235 0.0000
# 6 0.0000 0.0000 0.0000 0.0000 0.0000 11.6945
#
#
#
# Elastic Compliance Matrix: (Units=1/GPa)
#
#
# Indices 1 2 3 4 5 6 
#
# 1 0.011268 -0.002139 0.001353 0.000000 0.000000 0.000000
# 2 -0.002139 0.010287 -0.001930 0.000000 0.000000 0.000000
# 3 0.001353 -0.001930 0.057484 0.000000 0.000000 0.000000
# 4 0.000000 0.000000 0.000000 -0.048674 0.000000 0.000000
# 5 0.000000 0.000000 0.000000 0.000000 -0.320149 0.000000
# 6 0.000000 0.000000 0.000000 0.000000 0.000000 0.085511
#
#
# Mechanical properties :
#
#
# Convention : Reuss Voigt Hill
#
# Bulk Modulus (GPa) = 13.58569 28.05743 20.82156
# Shear Modulus (GPa) = -28.68536 10.36458 -9.16039
#
# Velocity S-wave (km/s) = -3.79305 2.27999 -2.14346
# Velocity P-wave (km/s) = 3.51696 4.58295 2.07779
#
# Compressibility (1/GPa) = 0.07360686
#
# Stress axis : x y z
#
# Youngs Moduli (GPa) = 88.74443 97.21174 17.39607
#
# Poissons Ratio (x) = 0.20790 -0.02353
# Poissons Ratio (y) = 0.18979 0.03358
# Poissons Ratio (z) = -0.12005 0.18765
#
# Static dielectric constant tensor:
#      x y z
#    x 1.677780 0.000000 0.000000 
#    y 0.000000 1.683940 0.000000 
#    z 0.000000 0.000000 1.680440 
# 
# From -- ./inp_files/4525.got.cif
#   From: 2010.05.17/outbox.cif.g08.bks.cpg/sg55_3_cif.got.tgz:4525.got - 2010.06.03 13:27:54.
