data_PCOD9428060
_publ_section_title
;
Structure prediction by ZEFSAII (Michael W. Deem and Ramdas Pophale) SiO2 
 PCOD9428060
Probable space group: P B A M
;
_chemical_formula_sum "Si O2"
_cell_formula_units_Z 32
_cell_length_a 18.223647
_cell_length_b 7.493168
_cell_length_c 10.905226
_cell_angle_alpha 90.000000
_cell_angle_beta 90.000000
_cell_angle_gamma 90.000000
_cell_volume 1489.139674
_symmetry_space_group_name_H-M "P B A M"
_symmetry_group_IT_number 55
_symmetry_cell_setting 'orthorhombic'
loop_
_space_group_symop_operation_xyz
x,y,z
-x,-y,z
1/2+x,1/2-y,-z
1/2-x,1/2+y,-z
-x,-y,-z
x,y,-z
1/2-x,1/2+y,z
1/2+x,1/2-y,z
loop_
_atom_site_type_symbol
_atom_site_label
_atom_site_fract_x
_atom_site_fract_y
_atom_site_fract_z
Si Si1 0.462834 0.305933 0.132323
Si Si2 0.561671 0.238276 0.641340
Si Si3 0.158731 0.925220 0.715933
Si Si4 0.308243 0.041351 0.363074
O O1 0.500000 0.500000 0.124567
O O2 0.500448 0.221406 0.253016
O O3 0.378544 0.350941 0.160881
O O4 0.472777 0.215861 0.000000
O O5 0.534916 0.224746 0.500000
O O6 0.603305 0.428494 0.659084
O O7 0.624078 0.089266 0.661758
O O8 0.167473 0.745067 0.639244
O O9 0.238934 0.011470 0.724940
O O10 0.280952 0.997252 0.500000
#
# Coordination Sequence:
#
# PCOD9428060 Si02
#       4
#     8   8   8   8
#     4   9  21  42  63  84 117 158 199 242 289 344
#     4  10  21  37  61  91 118 151 193 240 294 347
#     4  11  21  36  59  86 120 159 190 237 292 349
#     4  11  21  34  57  91 124 151 189 242 295 347
#
# _framework density 21.488917000000001
#
# number of rings (size 3 to 8) (size 9 to 14) (size 15 to 20)
#    0.000    1.750    2.500    2.250    0.000    7.500 
#    0.000    7.500    0.000    0.000    0.000    0.000 
#    0.000    0.000    0.000    0.000    0.000    0.000 
#
# Total GULP energy -178590.571118 kJ/mol
# GULP energy per Si atom -5580.955347 kJ/mol
# Density = 2.144001 g / cm^3
# Si number density = 21.488917 Si / 1000 Ang^3
#
#
#
# Elastic Constant Matrix: (Units=GPa)
#
#
# Indices 1 2 3 4 5 6 
#
# 1 91.7073 34.2053 62.2456 0.0000 0.0000 0.0000
# 2 34.2053 108.4937 19.7714 0.0000 0.0000 0.0000
# 3 62.2456 19.7714 130.6186 0.0000 0.0000 0.0000
# 4 0.0000 0.0000 0.0000 -11.5015 0.0000 0.0000
# 5 0.0000 0.0000 0.0000 0.0000 -5.7618 0.0000
# 6 0.0000 0.0000 0.0000 0.0000 0.0000 29.3328
#
#
#
# Elastic Compliance Matrix: (Units=1/GPa)
#
#
# Indices 1 2 3 4 5 6 
#
# 1 0.017786 -0.004178 -0.007844 0.000000 0.000000 0.000000
# 2 -0.004178 0.010460 0.000408 0.000000 0.000000 0.000000
# 3 -0.007844 0.000408 0.011332 0.000000 0.000000 0.000000
# 4 0.000000 0.000000 0.000000 -0.086945 0.000000 0.000000
# 5 0.000000 0.000000 0.000000 0.000000 -0.173558 0.000000
# 6 0.000000 0.000000 0.000000 0.000000 0.000000 0.034092
#
#
# Mechanical properties :
#
#
# Convention : Reuss Voigt Hill
#
# Bulk Modulus (GPa) = 61.16033 62.58491 61.87262
# Shear Modulus (GPa) = -31.61452 16.72040 -7.44706
#
# Velocity S-wave (km/s) = -3.83979 2.79246 -1.86361
# Velocity P-wave (km/s) = 2.97733 6.29163 4.92185
#
# Compressibility (1/GPa) = 0.01635047
#
# Stress axis : x y z
#
# Youngs Moduli (GPa) = 56.22269 95.60141 88.24600
#
# Poissons Ratio (x) = 0.39944 0.69216
# Poissons Ratio (y) = 0.23491 -0.03599
# Poissons Ratio (z) = 0.44099 -0.03899
#
# Static dielectric constant tensor:
#      x y z
#    x 1.817300 0.000000 0.000000 
#    y 0.000000 1.775120 0.000000 
#    z 0.000000 0.000000 1.802180 
# 
# From -- ./inp_files/8311.got.cif
#   From: 2010.05.17/outbox.cif.g08.bks.cpg/sg55_5_cif.got.tgz:8311.got - 2010.06.03 13:27:54.
