data_PCOD9428203
_publ_section_title
;
Structure prediction by ZEFSAII (Michael W. Deem and Ramdas Pophale) SiO2 
 PCOD9428203
Probable space group: P B A M
;
_chemical_formula_sum "Si O2"
_cell_formula_units_Z 48
_cell_length_a 11.132344
_cell_length_b 23.781452
_cell_length_c 8.510263
_cell_angle_alpha 90.000000
_cell_angle_beta 90.000000
_cell_angle_gamma 90.000000
_cell_volume 2253.035149
_symmetry_space_group_name_H-M "P B A M"
_symmetry_group_IT_number 55
_symmetry_cell_setting 'orthorhombic'
loop_
_space_group_symop_operation_xyz
x,y,z
-x,-y,z
1/2+x,1/2-y,-z
1/2-x,1/2+y,-z
-x,-y,-z
x,y,-z
1/2-x,1/2+y,z
1/2+x,1/2-y,z
loop_
_atom_site_type_symbol
_atom_site_label
_atom_site_fract_x
_atom_site_fract_y
_atom_site_fract_z
Si Si1 0.421117 0.626463 0.814825
Si Si2 0.187793 0.687312 0.687132
Si Si3 0.693046 0.480474 0.683849
Si Si4 0.576294 0.918863 0.184788
Si Si5 0.805102 0.587730 0.813944
Si Si6 0.342284 0.317652 0.685535
O O1 0.319710 0.664117 0.729714
O O2 0.404018 0.562936 0.752200
O O3 0.548685 0.653445 0.777340
O O4 0.396976 0.626327 0.000000
O O5 0.168199 0.680844 0.500000
O O6 0.097439 0.647135 0.781852
O O7 0.174458 0.752601 0.728318
O O8 0.673222 0.488574 0.500000
O O9 0.820933 0.449464 0.715919
O O10 0.709601 0.540050 0.767523
O O11 0.439533 0.932950 0.225694
O O12 0.596193 0.931652 0.000000
O O13 0.773424 0.644879 0.725076
O O14 0.802044 0.597356 0.000000
O O15 0.367593 0.320688 0.500000
#
# Coordination Sequence:
#
# PCOD9428203 Si02
#       6
#     8   8   8   8   8   8
#     4  11  23  41  65  89 120 159 202 249 302 362
#     4  10  22  40  63  89 121 159 201 250 301 358
#     4  11  22  39  64  91 122 161 204 249 302 361
#     4  10  21  38  62  92 124 160 202 251 302 356
#     4  11  24  40  60  91 126 160 203 252 302 358
#     4  11  25  42  61  89 123 161 204 251 302 359
#
# _framework density 21.304594000000002
#
# number of rings (size 3 to 8) (size 9 to 14) (size 15 to 20)
#    0.000    1.333    0.000    7.500    2.333    8.000 
#    0.000    3.333    0.000    0.000    0.000    0.000 
#    0.000    0.000    0.000    0.000    0.000    0.000 
#
# Total GULP energy -268569.416053 kJ/mol
# GULP energy per Si atom -5595.196168 kJ/mol
# Density = 2.125610 g / cm^3
# Si number density = 21.304594 Si / 1000 Ang^3
#
#
#
# Elastic Constant Matrix: (Units=GPa)
#
#
# Indices 1 2 3 4 5 6 
#
# 1 46.7049 -13.7986 -8.3320 0.0000 0.0000 0.0000
# 2 -13.7986 81.0908 -8.1036 0.0000 0.0000 0.0000
# 3 -8.3320 -8.1036 36.2114 0.0000 0.0000 0.0000
# 4 0.0000 0.0000 0.0000 19.2644 0.0000 0.0000
# 5 0.0000 0.0000 0.0000 0.0000 30.1191 0.0000
# 6 0.0000 0.0000 0.0000 0.0000 0.0000 24.7875
#
#
#
# Elastic Compliance Matrix: (Units=1/GPa)
#
#
# Indices 1 2 3 4 5 6 
#
# 1 0.023985 0.004739 0.006579 0.000000 0.000000 0.000000
# 2 0.004739 0.013550 0.004123 0.000000 0.000000 0.000000
# 3 0.006579 0.004123 0.030052 0.000000 0.000000 0.000000
# 4 0.000000 0.000000 0.000000 0.051909 0.000000 0.000000
# 5 0.000000 0.000000 0.000000 0.000000 0.033202 0.000000
# 6 0.000000 0.000000 0.000000 0.000000 0.000000 0.040343
#
#
# Mechanical properties :
#
#
# Convention : Reuss Voigt Hill
#
# Bulk Modulus (GPa) = 10.15554 11.50430 10.82992
# Shear Modulus (GPa) = 25.64337 27.78362 26.71350
#
# Velocity S-wave (km/s) = 3.47314 3.61517 3.54486
# Velocity P-wave (km/s) = 4.56736 4.77887 4.67431
#
# Compressibility (1/GPa) = 0.09846845
#
# Stress axis : x y z
#
# Youngs Moduli (GPa) = 41.69314 73.79961 33.27559
#
# Poissons Ratio (x) = -0.34972 -0.21893
# Poissons Ratio (y) = -0.19757 -0.13719
# Poissons Ratio (z) = -0.27431 -0.30425
#
# Static dielectric constant tensor:
#      x y z
#    x 1.772680 0.000000 0.000000 
#    y 0.000000 1.773690 0.000000 
#    z 0.000000 0.000000 1.704600 
# 
# From -- ./inp_files/4091.got.cif
#   From: 2010.05.17/outbox.cif.g08.bks.cpg/sg55_3_cif.got.tgz:4091.got - 2010.06.03 13:27:54.
