data_PCOD9428038
_publ_section_title
;
Structure prediction by ZEFSAII (Michael W. Deem and Ramdas Pophale) SiO2 
 PCOD9428038
Probable space group: P B A M
;
_chemical_formula_sum "Si O2"
_cell_formula_units_Z 34
_cell_length_a 10.407434
_cell_length_b 4.840196
_cell_length_c 24.896931
_cell_angle_alpha 90.000000
_cell_angle_beta 90.000000
_cell_angle_gamma 90.000000
_cell_volume 1254.158511
_symmetry_space_group_name_H-M "P B A M"
_symmetry_group_IT_number 55
_symmetry_cell_setting 'orthorhombic'
loop_
_space_group_symop_operation_xyz
x,y,z
-x,-y,z
1/2+x,1/2-y,-z
1/2-x,1/2+y,-z
-x,-y,-z
x,y,-z
1/2-x,1/2+y,z
1/2+x,1/2-y,z
loop_
_atom_site_type_symbol
_atom_site_label
_atom_site_fract_x
_atom_site_fract_y
_atom_site_fract_z
Si Si1 0.500000 0.500000 0.409645
Si Si2 0.668973 0.777521 0.500000
Si Si3 0.000000 0.000000 0.000000
Si Si4 0.161773 0.176011 0.208817
Si Si5 0.157606 0.297752 0.907439
Si Si6 0.161629 0.318072 0.323594
O O1 0.593738 0.674869 0.447905
O O2 0.423043 0.710206 0.371880
O O3 0.801584 0.601361 0.500000
O O4 0.935973 0.800987 0.953342
O O5 0.207460 0.860802 0.208721
O O6 0.100437 0.249327 0.151990
O O7 0.099754 0.252189 0.265495
O O8 0.215116 0.603218 0.912516
O O9 0.208607 0.631279 0.325976
#
# Coordination Sequence:
#
# PCOD9428038 Si02
#       6
#     4   4   2   8   8   8
#     4  11  24  39  66  89 116 157 192 236 288 329
#     4  11  26  45  62  86 120 157 198 237 278 334
#     4  12  24  36  60  82 108 150 192 240 288 328
#     4   8  16  34  56  78 112 149 179 226 284 336
#     4  10  22  39  57  81 113 148 189 234 283 341
#     4  10  21  37  59  89 119 147 187 235 283 340
#
# _framework density 27.109811000000001
#
# number of rings (size 3 to 8) (size 9 to 14) (size 15 to 20)
#    0.000    2.118    0.000    2.118    0.000    7.529 
#    0.000    0.000    0.000   16.941    0.000    0.000 
#    0.000    0.000    0.000    0.000    0.000    0.000 
#
# Total GULP energy -190358.779410 kJ/mol
# GULP energy per Si atom -5598.787630 kJ/mol
# Density = 2.704811 g / cm^3
# Si number density = 27.109811 Si / 1000 Ang^3
#
#
#
# Elastic Constant Matrix: (Units=GPa)
#
#
# Indices 1 2 3 4 5 6 
#
# 1 73.6575 29.6558 55.3191 0.0000 0.0000 0.0000
# 2 29.6558 96.9230 14.1906 0.0000 0.0000 0.0000
# 3 55.3191 14.1906 257.3115 0.0000 0.0000 0.0000
# 4 0.0000 0.0000 0.0000 -101.7114 0.0000 0.0000
# 5 0.0000 0.0000 0.0000 0.0000 41.5075 0.0000
# 6 0.0000 0.0000 0.0000 0.0000 0.0000 52.8971
#
#
#
# Elastic Compliance Matrix: (Units=1/GPa)
#
#
# Indices 1 2 3 4 5 6 
#
# 1 0.018382 -0.005087 -0.003671 0.000000 0.000000 0.000000
# 2 -0.005087 0.011809 0.000442 0.000000 0.000000 0.000000
# 3 -0.003671 0.000442 0.004651 0.000000 0.000000 0.000000
# 4 0.000000 0.000000 0.000000 -0.009832 0.000000 0.000000
# 5 0.000000 0.000000 0.000000 0.000000 0.024092 0.000000
# 6 0.000000 0.000000 0.000000 0.000000 0.000000 0.018905
#
#
# Mechanical properties :
#
#
# Convention : Reuss Voigt Hill
#
# Bulk Modulus (GPa) = 54.91336 69.58033 62.24685
# Shear Modulus (GPa) = 55.12160 20.45374 37.78767
#
# Velocity S-wave (km/s) = 4.51407 2.74976 3.73751
# Velocity P-wave (km/s) = 6.88978 5.98359 6.45261
#
# Compressibility (1/GPa) = 0.01821050
#
# Stress axis : x y z
#
# Youngs Moduli (GPa) = 54.40216 84.68038 214.99664
#
# Poissons Ratio (x) = 0.43075 0.78932
# Poissons Ratio (y) = 0.27673 -0.09510
# Poissons Ratio (z) = 0.19973 -0.03746
#
# Static dielectric constant tensor:
#      x y z
#    x 2.106470 0.000000 0.000000 
#    y 0.000000 2.013320 0.000000 
#    z 0.000000 0.000000 2.059820 
# 
# From -- ./inp_files/23251.got.cif
#   From: 2010.05.17/outbox.cif.g08.bks.cpg/sg55_12_cif.got.tgz:23251.got - 2010.06.03 13:27:54.
