data_PCOD9428002
_publ_section_title
;
Structure prediction by ZEFSAII (Michael W. Deem and Ramdas Pophale) SiO2 
 PCOD9428002
Probable space group: P B A M
;
_chemical_formula_sum "Si O2"
_cell_formula_units_Z 52
_cell_length_a 17.082253
_cell_length_b 7.681767
_cell_length_c 17.160951
_cell_angle_alpha 90.000000
_cell_angle_beta 90.000000
_cell_angle_gamma 90.000000
_cell_volume 2251.892379
_symmetry_space_group_name_H-M "P B A M"
_symmetry_group_IT_number 55
_symmetry_cell_setting 'orthorhombic'
loop_
_space_group_symop_operation_xyz
x,y,z
-x,-y,z
1/2+x,1/2-y,-z
1/2-x,1/2+y,-z
-x,-y,-z
x,y,-z
1/2-x,1/2+y,z
1/2+x,1/2-y,z
loop_
_atom_site_type_symbol
_atom_site_label
_atom_site_fract_x
_atom_site_fract_y
_atom_site_fract_z
Si Si1 0.316987 0.042163 0.000000
Si Si2 0.085586 0.031532 0.845223
Si Si3 0.168724 0.734387 0.249168
Si Si4 0.279834 0.737347 0.113578
Si Si5 0.924431 0.609105 0.748794
Si Si6 0.128404 0.291452 0.413902
Si Si7 0.801790 0.097418 0.586995
O O1 0.298301 0.189189 0.066896
O O2 0.321990 0.893403 0.069124
O O3 0.161682 0.072870 0.897057
O O4 0.081329 0.213077 0.797046
O O5 0.108330 0.869961 0.790436
O O6 0.000000 0.000000 0.881234
O O7 0.250236 0.754443 0.202157
O O8 0.142738 0.535630 0.242008
O O9 0.174211 0.789176 0.339021
O O10 0.926113 0.661963 0.657986
O O11 0.000000 0.500000 0.772588
O O12 0.092850 0.308206 0.500000
O O13 0.207382 0.407012 0.410971
O O14 0.160646 0.093711 0.405133
O O15 0.822602 0.164647 0.500000
#
# Coordination Sequence:
#
# PCOD9428002 Si02
#       7
#     4   8   8   8   8   8   8
#     4  10  22  42  70 109 143 167 234 293 333 416
#     4  12  25  46  68 105 146 185 234 287 356 422
#     4  12  24  42  71 102 134 186 243 289 353 420
#     4  11  23  43  74 105 138 187 230 291 349 421
#     4  12  25  40  62  92 135 183 233 295 349 423
#     4  10  21  37  57  88 130 175 232 296 364 423
#     4  10  21  38  64  98 135 174 233 310 358 410
#
# _framework density 23.091688000000001
#
# number of rings (size 3 to 8) (size 9 to 14) (size 15 to 20)
#    0.000    0.923    4.615    2.769    2.154    2.154 
#    0.000    1.538    0.000    3.692    0.000    0.000 
#    0.000    0.000    0.000    0.000    0.000    0.000 
#
# Total GULP energy -289556.177523 kJ/mol
# GULP energy per Si atom -5568.388029 kJ/mol
# Density = 2.303913 g / cm^3
# Si number density = 23.091688 Si / 1000 Ang^3
#
#
#
# Elastic Constant Matrix: (Units=GPa)
#
#
# Indices 1 2 3 4 5 6 
#
# 1 49.5154 15.2711 4.9573 0.0000 0.0000 0.0000
# 2 15.2711 130.4844 37.8237 0.0000 0.0000 0.0000
# 3 4.9573 37.8237 93.2202 0.0000 0.0000 0.0000
# 4 0.0000 0.0000 0.0000 39.9091 0.0000 0.0000
# 5 0.0000 0.0000 0.0000 0.0000 143.6590 0.0000
# 6 0.0000 0.0000 0.0000 0.0000 0.0000 34.1059
#
#
#
# Elastic Compliance Matrix: (Units=1/GPa)
#
#
# Indices 1 2 3 4 5 6 
#
# 1 0.020953 -0.002413 -0.000135 0.000000 0.000000 0.000000
# 2 -0.002413 0.008963 -0.003508 0.000000 0.000000 0.000000
# 3 -0.000135 -0.003508 0.012158 0.000000 0.000000 0.000000
# 4 0.000000 0.000000 0.000000 0.025057 0.000000 0.000000
# 5 0.000000 0.000000 0.000000 0.000000 0.006961 0.000000
# 6 0.000000 0.000000 0.000000 0.000000 0.000000 0.029320
#
#
# Mechanical properties :
#
#
# Convention : Reuss Voigt Hill
#
# Bulk Modulus (GPa) = 33.37643 43.25823 38.31733
# Shear Modulus (GPa) = 39.83638 57.87934 48.85786
#
# Velocity S-wave (km/s) = 4.15799 5.01193 4.60479
# Velocity P-wave (km/s) = 6.12675 7.22956 6.70088
#
# Compressibility (1/GPa) = 0.02996126
#
# Stress axis : x y z
#
# Youngs Moduli (GPa) = 47.72478 111.56777 82.25028
#
# Poissons Ratio (x) = 0.26922 0.01112
# Poissons Ratio (y) = 0.11516 0.28857
# Poissons Ratio (z) = 0.00645 0.39143
#
# Static dielectric constant tensor:
#      x y z
#    x 1.976410 0.000000 0.000000 
#    y 0.000000 1.872220 0.000000 
#    z 0.000000 0.000000 1.858980 
# 
# From -- ./inp_files/21776.got.cif
#   From: 2010.05.17/outbox.cif.g08.bks.cpg/sg55_11_cif.got.tgz:21776.got - 2010.06.03 13:27:54.
