data_PCOD9428143
_publ_section_title
;
Structure prediction by ZEFSAII (Michael W. Deem and Ramdas Pophale) SiO2 
 PCOD9428143
Probable space group: P B A M
;
_chemical_formula_sum "Si O2"
_cell_formula_units_Z 44
_cell_length_a 14.632229
_cell_length_b 14.687455
_cell_length_c 10.556040
_cell_angle_alpha 90.000000
_cell_angle_beta 90.000000
_cell_angle_gamma 90.000000
_cell_volume 2268.600720
_symmetry_space_group_name_H-M "P B A M"
_symmetry_group_IT_number 55
_symmetry_cell_setting 'orthorhombic'
loop_
_space_group_symop_operation_xyz
x,y,z
-x,-y,z
1/2+x,1/2-y,-z
1/2-x,1/2+y,-z
-x,-y,-z
x,y,-z
1/2-x,1/2+y,z
1/2+x,1/2-y,z
loop_
_atom_site_type_symbol
_atom_site_label
_atom_site_fract_x
_atom_site_fract_y
_atom_site_fract_z
Si Si1 0.572610 0.581468 0.500000
Si Si2 0.287739 0.953346 0.500000
Si Si3 0.438011 0.093726 0.500000
Si Si4 0.330941 0.816630 0.272700
Si Si5 0.011627 0.760454 0.319235
Si Si6 0.376251 0.083720 0.000000
Si Si7 0.905397 0.619522 0.000000
Si Si8 0.339727 0.244935 0.140656
O O1 0.500000 0.500000 0.500000
O O2 0.677527 0.548114 0.500000
O O3 0.551866 0.650972 0.614202
O O4 0.321962 0.897762 0.374768
O O5 0.336605 0.051523 0.500000
O O6 0.457373 0.163792 0.616293
O O7 0.500000 0.000000 0.500000
O O8 0.402715 0.743552 0.326408
O O9 0.373749 0.839203 0.134227
O O10 0.230967 0.778942 0.243292
O O11 0.057266 0.763610 0.181949
O O12 0.485063 0.103734 0.000000
O O13 0.333634 0.136577 0.118984
O O14 0.359587 0.979276 0.000000
O O15 0.320949 0.283600 0.000000
#
# Coordination Sequence:
#
# PCOD9428143 Si02
#       8
#     4   4   4   8   8   4   4   8
#     4  11  26  49  62  90 127 179 222 270 315 408
#     4  12  25  38  67  96 131 161 219 264 340 378
#     4  11  23  39  63 104 133 161 204 284 336 402
#     4  12  22  40  65  95 126 176 210 272 317 397
#     4  11  23  42  68  91 135 166 219 269 339 379
#     4   9  21  36  60  99 126 168 210 267 317 389
#     4  11  21  36  66  93 132 164 212 263 329 379
#     4  10  21  38  60  92 128 168 212 261 317 388
#
# _framework density 19.395215
#
# number of rings (size 3 to 8) (size 9 to 14) (size 15 to 20)
#    0.545    0.545    6.364    0.545    2.545    1.455 
#    0.000    0.000    0.000    0.545    0.000    0.000 
#    0.000    0.000    0.000    0.000    0.000    0.000 
#
# Total GULP energy -244942.300815 kJ/mol
# GULP energy per Si atom -5566.870473 kJ/mol
# Density = 1.935107 g / cm^3
# Si number density = 19.395215 Si / 1000 Ang^3
#
#
#
# Elastic Constant Matrix: (Units=GPa)
#
#
# Indices 1 2 3 4 5 6 
#
# 1 105.6421 28.6695 19.7100 0.0000 0.0000 0.0000
# 2 28.6695 81.1383 17.0217 0.0000 0.0000 0.0000
# 3 19.7100 17.0217 72.7072 0.0000 0.0000 0.0000
# 4 0.0000 0.0000 0.0000 5.5641 0.0000 0.0000
# 5 0.0000 0.0000 0.0000 0.0000 9.7733 0.0000
# 6 0.0000 0.0000 0.0000 0.0000 0.0000 33.9919
#
#
#
# Elastic Compliance Matrix: (Units=1/GPa)
#
#
# Indices 1 2 3 4 5 6 
#
# 1 0.010776 -0.003360 -0.002135 0.000000 0.000000 0.000000
# 2 -0.003360 0.014009 -0.002369 0.000000 0.000000 0.000000
# 3 -0.002135 -0.002369 0.014887 0.000000 0.000000 0.000000
# 4 0.000000 0.000000 0.000000 0.179722 0.000000 0.000000
# 5 0.000000 0.000000 0.000000 0.000000 0.102320 0.000000
# 6 0.000000 0.000000 0.000000 0.000000 0.000000 0.029419
#
#
# Mechanical properties :
#
#
# Convention : Reuss Voigt Hill
#
# Bulk Modulus (GPa) = 41.76199 43.36555 42.56377
# Shear Modulus (GPa) = 13.33899 22.80497 18.07198
#
# Velocity S-wave (km/s) = 2.62534 3.43272 3.05581
# Velocity P-wave (km/s) = 5.54696 6.17405 5.86888
#
# Compressibility (1/GPa) = 0.02394522
#
# Stress axis : x y z
#
# Youngs Moduli (GPa) = 92.79893 71.38408 67.17250
#
# Poissons Ratio (x) = 0.23983 0.14339
# Poissons Ratio (y) = 0.31178 0.15912
# Poissons Ratio (z) = 0.19809 0.16910
#
# Static dielectric constant tensor:
#      x y z
#    x 1.692510 0.000000 0.000000 
#    y 0.000000 1.636940 0.000000 
#    z 0.000000 0.000000 1.828630 
# 
# From -- ./inp_files/14108.got.cif
#   From: 2010.05.17/outbox.cif.g08.bks.cpg/sg55_8_cif.got.tgz:14108.got - 2010.06.03 13:27:54.
