data_PCOD9428291
_publ_section_title
;
Structure prediction by ZEFSAII (Michael W. Deem and Ramdas Pophale) SiO2 
 PCOD9428291
Probable space group: P B A M
;
_chemical_formula_sum "Si O2"
_cell_formula_units_Z 48
_cell_length_a 18.937206
_cell_length_b 15.176626
_cell_length_c 9.043083
_cell_angle_alpha 90.000000
_cell_angle_beta 90.000000
_cell_angle_gamma 90.000000
_cell_volume 2599.008215
_symmetry_space_group_name_H-M "P B A M"
_symmetry_group_IT_number 55
_symmetry_cell_setting 'orthorhombic'
loop_
_space_group_symop_operation_xyz
x,y,z
-x,-y,z
1/2+x,1/2-y,-z
1/2-x,1/2+y,-z
-x,-y,-z
x,y,-z
1/2-x,1/2+y,z
1/2+x,1/2-y,z
loop_
_atom_site_type_symbol
_atom_site_label
_atom_site_fract_x
_atom_site_fract_y
_atom_site_fract_z
Si Si1 0.243612 0.307922 0.823429
Si Si2 0.415803 0.752440 0.822906
Si Si3 0.935748 0.935536 0.677934
Si Si4 0.514118 0.898674 0.322864
Si Si5 0.675616 0.847671 0.676557
Si Si6 0.280406 0.492806 0.322550
O O1 0.165726 0.272244 0.782107
O O2 0.300312 0.239506 0.760143
O O3 0.257050 0.403619 0.755712
O O4 0.247660 0.311942 0.000000
O O5 0.439181 0.659433 0.754173
O O6 0.463280 0.831139 0.759770
O O7 0.420871 0.748955 0.000000
O O8 0.937998 0.923208 0.500000
O O9 0.860469 0.979844 0.714926
O O10 0.000000 0.000000 0.719313
O O11 0.502316 0.891089 0.500000
O O12 0.595307 0.874320 0.292566
O O13 0.500000 0.000000 0.281087
O O14 0.682535 0.833303 0.500000
O O15 0.728006 0.927438 0.717401
O O16 0.276454 0.480639 0.500000
#
# Coordination Sequence:
#
# PCOD9428291 Si02
#       6
#     8   8   8   8   8   8
#     4  11  24  39  59  88 123 160 196 241 297 359
#     4  11  24  41  61  89 125 166 201 238 301 366
#     4  10  22  40  63  90 119 157 205 255 300 348
#     4  10  22  40  64  91 119 154 201 254 301 351
#     4  10  21  39  63  90 117 153 200 247 299 353
#     4  10  21  39  64  90 118 155 201 252 300 350
#
# _framework density 18.468582999999999
#
# number of rings (size 3 to 8) (size 9 to 14) (size 15 to 20)
#    0.000    1.667    1.667    2.000    2.333    6.000 
#    0.000    0.000    0.000    0.000    0.000    0.000 
#    0.000    0.000    0.000    0.000    0.000    0.000 
#
# Total GULP energy -268305.822271 kJ/mol
# GULP energy per Si atom -5589.704631 kJ/mol
# Density = 1.842655 g / cm^3
# Si number density = 18.468583 Si / 1000 Ang^3
#
#
#
# Elastic Constant Matrix: (Units=GPa)
#
#
# Indices 1 2 3 4 5 6 
#
# 1 68.2262 24.9215 26.7974 0.0000 0.0000 0.0000
# 2 24.9215 118.0106 34.5569 0.0000 0.0000 0.0000
# 3 26.7974 34.5569 18.7037 0.0000 0.0000 0.0000
# 4 0.0000 0.0000 0.0000 -51.7558 0.0000 0.0000
# 5 0.0000 0.0000 0.0000 0.0000 25.2835 0.0000
# 6 0.0000 0.0000 0.0000 0.0000 0.0000 37.8593
#
#
#
# Elastic Compliance Matrix: (Units=1/GPa)
#
#
# Indices 1 2 3 4 5 6 
#
# 1 0.053564 0.024317 -0.121671 0.000000 0.000000 0.000000
# 2 0.024317 0.029502 -0.089349 0.000000 0.000000 0.000000
# 3 -0.121671 -0.089349 0.392870 0.000000 0.000000 0.000000
# 4 0.000000 0.000000 0.000000 -0.019322 0.000000 0.000000
# 5 0.000000 0.000000 0.000000 0.000000 0.039551 0.000000
# 6 0.000000 0.000000 0.000000 0.000000 0.000000 0.026414
#
#
# Mechanical properties :
#
#
# Convention : Reuss Voigt Hill
#
# Bulk Modulus (GPa) = 9.75326 41.94357 25.84842
# Shear Modulus (GPa) = 5.37540 10.18839 7.78189
#
# Velocity S-wave (km/s) = 1.70789 2.35129 2.05493
# Velocity P-wave (km/s) = 3.03012 5.48922 4.43357
#
# Compressibility (1/GPa) = 0.10252982
#
# Stress axis : x y z
#
# Youngs Moduli (GPa) = 18.66932 33.89544 2.54537
#
# Poissons Ratio (x) = -0.82425 0.30970
# Poissons Ratio (y) = -0.45399 0.22743
# Poissons Ratio (z) = 2.27152 3.02853
#
# Static dielectric constant tensor:
#      x y z
#    x 1.622240 0.000000 0.000000 
#    y 0.000000 1.587980 0.000000 
#    z 0.000000 0.000000 1.616300 
# 
# From -- ./inp_files/5655.got.cif
#   From: 2010.05.17/outbox.cif.g08.bks.cpg/sg55_3_cif.got.tgz:5655.got - 2010.06.03 13:27:54.
