data_PCOD9428728
_publ_section_title
;
Structure prediction by ZEFSAII (Michael W. Deem and Ramdas Pophale) SiO2 
 PCOD9428728
Probable space group: P B A M
;
_chemical_formula_sum "Si O2"
_cell_formula_units_Z 52
_cell_length_a 7.494960
_cell_length_b 19.501013
_cell_length_c 16.867530
_cell_angle_alpha 90.000000
_cell_angle_beta 90.000000
_cell_angle_gamma 90.000000
_cell_volume 2465.346587
_symmetry_space_group_name_H-M "P B A M"
_symmetry_group_IT_number 55
_symmetry_cell_setting 'orthorhombic'
loop_
_space_group_symop_operation_xyz
x,y,z
-x,-y,z
1/2+x,1/2-y,-z
1/2-x,1/2+y,-z
-x,-y,-z
x,y,-z
1/2-x,1/2+y,z
1/2+x,1/2-y,z
loop_
_atom_site_type_symbol
_atom_site_label
_atom_site_fract_x
_atom_site_fract_y
_atom_site_fract_z
Si Si1 0.000000 0.500000 0.365296
Si Si2 0.726016 0.039997 0.500000
Si Si3 0.722297 0.865601 0.913138
Si Si4 0.367196 0.092629 0.753750
Si Si5 0.285854 0.824692 0.261011
Si Si6 0.396525 0.612965 0.500000
Si Si7 0.638365 0.225832 0.089848
Si Si8 0.096852 0.186660 0.332670
O O1 0.897650 0.551475 0.423705
O O2 0.851387 0.467102 0.309389
O O3 0.900379 0.085568 0.500000
O O4 0.782692 0.958491 0.500000
O O5 0.698665 0.918996 0.842627
O O6 0.876763 0.808549 0.904356
O O7 0.546663 0.816330 0.908511
O O8 0.732122 0.896961 0.000000
O O9 0.574609 0.113603 0.749164
O O10 0.248888 0.154653 0.722599
O O11 0.264344 0.796446 0.170936
O O12 0.383148 0.767560 0.316286
O O13 0.095532 0.837805 0.300740
O O14 0.370446 0.658807 0.578704
O O15 0.713183 0.213403 0.000000
#
# Coordination Sequence:
#
# PCOD9428728 Si02
#       8
#     4   4   8   8   8   4   8   8
#     4  11  22  42  65  82 106 154 201 246 290 341
#     4  10  22  42  64  81 107 141 202 253 278 323
#     4   9  17  29  49  80 116 147 185 230 279 340
#     4  11  22  38  59  85 115 153 198 235 290 340
#     4  11  21  37  57  85 124 154 181 235 292 353
#     4  11  24  40  58  87 113 144 191 245 286 346
#     4   9  16  28  49  78 112 150 185 224 273 333
#     4  12  22  38  57  84 117 151 184 236 295 353
#
# _framework density 21.092369999999999
#
# number of rings (size 3 to 8) (size 9 to 14) (size 15 to 20)
#    0.000    1.538    4.615    1.846    0.000    0.615 
#    0.000    1.923    0.000    0.000    0.000    0.000 
#    0.000    7.385    0.000    0.000    0.000    0.000 
#
# Total GULP energy -289957.848582 kJ/mol
# GULP energy per Si atom -5576.112473 kJ/mol
# Density = 2.104436 g / cm^3
# Si number density = 21.092370 Si / 1000 Ang^3
#
#
#
# Elastic Constant Matrix: (Units=GPa)
#
#
# Indices 1 2 3 4 5 6 
#
# 1 65.0479 -10.6093 7.0800 0.0000 0.0000 0.0000
# 2 -10.6093 22.5484 19.1082 0.0000 0.0000 0.0000
# 3 7.0800 19.1082 166.5929 0.0000 0.0000 0.0000
# 4 0.0000 0.0000 0.0000 24.3790 0.0000 0.0000
# 5 0.0000 0.0000 0.0000 0.0000 21.0178 0.0000
# 6 0.0000 0.0000 0.0000 0.0000 0.0000 14.9230
#
#
#
# Elastic Compliance Matrix: (Units=1/GPa)
#
#
# Indices 1 2 3 4 5 6 
#
# 1 0.017141 0.009617 -0.001832 0.000000 0.000000 0.000000
# 2 0.009617 0.054520 -0.006662 0.000000 0.000000 0.000000
# 3 -0.001832 -0.006662 0.006845 0.000000 0.000000 0.000000
# 4 0.000000 0.000000 0.000000 0.041019 0.000000 0.000000
# 5 0.000000 0.000000 0.000000 0.000000 0.047579 0.000000
# 6 0.000000 0.000000 0.000000 0.000000 0.000000 0.067011
#
#
# Mechanical properties :
#
#
# Convention : Reuss Voigt Hill
#
# Bulk Modulus (GPa) = 12.38347 31.70520 22.04434
# Shear Modulus (GPa) = 19.32109 27.97129 23.64619
#
# Velocity S-wave (km/s) = 3.02987 3.64556 3.35188
# Velocity P-wave (km/s) = 4.25722 5.72577 5.04521
#
# Compressibility (1/GPa) = 0.08075279
#
# Stress axis : x y z
#
# Youngs Moduli (GPa) = 58.33890 18.34197 146.09969
#
# Poissons Ratio (x) = -0.17640 0.26759
# Poissons Ratio (y) = -0.56106 0.97333
# Poissons Ratio (z) = 0.10685 0.12220
#
# Static dielectric constant tensor:
#      x y z
#    x 1.778100 0.000000 0.000000 
#    y 0.000000 1.780540 0.000000 
#    z 0.000000 0.000000 1.795130 
# 
# From -- ./inp_files/20964.got.cif
#   From: 2010.05.17/outbox.cif.g08.bks.cpg/sg55_11_cif.got.tgz:20964.got - 2010.06.03 13:27:54.
