data_PCOD9428299
_publ_section_title
;
Structure prediction by ZEFSAII (Michael W. Deem and Ramdas Pophale) SiO2 
 PCOD9428299
Probable space group: P B A M
;
_chemical_formula_sum "Si O2"
_cell_formula_units_Z 64
_cell_length_a 12.036458
_cell_length_b 31.061616
_cell_length_c 8.796793
_cell_angle_alpha 90.000000
_cell_angle_beta 90.000000
_cell_angle_gamma 90.000000
_cell_volume 3288.873153
_symmetry_space_group_name_H-M "P B A M"
_symmetry_group_IT_number 55
_symmetry_cell_setting 'orthorhombic'
loop_
_space_group_symop_operation_xyz
x,y,z
-x,-y,z
1/2+x,1/2-y,-z
1/2-x,1/2+y,-z
-x,-y,-z
x,y,-z
1/2-x,1/2+y,z
1/2+x,1/2-y,z
loop_
_atom_site_type_symbol
_atom_site_label
_atom_site_fract_x
_atom_site_fract_y
_atom_site_fract_z
Si Si1 0.601244 0.618982 0.181074
Si Si2 0.356804 0.628226 0.317937
Si Si3 0.240067 0.959599 0.680001
Si Si4 0.747281 0.694754 0.680243
Si Si5 0.470618 0.934079 0.176494
Si Si6 0.523727 0.169121 0.824342
Si Si7 0.778043 0.451128 0.182071
Si Si8 0.801100 0.293745 0.682251
O O1 0.476171 0.622938 0.241270
O O2 0.661797 0.577495 0.252680
O O3 0.669676 0.661052 0.232602
O O4 0.603451 0.615246 0.000000
O O5 0.367988 0.625134 0.500000
O O6 0.275875 0.590660 0.258365
O O7 0.300413 0.674177 0.281097
O O8 0.225767 0.962401 0.500000
O O9 0.366877 0.947113 0.721648
O O10 0.220313 0.005803 0.757159
O O11 0.729856 0.689108 0.500000
O O12 0.873697 0.684389 0.723216
O O13 0.722353 0.744219 0.720074
O O14 0.483820 0.882562 0.183724
O O15 0.590185 0.953396 0.218767
O O16 0.445682 0.945866 0.000000
O O17 0.409911 0.189480 0.766659
O O18 0.544611 0.180684 0.000000
O O19 0.768894 0.447695 0.000000
O O20 0.818944 0.296622 0.500000
#
# Coordination Sequence:
#
# PCOD9428299 Si02
#       8
#     8   8   8   8   8   8   8   8
#     4  12  26  45  66  92 126 168 213 264 321 378
#     4  11  24  44  67  94 127 166 213 264 314 378
#     4  12  25  41  65  96 127 166 213 262 313 378
#     4  11  24  43  66  95 129 171 215 262 318 376
#     4  10  21  39  63  94 132 167 205 257 316 373
#     4  11  22  39  66  98 131 167 210 262 317 373
#     4  11  23  42  66  94 130 169 208 259 317 377
#     4  10  24  43  66  94 130 170 211 259 316 376
#
# _framework density 19.459551999999999
#
# number of rings (size 3 to 8) (size 9 to 14) (size 15 to 20)
#    0.000    1.000    2.500    4.125    1.750    5.000 
#    0.000    2.500    0.000    0.000    0.000    0.000 
#    0.000    0.000    0.000    0.000    0.000    0.000 
#
# Total GULP energy -358104.664898 kJ/mol
# GULP energy per Si atom -5595.385389 kJ/mol
# Density = 1.941526 g / cm^3
# Si number density = 19.459552 Si / 1000 Ang^3
#
#
#
# Elastic Constant Matrix: (Units=GPa)
#
#
# Indices 1 2 3 4 5 6 
#
# 1 49.6517 -26.1438 4.9649 0.0000 0.0000 0.0000
# 2 -26.1438 32.8625 -5.7105 0.0000 0.0000 0.0000
# 3 4.9649 -5.7105 48.2119 0.0000 0.0000 0.0000
# 4 0.0000 0.0000 0.0000 32.4337 0.0000 0.0000
# 5 0.0000 0.0000 0.0000 0.0000 38.1904 0.0000
# 6 0.0000 0.0000 0.0000 0.0000 0.0000 -42.3496
#
#
#
# Elastic Compliance Matrix: (Units=1/GPa)
#
#
# Indices 1 2 3 4 5 6 
#
# 1 0.034663 0.027522 -0.000310 0.000000 0.000000 0.000000
# 2 0.027522 0.052922 0.003434 0.000000 0.000000 0.000000
# 3 -0.000310 0.003434 0.021180 0.000000 0.000000 0.000000
# 4 0.000000 0.000000 0.000000 0.030832 0.000000 0.000000
# 5 0.000000 0.000000 0.000000 0.000000 0.026185 0.000000
# 6 0.000000 0.000000 0.000000 0.000000 0.000000 -0.023613
#
#
# Mechanical properties :
#
#
# Convention : Reuss Voigt Hill
#
# Bulk Modulus (GPa) = 5.88030 8.54968 7.21499
# Shear Modulus (GPa) = 36.34728 16.16261 26.25495
#
# Velocity S-wave (km/s) = 4.32654 2.88510 3.67714
# Velocity P-wave (km/s) = 5.29027 3.93719 4.66307
#
# Compressibility (1/GPa) = 0.17005939
#
# Stress axis : x y z
#
# Youngs Moduli (GPa) = 28.84916 18.89571 47.21337
#
# Poissons Ratio (x) = -0.52006 0.01462
# Poissons Ratio (y) = -0.79400 -0.16214
# Poissons Ratio (z) = 0.00893 -0.06489
#
# Static dielectric constant tensor:
#      x y z
#    x 1.644950 0.000000 0.000000 
#    y 0.000000 1.672830 0.000000 
#    z 0.000000 0.000000 1.667980 
# 
# From -- ./inp_files/4532.got.cif
#   From: 2010.05.17/outbox.cif.g08.bks.cpg/sg55_3_cif.got.tgz:4532.got - 2010.06.03 13:27:54.
