data_PCOD9428121
_publ_section_title
;
Structure prediction by ZEFSAII (Michael W. Deem and Ramdas Pophale) SiO2 
 PCOD9428121
Probable space group: P B A M
;
_chemical_formula_sum "Si O2"
_cell_formula_units_Z 52
_cell_length_a 23.539886
_cell_length_b 5.069995
_cell_length_c 22.844455
_cell_angle_alpha 90.000000
_cell_angle_beta 90.000000
_cell_angle_gamma 90.000000
_cell_volume 2726.419554
_symmetry_space_group_name_H-M "P B A M"
_symmetry_group_IT_number 55
_symmetry_cell_setting 'orthorhombic'
loop_
_space_group_symop_operation_xyz
x,y,z
-x,-y,z
1/2+x,1/2-y,-z
1/2-x,1/2+y,-z
-x,-y,-z
x,y,-z
1/2-x,1/2+y,z
1/2+x,1/2-y,z
loop_
_atom_site_type_symbol
_atom_site_label
_atom_site_fract_x
_atom_site_fract_y
_atom_site_fract_z
Si Si1 0.789974 0.898099 0.931400
Si Si2 0.063815 0.592898 0.353421
Si Si3 0.366148 0.575286 0.615729
Si Si4 0.213238 0.915325 0.275996
Si Si5 0.937104 0.396586 0.213562
Si Si6 0.709561 0.439148 0.500000
Si Si7 0.371401 0.589595 0.825350
O O1 0.750809 0.150900 0.919805
O O2 0.843709 0.894754 0.889038
O O3 0.805895 0.896630 0.000000
O O4 0.084501 0.854739 0.386260
O O5 0.066115 0.648736 0.283593
O O6 0.000000 0.500000 0.367319
O O7 0.106258 0.354732 0.368303
O O8 0.324513 0.482106 0.667668
O O9 0.329803 0.588911 0.556913
O O10 0.233252 0.613679 0.276711
O O11 0.177100 0.985772 0.218832
O O12 0.920853 0.127111 0.181267
O O13 0.000000 0.500000 0.200212
O O14 0.893795 0.627605 0.195686
O O15 0.741736 0.717689 0.500000
#
# Coordination Sequence:
#
# PCOD9428121 Si02
#       7
#     8   8   8   8   8   4   8
#     4  10  21  38  59  85 121 162 198 236 289 353
#     4  11  22  41  64  90 119 153 195 247 302 352
#     4  12  23  42  62  88 118 158 196 242 290 357
#     4  12  22  34  54  85 117 145 185 242 289 336
#     4  11  22  38  60  88 120 155 195 242 302 356
#     4  12  26  46  65  86 119 166 200 232 286 366
#     4  12  21  37  59  89 118 152 200 242 299 345
#
# _framework density 19.072634999999998
#
# number of rings (size 3 to 8) (size 9 to 14) (size 15 to 20)
#    0.000    0.615    3.077    6.462    0.000    2.462 
#    0.000    2.308    0.000    2.769    0.000    0.000 
#    0.000    0.000    0.000    0.000    0.000    0.000 
#
# Total GULP energy -291043.276960 kJ/mol
# GULP energy per Si atom -5596.986095 kJ/mol
# Density = 1.902922 g / cm^3
# Si number density = 19.072635 Si / 1000 Ang^3
#
#
#
# Elastic Constant Matrix: (Units=GPa)
#
#
# Indices 1 2 3 4 5 6 
#
# 1 50.8077 -12.1551 31.7288 0.0000 0.0000 0.0000
# 2 -12.1551 55.3785 -13.6928 0.0000 0.0000 0.0000
# 3 31.7288 -13.6928 63.5437 0.0000 0.0000 0.0000
# 4 0.0000 0.0000 0.0000 9.6788 0.0000 0.0000
# 5 0.0000 0.0000 0.0000 0.0000 28.6129 0.0000
# 6 0.0000 0.0000 0.0000 0.0000 0.0000 12.8790
#
#
#
# Elastic Compliance Matrix: (Units=1/GPa)
#
#
# Indices 1 2 3 4 5 6 
#
# 1 0.029048 0.002946 -0.013870 0.000000 0.000000 0.000000
# 2 0.002946 0.019373 0.002703 0.000000 0.000000 0.000000
# 3 -0.013870 0.002703 0.023245 0.000000 0.000000 0.000000
# 4 0.000000 0.000000 0.000000 0.103318 0.000000 0.000000
# 5 0.000000 0.000000 0.000000 0.000000 0.034949 0.000000
# 6 0.000000 0.000000 0.000000 0.000000 0.000000 0.077646
#
#
# Mechanical properties :
#
#
# Convention : Reuss Voigt Hill
#
# Bulk Modulus (GPa) = 18.10723 20.16575 19.13649
# Shear Modulus (GPa) = 15.50736 21.15742 18.33239
#
# Velocity S-wave (km/s) = 2.85453 3.33424 3.10367
# Velocity P-wave (km/s) = 4.51430 5.04172 4.78528
#
# Compressibility (1/GPa) = 0.05522656
#
# Stress axis : x y z
#
# Youngs Moduli (GPa) = 34.42547 51.61909 43.01988
#
# Poissons Ratio (x) = -0.15209 0.59666
# Poissons Ratio (y) = -0.10143 -0.11630
# Poissons Ratio (z) = 0.47746 -0.13954
#
# Static dielectric constant tensor:
#      x y z
#    x 1.667850 0.000000 0.000000 
#    y 0.000000 1.657640 0.000000 
#    z 0.000000 0.000000 1.633660 
# 
# From -- ./inp_files/22356.got.cif
#   From: 2010.05.17/outbox.cif.g08.bks.cpg/sg55_12_cif.got.tgz:22356.got - 2010.06.03 13:27:54.
