data_PCOD9428274
_publ_section_title
;
Structure prediction by ZEFSAII (Michael W. Deem and Ramdas Pophale) SiO2 
 PCOD9428274
Probable space group: P B A M
;
_chemical_formula_sum "Si O2"
_cell_formula_units_Z 64
_cell_length_a 31.499623
_cell_length_b 12.252942
_cell_length_c 8.370447
_cell_angle_alpha 90.000000
_cell_angle_beta 90.000000
_cell_angle_gamma 90.000000
_cell_volume 3230.683284
_symmetry_space_group_name_H-M "P B A M"
_symmetry_group_IT_number 55
_symmetry_cell_setting 'orthorhombic'
loop_
_space_group_symop_operation_xyz
x,y,z
-x,-y,z
1/2+x,1/2-y,-z
1/2-x,1/2+y,-z
-x,-y,-z
x,y,-z
1/2-x,1/2+y,z
1/2+x,1/2-y,z
loop_
_atom_site_type_symbol
_atom_site_label
_atom_site_fract_x
_atom_site_fract_y
_atom_site_fract_z
Si Si1 0.162069 0.506771 0.313040
Si Si2 0.956779 0.726080 0.688020
Si Si3 0.068661 0.503228 0.188034
Si Si4 0.124295 0.901248 0.805160
Si Si5 0.047634 0.747533 0.192215
Si Si6 0.293290 0.796380 0.193426
Si Si7 0.126866 0.150846 0.807234
Si Si8 0.697788 0.764938 0.193399
O O1 0.151832 0.499532 0.500000
O O2 0.118851 0.487913 0.214987
O O3 0.195104 0.413306 0.265231
O O4 0.180405 0.624636 0.269808
O O5 0.957404 0.739691 0.500000
O O6 0.954695 0.597648 0.730301
O O7 0.914597 0.782645 0.755546
O O8 0.999803 0.775095 0.760451
O O9 0.057585 0.624231 0.249430
O O10 0.058753 0.498259 0.000000
O O11 0.083224 0.832478 0.750544
O O12 0.166489 0.834090 0.761893
O O13 0.124908 0.025967 0.749450
O O14 0.122959 0.903793 0.000000
O O15 0.050696 0.744565 0.000000
O O16 0.330287 0.712678 0.244655
O O17 0.246299 0.758111 0.238674
O O18 0.294391 0.804520 0.000000
O O19 0.127597 0.148951 0.000000
O O20 0.695803 0.776945 0.000000
#
# Coordination Sequence:
#
# PCOD9428274 Si02
#       8
#     8   8   8   8   8   8   8   8
#     4  12  24  38  61  92 131 167 197 243 308 366
#     4  12  25  39  58  88 124 160 198 247 307 371
#     4  11  21  39  65  91 120 156 204 253 301 354
#     4   9  19  38  63  90 118 152 203 257 299 347
#     4  10  21  39  63  89 118 155 199 253 305 357
#     4  10  22  38  65  94 121 160 208 255 295 348
#     4  10  21  39  62  88 118 158 206 254 300 352
#     4  10  21  40  66  95 122 156 206 255 297 353
#
# _framework density 19.81005
#
# number of rings (size 3 to 8) (size 9 to 14) (size 15 to 20)
#    0.000    1.500    2.500    3.000    1.750    3.500 
#    0.000    3.750    0.000    0.000    0.000    0.000 
#    0.000    0.000    0.000    0.000    0.000    0.000 
#
# Total GULP energy -357756.569007 kJ/mol
# GULP energy per Si atom -5589.946391 kJ/mol
# Density = 1.976496 g / cm^3
# Si number density = 19.810050 Si / 1000 Ang^3
#
#
#
# Elastic Constant Matrix: (Units=GPa)
#
#
# Indices 1 2 3 4 5 6 
#
# 1 102.4929 27.7406 5.2953 0.0000 0.0000 0.0000
# 2 27.7406 117.0802 13.7738 0.0000 0.0000 0.0000
# 3 5.2953 13.7738 6.1072 0.0000 0.0000 0.0000
# 4 0.0000 0.0000 0.0000 -14.1906 0.0000 0.0000
# 5 0.0000 0.0000 0.0000 0.0000 -16.3404 0.0000
# 6 0.0000 0.0000 0.0000 0.0000 0.0000 13.8361
#
#
#
# Elastic Compliance Matrix: (Units=1/GPa)
#
#
# Indices 1 2 3 4 5 6 
#
# 1 0.010526 -0.001933 -0.004767 0.000000 0.000000 0.000000
# 2 -0.001933 0.011981 -0.025345 0.000000 0.000000 0.000000
# 3 -0.004767 -0.025345 0.225034 0.000000 0.000000 0.000000
# 4 0.000000 0.000000 0.000000 -0.070469 0.000000 0.000000
# 5 0.000000 0.000000 0.000000 0.000000 -0.061198 0.000000
# 6 0.000000 0.000000 0.000000 0.000000 0.000000 0.072275
#
#
# Mechanical properties :
#
#
# Convention : Reuss Voigt Hill
#
# Bulk Modulus (GPa) = 5.45102 35.47776 20.46439
# Shear Modulus (GPa) = 15.95464 8.58572 12.27018
#
# Velocity S-wave (km/s) = 2.84100 2.08409 2.49146
# Velocity P-wave (km/s) = 3.67687 4.87228 4.31616
#
# Compressibility (1/GPa) = 0.18345206
#
# Stress axis : x y z
#
# Youngs Moduli (GPa) = 95.00005 83.46640 4.44377
#
# Poissons Ratio (x) = 0.16137 0.02118
# Poissons Ratio (y) = 0.18366 0.11263
# Poissons Ratio (z) = 0.45283 2.11542
#
# Static dielectric constant tensor:
#      x y z
#    x 1.683190 0.000000 0.000000 
#    y 0.000000 1.676430 0.000000 
#    z 0.000000 0.000000 1.675670 
# 
# From -- ./inp_files/10821.got.cif
#   From: 2010.05.17/outbox.cif.g08.bks.cpg/sg55_6_cif.got.tgz:10821.got - 2010.06.03 13:27:54.
