data_PCOD9428283
_publ_section_title
;
Structure prediction by ZEFSAII (Michael W. Deem and Ramdas Pophale) SiO2 
 PCOD9428283
Probable space group: P B A M
;
_chemical_formula_sum "Si O2"
_cell_formula_units_Z 40
_cell_length_a 7.315119
_cell_length_b 13.826732
_cell_length_c 14.835874
_cell_angle_alpha 90.000000
_cell_angle_beta 90.000000
_cell_angle_gamma 90.000000
_cell_volume 1500.562458
_symmetry_space_group_name_H-M "P B A M"
_symmetry_group_IT_number 55
_symmetry_cell_setting 'orthorhombic'
loop_
_space_group_symop_operation_xyz
x,y,z
-x,-y,z
1/2+x,1/2-y,-z
1/2-x,1/2+y,-z
-x,-y,-z
x,y,-z
1/2-x,1/2+y,z
1/2+x,1/2-y,z
loop_
_atom_site_type_symbol
_atom_site_label
_atom_site_fract_x
_atom_site_fract_y
_atom_site_fract_z
Si Si1 0.002918 0.797420 0.899855
Si Si2 0.548615 0.719583 0.695489
Si Si3 0.883056 0.411111 0.876976
Si Si4 0.301277 0.551746 0.306489
Si Si5 0.132352 0.383664 0.601075
O O1 0.096327 0.809815 0.799736
O O2 0.814140 0.859401 0.902618
O O3 0.984191 0.681193 0.890803
O O4 0.087661 0.815810 0.000000
O O5 0.357097 0.662726 0.682493
O O6 0.678137 0.672186 0.621653
O O7 0.496053 0.830147 0.673861
O O8 0.811591 0.458183 0.784313
O O9 0.000000 0.500000 0.914614
O O10 0.500000 0.500000 0.297849
O O11 0.189824 0.494532 0.382204
O O12 0.069856 0.366500 0.500000
#
# Coordination Sequence:
#
# PCOD9428283 Si02
#       5
#     8   8   8   8   8
#     4  11  24  43  70 104 140 186 243 295 355 433
#     4  10  21  39  62  92 131 173 223 287 348 409
#     4  11  24  44  72 103 142 187 235 295 360 424
#     4   9  21  40  65  95 131 178 229 284 347 418
#     4  11  22  38  63  94 130 175 226 281 347 422
#
# _framework density 26.656672
#
# number of rings (size 3 to 8) (size 9 to 14) (size 15 to 20)
#    0.000    1.600    0.000    4.800    0.000    9.200 
#    0.000    0.000    0.000   63.600    0.000    0.000 
#    0.000    0.000    0.000    0.000    0.000    0.000 
#
# Total GULP energy -222824.535288 kJ/mol
# GULP energy per Si atom -5570.613382 kJ/mol
# Density = 2.659600 g / cm^3
# Si number density = 26.656672 Si / 1000 Ang^3
#
#
#
# Elastic Constant Matrix: (Units=GPa)
#
#
# Indices 1 2 3 4 5 6 
#
# 1 81.8252 -34.4819 52.5868 0.0000 0.0000 0.0000
# 2 -34.4819 90.2601 20.7546 0.0000 0.0000 0.0000
# 3 52.5868 20.7546 162.6199 0.0000 0.0000 0.0000
# 4 0.0000 0.0000 0.0000 94.6772 0.0000 0.0000
# 5 0.0000 0.0000 0.0000 0.0000 -711.6234 0.0000
# 6 0.0000 0.0000 0.0000 0.0000 0.0000 36.7770
#
#
#
# Elastic Compliance Matrix: (Units=1/GPa)
#
#
# Indices 1 2 3 4 5 6 
#
# 1 0.022001 0.010345 -0.008435 0.000000 0.000000 0.000000
# 2 0.010345 0.016278 -0.005423 0.000000 0.000000 0.000000
# 3 -0.008435 -0.005423 0.009569 0.000000 0.000000 0.000000
# 4 0.000000 0.000000 0.000000 0.010562 0.000000 0.000000
# 5 0.000000 0.000000 0.000000 0.000000 -0.001405 0.000000
# 6 0.000000 0.000000 0.000000 0.000000 0.000000 0.027191
#
#
# Mechanical properties :
#
#
# Convention : Reuss Voigt Hill
#
# Bulk Modulus (GPa) = 24.49625 45.82491 35.16058
# Shear Modulus (GPa) = 47.69647 -96.31080 -24.30716
#
# Velocity S-wave (km/s) = 4.23459 -6.01735 -3.02298
# Velocity P-wave (km/s) = 5.75486 5.57225 1.01699
#
# Compressibility (1/GPa) = 0.04082257
#
# Stress axis : x y z
#
# Youngs Moduli (GPa) = 45.45166 61.43276 104.50411
#
# Poissons Ratio (x) = -0.63550 0.88148
# Poissons Ratio (y) = -0.47018 0.56669
# Poissons Ratio (z) = 0.38338 0.33313
#
# Static dielectric constant tensor:
#      x y z
#    x 2.161790 0.000000 0.000000 
#    y 0.000000 2.154350 0.000000 
#    z 0.000000 0.000000 2.035680 
# 
# From -- ./inp_files/17086.got.cif
#   From: 2010.05.17/outbox.cif.g08.bks.cpg/sg55_9_cif.got.tgz:17086.got - 2010.06.03 13:27:54.
