data_PCOD9428264
_publ_section_title
;
Structure prediction by ZEFSAII (Michael W. Deem and Ramdas Pophale) SiO2 
 PCOD9428264
Probable space group: P B A M
;
_chemical_formula_sum "Si O2"
_cell_formula_units_Z 56
_cell_length_a 15.072045
_cell_length_b 22.258663
_cell_length_c 8.736075
_cell_angle_alpha 90.000000
_cell_angle_beta 90.000000
_cell_angle_gamma 90.000000
_cell_volume 2930.809632
_symmetry_space_group_name_H-M "P B A M"
_symmetry_group_IT_number 55
_symmetry_cell_setting 'orthorhombic'
loop_
_space_group_symop_operation_xyz
x,y,z
-x,-y,z
1/2+x,1/2-y,-z
1/2-x,1/2+y,-z
-x,-y,-z
x,y,-z
1/2-x,1/2+y,z
1/2+x,1/2-y,z
loop_
_atom_site_type_symbol
_atom_site_label
_atom_site_fract_x
_atom_site_fract_y
_atom_site_fract_z
Si Si1 0.721677 0.512394 0.184791
Si Si2 0.579659 0.044067 0.185117
Si Si3 0.613975 0.751784 0.183579
Si Si4 0.582962 0.613748 0.815629
Si Si5 0.392285 0.595885 0.683047
Si Si6 0.551029 0.176295 0.683507
Si Si7 0.306197 0.723580 0.315588
O O1 0.823894 0.519228 0.232239
O O2 0.664974 0.571350 0.229171
O O3 0.672881 0.454931 0.253884
O O4 0.719341 0.507804 0.000000
O O5 0.565298 0.110171 0.251195
O O6 0.500000 0.000000 0.232121
O O7 0.579108 0.047822 0.000000
O O8 0.597039 0.682704 0.233174
O O9 0.538761 0.794125 0.253616
O O10 0.710787 0.771368 0.238806
O O11 0.609185 0.754181 0.000000
O O12 0.491033 0.589252 0.749019
O O13 0.577203 0.612919 0.000000
O O14 0.395950 0.592558 0.500000
O O15 0.355278 0.661676 0.726778
O O16 0.547452 0.174523 0.500000
O O17 0.631779 0.220404 0.728943
O O18 0.295995 0.724157 0.500000
#
# Coordination Sequence:
#
# PCOD9428264 Si02
#       7
#     8   8   8   8   8   8   8
#     4  10  22  40  61  87 124 162 204 257 309 359
#     4  10  23  43  65  91 124 162 209 260 307 361
#     4  11  23  38  64  94 121 159 207 255 306 365
#     4  10  21  39  61  89 122 160 201 251 309 364
#     4  11  23  39  60  89 124 160 203 251 304 369
#     4  11  23  42  65  91 127 165 202 251 310 370
#     4  10  23  41  60  88 126 165 202 251 310 366
#
# _framework density 19.10735
#
# number of rings (size 3 to 8) (size 9 to 14) (size 15 to 20)
#    0.000    1.571    1.429    2.571    2.000    7.143 
#    0.000    0.000    0.000    0.000    0.000    0.000 
#    0.000    0.000    0.000    0.000    0.000    0.000 
#
# Total GULP energy -313112.922678 kJ/mol
# GULP energy per Si atom -5591.302191 kJ/mol
# Density = 1.906386 g / cm^3
# Si number density = 19.107350 Si / 1000 Ang^3
#
#
#
# Elastic Constant Matrix: (Units=GPa)
#
#
# Indices 1 2 3 4 5 6 
#
# 1 149.4013 29.0611 19.2016 0.0000 0.0000 0.0000
# 2 29.0611 64.9796 7.1190 0.0000 0.0000 0.0000
# 3 19.2016 7.1190 6.0487 0.0000 0.0000 0.0000
# 4 0.0000 0.0000 0.0000 31.2125 0.0000 0.0000
# 5 0.0000 0.0000 0.0000 0.0000 13.8743 0.0000
# 6 0.0000 0.0000 0.0000 0.0000 0.0000 26.9360
#
#
#
# Elastic Compliance Matrix: (Units=1/GPa)
#
#
# Indices 1 2 3 4 5 6 
#
# 1 0.011401 -0.001302 -0.034662 0.000000 0.000000 0.000000
# 2 -0.001302 0.017816 -0.016837 0.000000 0.000000 0.000000
# 3 -0.034662 -0.016837 0.295179 0.000000 0.000000 0.000000
# 4 0.000000 0.000000 0.000000 0.032038 0.000000 0.000000
# 5 0.000000 0.000000 0.000000 0.000000 0.072076 0.000000
# 6 0.000000 0.000000 0.000000 0.000000 0.000000 0.037125
#
#
# Mechanical properties :
#
#
# Convention : Reuss Voigt Hill
#
# Bulk Modulus (GPa) = 4.57050 36.79923 20.68486
# Shear Modulus (GPa) = 7.76193 25.40776 16.58485
#
# Velocity S-wave (km/s) = 2.01770 3.65051 2.94935
# Velocity P-wave (km/s) = 2.79738 6.08846 4.73786
#
# Compressibility (1/GPa) = 0.21879454
#
# Stress axis : x y z
#
# Youngs Moduli (GPa) = 87.70778 56.12873 3.38778
#
# Poissons Ratio (x) = 0.07306 0.11743
# Poissons Ratio (y) = 0.11416 0.05704
# Poissons Ratio (z) = 3.04016 0.94504
#
# Static dielectric constant tensor:
#      x y z
#    x 1.637360 0.000000 0.000000 
#    y 0.000000 1.642430 0.000000 
#    z 0.000000 0.000000 1.640800 
# 
# From -- ./inp_files/6135.got.cif
#   From: 2010.05.17/outbox.cif.g08.bks.cpg/sg55_4_cif.got.tgz:6135.got - 2010.06.03 13:27:54.
