data_PCOD9428815
_publ_section_title
;
Structure prediction by ZEFSAII (Michael W. Deem and Ramdas Pophale) SiO2 
 PCOD9428815
Probable space group: P B A M
;
_chemical_formula_sum "Si O2"
_cell_formula_units_Z 44
_cell_length_a 17.251914
_cell_length_b 12.964087
_cell_length_c 7.567758
_cell_angle_alpha 90.000000
_cell_angle_beta 90.000000
_cell_angle_gamma 90.000000
_cell_volume 1692.569292
_symmetry_space_group_name_H-M "P B A M"
_symmetry_group_IT_number 55
_symmetry_cell_setting 'orthorhombic'
loop_
_space_group_symop_operation_xyz
x,y,z
-x,-y,z
1/2+x,1/2-y,-z
1/2-x,1/2+y,-z
-x,-y,-z
x,y,-z
1/2-x,1/2+y,z
1/2+x,1/2-y,z
loop_
_atom_site_type_symbol
_atom_site_label
_atom_site_fract_x
_atom_site_fract_y
_atom_site_fract_z
Si Si1 0.016881 0.842827 0.206872
Si Si2 0.971778 0.389965 0.705023
Si Si3 0.308157 0.805997 0.306975
Si Si4 0.352025 0.590480 0.196594
Si Si5 0.649943 0.659349 0.500000
Si Si6 0.689183 0.966137 0.791998
O O1 0.939097 0.903533 0.265042
O O2 0.002552 0.718056 0.213585
O O3 0.085662 0.861547 0.343150
O O4 0.031313 0.866890 0.000000
O O5 0.994582 0.388256 0.500000
O O6 0.877753 0.395904 0.710832
O O7 0.000000 0.500000 0.782314
O O8 0.155070 0.286392 0.500000
O O9 0.327496 0.710145 0.188296
O O10 0.217232 0.814248 0.348964
O O11 0.334696 0.915783 0.236226
O O12 0.275802 0.543740 0.289815
O O13 0.355129 0.545381 0.000000
O O14 0.692869 0.942508 0.000000
#
# Coordination Sequence:
#
# PCOD9428815 Si02
#       6
#     8   8   8   8   4   8
#     4  11  23  42  65  94 133 174 225 275 334 401
#     4  11  23  38  62  97 137 172 216 277 341 406
#     4  10  23  40  61  95 128 170 217 274 333 395
#     4  10  23  41  67  96 129 177 222 278 334 395
#     4  10  24  42  62  94 121 170 218 264 335 378
#     4  11  23  41  66  96 131 173 224 273 332 401
#
# _framework density 25.995981
#
# number of rings (size 3 to 8) (size 9 to 14) (size 15 to 20)
#    0.545    0.909    0.909    3.818    1.273    8.000 
#    0.000    1.818    0.000    3.273    0.000    0.000 
#    0.000    0.000    0.000    0.000    0.000    0.000 
#
# Total GULP energy -245129.065287 kJ/mol
# GULP energy per Si atom -5571.115120 kJ/mol
# Density = 2.593681 g / cm^3
# Si number density = 25.995981 Si / 1000 Ang^3
#
#
#
# Elastic Constant Matrix: (Units=GPa)
#
#
# Indices 1 2 3 4 5 6 
#
# 1 141.5243 13.1556 29.0345 0.0000 0.0000 0.0000
# 2 13.1556 113.0458 -4.9611 0.0000 0.0000 0.0000
# 3 29.0345 -4.9611 121.1154 0.0000 0.0000 0.0000
# 4 0.0000 0.0000 0.0000 10.1775 0.0000 0.0000
# 5 0.0000 0.0000 0.0000 0.0000 18.2932 0.0000
# 6 0.0000 0.0000 0.0000 0.0000 0.0000 34.9081
#
#
#
# Elastic Compliance Matrix: (Units=1/GPa)
#
#
# Indices 1 2 3 4 5 6 
#
# 1 0.007534 -0.000958 -0.001845 0.000000 0.000000 0.000000
# 2 -0.000958 0.008984 0.000598 0.000000 0.000000 0.000000
# 3 -0.001845 0.000598 0.008723 0.000000 0.000000 0.000000
# 4 0.000000 0.000000 0.000000 0.098256 0.000000 0.000000
# 5 0.000000 0.000000 0.000000 0.000000 0.054665 0.000000
# 6 0.000000 0.000000 0.000000 0.000000 0.000000 0.028647
#
#
# Mechanical properties :
#
#
# Convention : Reuss Voigt Hill
#
# Bulk Modulus (GPa) = 48.00786 50.01594 49.01190
# Shear Modulus (GPa) = 22.91871 35.23951 29.07911
#
# Velocity S-wave (km/s) = 2.97244 3.68581 3.34818
# Velocity P-wave (km/s) = 5.50346 6.11516 5.81736
#
# Compressibility (1/GPa) = 0.02082992
#
# Stress axis : x y z
#
# Youngs Moduli (GPa) = 132.74036 111.31337 114.63403
#
# Poissons Ratio (x) = 0.10660 0.21152
# Poissons Ratio (y) = 0.12712 -0.06850
# Poissons Ratio (z) = 0.24493 -0.06652
#
# Static dielectric constant tensor:
#      x y z
#    x 2.091510 0.000000 0.000000 
#    y 0.000000 2.084040 0.000000 
#    z 0.000000 0.000000 1.935800 
# 
# From -- ./inp_files/7327.got.cif
#   From: 2010.05.17/outbox.cif.g08.bks.cpg/sg55_4_cif.got.tgz:7327.got - 2010.06.03 13:27:54.
