data_PCOD9428524
_publ_section_title
;
Structure prediction by ZEFSAII (Michael W. Deem and Ramdas Pophale) SiO2 
 PCOD9428524
Probable space group: P B A M
;
_chemical_formula_sum "Si O2"
_cell_formula_units_Z 38
_cell_length_a 4.913987
_cell_length_b 17.014146
_cell_length_c 20.767378
_cell_angle_alpha 90.000000
_cell_angle_beta 90.000000
_cell_angle_gamma 90.000000
_cell_volume 1736.304242
_symmetry_space_group_name_H-M "P B A M"
_symmetry_group_IT_number 55
_symmetry_cell_setting 'orthorhombic'
loop_
_space_group_symop_operation_xyz
x,y,z
-x,-y,z
1/2+x,1/2-y,-z
1/2-x,1/2+y,-z
-x,-y,-z
x,y,-z
1/2-x,1/2+y,z
1/2+x,1/2-y,z
loop_
_atom_site_type_symbol
_atom_site_label
_atom_site_fract_x
_atom_site_fract_y
_atom_site_fract_z
Si Si1 0.246043 0.802513 0.426368
Si Si2 0.589199 0.809588 0.277732
Si Si3 0.000000 0.500000 0.500000
Si Si4 0.186370 0.695750 0.135093
Si Si5 0.450938 0.193613 0.000000
Si Si6 0.335689 0.572536 0.375339
O O1 0.232142 0.830147 0.500000
O O2 0.554038 0.774170 0.418632
O O3 0.584121 0.631284 0.390381
O O4 0.310842 0.760943 0.286411
O O5 0.619758 0.839854 0.204389
O O6 0.643400 0.882382 0.324905
O O7 0.816423 0.455866 0.441229
O O8 0.495469 0.725855 0.134254
O O9 0.113661 0.653012 0.068203
O O10 0.251381 0.270212 0.000000
O O11 0.500000 0.500000 0.345728
#
# Coordination Sequence:
#
# PCOD9428524 Si02
#       6
#     8   8   2   8   4   8
#     4  10  22  38  60  81 103 133 173 219 275 340
#     4  10  22  41  63  86 116 154 196 236 284 346
#     4  12  30  44  60  78 112 138 188 238 306 350
#     4   8  14  26  47  77 112 147 182 226 274 326
#     4   8  12  20  40  74 113 145 176 220 276 320
#     4  12  27  42  61  83 114 146 186 241 297 351
#
# _framework density 21.885563999999999
#
# number of rings (size 3 to 8) (size 9 to 14) (size 15 to 20)
#    0.000    2.105    1.053    1.579    5.895    0.000 
#    0.000    0.000    0.000    0.000    0.000    0.737 
#    0.000    0.842    0.000    1.053    0.000    0.211 
#
# Total GULP energy -211622.984564 kJ/mol
# GULP energy per Si atom -5569.025910 kJ/mol
# Density = 2.183575 g / cm^3
# Si number density = 21.885564 Si / 1000 Ang^3
#
#
#
# Elastic Constant Matrix: (Units=GPa)
#
#
# Indices 1 2 3 4 5 6 
#
# 1 116.4301 16.3852 31.7753 0.0000 0.0000 0.0000
# 2 16.3852 48.8859 28.5914 0.0000 0.0000 0.0000
# 3 31.7753 28.5914 181.0616 0.0000 0.0000 0.0000
# 4 0.0000 0.0000 0.0000 12.0832 0.0000 0.0000
# 5 0.0000 0.0000 0.0000 0.0000 36.2926 0.0000
# 6 0.0000 0.0000 0.0000 0.0000 0.0000 25.4400
#
#
#
# Elastic Compliance Matrix: (Units=1/GPa)
#
#
# Indices 1 2 3 4 5 6 
#
# 1 0.009264 -0.002373 -0.001251 0.000000 0.000000 0.000000
# 2 -0.002373 0.023145 -0.003238 0.000000 0.000000 0.000000
# 3 -0.001251 -0.003238 0.006254 0.000000 0.000000 0.000000
# 4 0.000000 0.000000 0.000000 0.082760 0.000000 0.000000
# 5 0.000000 0.000000 0.000000 0.000000 0.027554 0.000000
# 6 0.000000 0.000000 0.000000 0.000000 0.000000 0.039308
#
#
# Mechanical properties :
#
#
# Convention : Reuss Voigt Hill
#
# Bulk Modulus (GPa) = 40.09971 55.54235 47.82103
# Shear Modulus (GPa) = 23.77291 32.73820 28.25555
#
# Velocity S-wave (km/s) = 3.29939 3.87186 3.59703
# Velocity P-wave (km/s) = 5.73383 6.73958 6.25695
#
# Compressibility (1/GPa) = 0.02493783
#
# Stress axis : x y z
#
# Youngs Moduli (GPa) = 107.94145 43.20531 159.90029
#
# Poissons Ratio (x) = 0.10255 0.20004
# Poissons Ratio (y) = 0.25619 0.51781
# Poissons Ratio (z) = 0.13504 0.13991
#
# Static dielectric constant tensor:
#      x y z
#    x 1.843130 0.000000 0.000000 
#    y 0.000000 1.879520 0.000000 
#    z 0.000000 0.000000 1.976230 
# 
# From -- ./inp_files/23290.got.cif
#   From: 2010.05.17/outbox.cif.g08.bks.cpg/sg55_12_cif.got.tgz:23290.got - 2010.06.03 13:27:54.
