data_PCOD9428675
_publ_section_title
;
Structure prediction by ZEFSAII (Michael W. Deem and Ramdas Pophale) SiO2 
 PCOD9428675
Probable space group: P B A M
;
_chemical_formula_sum "Si O2"
_cell_formula_units_Z 36
_cell_length_a 5.352857
_cell_length_b 27.270987
_cell_length_c 10.268837
_cell_angle_alpha 90.000000
_cell_angle_beta 90.000000
_cell_angle_gamma 90.000000
_cell_volume 1499.021142
_symmetry_space_group_name_H-M "P B A M"
_symmetry_group_IT_number 55
_symmetry_cell_setting 'orthorhombic'
loop_
_space_group_symop_operation_xyz
x,y,z
-x,-y,z
1/2+x,1/2-y,-z
1/2-x,1/2+y,-z
-x,-y,-z
x,y,-z
1/2-x,1/2+y,z
1/2+x,1/2-y,z
loop_
_atom_site_type_symbol
_atom_site_label
_atom_site_fract_x
_atom_site_fract_y
_atom_site_fract_z
Si Si1 0.502449 0.782647 0.000000
Si Si2 0.473270 0.774182 0.348614
Si Si3 0.268942 0.132511 0.147935
Si Si4 0.371121 0.362761 0.358370
Si Si5 0.505379 0.057708 0.350142
O O1 0.543752 0.821815 0.117535
O O2 0.237555 0.755104 0.000000
O O3 0.502615 0.759043 0.500000
O O4 0.735238 0.755114 0.293426
O O5 0.380014 0.830124 0.358327
O O6 0.373717 0.087616 0.233614
O O7 0.038257 0.149876 0.235616
O O8 0.193703 0.117768 0.000000
O O9 0.493024 0.353565 0.500000
O O10 0.282770 0.418839 0.350564
O O11 0.411004 0.066054 0.500000
O O12 0.500000 0.000000 0.327123
#
# Coordination Sequence:
#
# PCOD9428675 Si02
#       5
#     4   8   8   8   8
#     4  10  26  48  75 109 151 207 248 302 374 454
#     4   9  19  34  56  92 131 172 223 286 353 420
#     4  10  25  42  71 102 142 193 244 307 363 457
#     4  10  22  40  67  98 137 184 241 304 370 447
#     4  10  23  45  72 103 143 190 246 317 389 449
#
# _framework density 24.015674000000001
#
# number of rings (size 3 to 8) (size 9 to 14) (size 15 to 20)
#    0.667    1.556    0.000    0.667    6.222    4.000 
#    0.000    4.444    0.000    2.667    0.000    0.000 
#    0.000    0.000    0.000    0.000    0.000    0.000 
#
# Total GULP energy -200913.445672 kJ/mol
# GULP energy per Si atom -5580.929046 kJ/mol
# Density = 2.396101 g / cm^3
# Si number density = 24.015674 Si / 1000 Ang^3
#
#
#
# Elastic Constant Matrix: (Units=GPa)
#
#
# Indices 1 2 3 4 5 6 
#
# 1 64.2400 24.4976 26.1151 0.0000 0.0000 0.0000
# 2 24.4976 156.8665 46.7951 0.0000 0.0000 0.0000
# 3 26.1151 46.7951 204.8213 0.0000 0.0000 0.0000
# 4 0.0000 0.0000 0.0000 27.8638 0.0000 0.0000
# 5 0.0000 0.0000 0.0000 0.0000 34.2408 0.0000
# 6 0.0000 0.0000 0.0000 0.0000 0.0000 30.0228
#
#
#
# Elastic Compliance Matrix: (Units=1/GPa)
#
#
# Indices 1 2 3 4 5 6 
#
# 1 0.017076 -0.002165 -0.001683 0.000000 0.000000 0.000000
# 2 -0.002165 0.007116 -0.001350 0.000000 0.000000 0.000000
# 3 -0.001683 -0.001350 0.005405 0.000000 0.000000 0.000000
# 4 0.000000 0.000000 0.000000 0.035889 0.000000 0.000000
# 5 0.000000 0.000000 0.000000 0.000000 0.029205 0.000000
# 6 0.000000 0.000000 0.000000 0.000000 0.000000 0.033308
#
#
# Mechanical properties :
#
#
# Convention : Reuss Voigt Hill
#
# Bulk Modulus (GPa) = 52.07602 68.97148 60.52375
# Shear Modulus (GPa) = 34.53185 40.32682 37.42934
#
# Velocity S-wave (km/s) = 3.79606 4.10223 3.95211
# Velocity P-wave (km/s) = 6.39881 7.15678 6.78838
#
# Compressibility (1/GPa) = 0.01920270
#
# Stress axis : x y z
#
# Youngs Moduli (GPa) = 58.56107 140.53747 185.00700
#
# Poissons Ratio (x) = 0.30424 0.31130
# Poissons Ratio (y) = 0.12677 0.24970
# Poissons Ratio (z) = 0.09854 0.18968
#
# Static dielectric constant tensor:
#      x y z
#    x 1.991080 0.000000 0.000000 
#    y 0.000000 1.920160 0.000000 
#    z 0.000000 0.000000 2.121640 
# 
# From -- ./inp_files/11326.got.cif
#   From: 2010.05.17/outbox.cif.g08.bks.cpg/sg55_6_cif.got.tgz:11326.got - 2010.06.03 13:27:54.
