data_PCOD9428704
_publ_section_title
;
Structure prediction by ZEFSAII (Michael W. Deem and Ramdas Pophale) SiO2 
 PCOD9428704
Probable space group: P B A M
;
_chemical_formula_sum "Si O2"
_cell_formula_units_Z 48
_cell_length_a 10.857210
_cell_length_b 26.754515
_cell_length_c 7.997422
_cell_angle_alpha 90.000000
_cell_angle_beta 90.000000
_cell_angle_gamma 90.000000
_cell_volume 2323.086247
_symmetry_space_group_name_H-M "P B A M"
_symmetry_group_IT_number 55
_symmetry_cell_setting 'orthorhombic'
loop_
_space_group_symop_operation_xyz
x,y,z
-x,-y,z
1/2+x,1/2-y,-z
1/2-x,1/2+y,-z
-x,-y,-z
x,y,-z
1/2-x,1/2+y,z
1/2+x,1/2-y,z
loop_
_atom_site_type_symbol
_atom_site_label
_atom_site_fract_x
_atom_site_fract_y
_atom_site_fract_z
Si Si1 0.469511 0.904877 0.194353
Si Si2 0.001572 0.939792 0.815912
Si Si3 0.049034 0.290372 0.294430
Si Si4 0.745416 0.887482 0.800830
Si Si5 0.722136 0.774594 0.696026
Si Si6 0.886364 0.038899 0.500000
Si Si7 0.380156 0.966243 0.500000
O O1 0.447154 0.846027 0.221198
O O2 0.614605 0.912942 0.239071
O O3 0.391048 0.934052 0.330608
O O4 0.449202 0.918820 0.000000
O O5 0.094775 0.928585 0.666531
O O6 0.866225 0.920040 0.768064
O O7 0.033607 0.919651 0.000000
O O8 0.000000 0.000000 0.830867
O O9 0.047654 0.293707 0.500000
O O10 0.917168 0.267335 0.239823
O O11 0.165751 0.258244 0.236169
O O12 0.750940 0.833414 0.716135
O O13 0.741198 0.878447 0.000000
O O14 0.717473 0.762821 0.500000
O O15 0.756397 0.011383 0.500000
O O16 0.000000 0.000000 0.500000
O O17 0.500000 0.000000 0.500000
#
# Coordination Sequence:
#
# PCOD9428704 Si02
#       7
#     8   8   8   8   8   4   4
#     4  10  22  41  66  91 126 165 204 256 313 368
#     4   9  19  36  59  85 120 156 198 253 305 359
#     4   9  17  36  57  86 122 162 203 251 303 362
#     4   9  19  35  59  91 118 159 209 251 305 373
#     4   9  18  31  55  83 116 159 201 247 300 357
#     4  10  24  42  62  91 115 157 201 243 309 365
#     4  12  28  44  66  95 123 159 211 261 304 379
#
# _framework density 20.662168000000001
#
# number of rings (size 3 to 8) (size 9 to 14) (size 15 to 20)
#    0.000    2.500    0.833    0.000    7.000    1.667 
#    3.000    0.000    0.000    0.000    0.000    0.000 
#    0.000    0.000    0.000    0.000    0.000    0.000 
#
# Total GULP energy -267650.689305 kJ/mol
# GULP energy per Si atom -5576.056027 kJ/mol
# Density = 2.061514 g / cm^3
# Si number density = 20.662168 Si / 1000 Ang^3
#
#
#
# Elastic Constant Matrix: (Units=GPa)
#
#
# Indices 1 2 3 4 5 6 
#
# 1 136.7985 43.1415 42.7955 0.0000 0.0000 0.0000
# 2 43.1415 28.9842 11.6597 0.0000 0.0000 0.0000
# 3 42.7955 11.6597 88.1241 0.0000 0.0000 0.0000
# 4 0.0000 0.0000 0.0000 -663.3173 0.0000 0.0000
# 5 0.0000 0.0000 0.0000 0.0000 -18.3249 0.0000
# 6 0.0000 0.0000 0.0000 0.0000 0.0000 37.2694
#
#
#
# Elastic Compliance Matrix: (Units=1/GPa)
#
#
# Indices 1 2 3 4 5 6 
#
# 1 0.015426 -0.021068 -0.004704 0.000000 0.000000 0.000000
# 2 -0.021068 0.065216 0.001603 0.000000 0.000000 0.000000
# 3 -0.004704 0.001603 0.013420 0.000000 0.000000 0.000000
# 4 0.000000 0.000000 0.000000 -0.001508 0.000000 0.000000
# 5 0.000000 0.000000 0.000000 0.000000 -0.054571 0.000000
# 6 0.000000 0.000000 0.000000 0.000000 0.000000 0.026832
#
#
# Mechanical properties :
#
#
# Convention : Reuss Voigt Hill
#
# Bulk Modulus (GPa) = 21.87091 49.90002 35.88547
# Shear Modulus (GPa) = 38.94275 -118.45387 -39.75556
#
# Velocity S-wave (km/s) = 4.34607 -7.57980 -4.39119
# Velocity P-wave (km/s) = 5.98267 7.23889 2.88177
#
# Compressibility (1/GPa) = 0.04572284
#
# Stress axis : x y z
#
# Youngs Moduli (GPa) = 64.82723 15.33375 74.51679
#
# Poissons Ratio (x) = 0.32305 0.35050
# Poissons Ratio (y) = 1.36579 -0.11942
# Poissons Ratio (z) = 0.30492 -0.02457
#
# Static dielectric constant tensor:
#      x y z
#    x 1.754740 0.000000 0.000000 
#    y 0.000000 1.693930 0.000000 
#    z 0.000000 0.000000 1.879420 
# 
# From -- ./inp_files/2940.got.cif
#   From: 2010.05.17/outbox.cif.g08.bks.cpg/sg55_2_cif.got.tgz:2940.got - 2010.06.03 13:27:54.
