data_PCOD9428785
_publ_section_title
;
Structure prediction by ZEFSAII (Michael W. Deem and Ramdas Pophale) SiO2 
 PCOD9428785
Probable space group: P B A M
;
_chemical_formula_sum "Si O2"
_cell_formula_units_Z 24
_cell_length_a 10.145251
_cell_length_b 9.791849
_cell_length_c 8.404039
_cell_angle_alpha 90.000000
_cell_angle_beta 90.000000
_cell_angle_gamma 90.000000
_cell_volume 834.863671
_symmetry_space_group_name_H-M "P B A M"
_symmetry_group_IT_number 55
_symmetry_cell_setting 'orthorhombic'
loop_
_space_group_symop_operation_xyz
x,y,z
-x,-y,z
1/2+x,1/2-y,-z
1/2-x,1/2+y,-z
-x,-y,-z
x,y,-z
1/2-x,1/2+y,z
1/2+x,1/2-y,z
loop_
_atom_site_type_symbol
_atom_site_label
_atom_site_fract_x
_atom_site_fract_y
_atom_site_fract_z
Si Si1 0.803937 0.967803 0.171303
Si Si2 0.574791 0.177266 0.174610
Si Si3 0.796089 0.067112 0.500000
Si Si4 0.412449 0.160544 0.500000
O O1 0.659606 0.037782 0.172865
O O2 0.862268 0.023793 0.335128
O O3 0.822855 0.805240 0.176798
O O4 0.859168 0.013089 0.000000
O O5 0.490637 0.184693 0.335682
O O6 0.507081 0.187634 0.000000
O O7 0.658143 0.985826 0.500000
O O8 0.793750 0.229311 0.500000
#
# Coordination Sequence:
#
# PCOD9428785 Si02
#       4
#     8   8   4   4
#     4  10  22  44  74 108 146 182 226 294 368 440
#     4  10  23  45  74 108 145 185 231 290 365 442
#     4  12  26  46  70 100 144 194 246 306 354 404
#     4  12  28  48  70 100 142 194 248 300 356 418
#
# _framework density 28.747209000000002
#
# number of rings (size 3 to 8) (size 9 to 14) (size 15 to 20)
#    0.000    1.333    0.000    4.000    0.000    8.000 
#    0.000   10.000    0.000    0.000    0.000    0.000 
#    0.000    0.000    0.000    0.000    0.000    0.000 
#
# Total GULP energy -134387.269861 kJ/mol
# GULP energy per Si atom -5599.469578 kJ/mol
# Density = 2.868178 g / cm^3
# Si number density = 28.747209 Si / 1000 Ang^3
#
#
#
# Elastic Constant Matrix: (Units=GPa)
#
#
# Indices 1 2 3 4 5 6 
#
# 1 117.4372 45.3553 78.2206 0.0000 0.0000 0.0000
# 2 45.3553 169.6741 66.0180 0.0000 0.0000 0.0000
# 3 78.2206 66.0180 378.1925 0.0000 0.0000 0.0000
# 4 0.0000 0.0000 0.0000 33.0542 0.0000 0.0000
# 5 0.0000 0.0000 0.0000 0.0000 -81.5558 0.0000
# 6 0.0000 0.0000 0.0000 0.0000 0.0000 58.2316
#
#
#
# Elastic Compliance Matrix: (Units=1/GPa)
#
#
# Indices 1 2 3 4 5 6 
#
# 1 0.010537 -0.002112 -0.001811 0.000000 0.000000 0.000000
# 2 -0.002112 0.006746 -0.000741 0.000000 0.000000 0.000000
# 3 -0.001811 -0.000741 0.003148 0.000000 0.000000 0.000000
# 4 0.000000 0.000000 0.000000 0.030253 0.000000 0.000000
# 5 0.000000 0.000000 0.000000 0.000000 -0.012262 0.000000
# 6 0.000000 0.000000 0.000000 0.000000 0.000000 0.017173
#
#
# Mechanical properties :
#
#
# Convention : Reuss Voigt Hill
#
# Bulk Modulus (GPa) = 90.05601 116.05462 103.05531
# Shear Modulus (GPa) = 72.86026 33.65999 53.26013
#
# Velocity S-wave (km/s) = 5.03986 3.42555 4.30898
# Velocity P-wave (km/s) = 8.07848 7.49028 7.78993
#
# Compressibility (1/GPa) = 0.01110420
#
# Stress axis : x y z
#
# Youngs Moduli (GPa) = 94.90464 148.22527 317.66558
#
# Poissons Ratio (x) = 0.31307 0.57517
# Poissons Ratio (y) = 0.20045 0.23534
# Poissons Ratio (z) = 0.17184 0.10981
#
# Static dielectric constant tensor:
#      x y z
#    x 2.207140 0.000000 0.000000 
#    y 0.000000 2.160660 0.000000 
#    z 0.000000 0.000000 2.227450 
# 
# From -- ./inp_files/3156.got.cif
#   From: 2010.05.17/outbox.cif.g08.bks.cpg/sg55_2_cif.got.tgz:3156.got - 2010.06.03 13:27:54.
