data_PCOD9428649
_publ_section_title
;
Structure prediction by ZEFSAII (Michael W. Deem and Ramdas Pophale) SiO2 
 PCOD9428649
Probable space group: P B A M
;
_chemical_formula_sum "Si O2"
_cell_formula_units_Z 56
_cell_length_a 15.156712
_cell_length_b 8.840464
_cell_length_c 17.626742
_cell_angle_alpha 90.000000
_cell_angle_beta 90.000000
_cell_angle_gamma 90.000000
_cell_volume 2361.848879
_symmetry_space_group_name_H-M "P B A M"
_symmetry_group_IT_number 55
_symmetry_cell_setting 'orthorhombic'
loop_
_space_group_symop_operation_xyz
x,y,z
-x,-y,z
1/2+x,1/2-y,-z
1/2-x,1/2+y,-z
-x,-y,-z
x,y,-z
1/2-x,1/2+y,z
1/2+x,1/2-y,z
loop_
_atom_site_type_symbol
_atom_site_label
_atom_site_fract_x
_atom_site_fract_y
_atom_site_fract_z
Si Si1 0.548597 0.154660 0.585809
Si Si2 0.433915 0.886517 0.834089
Si Si3 0.376799 0.309667 0.624552
Si Si4 0.323588 0.624503 0.195971
Si Si5 0.918491 0.168401 0.197613
Si Si6 0.820857 0.373384 0.086842
Si Si7 0.205385 0.133915 0.362511
O O1 0.579575 0.123217 0.500000
O O2 0.468320 0.273916 0.584389
O O3 0.630575 0.234322 0.628941
O O4 0.500000 0.000000 0.613864
O O5 0.352336 0.798973 0.799438
O O6 0.500027 0.747092 0.846219
O O7 0.500000 0.000000 0.790507
O O8 0.391250 0.991160 0.898969
O O9 0.404595 0.290202 0.713944
O O10 0.338284 0.477578 0.609432
O O11 0.297499 0.194037 0.604408
O O12 0.405435 0.509869 0.200226
O O13 0.274697 0.583052 0.118414
O O14 0.272853 0.597850 0.274184
O O15 0.841825 0.242330 0.147042
O O16 0.821175 0.327774 0.000000
#
# Coordination Sequence:
#
# PCOD9428649 Si02
#       7
#     8   8   8   8   8   8   8
#     4  11  26  47  71 103 143 185 229 281 346 416
#     4  10  23  38  62  90 124 169 215 279 340 409
#     4  11  23  42  68 105 138 184 235 290 347 414
#     4  11  22  40  65  95 133 170 228 283 340 416
#     4  10  22  40  63  95 130 174 226 282 340 399
#     4  11  24  42  63  91 130 178 228 284 350 414
#     4  11  24  41  71 102 141 184 233 286 347 415
#
# _framework density 23.710238
#
# number of rings (size 3 to 8) (size 9 to 14) (size 15 to 20)
#    0.000    1.286    1.429    3.429    2.000   13.429 
#    0.000    0.000    0.000    5.143    0.000    0.000 
#    0.000    0.000    0.000    0.000    0.000    0.000 
#
# Total GULP energy -311976.974626 kJ/mol
# GULP energy per Si atom -5571.017404 kJ/mol
# Density = 2.365627 g / cm^3
# Si number density = 23.710238 Si / 1000 Ang^3
#
#
#
# Elastic Constant Matrix: (Units=GPa)
#
#
# Indices 1 2 3 4 5 6 
#
# 1 85.5926 -3.5299 7.0573 0.0000 0.0000 0.0000
# 2 -3.5299 73.0512 7.2992 0.0000 0.0000 0.0000
# 3 7.0573 7.2992 103.3915 0.0000 0.0000 0.0000
# 4 0.0000 0.0000 0.0000 4.7103 0.0000 0.0000
# 5 0.0000 0.0000 0.0000 0.0000 17.0980 0.0000
# 6 0.0000 0.0000 0.0000 0.0000 0.0000 43.6928
#
#
#
# Elastic Compliance Matrix: (Units=1/GPa)
#
#
# Indices 1 2 3 4 5 6 
#
# 1 0.011780 0.000654 -0.000850 0.000000 0.000000 0.000000
# 2 0.000654 0.013823 -0.001021 0.000000 0.000000 0.000000
# 3 -0.000850 -0.001021 0.009802 0.000000 0.000000 0.000000
# 4 0.000000 0.000000 0.000000 0.212299 0.000000 0.000000
# 5 0.000000 0.000000 0.000000 0.000000 0.058486 0.000000
# 6 0.000000 0.000000 0.000000 0.000000 0.000000 0.022887
#
#
# Mechanical properties :
#
#
# Convention : Reuss Voigt Hill
#
# Bulk Modulus (GPa) = 30.32893 31.52096 30.92494
# Shear Modulus (GPa) = 14.59848 29.84746 22.22297
#
# Velocity S-wave (km/s) = 2.48403 3.55187 3.06481
# Velocity P-wave (km/s) = 4.58764 5.49036 5.05918
#
# Compressibility (1/GPa) = 0.03297182
#
# Stress axis : x y z
#
# Youngs Moduli (GPa) = 84.88715 72.34520 102.01934
#
# Poissons Ratio (x) = -0.04733 0.08675
# Poissons Ratio (y) = -0.05553 0.10411
# Poissons Ratio (z) = 0.07218 0.07383
#
# Static dielectric constant tensor:
#      x y z
#    x 2.042140 0.000000 0.000000 
#    y 0.000000 1.954290 0.000000 
#    z 0.000000 0.000000 1.829470 
# 
# From -- ./inp_files/22981.got.cif
#   From: 2010.05.17/outbox.cif.g08.bks.cpg/sg55_12_cif.got.tgz:22981.got - 2010.06.03 13:27:54.
