data_PCOD9428026
_publ_section_title
;
Structure prediction by ZEFSAII (Michael W. Deem and Ramdas Pophale) SiO2 
 PCOD9428026
Probable space group: P B A M
;
_chemical_formula_sum "Si O2"
_cell_formula_units_Z 64
_cell_length_a 9.559513
_cell_length_b 25.569757
_cell_length_c 13.447984
_cell_angle_alpha 90.000000
_cell_angle_beta 90.000000
_cell_angle_gamma 90.000000
_cell_volume 3287.150229
_symmetry_space_group_name_H-M "P B A M"
_symmetry_group_IT_number 55
_symmetry_cell_setting 'orthorhombic'
loop_
_space_group_symop_operation_xyz
x,y,z
-x,-y,z
1/2+x,1/2-y,-z
1/2-x,1/2+y,-z
-x,-y,-z
x,y,-z
1/2-x,1/2+y,z
1/2+x,1/2-y,z
loop_
_atom_site_type_symbol
_atom_site_label
_atom_site_fract_x
_atom_site_fract_y
_atom_site_fract_z
Si Si1 0.925804 0.172415 0.107793
Si Si2 0.433323 0.947363 0.788557
Si Si3 0.970141 0.747495 0.263899
Si Si4 0.845743 0.430718 0.613465
Si Si5 0.666526 0.490026 0.238737
Si Si6 0.786495 0.885638 0.115135
Si Si7 0.283325 0.180304 0.693047
Si Si8 0.390321 0.842215 0.889009
O O1 0.775116 0.146944 0.108887
O O2 0.941172 0.212823 0.196490
O O3 0.050675 0.131435 0.115147
O O4 0.941302 0.199663 0.000000
O O5 0.519076 0.938706 0.685352
O O6 0.458284 0.895980 0.852735
O O7 0.500000 0.000000 0.833195
O O8 0.268856 0.960400 0.777486
O O9 0.850720 0.782038 0.315490
O O10 0.907733 0.705115 0.187398
O O11 0.079207 0.714378 0.327707
O O12 0.879632 0.441842 0.500000
O O13 0.722053 0.467132 0.656363
O O14 0.790474 0.371578 0.627476
O O15 0.500000 0.500000 0.234059
O O16 0.712474 0.443661 0.162028
O O17 0.720367 0.843219 0.192719
O O18 0.738986 0.883350 0.000000
O O19 0.435353 0.827668 0.000000
#
# Coordination Sequence:
#
# PCOD9428026 Si02
#       8
#     8   8   8   8   8   8   8   8
#     4   9  18  31  49  80 113 156 198 229 271 327
#     4  10  22  39  58  83 113 154 200 239 298 346
#     4  11  19  35  55  80 117 150 189 230 281 337
#     4  10  22  44  65  83 110 147 191 243 306 364
#     4  10  21  37  60  89 116 150 195 245 294 342
#     4   9  19  34  54  80 121 163 195 228 279 341
#     4  10  21  37  59  85 113 150 188 239 287 345
#     4  11  21  32  52  82 120 156 195 238 275 331
#
# _framework density 19.469752
#
# number of rings (size 3 to 8) (size 9 to 14) (size 15 to 20)
#    0.000    2.000    2.500    1.125    0.000    5.000 
#    0.000    0.625    0.000    0.000    0.000    0.000 
#    0.000    0.000    0.000    0.000    0.000    0.000 
#
# Total GULP energy -356819.951442 kJ/mol
# GULP energy per Si atom -5575.311741 kJ/mol
# Density = 1.942544 g / cm^3
# Si number density = 19.469752 Si / 1000 Ang^3
#
#
#
# Elastic Constant Matrix: (Units=GPa)
#
#
# Indices 1 2 3 4 5 6 
#
# 1 106.4923 19.0592 -3.4550 0.0000 0.0000 0.0000
# 2 19.0592 78.5371 1.6733 0.0000 0.0000 0.0000
# 3 -3.4550 1.6733 19.3797 0.0000 0.0000 0.0000
# 4 0.0000 0.0000 0.0000 30.8792 0.0000 0.0000
# 5 0.0000 0.0000 0.0000 0.0000 15.7264 0.0000
# 6 0.0000 0.0000 0.0000 0.0000 0.0000 30.2232
#
#
#
# Elastic Compliance Matrix: (Units=1/GPa)
#
#
# Indices 1 2 3 4 5 6 
#
# 1 0.009892 -0.002443 0.001974 0.000000 0.000000 0.000000
# 2 -0.002443 0.013359 -0.001589 0.000000 0.000000 0.000000
# 3 0.001974 -0.001589 0.052090 0.000000 0.000000 0.000000
# 4 0.000000 0.000000 0.000000 0.032384 0.000000 0.000000
# 5 0.000000 0.000000 0.000000 0.000000 0.063587 0.000000
# 6 0.000000 0.000000 0.000000 0.000000 0.000000 0.033087
#
#
# Mechanical properties :
#
#
# Convention : Reuss Voigt Hill
#
# Bulk Modulus (GPa) = 14.03975 26.55156 20.29566
# Shear Modulus (GPa) = 21.52800 27.84120 24.68460
#
# Velocity S-wave (km/s) = 3.32884 3.78560 3.56454
# Velocity P-wave (km/s) = 4.69059 5.72491 5.23337
#
# Compressibility (1/GPa) = 0.07122634
#
# Stress axis : x y z
#
# Youngs Moduli (GPa) = 101.09645 74.85346 19.19770
#
# Poissons Ratio (x) = 0.18283 -0.03790
# Poissons Ratio (y) = 0.24693 0.03050
# Poissons Ratio (z) = -0.19960 0.11894
#
# Static dielectric constant tensor:
#      x y z
#    x 1.720740 0.000000 0.000000 
#    y 0.000000 1.690890 0.000000 
#    z 0.000000 0.000000 1.678440 
# 
# From -- ./inp_files/17851.got.cif
#   From: 2010.05.17/outbox.cif.g08.bks.cpg/sg55_9_cif.got.tgz:17851.got - 2010.06.03 13:27:54.
