data_PCOD9428955
_publ_section_title
;
Structure prediction by ZEFSAII (Michael W. Deem and Ramdas Pophale) SiO2 
 PCOD9428955
Probable space group: P B A M
;
_chemical_formula_sum "Si O2"
_cell_formula_units_Z 64
_cell_length_a 9.582774
_cell_length_b 13.863386
_cell_length_c 22.263277
_cell_angle_alpha 90.000000
_cell_angle_beta 90.000000
_cell_angle_gamma 90.000000
_cell_volume 2957.669557
_symmetry_space_group_name_H-M "P B A M"
_symmetry_group_IT_number 55
_symmetry_cell_setting 'orthorhombic'
loop_
_space_group_symop_operation_xyz
x,y,z
-x,-y,z
1/2+x,1/2-y,-z
1/2-x,1/2+y,-z
-x,-y,-z
x,y,-z
1/2-x,1/2+y,z
1/2+x,1/2-y,z
loop_
_atom_site_type_symbol
_atom_site_label
_atom_site_fract_x
_atom_site_fract_y
_atom_site_fract_z
Si Si1 0.923440 0.276655 0.162957
Si Si2 0.961505 0.319094 0.708871
Si Si3 0.414719 0.901403 0.065687
Si Si4 0.746340 0.424941 0.225351
Si Si5 0.791404 0.722485 0.367147
Si Si6 0.123216 0.073578 0.648466
Si Si7 0.137839 0.937567 0.873937
Si Si8 0.161871 0.466722 0.432080
O O1 0.982887 0.260903 0.229675
O O2 0.781548 0.338711 0.177673
O O3 0.898646 0.173002 0.136256
O O4 0.024629 0.337002 0.119708
O O5 0.887918 0.414963 0.735176
O O6 0.849978 0.262738 0.665194
O O7 0.110878 0.333336 0.680311
O O8 0.256498 0.934131 0.076117
O O9 0.500000 0.000000 0.066825
O O10 0.431622 0.854543 0.000000
O O11 0.636161 0.414340 0.279449
O O12 0.708931 0.516659 0.185920
O O13 0.878980 0.819888 0.379679
O O14 0.795182 0.645522 0.420703
O O15 0.256403 0.025332 0.618009
O O16 0.000000 0.000000 0.635220
O O17 0.000000 0.000000 0.886430
O O18 0.204830 0.492564 0.500000
O O19 0.000000 0.500000 0.427051
#
# Coordination Sequence:
#
# PCOD9428955 Si02
#       8
#     8   8   8   8   8   8   8   8
#     4  10  25  42  71 105 147 183 232 292 354 442
#     4   9  22  38  67  96 142 168 227 272 358 415
#     4  11  25  49  74 100 143 195 247 294 351 425
#     4   9  22  40  64 105 138 186 214 284 362 426
#     4  11  22  43  63 101 131 183 219 297 350 422
#     4  11  24  40  69 101 141 169 228 289 362 421
#     4  12  27  43  72 107 146 186 242 299 365 424
#     4  11  26  46  65  91 131 186 239 284 344 429
#
# _framework density 21.638658
#
# number of rings (size 3 to 8) (size 9 to 14) (size 15 to 20)
#    0.750    0.750    1.250    2.625   10.500    1.500 
#    2.250    4.375    0.000    0.000    0.000    0.000 
#    0.000    0.000    0.000    0.000    0.000    0.000 
#
# Total GULP energy -356598.267904 kJ/mol
# GULP energy per Si atom -5571.847936 kJ/mol
# Density = 2.158941 g / cm^3
# Si number density = 21.638658 Si / 1000 Ang^3
#
#
#
# Elastic Constant Matrix: (Units=GPa)
#
#
# Indices 1 2 3 4 5 6 
#
# 1 95.6989 36.5562 44.9016 0.0000 0.0000 0.0000
# 2 36.5562 117.5246 33.7255 0.0000 0.0000 0.0000
# 3 44.9016 33.7255 84.2113 0.0000 0.0000 0.0000
# 4 0.0000 0.0000 0.0000 4.2803 0.0000 0.0000
# 5 0.0000 0.0000 0.0000 0.0000 -9.7281 0.0000
# 6 0.0000 0.0000 0.0000 0.0000 0.0000 36.2284
#
#
#
# Elastic Compliance Matrix: (Units=1/GPa)
#
#
# Indices 1 2 3 4 5 6 
#
# 1 0.014611 -0.002609 -0.006746 0.000000 0.000000 0.000000
# 2 -0.002609 0.010080 -0.002646 0.000000 0.000000 0.000000
# 3 -0.006746 -0.002646 0.016531 0.000000 0.000000 0.000000
# 4 0.000000 0.000000 0.000000 0.233629 0.000000 0.000000
# 5 0.000000 0.000000 0.000000 0.000000 -0.102795 0.000000
# 6 0.000000 0.000000 0.000000 0.000000 0.000000 0.027603
#
#
# Mechanical properties :
#
#
# Convention : Reuss Voigt Hill
#
# Bulk Modulus (GPa) = 58.06805 58.64460 58.35633
# Shear Modulus (GPa) = 21.79598 18.30621 20.05110
#
# Velocity S-wave (km/s) = 3.17720 2.91176 3.04737
# Velocity P-wave (km/s) = 6.35240 6.20202 6.27766
#
# Compressibility (1/GPa) = 0.01722117
#
# Stress axis : x y z
#
# Youngs Moduli (GPa) = 68.44066 99.21034 60.49122
#
# Poissons Ratio (x) = 0.25884 0.40806
# Poissons Ratio (y) = 0.17856 0.16004
# Poissons Ratio (z) = 0.46169 0.26247
#
# Static dielectric constant tensor:
#      x y z
#    x 1.846240 0.000000 0.000000 
#    y 0.000000 1.877960 0.000000 
#    z 0.000000 0.000000 1.823050 
# 
# From -- ./inp_files/23472.got.cif
#   From: 2010.05.17/outbox.cif.g08.bks.cpg/sg55_12_cif.got.tgz:23472.got - 2010.06.03 13:27:54.
