data_PCOD9428494
_publ_section_title
;
Structure prediction by ZEFSAII (Michael W. Deem and Ramdas Pophale) SiO2 
 PCOD9428494
Probable space group: P B A M
;
_chemical_formula_sum "Si O2"
_cell_formula_units_Z 52
_cell_length_a 14.911077
_cell_length_b 22.713948
_cell_length_c 8.028850
_cell_angle_alpha 90.000000
_cell_angle_beta 90.000000
_cell_angle_gamma 90.000000
_cell_volume 2719.286611
_symmetry_space_group_name_H-M "P B A M"
_symmetry_group_IT_number 55
_symmetry_cell_setting 'orthorhombic'
loop_
_space_group_symop_operation_xyz
x,y,z
-x,-y,z
1/2+x,1/2-y,-z
1/2-x,1/2+y,-z
-x,-y,-z
x,y,-z
1/2-x,1/2+y,z
1/2+x,1/2-y,z
loop_
_atom_site_type_symbol
_atom_site_label
_atom_site_fract_x
_atom_site_fract_y
_atom_site_fract_z
Si Si1 0.640526 0.263513 0.807824
Si Si2 0.039146 0.120552 0.195957
Si Si3 0.442650 0.439154 0.500000
Si Si4 0.235160 0.065535 0.813040
Si Si5 0.823087 0.305213 0.806492
Si Si6 0.545728 0.063332 0.500000
Si Si7 0.740485 0.017274 0.500000
Si Si8 0.517208 0.174182 0.682014
O O1 0.573429 0.314711 0.747740
O O2 0.740435 0.267180 0.734487
O O3 0.590906 0.201706 0.800575
O O4 0.655231 0.281141 0.000000
O O5 0.129414 0.080726 0.201686
O O6 0.970988 0.095261 0.331590
O O7 0.009431 0.121984 0.000000
O O8 0.500000 0.500000 0.500000
O O9 0.336934 0.451630 0.500000
O O10 0.286466 0.127812 0.798643
O O11 0.263160 0.023294 0.664556
O O12 0.251443 0.042209 0.000000
O O13 0.918272 0.303157 0.718869
O O14 0.840279 0.289730 0.000000
O O15 0.516476 0.103816 0.657333
O O16 0.500000 0.000000 0.500000
O O17 0.652739 0.057659 0.500000
O O18 0.546377 0.196425 0.500000
#
# Coordination Sequence:
#
# PCOD9428494 Si02
#       8
#     8   8   4   8   8   4   4   8
#     4   9  19  38  61  86 116 148 192 251 302 353
#     4   9  19  36  56  83 122 157 198 251 294 349
#     4  12  22  33  53  93 117 165 203 235 305 363
#     4   9  18  33  58  86 109 151 206 249 288 336
#     4   9  18  35  61  87 110 145 194 245 296 351
#     4  10  24  43  58  82 115 161 198 249 312 346
#     4  12  22  38  57  79 124 156 195 252 290 360
#     4  10  22  37  58  90 113 155 193 243 303 362
#
# _framework density 19.122661000000001
#
# number of rings (size 3 to 8) (size 9 to 14) (size 15 to 20)
#    0.462    1.846    1.538    3.231    2.154    1.538 
#    2.769    1.538    0.000    4.154    0.000    0.000 
#    0.000    0.000    0.000    0.000    0.000    0.000 
#
# Total GULP energy -289634.879251 kJ/mol
# GULP energy per Si atom -5569.901524 kJ/mol
# Density = 1.907914 g / cm^3
# Si number density = 19.122661 Si / 1000 Ang^3
#
#
#
# Elastic Constant Matrix: (Units=GPa)
#
#
# Indices 1 2 3 4 5 6 
#
# 1 103.3043 31.3282 10.5119 0.0000 0.0000 0.0000
# 2 31.3282 66.7987 13.5547 0.0000 0.0000 0.0000
# 3 10.5119 13.5547 63.4190 0.0000 0.0000 0.0000
# 4 0.0000 0.0000 0.0000 15.2478 0.0000 0.0000
# 5 0.0000 0.0000 0.0000 0.0000-1523.6585 0.0000
# 6 0.0000 0.0000 0.0000 0.0000 0.0000 22.8254
#
#
#
# Elastic Compliance Matrix: (Units=1/GPa)
#
#
# Indices 1 2 3 4 5 6 
#
# 1 0.011322 -0.005152 -0.000775 0.000000 0.000000 0.000000
# 2 -0.005152 0.017994 -0.002992 0.000000 0.000000 0.000000
# 3 -0.000775 -0.002992 0.016536 0.000000 0.000000 0.000000
# 4 0.000000 0.000000 0.000000 0.065583 0.000000 0.000000
# 5 0.000000 0.000000 0.000000 0.000000 -0.000656 0.000000
# 6 0.000000 0.000000 0.000000 0.000000 0.000000 0.043811
#
#
# Mechanical properties :
#
#
# Convention : Reuss Voigt Hill
#
# Bulk Modulus (GPa) = 35.69854 38.25684 36.97769
# Shear Modulus (GPa) = 27.50789 -285.24191 -128.86701
#
# Velocity S-wave (km/s) = 3.79687 -12.22654 -8.21803
# Velocity P-wave (km/s) = 6.15876 13.38910 8.40648
#
# Compressibility (1/GPa) = 0.02801235
#
# Stress axis : x y z
#
# Youngs Moduli (GPa) = 88.32700 55.57439 60.47368
#
# Poissons Ratio (x) = 0.28634 0.04689
# Poissons Ratio (y) = 0.45510 0.18093
# Poissons Ratio (z) = 0.06848 0.16627
#
# Static dielectric constant tensor:
#      x y z
#    x 1.658400 0.000000 0.000000 
#    y 0.000000 1.674280 0.000000 
#    z 0.000000 0.000000 1.662450 
# 
# From -- ./inp_files/6383.got.cif
#   From: 2010.05.17/outbox.cif.g08.bks.cpg/sg55_4_cif.got.tgz:6383.got - 2010.06.03 13:27:54.
