data_PCOD9428333
_publ_section_title
;
Structure prediction by ZEFSAII (Michael W. Deem and Ramdas Pophale) SiO2 
 PCOD9428333
Probable space group: P B A M
;
_chemical_formula_sum "Si O2"
_cell_formula_units_Z 56
_cell_length_a 5.005710
_cell_length_b 30.719135
_cell_length_c 14.232457
_cell_angle_alpha 90.000000
_cell_angle_beta 90.000000
_cell_angle_gamma 90.000000
_cell_volume 2188.540302
_symmetry_space_group_name_H-M "P B A M"
_symmetry_group_IT_number 55
_symmetry_cell_setting 'orthorhombic'
loop_
_space_group_symop_operation_xyz
x,y,z
-x,-y,z
1/2+x,1/2-y,-z
1/2-x,1/2+y,-z
-x,-y,-z
x,y,-z
1/2-x,1/2+y,z
1/2+x,1/2-y,z
loop_
_atom_site_type_symbol
_atom_site_label
_atom_site_fract_x
_atom_site_fract_y
_atom_site_fract_z
Si Si1 0.874914 0.451206 0.396283
Si Si2 0.554800 0.645806 0.805772
Si Si3 0.960888 0.388490 0.107971
Si Si4 0.586213 0.227592 0.145347
Si Si5 0.758008 0.970175 0.196486
Si Si6 0.743027 0.134535 0.603257
Si Si7 0.462169 0.223957 0.367754
O O1 0.745037 0.445822 0.500000
O O2 0.698354 0.449955 0.301561
O O3 0.000000 0.500000 0.398793
O O4 0.088320 0.411677 0.386427
O O5 0.251500 0.642790 0.839210
O O6 0.722929 0.685208 0.852938
O O7 0.572728 0.645077 0.693161
O O8 0.752546 0.607628 0.841604
O O9 0.812091 0.433922 0.121356
O O10 0.991681 0.376241 0.000000
O O11 0.292949 0.236557 0.105088
O O12 0.497961 0.228666 0.255291
O O13 0.500000 0.000000 0.205773
O O14 0.000000 0.000000 0.169173
O O15 0.872257 0.135025 0.500000
O O16 0.536329 0.175031 0.605902
O O17 0.178722 0.240727 0.400013
#
# Coordination Sequence:
#
# PCOD9428333 Si02
#       7
#     8   8   8   8   8   8   8
#     4   9  19  39  65  97 137 181 225 268 320 391
#     4  11  23  43  68  98 137 175 221 278 336 403
#     4  12  26  45  70  98 129 172 222 280 350 404
#     4   9  17  33  60  92 126 172 217 264 328 394
#     4  11  24  43  69  97 131 171 219 275 334 398
#     4  10  21  39  66 101 138 182 229 271 331 405
#     4   9  19  36  57  89 133 175 219 271 324 389
#
# _framework density 25.587833
#
# number of rings (size 3 to 8) (size 9 to 14) (size 15 to 20)
#    0.000    1.857    1.429    2.143    2.000    4.857 
#    0.000    2.857    0.000    8.571    0.000    0.000 
#    0.000    0.000    0.000    0.000    0.000    0.000 
#
# Total GULP energy -312969.348080 kJ/mol
# GULP energy per Si atom -5588.738359 kJ/mol
# Density = 2.552959 g / cm^3
# Si number density = 25.587833 Si / 1000 Ang^3
#
#
#
# Elastic Constant Matrix: (Units=GPa)
#
#
# Indices 1 2 3 4 5 6 
#
# 1 95.1461 5.5462 15.4398 0.0000 0.0000 0.0000
# 2 5.5462 115.0113 7.0361 0.0000 0.0000 0.0000
# 3 15.4398 7.0361 155.3056 0.0000 0.0000 0.0000
# 4 0.0000 0.0000 0.0000 -132.0031 0.0000 0.0000
# 5 0.0000 0.0000 0.0000 0.0000 -0.2089 0.0000
# 6 0.0000 0.0000 0.0000 0.0000 0.0000 38.7569
#
#
#
# Elastic Compliance Matrix: (Units=1/GPa)
#
#
# Indices 1 2 3 4 5 6 
#
# 1 0.010706 -0.000452 -0.001044 0.000000 0.000000 0.000000
# 2 -0.000452 0.008738 -0.000351 0.000000 0.000000 0.000000
# 3 -0.001044 -0.000351 0.006559 0.000000 0.000000 0.000000
# 4 0.000000 0.000000 0.000000 -0.007576 0.000000 0.000000
# 5 0.000000 0.000000 0.000000 0.000000 -4.786829 0.000000
# 6 0.000000 0.000000 0.000000 0.000000 0.000000 0.025802
#
#
# Mechanical properties :
#
#
# Convention : Reuss Voigt Hill
#
# Bulk Modulus (GPa) = 44.82641 46.83414 45.83027
# Shear Modulus (GPa) = -1.05675 3.80503 1.37414
#
# Velocity S-wave (km/s) = -0.64334 1.22077 0.73362
# Velocity P-wave (km/s) = 4.12369 4.50889 4.32058
#
# Compressibility (1/GPa) = 0.02230828
#
# Stress axis : x y z
#
# Youngs Moduli (GPa) = 93.40632 114.44161 152.47183
#
# Poissons Ratio (x) = 0.05177 0.15916
# Poissons Ratio (y) = 0.04226 0.05350
# Poissons Ratio (z) = 0.09750 0.04016
#
# Static dielectric constant tensor:
#      x y z
#    x 1.955860 0.000000 0.000000 
#    y 0.000000 2.162930 0.000000 
#    z 0.000000 0.000000 2.064420 
# 
# From -- ./inp_files/16770.got.cif
#   From: 2010.05.17/outbox.cif.g08.bks.cpg/sg55_9_cif.got.tgz:16770.got - 2010.06.03 13:27:54.
