data_PCOD9428498
_publ_section_title
;
Structure prediction by ZEFSAII (Michael W. Deem and Ramdas Pophale) SiO2 
 PCOD9428498
Probable space group: P B A M
;
_chemical_formula_sum "Si O2"
_cell_formula_units_Z 40
_cell_length_a 11.600630
_cell_length_b 14.774086
_cell_length_c 9.692767
_cell_angle_alpha 90.000000
_cell_angle_beta 90.000000
_cell_angle_gamma 90.000000
_cell_volume 1661.230787
_symmetry_space_group_name_H-M "P B A M"
_symmetry_group_IT_number 55
_symmetry_cell_setting 'orthorhombic'
loop_
_space_group_symop_operation_xyz
x,y,z
-x,-y,z
1/2+x,1/2-y,-z
1/2-x,1/2+y,-z
-x,-y,-z
x,y,-z
1/2-x,1/2+y,z
1/2+x,1/2-y,z
loop_
_atom_site_type_symbol
_atom_site_label
_atom_site_fract_x
_atom_site_fract_y
_atom_site_fract_z
Si Si1 0.180331 0.023550 0.154980
Si Si2 0.530738 0.642733 0.216637
Si Si3 0.124202 0.578628 0.659765
Si Si4 0.230557 0.778825 0.352796
Si Si5 0.566634 0.165147 0.156593
O O1 0.293162 0.015944 0.248020
O O2 0.090273 0.091484 0.228912
O O3 0.111522 0.930022 0.141884
O O4 0.206541 0.057728 0.000000
O O5 0.610279 0.666695 0.346467
O O6 0.504220 0.739668 0.150162
O O7 0.110778 0.550871 0.500000
O O8 0.192179 0.674817 0.657260
O O9 0.007161 0.601074 0.742088
O O10 0.290200 0.794164 0.500000
O O11 0.314091 0.807036 0.229431
O O12 0.580888 0.130579 0.000000
#
# Coordination Sequence:
#
# PCOD9428498 Si02
#       5
#     8   8   8   8   8
#     4  11  21  38  62  91 124 154 194 245 296 350
#     4  10  22  37  60  92 123 154 192 244 299 349
#     4  10  22  38  57  84 121 159 198 242 294 354
#     4  10  22  39  59  85 120 160 200 243 291 351
#     4  11  21  37  63  90 117 155 201 247 296 349
#
# _framework density 24.078533
#
# number of rings (size 3 to 8) (size 9 to 14) (size 15 to 20)
#    0.000    1.600    2.000    3.600    0.000    7.200 
#    0.000    3.000    0.000    4.800    0.000    0.000 
#    0.000    0.000    0.000    0.000    0.000    0.000 
#
# Total GULP energy -223520.236819 kJ/mol
# GULP energy per Si atom -5588.005920 kJ/mol
# Density = 2.402373 g / cm^3
# Si number density = 24.078533 Si / 1000 Ang^3
#
#
#
# Elastic Constant Matrix: (Units=GPa)
#
#
# Indices 1 2 3 4 5 6 
#
# 1 144.8756 29.8013 83.4279 0.0000 0.0000 0.0000
# 2 29.8013 76.6474 6.3797 0.0000 0.0000 0.0000
# 3 83.4279 6.3797 157.5248 0.0000 0.0000 0.0000
# 4 0.0000 0.0000 0.0000 2.8190 0.0000 0.0000
# 5 0.0000 0.0000 0.0000 0.0000 28.3352 0.0000
# 6 0.0000 0.0000 0.0000 0.0000 0.0000 53.6411
#
#
#
# Elastic Compliance Matrix: (Units=1/GPa)
#
#
# Indices 1 2 3 4 5 6 
#
# 1 0.010923 -0.003778 -0.005632 0.000000 0.000000 0.000000
# 2 -0.003778 0.014398 0.001418 0.000000 0.000000 0.000000
# 3 -0.005632 0.001418 0.009274 0.000000 0.000000 0.000000
# 4 0.000000 0.000000 0.000000 0.354739 0.000000 0.000000
# 5 0.000000 0.000000 0.000000 0.000000 0.035292 0.000000
# 6 0.000000 0.000000 0.000000 0.000000 0.000000 0.018642
#
#
# Mechanical properties :
#
#
# Convention : Reuss Voigt Hill
#
# Bulk Modulus (GPa) = 53.73532 68.69616 61.21574
# Shear Modulus (GPa) = 10.74217 34.25498 22.49858
#
# Velocity S-wave (km/s) = 2.11447 3.77588 3.06008
# Velocity P-wave (km/s) = 5.32226 6.89939 6.16150
#
# Compressibility (1/GPa) = 0.01860973
#
# Stress axis : x y z
#
# Youngs Moduli (GPa) = 91.55136 69.45540 107.83369
#
# Poissons Ratio (x) = 0.26241 0.60731
# Poissons Ratio (y) = 0.34589 -0.15289
# Poissons Ratio (z) = 0.51561 -0.09848
#
# Static dielectric constant tensor:
#      x y z
#    x 1.900560 0.000000 0.000000 
#    y 0.000000 1.954790 0.000000 
#    z 0.000000 0.000000 1.880960 
# 
# From -- ./inp_files/3636.got.cif
#   From: 2010.05.17/outbox.cif.g08.bks.cpg/sg55_2_cif.got.tgz:3636.got - 2010.06.03 13:27:54.
