data_PCOD9428914
_publ_section_title
;
Structure prediction by ZEFSAII (Michael W. Deem and Ramdas Pophale) SiO2 
 PCOD9428914
Probable space group: P B A M
;
_chemical_formula_sum "Si O2"
_cell_formula_units_Z 22
_cell_length_a 4.843054
_cell_length_b 37.789496
_cell_length_c 5.140365
_cell_angle_alpha 90.000000
_cell_angle_beta 90.000000
_cell_angle_gamma 90.000000
_cell_volume 940.771970
_symmetry_space_group_name_H-M "P B A M"
_symmetry_group_IT_number 55
_symmetry_cell_setting 'orthorhombic'
loop_
_space_group_symop_operation_xyz
x,y,z
-x,-y,z
1/2+x,1/2-y,-z
1/2-x,1/2+y,-z
-x,-y,-z
x,y,-z
1/2-x,1/2+y,z
1/2+x,1/2-y,z
loop_
_atom_site_type_symbol
_atom_site_label
_atom_site_fract_x
_atom_site_fract_y
_atom_site_fract_z
Si Si1 0.598677 0.132871 0.500000
Si Si2 0.598697 0.319446 0.500000
Si Si3 0.500000 0.500000 0.500000
Si Si4 0.258620 0.039778 0.000000
Si Si5 0.757544 0.087543 0.000000
Si Si6 0.754609 0.273859 0.000000
O O1 0.282845 0.145029 0.500000
O O2 0.677995 0.110093 0.749664
O O3 0.782646 0.168424 0.500000
O O4 0.676693 0.296659 0.750023
O O5 0.679685 0.479960 0.733620
O O6 0.576280 0.051737 0.000000
O O7 0.073800 0.075614 0.000000
O O8 0.570515 0.238329 0.000000
#
# Coordination Sequence:
#
# PCOD9428914 Si02
#       6
#     4   4   2   4   4   4
#     4  12  24  41  64  91 124 161 204 251 304 361
#     4  12  24  42  64  92 124 161 204 251 304 361
#     4  10  24  42  64  92 124 162 204 252 304 360
#     4  11  24  41  64  91 124 161 204 251 304 361
#     4  12  24  42  64  92 124 162 204 251 304 361
#     4  12  24  42  64  91 124 161 204 251 304 361
#
# _framework density 23.38505
#
# number of rings (size 3 to 8) (size 9 to 14) (size 15 to 20)
#    0.000    0.364    0.000    9.818    0.000    4.364 
#    0.000    0.000    0.000    0.000    0.000    0.000 
#    0.000    0.000    0.000    0.000    0.000    0.000 
#
# Total GULP energy -122890.679917 kJ/mol
# GULP energy per Si atom -5585.939996 kJ/mol
# Density = 2.333182 g / cm^3
# Si number density = 23.385050 Si / 1000 Ang^3
#
#
#
# Elastic Constant Matrix: (Units=GPa)
#
#
# Indices 1 2 3 4 5 6 
#
# 1 63.6164 0.0532 -1.3873 0.0000 0.0000 0.0000
# 2 0.0532 63.3140 55.1966 0.0000 0.0000 0.0000
# 3 -1.3873 55.1966 260.1569 0.0000 0.0000 0.0000
# 4 0.0000 0.0000 0.0000 56.7230 0.0000 0.0000
# 5 0.0000 0.0000 0.0000 0.0000 15.2184 0.0000
# 6 0.0000 0.0000 0.0000 0.0000 0.0000 72.8720
#
#
#
# Elastic Compliance Matrix: (Units=1/GPa)
#
#
# Indices 1 2 3 4 5 6 
#
# 1 0.015722 -0.000106 0.000106 0.000000 0.000000 0.000000
# 2 -0.000106 0.019379 -0.004112 0.000000 0.000000 0.000000
# 3 0.000106 -0.004112 0.004717 0.000000 0.000000 0.000000
# 4 0.000000 0.000000 0.000000 0.017630 0.000000 0.000000
# 5 0.000000 0.000000 0.000000 0.000000 0.065710 0.000000
# 6 0.000000 0.000000 0.000000 0.000000 0.000000 0.013723
#
#
# Mechanical properties :
#
#
# Convention : Reuss Voigt Hill
#
# Bulk Modulus (GPa) = 31.65130 54.97915 43.31522
# Shear Modulus (GPa) = 32.12642 51.17767 41.65204
#
# Velocity S-wave (km/s) = 3.71050 4.68319 4.22493
# Velocity P-wave (km/s) = 5.64990 7.26667 6.50868
#
# Compressibility (1/GPa) = 0.03159428
#
# Stress axis : x y z
#
# Youngs Moduli (GPa) = 63.60671 51.60117 212.00456
#
# Poissons Ratio (x) = 0.00546 -0.02254
# Poissons Ratio (y) = 0.00673 0.87181
# Poissons Ratio (z) = -0.00676 0.21220
#
# Static dielectric constant tensor:
#      x y z
#    x 1.832680 0.000000 0.000000 
#    y 0.000000 1.883940 0.000000 
#    z 0.000000 0.000000 1.779450 
# 
# From -- ./inp_files/118.got.cif
#   From: 2010.05.17/outbox.cif.g08.bks.cpg/sg55_1_cif.got.tgz:118.got - 2010.06.03 13:27:54.
