data_PCOD9428908
_publ_section_title
;
Structure prediction by ZEFSAII (Michael W. Deem and Ramdas Pophale) SiO2 
 PCOD9428908
Probable space group: P B A M
;
_chemical_formula_sum "Si O2"
_cell_formula_units_Z 58
_cell_length_a 11.425846
_cell_length_b 8.956041
_cell_length_c 27.325819
_cell_angle_alpha 90.000000
_cell_angle_beta 90.000000
_cell_angle_gamma 90.000000
_cell_volume 2796.260492
_symmetry_space_group_name_H-M "P B A M"
_symmetry_group_IT_number 55
_symmetry_cell_setting 'orthorhombic'
loop_
_space_group_symop_operation_xyz
x,y,z
-x,-y,z
1/2+x,1/2-y,-z
1/2-x,1/2+y,-z
-x,-y,-z
x,y,-z
1/2-x,1/2+y,z
1/2+x,1/2-y,z
loop_
_atom_site_type_symbol
_atom_site_label
_atom_site_fract_x
_atom_site_fract_y
_atom_site_fract_z
Si Si1 0.127967 0.820159 0.557877
Si Si2 0.131496 0.161032 0.593352
Si Si3 0.500000 0.000000 0.000000
Si Si4 0.887110 0.416198 0.809089
Si Si5 0.154930 0.656025 0.083567
Si Si6 0.122400 0.081163 0.707172
Si Si7 0.367418 0.492177 0.942758
Si Si8 0.256235 0.837835 0.238669
O O1 0.126433 0.791824 0.500000
O O2 0.248119 0.747110 0.579190
O O3 0.998120 0.773513 0.578738
O O4 0.136280 0.997540 0.568357
O O5 0.129753 0.134614 0.651531
O O6 0.410479 0.060180 0.042740
O O7 0.906265 0.361051 0.864291
O O8 0.792544 0.550661 0.805068
O O9 0.845346 0.273914 0.778618
O O10 0.000000 0.500000 0.788855
O O11 0.166802 0.821722 0.063325
O O12 0.285318 0.594943 0.088822
O O13 0.146119 0.222935 0.741968
O O14 0.217513 0.952589 0.719138
O O15 0.000000 0.000000 0.716292
O O16 0.500000 0.500000 0.926740
O O17 0.361775 0.538725 0.000000
#
# Coordination Sequence:
#
# PCOD9428908 Si02
#       8
#     8   8   2   8   8   8   8   8
#     4  11  22  41  63  94 138 180 221 272 324 384
#     4  11  23  40  65  98 130 176 229 270 328 387
#     4  12  24  40  68  92 126 178 208 266 318 368
#     4  11  23  43  64  93 125 164 206 258 322 399
#     4  12  25  42  68  93 132 167 216 265 319 386
#     4  11  21  41  66  93 129 163 213 277 325 388
#     4  11  25  41  63  93 126 166 215 255 314 375
#     4  10  24  41  65  94 125 163 208 264 339 390
#
# _framework density 20.741987000000002
#
# number of rings (size 3 to 8) (size 9 to 14) (size 15 to 20)
#    0.000    0.966    3.448    4.138    1.931    1.655 
#    0.000    4.828    0.000    0.000    0.000    0.000 
#    0.000    0.000    0.000    0.000    0.000    0.000 
#
# Total GULP energy -323222.490885 kJ/mol
# GULP energy per Si atom -5572.801567 kJ/mol
# Density = 2.069478 g / cm^3
# Si number density = 20.741987 Si / 1000 Ang^3
#
#
#
# Elastic Constant Matrix: (Units=GPa)
#
#
# Indices 1 2 3 4 5 6 
#
# 1 97.1545 40.2414 1.0468 0.0000 0.0000 0.0000
# 2 40.2414 58.7493 4.4904 0.0000 0.0000 0.0000
# 3 1.0468 4.4904 84.2612 0.0000 0.0000 0.0000
# 4 0.0000 0.0000 0.0000 53.8053 0.0000 0.0000
# 5 0.0000 0.0000 0.0000 0.0000 25.3063 0.0000
# 6 0.0000 0.0000 0.0000 0.0000 0.0000 275.0350
#
#
#
# Elastic Compliance Matrix: (Units=1/GPa)
#
#
# Indices 1 2 3 4 5 6 
#
# 1 0.014380 -0.009876 0.000348 0.000000 0.000000 0.000000
# 2 -0.009876 0.023874 -0.001150 0.000000 0.000000 0.000000
# 3 0.000348 -0.001150 0.011925 0.000000 0.000000 0.000000
# 4 0.000000 0.000000 0.000000 0.018586 0.000000 0.000000
# 5 0.000000 0.000000 0.000000 0.000000 0.039516 0.000000
# 6 0.000000 0.000000 0.000000 0.000000 0.000000 0.003636
#
#
# Mechanical properties :
#
#
# Convention : Reuss Voigt Hill
#
# Bulk Modulus (GPa) = 34.69514 36.85803 35.77659
# Shear Modulus (GPa) = 34.99429 83.78840 59.39135
#
# Velocity S-wave (km/s) = 4.11192 6.36264 5.35682
# Velocity P-wave (km/s) = 6.26954 8.47266 7.45296
#
# Compressibility (1/GPa) = 0.02882248
#
# Stress axis : x y z
#
# Youngs Moduli (GPa) = 69.54132 41.88597 83.85884
#
# Poissons Ratio (x) = 0.41368 -0.02916
# Poissons Ratio (y) = 0.68682 0.09641
# Poissons Ratio (z) = -0.02418 0.04815
#
# Static dielectric constant tensor:
#      x y z
#    x 1.802960 0.000000 0.000000 
#    y 0.000000 1.737150 0.000000 
#    z 0.000000 0.000000 1.716440 
# 
# From -- ./inp_files/23951.got.cif
#   From: 2010.05.17/outbox.cif.g08.bks.cpg/sg55_12_cif.got.tgz:23951.got - 2010.06.03 13:27:54.
