data_PCOD9428861
_publ_section_title
;
Structure prediction by ZEFSAII (Michael W. Deem and Ramdas Pophale) SiO2 
 PCOD9428861
Probable space group: P B A M
;
_chemical_formula_sum "Si O2"
_cell_formula_units_Z 48
_cell_length_a 9.774174
_cell_length_b 15.747610
_cell_length_c 16.054037
_cell_angle_alpha 90.000000
_cell_angle_beta 90.000000
_cell_angle_gamma 90.000000
_cell_volume 2471.035452
_symmetry_space_group_name_H-M "P B A M"
_symmetry_group_IT_number 55
_symmetry_cell_setting 'orthorhombic'
loop_
_space_group_symop_operation_xyz
x,y,z
-x,-y,z
1/2+x,1/2-y,-z
1/2-x,1/2+y,-z
-x,-y,-z
x,y,-z
1/2-x,1/2+y,z
1/2+x,1/2-y,z
loop_
_atom_site_type_symbol
_atom_site_label
_atom_site_fract_x
_atom_site_fract_y
_atom_site_fract_z
Si Si1 0.651548 0.106902 0.901015
Si Si2 0.953221 0.250907 0.317804
Si Si3 0.674550 0.914349 0.901293
Si Si4 0.098378 0.924565 0.599958
Si Si5 0.086807 0.417075 0.399260
Si Si6 0.700148 0.267780 0.794199
O O1 0.486952 0.104578 0.887858
O O2 0.716141 0.181497 0.847099
O O3 0.701122 0.012393 0.878400
O O4 0.674304 0.120009 0.000000
O O5 0.955134 0.168210 0.375581
O O6 0.800500 0.267472 0.285308
O O7 0.018290 0.333551 0.360648
O O8 0.045997 0.230208 0.238063
O O9 0.761574 0.847897 0.849905
O O10 0.699241 0.905726 0.000000
O O11 0.101590 0.931494 0.500000
O O12 0.256230 0.929552 0.628766
O O13 0.000000 0.000000 0.631586
O O14 0.085250 0.409271 0.500000
O O15 0.000000 0.500000 0.376030
#
# Coordination Sequence:
#
# PCOD9428861 Si02
#       6
#     8   8   8   8   8   8
#     4   9  19  38  62  86 116 157 204 247 292 356
#     4  12  25  40  59  90 127 163 196 248 308 362
#     4   9  19  38  63  86 113 158 206 246 294 355
#     4  10  23  43  65  90 121 160 205 251 301 359
#     4  10  23  43  66  90 118 160 209 251 298 360
#     4  12  23  38  59  90 125 158 198 246 306 359
#
# _framework density 19.425053999999999
#
# number of rings (size 3 to 8) (size 9 to 14) (size 15 to 20)
#    0.000    1.667    3.333    2.000    2.333    2.667 
#    0.000    0.000    0.000    2.000    0.000    0.000 
#    0.000    0.000    0.000    0.000    0.000    0.000 
#
# Total GULP energy -268151.888635 kJ/mol
# GULP energy per Si atom -5586.497680 kJ/mol
# Density = 1.938084 g / cm^3
# Si number density = 19.425054 Si / 1000 Ang^3
#
#
#
# Elastic Constant Matrix: (Units=GPa)
#
#
# Indices 1 2 3 4 5 6 
#
# 1 56.5727 58.7319 16.3368 0.0000 0.0000 0.0000
# 2 58.7319 135.6833 28.6745 0.0000 0.0000 0.0000
# 3 16.3368 28.6745 15.6046 0.0000 0.0000 0.0000
# 4 0.0000 0.0000 0.0000 174.5839 0.0000 0.0000
# 5 0.0000 0.0000 0.0000 0.0000 9.8337 0.0000
# 6 0.0000 0.0000 0.0000 0.0000 0.0000 34.8501
#
#
#
# Elastic Compliance Matrix: (Units=1/GPa)
#
#
# Indices 1 2 3 4 5 6 
#
# 1 0.033857 -0.011713 -0.013922 0.000000 0.000000 0.000000
# 2 -0.011713 0.016102 -0.017325 0.000000 0.000000 0.000000
# 3 -0.013922 -0.017325 0.110494 0.000000 0.000000 0.000000
# 4 0.000000 0.000000 0.000000 0.005728 0.000000 0.000000
# 5 0.000000 0.000000 0.000000 0.000000 0.101691 0.000000
# 6 0.000000 0.000000 0.000000 0.000000 0.000000 0.028694
#
#
# Mechanical properties :
#
#
# Convention : Reuss Voigt Hill
#
# Bulk Modulus (GPa) = 13.41690 46.14966 29.78328
# Shear Modulus (GPa) = 12.27503 50.79469 31.53486
#
# Velocity S-wave (km/s) = 2.51652 5.11916 4.03353
# Velocity P-wave (km/s) = 3.91993 7.66489 6.08754
#
# Compressibility (1/GPa) = 0.07453288
#
# Stress axis : x y z
#
# Youngs Moduli (GPa) = 29.53608 62.10563 9.05023
#
# Poissons Ratio (x) = 0.72745 0.12600
# Poissons Ratio (y) = 0.34596 0.15679
# Poissons Ratio (z) = 0.41120 1.07598
#
# Static dielectric constant tensor:
#      x y z
#    x 1.658650 0.000000 0.000000 
#    y 0.000000 1.649960 0.000000 
#    z 0.000000 0.000000 1.675020 
# 
# From -- ./inp_files/20764.got.cif
#   From: 2010.05.17/outbox.cif.g08.bks.cpg/sg55_11_cif.got.tgz:20764.got - 2010.06.03 13:27:54.
