data_PCOD9428242
_publ_section_title
;
Structure prediction by ZEFSAII (Michael W. Deem and Ramdas Pophale) SiO2 
 PCOD9428242
Probable space group: P B A M
;
_chemical_formula_sum "Si O2"
_cell_formula_units_Z 56
_cell_length_a 10.088266
_cell_length_b 17.693725
_cell_length_c 13.705734
_cell_angle_alpha 90.000000
_cell_angle_beta 90.000000
_cell_angle_gamma 90.000000
_cell_volume 2446.459873
_symmetry_space_group_name_H-M "P B A M"
_symmetry_group_IT_number 55
_symmetry_cell_setting 'orthorhombic'
loop_
_space_group_symop_operation_xyz
x,y,z
-x,-y,z
1/2+x,1/2-y,-z
1/2-x,1/2+y,-z
-x,-y,-z
x,y,-z
1/2-x,1/2+y,z
1/2+x,1/2-y,z
loop_
_atom_site_type_symbol
_atom_site_label
_atom_site_fract_x
_atom_site_fract_y
_atom_site_fract_z
Si Si1 0.795429 0.169885 0.887851
Si Si2 0.130720 0.705060 0.248531
Si Si3 0.446713 0.918328 0.188732
Si Si4 0.942064 0.172140 0.610708
Si Si5 0.431677 0.581861 0.107563
Si Si6 0.314901 0.929994 0.611234
Si Si7 0.685995 0.415014 0.682502
O O1 0.777758 0.240782 0.817012
O O2 0.692436 0.104341 0.859070
O O3 0.946144 0.139805 0.876708
O O4 0.774389 0.190250 0.000000
O O5 0.040658 0.760820 0.312617
O O6 0.213918 0.654855 0.324097
O O7 0.049111 0.650146 0.177214
O O8 0.423640 0.920081 0.305621
O O9 0.500000 0.000000 0.157477
O O10 0.959241 0.198126 0.500000
O O11 0.796478 0.135234 0.621412
O O12 0.047720 0.107089 0.634069
O O13 0.500000 0.500000 0.104294
O O14 0.337380 0.579436 0.200796
O O15 0.371994 0.596427 0.000000
O O16 0.362918 0.930504 0.500000
O O17 0.243960 0.009140 0.637594
#
# Coordination Sequence:
#
# PCOD9428242 Si02
#       7
#     8   8   8   8   8   8   8
#     4  11  25  46  70  99 135 174 228 286 347 417
#     4  12  26  43  66  97 138 184 221 285 351 405
#     4  12  25  48  70 100 142 187 227 284 343 413
#     4  11  24  41  66  97 131 175 231 287 344 411
#     4  10  21  38  68  99 126 169 218 276 343 408
#     4  11  24  44  71 101 136 181 231 286 343 405
#     4  12  22  42  67  94 136 177 227 286 342 411
#
# _framework density 22.890218999999998
#
# number of rings (size 3 to 8) (size 9 to 14) (size 15 to 20)
#    0.000    0.714    4.286    3.429    0.000    4.571 
#    0.000    0.000    0.000    0.000    0.000    0.000 
#    0.000    0.000    0.000    0.000    0.000    0.000 
#
# Total GULP energy -313464.040521 kJ/mol
# GULP energy per Si atom -5597.572152 kJ/mol
# Density = 2.283812 g / cm^3
# Si number density = 22.890219 Si / 1000 Ang^3
#
#
#
# Elastic Constant Matrix: (Units=GPa)
#
#
# Indices 1 2 3 4 5 6 
#
# 1 22.6704 -1.1961 -0.7828 0.0000 0.0000 0.0000
# 2 -1.1961 92.5193 12.9952 0.0000 0.0000 0.0000
# 3 -0.7828 12.9952 80.8576 0.0000 0.0000 0.0000
# 4 0.0000 0.0000 0.0000 12.1307 0.0000 0.0000
# 5 0.0000 0.0000 0.0000 0.0000 15.7326 0.0000
# 6 0.0000 0.0000 0.0000 0.0000 0.0000 35.4938
#
#
#
# Elastic Compliance Matrix: (Units=1/GPa)
#
#
# Indices 1 2 3 4 5 6 
#
# 1 0.044150 0.000523 0.000343 0.000000 0.000000 0.000000
# 2 0.000523 0.011064 -0.001773 0.000000 0.000000 0.000000
# 3 0.000343 -0.001773 0.012656 0.000000 0.000000 0.000000
# 4 0.000000 0.000000 0.000000 0.082436 0.000000 0.000000
# 5 0.000000 0.000000 0.000000 0.000000 0.063562 0.000000
# 6 0.000000 0.000000 0.000000 0.000000 0.000000 0.028174
#
#
# Mechanical properties :
#
#
# Convention : Reuss Voigt Hill
#
# Bulk Modulus (GPa) = 15.13878 24.23111 19.68494
# Shear Modulus (GPa) = 18.80584 25.00681 21.90632
#
# Velocity S-wave (km/s) = 2.86941 3.30883 3.09692
# Velocity P-wave (km/s) = 4.19595 5.02062 4.62670
#
# Compressibility (1/GPa) = 0.06605553
#
# Stress axis : x y z
#
# Youngs Moduli (GPa) = 22.65012 90.38015 79.01563
#
# Poissons Ratio (x) = -0.04723 -0.02714
# Poissons Ratio (y) = -0.01184 0.14011
# Poissons Ratio (z) = -0.00778 0.16026
#
# Static dielectric constant tensor:
#      x y z
#    x 1.895960 0.000000 0.000000 
#    y 0.000000 1.840960 0.000000 
#    z 0.000000 0.000000 1.840560 
# 
# From -- ./inp_files/18399.got.cif
#   From: 2010.05.17/outbox.cif.g08.bks.cpg/sg55_10_cif.got.tgz:18399.got - 2010.06.03 13:27:54.
