data_PCOD9428943
_publ_section_title
;
Structure prediction by ZEFSAII (Michael W. Deem and Ramdas Pophale) SiO2 
 PCOD9428943
Probable space group: P B A M
;
_chemical_formula_sum "Si O2"
_cell_formula_units_Z 42
_cell_length_a 12.329073
_cell_length_b 15.642172
_cell_length_c 11.993931
_cell_angle_alpha 90.000000
_cell_angle_beta 90.000000
_cell_angle_gamma 90.000000
_cell_volume 2313.071338
_symmetry_space_group_name_H-M "P B A M"
_symmetry_group_IT_number 55
_symmetry_cell_setting 'orthorhombic'
loop_
_space_group_symop_operation_xyz
x,y,z
-x,-y,z
1/2+x,1/2-y,-z
1/2-x,1/2+y,-z
-x,-y,-z
x,y,-z
1/2-x,1/2+y,z
1/2+x,1/2-y,z
loop_
_atom_site_type_symbol
_atom_site_label
_atom_site_fract_x
_atom_site_fract_y
_atom_site_fract_z
Si Si1 0.866242 0.900374 0.500000
Si Si2 0.771653 0.655320 0.292984
Si Si3 0.505764 0.900269 0.631755
Si Si4 0.621691 0.606926 0.500000
Si Si5 0.232805 0.653829 0.279579
Si Si6 0.777734 0.004672 0.122521
Si Si7 0.500000 0.500000 0.000000
O O1 0.803371 0.867850 0.609727
O O2 0.993104 0.873822 0.500000
O O3 0.863730 0.003905 0.500000
O O4 0.890874 0.642707 0.344295
O O5 0.683258 0.642413 0.391173
O O6 0.759207 0.749980 0.244952
O O7 0.756478 0.582497 0.200691
O O8 0.527126 0.899436 0.500000
O O9 0.606433 0.855256 0.690159
O O10 0.500000 0.000000 0.666756
O O11 0.257416 0.583538 0.186424
O O12 0.722904 0.006416 0.000000
O O13 0.904927 0.010808 0.095076
#
# Coordination Sequence:
#
# PCOD9428943 Si02
#       7
#     4   8   8   4   8   8   2
#     4  11  23  37  63  98 136 172 217 273 325 391
#     4  12  25  40  67  99 134 172 221 270 327 400
#     4  11  22  41  64  96 140 181 209 255 337 398
#     4  11  23  37  63  98 136 172 217 273 325 391
#     4  12  25  40  67  99 134 172 221 270 327 400
#     4  10  24  46  67  91 120 174 223 270 329 382
#     4   8  24  44  76  80 132 170 208 292 336 384
#
# _framework density 18.157675000000001
#
# number of rings (size 3 to 8) (size 9 to 14) (size 15 to 20)
#    0.571    0.381    5.714    0.571    5.333    0.762 
#    0.000    1.905    0.000    0.000    0.000    0.000 
#    0.000    0.000    0.000    0.000    0.000    0.000 
#
# Total GULP energy -234034.075288 kJ/mol
# GULP energy per Si atom -5572.239888 kJ/mol
# Density = 1.811635 g / cm^3
# Si number density = 18.157675 Si / 1000 Ang^3
#
#
#
# Elastic Constant Matrix: (Units=GPa)
#
#
# Indices 1 2 3 4 5 6 
#
# 1 79.5253 -2.1261 -2.5091 0.0000 0.0000 0.0000
# 2 -2.1261 120.9079 30.4799 0.0000 0.0000 0.0000
# 3 -2.5091 30.4799 93.7690 0.0000 0.0000 0.0000
# 4 0.0000 0.0000 0.0000 -21.1148 0.0000 0.0000
# 5 0.0000 0.0000 0.0000 0.0000 1.9418 0.0000
# 6 0.0000 0.0000 0.0000 0.0000 0.0000 18.5700
#
#
#
# Elastic Compliance Matrix: (Units=1/GPa)
#
#
# Indices 1 2 3 4 5 6 
#
# 1 0.012588 0.000149 0.000289 0.000000 0.000000 0.000000
# 2 0.000149 0.009011 -0.002925 0.000000 0.000000 0.000000
# 3 0.000289 -0.002925 0.011623 0.000000 0.000000 0.000000
# 4 0.000000 0.000000 0.000000 -0.047360 0.000000 0.000000
# 5 0.000000 0.000000 0.000000 0.000000 0.514975 0.000000
# 6 0.000000 0.000000 0.000000 0.000000 0.000000 0.053850
#
#
# Mechanical properties :
#
#
# Convention : Reuss Voigt Hill
#
# Bulk Modulus (GPa) = 35.40362 38.43242 36.91802
# Shear Modulus (GPa) = 8.78615 17.76991 13.27803
#
# Velocity S-wave (km/s) = 2.20212 3.13172 2.70712
# Velocity P-wave (km/s) = 5.09960 5.85566 5.49066
#
# Compressibility (1/GPa) = 0.02824570
#
# Stress axis : x y z
#
# Youngs Moduli (GPa) = 79.44272 110.97872 86.03626
#
# Poissons Ratio (x) = -0.01649 -0.02482
# Poissons Ratio (y) = -0.01181 0.25166
# Poissons Ratio (z) = -0.02292 0.32461
#
# Static dielectric constant tensor:
#      x y z
#    x 1.606510 0.000000 0.000000 
#    y 0.000000 1.628070 0.000000 
#    z 0.000000 0.000000 1.626930 
# 
# From -- ./inp_files/13165.got.cif
#   From: 2010.05.17/outbox.cif.g08.bks.cpg/sg55_7_cif.got.tgz:13165.got - 2010.06.03 13:27:54.
