data_PCOD9428097
_publ_section_title
;
Structure prediction by ZEFSAII (Michael W. Deem and Ramdas Pophale) SiO2 
 PCOD9428097
Probable space group: P B A M
;
_chemical_formula_sum "Si O2"
_cell_formula_units_Z 40
_cell_length_a 4.823725
_cell_length_b 13.014775
_cell_length_c 24.679223
_cell_angle_alpha 90.000000
_cell_angle_beta 90.000000
_cell_angle_gamma 90.000000
_cell_volume 1549.354106
_symmetry_space_group_name_H-M "P B A M"
_symmetry_group_IT_number 55
_symmetry_cell_setting 'orthorhombic'
loop_
_space_group_symop_operation_xyz
x,y,z
-x,-y,z
1/2+x,1/2-y,-z
1/2-x,1/2+y,-z
-x,-y,-z
x,y,-z
1/2-x,1/2+y,z
1/2+x,1/2-y,z
loop_
_atom_site_type_symbol
_atom_site_label
_atom_site_fract_x
_atom_site_fract_y
_atom_site_fract_z
Si Si1 0.952429 0.676184 0.941398
Si Si2 0.470043 0.826530 0.710835
Si Si3 0.750097 0.500544 0.635308
Si Si4 0.404204 0.177101 0.827536
Si Si5 0.040925 0.174789 0.561184
O O1 0.642834 0.720593 0.940594
O O2 0.025306 0.623672 0.884468
O O3 0.003341 0.625597 0.000000
O O4 0.687499 0.734585 0.704527
O O5 0.499796 0.912649 0.664757
O O6 0.517319 0.872454 0.770467
O O7 0.500000 0.500000 0.683638
O O8 0.500664 0.412993 0.605818
O O9 0.000000 0.500000 0.586965
O O10 0.091173 0.218045 0.827013
O O11 0.014514 0.135701 0.500000
O O12 0.325272 0.233787 0.568741
#
# Coordination Sequence:
#
# PCOD9428097 Si02
#       5
#     8   8   8   8   8
#     4   8  12  18  31  55  88 126 172 225 272 315
#     4  10  21  38  58  82 118 160 197 234 281 343
#     4  12  26  40  63  94 122 153 197 243 288 341
#     4   8  14  25  42  64  95 140 185 223 270 328
#     4  10  23  45  70  93 119 153 193 241 297 351
#
# _framework density 25.817211
#
# number of rings (size 3 to 8) (size 9 to 14) (size 15 to 20)
#    0.000    2.400    0.000    2.400    0.000    5.600 
#    0.000    0.000    0.000    1.200    0.000    0.000 
#    0.000    1.600    0.000    0.000    0.000   14.800 
#
# Total GULP energy -222880.053079 kJ/mol
# GULP energy per Si atom -5572.001327 kJ/mol
# Density = 2.575845 g / cm^3
# Si number density = 25.817211 Si / 1000 Ang^3
#
#
#
# Elastic Constant Matrix: (Units=GPa)
#
#
# Indices 1 2 3 4 5 6 
#
# 1 189.3624 0.5220 2.7753 0.0000 0.0000 0.0000
# 2 0.5220 102.9176 82.2764 0.0000 0.0000 0.0000
# 3 2.7753 82.2764 252.2621 0.0000 0.0000 0.0000
# 4 0.0000 0.0000 0.0000 -7.6456 0.0000 0.0000
# 5 0.0000 0.0000 0.0000 0.0000 36.5982 0.0000
# 6 0.0000 0.0000 0.0000 0.0000 0.0000 13.0633
#
#
#
# Elastic Compliance Matrix: (Units=1/GPa)
#
#
# Indices 1 2 3 4 5 6 
#
# 1 0.005282 0.000027 -0.000067 0.000000 0.000000 0.000000
# 2 0.000027 0.013144 -0.004287 0.000000 0.000000 0.000000
# 3 -0.000067 -0.004287 0.005363 0.000000 0.000000 0.000000
# 4 0.000000 0.000000 0.000000 -0.130794 0.000000 0.000000
# 5 0.000000 0.000000 0.000000 0.000000 0.027324 0.000000
# 6 0.000000 0.000000 0.000000 0.000000 0.000000 0.076550
#
#
# Mechanical properties :
#
#
# Convention : Reuss Voigt Hill
#
# Bulk Modulus (GPa) = 66.07671 79.52106 72.79888
# Shear Modulus (GPa) = 473.12005 39.00108 256.06056
#
# Velocity S-wave (km/s) = 13.55195 3.89094 9.96983
# Velocity P-wave (km/s) = 16.44760 7.14523 12.68026
#
# Compressibility (1/GPa) = 0.01513393
#
# Stress axis : x y z
#
# Youngs Moduli (GPa) = 189.32993 76.08203 186.45771
#
# Poissons Ratio (x) = -0.00202 0.01245
# Poissons Ratio (y) = -0.00504 0.79938
# Poissons Ratio (z) = 0.01264 0.32618
#
# Static dielectric constant tensor:
#      x y z
#    x 2.206540 0.000000 0.000000 
#    y 0.000000 1.933380 0.000000 
#    z 0.000000 0.000000 2.080490 
# 
# From -- ./inp_files/23738.got.cif
#   From: 2010.05.17/outbox.cif.g08.bks.cpg/sg55_12_cif.got.tgz:23738.got - 2010.06.03 13:27:54.
