data_PCOD9428168
_publ_section_title
;
Structure prediction by ZEFSAII (Michael W. Deem and Ramdas Pophale) SiO2 
 PCOD9428168
Probable space group: P B A M
;
_chemical_formula_sum "Si O2"
_cell_formula_units_Z 36
_cell_length_a 14.776347
_cell_length_b 13.170751
_cell_length_c 7.038218
_cell_angle_alpha 90.000000
_cell_angle_beta 90.000000
_cell_angle_gamma 90.000000
_cell_volume 1369.746928
_symmetry_space_group_name_H-M "P B A M"
_symmetry_group_IT_number 55
_symmetry_cell_setting 'orthorhombic'
loop_
_space_group_symop_operation_xyz
x,y,z
-x,-y,z
1/2+x,1/2-y,-z
1/2-x,1/2+y,-z
-x,-y,-z
x,y,-z
1/2-x,1/2+y,z
1/2+x,1/2-y,z
loop_
_atom_site_type_symbol
_atom_site_label
_atom_site_fract_x
_atom_site_fract_y
_atom_site_fract_z
Si Si1 0.355175 0.030994 0.500000
Si Si2 0.182181 0.046215 0.228515
Si Si3 0.119753 0.837788 0.228001
Si Si4 0.178530 0.277272 0.771395
Si Si5 0.005677 0.643388 0.770598
O O1 0.274724 0.023506 0.335803
O O2 0.428731 0.067780 0.335423
O O3 0.155336 0.161094 0.276011
O O4 0.113047 0.955858 0.278566
O O5 0.196266 0.043207 0.000000
O O6 0.219564 0.800277 0.291344
O O7 0.046130 0.754909 0.280022
O O8 0.120332 0.834671 0.000000
O O9 0.098952 0.351541 0.704242
O O10 0.178280 0.285094 0.000000
O O11 0.009032 0.630018 0.000000
#
# Coordination Sequence:
#
# PCOD9428168 Si02
#       5
#     4   8   8   8   8
#     4  12  22  36  61  86 116 165 192 242 298 346
#     4  10  21  38  61  89 120 157 201 244 298 354
#     4   9  18  37  63  87 119 159 197 247 299 349
#     4   9  18  37  63  87 119 159 197 247 299 349
#     4  10  21  38  61  89 120 157 201 244 298 354
#
# _framework density 26.282228
#
# number of rings (size 3 to 8) (size 9 to 14) (size 15 to 20)
#    0.000    2.222    2.222    0.667    0.000    2.667 
#    0.000    6.667    0.000    8.000    0.000    0.000 
#    0.000    0.000    0.000    0.000    0.000    0.000 
#
# Total GULP energy -200606.663591 kJ/mol
# GULP energy per Si atom -5572.407322 kJ/mol
# Density = 2.622241 g / cm^3
# Si number density = 26.282228 Si / 1000 Ang^3
#
#
#
# Elastic Constant Matrix: (Units=GPa)
#
#
# Indices 1 2 3 4 5 6 
#
# 1 121.0282 25.2500 -4.6469 0.0000 0.0000 0.0000
# 2 25.2500 128.4367 -21.1251 0.0000 0.0000 0.0000
# 3 -4.6469 -21.1251 186.8299 0.0000 0.0000 0.0000
# 4 0.0000 0.0000 0.0000 -68.6773 0.0000 0.0000
# 5 0.0000 0.0000 0.0000 0.0000 125.0219 0.0000
# 6 0.0000 0.0000 0.0000 0.0000 0.0000 48.2401
#
#
#
# Elastic Compliance Matrix: (Units=1/GPa)
#
#
# Indices 1 2 3 4 5 6 
#
# 1 0.008616 -0.001690 0.000023 0.000000 0.000000 0.000000
# 2 -0.001690 0.008265 0.000892 0.000000 0.000000 0.000000
# 3 0.000023 0.000892 0.005454 0.000000 0.000000 0.000000
# 4 0.000000 0.000000 0.000000 -0.014561 0.000000 0.000000
# 5 0.000000 0.000000 0.000000 0.000000 0.007999 0.000000
# 6 0.000000 0.000000 0.000000 0.000000 0.000000 0.020730
#
#
# Mechanical properties :
#
#
# Convention : Reuss Voigt Hill
#
# Bulk Modulus (GPa) = 48.10869 48.36121 48.23495
# Shear Modulus (GPa) = 111.16100 50.03806 80.59953
#
# Velocity S-wave (km/s) = 6.51053 4.36807 5.54378
# Velocity P-wave (km/s) = 8.65218 6.62426 7.70523
#
# Compressibility (1/GPa) = 0.02078627
#
# Stress axis : x y z
#
# Youngs Moduli (GPa) = 116.06291 120.99235 183.35322
#
# Poissons Ratio (x) = 0.20448 -0.00425
# Poissons Ratio (y) = 0.19615 -0.16364
# Poissons Ratio (z) = -0.00269 -0.10799
#
# Static dielectric constant tensor:
#      x y z
#    x 1.955380 0.000000 0.000000 
#    y 0.000000 2.158630 0.000000 
#    z 0.000000 0.000000 2.026300 
# 
# From -- ./inp_files/5081.got.cif
#   From: 2010.05.17/outbox.cif.g08.bks.cpg/sg55_3_cif.got.tgz:5081.got - 2010.06.03 13:27:54.
