data_PCOD9428369
_publ_section_title
;
Structure prediction by ZEFSAII (Michael W. Deem and Ramdas Pophale) SiO2 
 PCOD9428369
Probable space group: P B A M
;
_chemical_formula_sum "Si O2"
_cell_formula_units_Z 48
_cell_length_a 19.531057
_cell_length_b 9.521561
_cell_length_c 13.213645
_cell_angle_alpha 90.000000
_cell_angle_beta 90.000000
_cell_angle_gamma 90.000000
_cell_volume 2457.290696
_symmetry_space_group_name_H-M "P B A M"
_symmetry_group_IT_number 55
_symmetry_cell_setting 'orthorhombic'
loop_
_space_group_symop_operation_xyz
x,y,z
-x,-y,z
1/2+x,1/2-y,-z
1/2-x,1/2+y,-z
-x,-y,-z
x,y,-z
1/2-x,1/2+y,z
1/2+x,1/2-y,z
loop_
_atom_site_type_symbol
_atom_site_label
_atom_site_fract_x
_atom_site_fract_y
_atom_site_fract_z
Si Si1 0.795905 0.457033 0.616882
Si Si2 0.940836 0.615978 0.386474
Si Si3 0.608615 0.303088 0.793006
Si Si4 0.261945 0.301638 0.750238
Si Si5 0.885282 0.112611 0.878103
Si Si6 0.006544 0.654679 0.114694
O O1 0.773582 0.441079 0.500000
O O2 0.869985 0.529367 0.617296
O O3 0.748486 0.559812 0.682682
O O4 0.796126 0.311670 0.676214
O O5 0.949105 0.674459 0.500000
O O6 0.931247 0.740829 0.305449
O O7 0.000000 0.500000 0.372392
O O8 0.687473 0.256586 0.782817
O O9 0.602463 0.466882 0.818939
O O10 0.568372 0.221804 0.881094
O O11 0.310581 0.333394 0.844845
O O12 0.939954 0.231171 0.844126
O O13 0.890904 0.091195 0.000000
O O14 0.000000 0.500000 0.161320
O O15 0.030571 0.632799 0.000000
#
# Coordination Sequence:
#
# PCOD9428369 Si02
#       6
#     8   8   8   8   8   8
#     4  10  21  40  64  89 125 161 200 255 309 378
#     4   9  20  38  64  98 128 159 203 261 320 374
#     4  11  22  39  64  90 124 166 206 256 315 378
#     4  11  23  40  60  97 121 163 211 251 316 370
#     4  11  25  43  61  89 131 168 211 266 314 371
#     4  10  23  41  65  91 116 160 212 258 313 374
#
# _framework density 19.533709000000002
#
# number of rings (size 3 to 8) (size 9 to 14) (size 15 to 20)
#    0.000    1.667    1.667    2.000    7.000    3.333 
#    0.000    0.000    0.000    2.000    0.000    0.000 
#    0.000    0.000    0.000    0.000    0.000    0.000 
#
# Total GULP energy -267682.792807 kJ/mol
# GULP energy per Si atom -5576.724850 kJ/mol
# Density = 1.948925 g / cm^3
# Si number density = 19.533709 Si / 1000 Ang^3
#
#
#
# Elastic Constant Matrix: (Units=GPa)
#
#
# Indices 1 2 3 4 5 6 
#
# 1 73.9293 40.5406 40.8790 0.0000 0.0000 0.0000
# 2 40.5406 140.6190 48.2486 0.0000 0.0000 0.0000
# 3 40.8790 48.2486 100.6558 0.0000 0.0000 0.0000
# 4 0.0000 0.0000 0.0000 -471.4858 0.0000 0.0000
# 5 0.0000 0.0000 0.0000 0.0000 15.2234 0.0000
# 6 0.0000 0.0000 0.0000 0.0000 0.0000 20.0527
#
#
#
# Elastic Compliance Matrix: (Units=1/GPa)
#
#
# Indices 1 2 3 4 5 6 
#
# 1 0.018659 -0.003326 -0.005983 0.000000 0.000000 0.000000
# 2 -0.003326 0.009104 -0.003013 0.000000 0.000000 0.000000
# 3 -0.005983 -0.003013 0.013809 0.000000 0.000000 0.000000
# 4 0.000000 0.000000 0.000000 -0.002121 0.000000 0.000000
# 5 0.000000 0.000000 0.000000 0.000000 0.065689 0.000000
# 6 0.000000 0.000000 0.000000 0.000000 0.000000 0.049869
#
#
# Mechanical properties :
#
#
# Convention : Reuss Voigt Hill
#
# Bulk Modulus (GPa) = 59.07867 63.83781 61.45824
# Shear Modulus (GPa) = 26.98374 -74.87288 -23.94457
#
# Velocity S-wave (km/s) = 3.72074 -6.19785 -3.50495
# Velocity P-wave (km/s) = 6.98346 4.29720 3.89248
#
# Compressibility (1/GPa) = 0.01692658
#
# Stress axis : x y z
#
# Youngs Moduli (GPa) = 53.59322 109.83860 72.41549
#
# Poissons Ratio (x) = 0.36537 0.43329
# Poissons Ratio (y) = 0.17827 0.21820
# Poissons Ratio (z) = 0.32067 0.33096
#
# Static dielectric constant tensor:
#      x y z
#    x 1.680310 0.000000 0.000000 
#    y 0.000000 1.685200 0.000000 
#    z 0.000000 0.000000 1.724170 
# 
# From -- ./inp_files/17361.got.cif
#   From: 2010.05.17/outbox.cif.g08.bks.cpg/sg55_9_cif.got.tgz:17361.got - 2010.06.03 13:27:54.
