data_PCOD9428410
_publ_section_title
;
Structure prediction by ZEFSAII (Michael W. Deem and Ramdas Pophale) SiO2 
 PCOD9428410
Probable space group: P B A M
;
_chemical_formula_sum "Si O2"
_cell_formula_units_Z 40
_cell_length_a 26.932804
_cell_length_b 8.180145
_cell_length_c 8.075932
_cell_angle_alpha 90.000000
_cell_angle_beta 90.000000
_cell_angle_gamma 90.000000
_cell_volume 1779.242837
_symmetry_space_group_name_H-M "P B A M"
_symmetry_group_IT_number 55
_symmetry_cell_setting 'orthorhombic'
loop_
_space_group_symop_operation_xyz
x,y,z
-x,-y,z
1/2+x,1/2-y,-z
1/2-x,1/2+y,-z
-x,-y,-z
x,y,-z
1/2-x,1/2+y,z
1/2+x,1/2-y,z
loop_
_atom_site_type_symbol
_atom_site_label
_atom_site_fract_x
_atom_site_fract_y
_atom_site_fract_z
Si Si1 0.527069 0.734473 0.500000
Si Si2 0.082548 0.891331 0.814942
Si Si3 0.766818 0.609672 0.807978
Si Si4 0.858210 0.803926 0.689942
Si Si5 0.823592 0.287766 0.691596
Si Si6 0.575658 0.091786 0.500000
O O1 0.544582 0.641548 0.334798
O O2 0.469167 0.777318 0.500000
O O3 0.553779 0.912209 0.500000
O O4 0.127383 0.761793 0.790079
O O5 0.109633 0.064973 0.787339
O O6 0.061621 0.879235 0.000000
O O7 0.806733 0.752402 0.770624
O O8 0.794753 0.444165 0.760368
O O9 0.716898 0.643003 0.707034
O O10 0.753532 0.609750 0.000000
O O11 0.850640 0.865121 0.500000
O O12 0.890466 0.638956 0.657416
O O13 0.836325 0.313108 0.500000
#
# Coordination Sequence:
#
# PCOD9428410 Si02
#       6
#     4   8   8   8   8   4
#     4  11  21  47  68  99 124 169 211 265 327 381
#     4  12  24  41  67  97 131 169 215 265 320 380
#     4  12  24  39  60  92 132 168 220 268 315 379
#     4  10  21  41  63  92 125 172 208 258 320 378
#     4  12  24  41  61  90 125 178 218 260 320 378
#     4   9  23  41  74  89 130 167 211 265 323 387
#
# _framework density 22.481473000000001
#
# number of rings (size 3 to 8) (size 9 to 14) (size 15 to 20)
#    0.600    0.200    2.000    6.600    0.000    1.600 
#    0.000    6.000    0.000    0.000    0.000    0.000 
#    0.000    0.000    0.000    0.000    0.000    0.000 
#
# Total GULP energy -223938.908348 kJ/mol
# GULP energy per Si atom -5598.472709 kJ/mol
# Density = 2.243030 g / cm^3
# Si number density = 22.481473 Si / 1000 Ang^3
#
#
#
# Elastic Constant Matrix: (Units=GPa)
#
#
# Indices 1 2 3 4 5 6 
#
# 1 76.2803 -0.2908 9.8199 0.0000 0.0000 0.0000
# 2 -0.2908 72.3255 9.6703 0.0000 0.0000 0.0000
# 3 9.8199 9.6703 142.0879 0.0000 0.0000 0.0000
# 4 0.0000 0.0000 0.0000 19.6676 0.0000 0.0000
# 5 0.0000 0.0000 0.0000 0.0000 -4.9500 0.0000
# 6 0.0000 0.0000 0.0000 0.0000 0.0000 41.7672
#
#
#
# Elastic Compliance Matrix: (Units=1/GPa)
#
#
# Indices 1 2 3 4 5 6 
#
# 1 0.013229 0.000177 -0.000926 0.000000 0.000000 0.000000
# 2 0.000177 0.013956 -0.000962 0.000000 0.000000 0.000000
# 3 -0.000926 -0.000962 0.007167 0.000000 0.000000 0.000000
# 4 0.000000 0.000000 0.000000 0.050845 0.000000 0.000000
# 5 0.000000 0.000000 0.000000 0.000000 -0.202020 0.000000
# 6 0.000000 0.000000 0.000000 0.000000 0.000000 0.023942
#
#
# Mechanical properties :
#
#
# Convention : Reuss Voigt Hill
#
# Bulk Modulus (GPa) = 32.33119 36.56584 34.44852
# Shear Modulus (GPa) = -63.17310 29.39657 -16.88827
#
# Velocity S-wave (km/s) = -5.30670 3.61999 -2.74379
# Velocity P-wave (km/s) = 4.80995 5.81142 2.30618
#
# Compressibility (1/GPa) = 0.03092988
#
# Stress axis : x y z
#
# Youngs Moduli (GPa) = 75.58884 71.65516 139.52073
#
# Poissons Ratio (x) = -0.01269 0.12925
# Poissons Ratio (y) = -0.01338 0.13423
# Poissons Ratio (z) = 0.07002 0.06894
#
# Static dielectric constant tensor:
#      x y z
#    x 1.810720 0.000000 0.000000 
#    y 0.000000 1.898150 0.000000 
#    z 0.000000 0.000000 1.782270 
# 
# From -- ./inp_files/10013.got.cif
#   From: 2010.05.17/outbox.cif.g08.bks.cpg/sg55_6_cif.got.tgz:10013.got - 2010.06.03 13:27:54.
