data_PCOD9428624
_publ_section_title
;
Structure prediction by ZEFSAII (Michael W. Deem and Ramdas Pophale) SiO2 
 PCOD9428624
Probable space group: P B A M
;
_chemical_formula_sum "Si O2"
_cell_formula_units_Z 48
_cell_length_a 19.195481
_cell_length_b 15.317290
_cell_length_c 8.475167
_cell_angle_alpha 90.000000
_cell_angle_beta 90.000000
_cell_angle_gamma 90.000000
_cell_volume 2491.891901
_symmetry_space_group_name_H-M "P B A M"
_symmetry_group_IT_number 55
_symmetry_cell_setting 'orthorhombic'
loop_
_space_group_symop_operation_xyz
x,y,z
-x,-y,z
1/2+x,1/2-y,-z
1/2-x,1/2+y,-z
-x,-y,-z
x,y,-z
1/2-x,1/2+y,z
1/2+x,1/2-y,z
loop_
_atom_site_type_symbol
_atom_site_label
_atom_site_fract_x
_atom_site_fract_y
_atom_site_fract_z
Si Si1 0.084793 0.255995 0.190614
Si Si2 0.259356 0.808704 0.188979
Si Si3 0.020828 0.597314 0.309203
Si Si4 0.434684 0.557754 0.809258
Si Si5 0.176784 0.646192 0.309234
Si Si6 0.214546 0.996965 0.689000
O O1 0.163941 0.276693 0.241718
O O2 0.062959 0.158823 0.243705
O O3 0.033302 0.330407 0.251181
O O4 0.083726 0.256674 0.000000
O O5 0.203015 0.738326 0.245237
O O6 0.241935 0.903453 0.255746
O O7 0.259198 0.812451 0.000000
O O8 0.019872 0.597039 0.500000
O O9 0.098986 0.621512 0.257659
O O10 0.000000 0.500000 0.255724
O O11 0.500000 0.500000 0.753911
O O12 0.361798 0.517093 0.755079
O O13 0.435708 0.557960 0.000000
O O14 0.177301 0.648940 0.500000
O O15 0.231723 0.572178 0.257772
O O16 0.211865 0.998660 0.500000
#
# Coordination Sequence:
#
# PCOD9428624 Si02
#       6
#     8   8   8   8   8   8
#     4  10  22  40  61  90 123 160 203 245 299 360
#     4  11  23  39  62  88 120 159 201 249 300 358
#     4  10  22  40  62  88 122 160 197 245 304 359
#     4  10  22  41  62  87 124 163 203 251 303 360
#     4  10  22  40  61  90 122 156 199 247 301 360
#     4  11  23  40  64  91 122 157 202 252 303 363
#
# _framework density 19.262471999999999
#
# number of rings (size 3 to 8) (size 9 to 14) (size 15 to 20)
#    0.000    1.667    1.667    2.000    2.333    5.333 
#    0.000    0.000    0.000    0.000    0.000    0.000 
#    0.000    0.000    0.000    0.000    0.000    0.000 
#
# Total GULP energy -268298.542344 kJ/mol
# GULP energy per Si atom -5589.552966 kJ/mol
# Density = 1.921863 g / cm^3
# Si number density = 19.262472 Si / 1000 Ang^3
#
#
#
# Elastic Constant Matrix: (Units=GPa)
#
#
# Indices 1 2 3 4 5 6 
#
# 1 106.7894 29.1187 6.7295 0.0000 0.0000 0.0000
# 2 29.1187 124.5754 6.8802 0.0000 0.0000 0.0000
# 3 6.7295 6.8802 0.3679 0.0000 0.0000 0.0000
# 4 0.0000 0.0000 0.0000 -168.3590 0.0000 0.0000
# 5 0.0000 0.0000 0.0000 0.0000 18.0707 0.0000
# 6 0.0000 0.0000 0.0000 0.0000 0.0000 42.5935
#
#
#
# Elastic Compliance Matrix: (Units=1/GPa)
#
#
# Indices 1 2 3 4 5 6 
#
# 1 0.000441 -0.010412 0.186648 0.000000 0.000000 0.000000
# 2 -0.010412 0.001756 0.157622 0.000000 0.000000 0.000000
# 3 0.186648 0.157622 -3.643902 0.000000 0.000000 0.000000
# 4 0.000000 0.000000 0.000000 -0.005940 0.000000 0.000000
# 5 0.000000 0.000000 0.000000 0.000000 0.055338 0.000000
# 6 0.000000 0.000000 0.000000 0.000000 0.000000 0.023478
#
#
# Mechanical properties :
#
#
# Convention : Reuss Voigt Hill
#
# Bulk Modulus (GPa) = -0.33625 35.24327 17.45351
# Shear Modulus (GPa) = -0.95641 -8.93866 -4.94753
#
# Velocity S-wave (km/s) = -0.70540 -2.15651 -1.60439
# Velocity P-wave (km/s) = 0.91564 3.48358 2.37665
#
# Compressibility (1/GPa) = -2.97398838
#
# Stress axis : x y z
#
# Youngs Moduli (GPa) = 2266.49025 569.62207 -0.27443
#
# Poissons Ratio (x) = 5.93065 0.05122
# Poissons Ratio (y) = 23.59769 0.04326
# Poissons Ratio (z) = -423.03583 -89.78507
#
# Static dielectric constant tensor:
#      x y z
#    x 1.644510 0.000000 0.000000 
#    y 0.000000 1.635500 0.000000 
#    z 0.000000 0.000000 1.661630 
# 
# From -- ./inp_files/5554.got.cif
#   From: 2010.05.17/outbox.cif.g08.bks.cpg/sg55_3_cif.got.tgz:5554.got - 2010.06.03 13:27:54.
