data_PCOD9428434
_publ_section_title
;
Structure prediction by ZEFSAII (Michael W. Deem and Ramdas Pophale) SiO2 
 PCOD9428434
Probable space group: P B A M
;
_chemical_formula_sum "Si O2"
_cell_formula_units_Z 58
_cell_length_a 19.967952
_cell_length_b 17.266683
_cell_length_c 7.975146
_cell_angle_alpha 90.000000
_cell_angle_beta 90.000000
_cell_angle_gamma 90.000000
_cell_volume 2749.673209
_symmetry_space_group_name_H-M "P B A M"
_symmetry_group_IT_number 55
_symmetry_cell_setting 'orthorhombic'
loop_
_space_group_symop_operation_xyz
x,y,z
-x,-y,z
1/2+x,1/2-y,-z
1/2-x,1/2+y,-z
-x,-y,-z
x,y,-z
1/2-x,1/2+y,z
1/2+x,1/2-y,z
loop_
_atom_site_type_symbol
_atom_site_label
_atom_site_fract_x
_atom_site_fract_y
_atom_site_fract_z
Si Si1 0.784685 0.728466 0.306365
Si Si2 0.000000 0.500000 0.500000
Si Si3 0.398955 0.049899 0.804161
Si Si4 0.124144 0.997733 0.297100
Si Si5 0.854891 0.274847 0.808519
Si Si6 0.774599 0.551093 0.703855
Si Si7 0.452850 0.349643 0.307441
Si Si8 0.095715 0.172838 0.191120
O O1 0.764362 0.725111 0.500000
O O2 0.724827 0.773442 0.215781
O O3 0.787984 0.640020 0.245858
O O4 0.855105 0.771931 0.293569
O O5 0.945319 0.479408 0.348036
O O6 0.384463 0.140770 0.774809
O O7 0.329165 0.004120 0.785870
O O8 0.422499 0.041056 0.000000
O O9 0.121391 0.997471 0.500000
O O10 0.199237 0.972863 0.249309
O O11 0.072190 0.932028 0.237804
O O12 0.107981 0.083275 0.235910
O O13 0.890670 0.208931 0.700139
O O14 0.870131 0.254117 0.000000
O O15 0.780156 0.545644 0.500000
O O16 0.473441 0.361874 0.500000
O O17 0.517078 0.313647 0.218238
O O18 0.113856 0.186743 0.000000
#
# Coordination Sequence:
#
# PCOD9428434 Si02
#       8
#     8   2   8   8   8   8   8   8
#     4  11  23  42  69  98 133 177 226 275 332 403
#     4  12  26  48  72  90 136 180 222 296 348 406
#     4  11  26  45  71 104 135 180 234 285 348 417
#     4  10  21  41  68  97 130 172 224 272 327 406
#     4  11  24  43  68 101 136 172 221 278 338 406
#     4  10  21  42  69 100 132 176 228 282 341 400
#     4  11  23  42  68  96 131 179 226 270 329 403
#     4  12  26  41  60  96 137 175 216 272 340 395
#
# _framework density 21.093416999999999
#
# number of rings (size 3 to 8) (size 9 to 14) (size 15 to 20)
#    0.000    1.103    2.069    3.931    1.931    7.724 
#    0.000    0.000    0.000    0.000    0.000    0.000 
#    0.000    0.000    0.000    0.000    0.000    0.000 
#
# Total GULP energy -323725.704321 kJ/mol
# GULP energy per Si atom -5581.477661 kJ/mol
# Density = 2.104541 g / cm^3
# Si number density = 21.093417 Si / 1000 Ang^3
#
#
#
# Elastic Constant Matrix: (Units=GPa)
#
#
# Indices 1 2 3 4 5 6 
#
# 1 157.5817 -19.8663 6.0796 0.0000 0.0000 0.0000
# 2 -19.8663 37.2566 12.7102 0.0000 0.0000 0.0000
# 3 6.0796 12.7102 64.3782 0.0000 0.0000 0.0000
# 4 0.0000 0.0000 0.0000 49.3998 0.0000 0.0000
# 5 0.0000 0.0000 0.0000 0.0000 -13.1133 0.0000
# 6 0.0000 0.0000 0.0000 0.0000 0.0000 29.8998
#
#
#
# Elastic Compliance Matrix: (Units=1/GPa)
#
#
# Indices 1 2 3 4 5 6 
#
# 1 0.006933 0.004203 -0.001485 0.000000 0.000000 0.000000
# 2 0.004203 0.031328 -0.006582 0.000000 0.000000 0.000000
# 3 -0.001485 -0.006582 0.016973 0.000000 0.000000 0.000000
# 4 0.000000 0.000000 0.000000 0.020243 0.000000 0.000000
# 5 0.000000 0.000000 0.000000 0.000000 -0.076258 0.000000
# 6 0.000000 0.000000 0.000000 0.000000 0.000000 0.033445
#
#
# Mechanical properties :
#
#
# Convention : Reuss Voigt Hill
#
# Bulk Modulus (GPa) = 21.04936 28.56261 24.80599
# Shear Modulus (GPa) = 88.92757 30.59013 59.75885
#
# Velocity S-wave (km/s) = 6.50003 3.81231 5.32842
# Velocity P-wave (km/s) = 8.14461 5.74009 7.04569
#
# Compressibility (1/GPa) = 0.04750739
#
# Stress axis : x y z
#
# Youngs Moduli (GPa) = 144.23522 31.92055 58.91747
#
# Poissons Ratio (x) = -0.13418 0.08747
# Poissons Ratio (y) = -0.60628 0.38780
# Poissons Ratio (z) = 0.21413 0.21010
#
# Static dielectric constant tensor:
#      x y z
#    x 1.729130 0.000000 0.000000 
#    y 0.000000 1.729090 0.000000 
#    z 0.000000 0.000000 1.749340 
# 
# From -- ./inp_files/7704.got.cif
#   From: 2010.05.17/outbox.cif.g08.bks.cpg/sg55_4_cif.got.tgz:7704.got - 2010.06.03 13:27:54.
