data_PCOD9428691
_publ_section_title
;
Structure prediction by ZEFSAII (Michael W. Deem and Ramdas Pophale) SiO2 
 PCOD9428691
Probable space group: P B A M
;
_chemical_formula_sum "Si O2"
_cell_formula_units_Z 48
_cell_length_a 13.576079
_cell_length_b 14.508695
_cell_length_c 11.718694
_cell_angle_alpha 90.000000
_cell_angle_beta 90.000000
_cell_angle_gamma 90.000000
_cell_volume 2308.245097
_symmetry_space_group_name_H-M "P B A M"
_symmetry_group_IT_number 55
_symmetry_cell_setting 'orthorhombic'
loop_
_space_group_symop_operation_xyz
x,y,z
-x,-y,z
1/2+x,1/2-y,-z
1/2-x,1/2+y,-z
-x,-y,-z
x,y,-z
1/2-x,1/2+y,z
1/2+x,1/2-y,z
loop_
_atom_site_type_symbol
_atom_site_label
_atom_site_fract_x
_atom_site_fract_y
_atom_site_fract_z
Si Si1 0.832001 0.332618 0.273496
Si Si2 0.844324 0.535369 0.629149
Si Si3 0.024095 0.399061 0.825213
Si Si4 0.654799 0.266167 0.122971
Si Si5 0.036209 0.895100 0.871153
Si Si6 0.859412 0.145685 0.627325
O O1 0.816825 0.436121 0.317923
O O2 0.734919 0.291561 0.215828
O O3 0.859721 0.256648 0.367011
O O4 0.923144 0.342518 0.185352
O O5 0.874041 0.521179 0.500000
O O6 0.932984 0.579746 0.699674
O O7 0.749485 0.601657 0.631890
O O8 0.110536 0.336766 0.875652
O O9 0.000000 0.500000 0.874658
O O10 0.559816 0.330874 0.135988
O O11 0.700873 0.284601 0.000000
O O12 0.093525 0.881773 0.750785
O O13 0.082080 0.877598 0.000000
O O14 0.000000 0.000000 0.872931
O O15 0.900237 0.118035 0.500000
#
# Coordination Sequence:
#
# PCOD9428691 Si02
#       6
#     8   8   8   8   8   8
#     4  11  22  40  64  92 128 169 218 268 330 395
#     4  10  22  41  64  93 131 171 215 270 334 399
#     4  10  22  41  65  94 128 170 222 273 328 396
#     4  11  23  41  64  93 131 173 219 272 330 395
#     4  10  22  42  65  91 129 173 215 263 330 398
#     4  11  22  38  65  98 129 166 217 271 326 389
#
# _framework density 20.795020000000001
#
# number of rings (size 3 to 8) (size 9 to 14) (size 15 to 20)
#    0.000    1.500    3.333    1.500    0.000    5.667 
#    0.000    4.167    0.000    0.000    0.000    0.000 
#    0.000    0.000    0.000    0.000    0.000    0.000 
#
# Total GULP energy -267524.864133 kJ/mol
# GULP energy per Si atom -5573.434669 kJ/mol
# Density = 2.074769 g / cm^3
# Si number density = 20.795020 Si / 1000 Ang^3
#
#
#
# Elastic Constant Matrix: (Units=GPa)
#
#
# Indices 1 2 3 4 5 6 
#
# 1 62.1892 19.5083 38.2003 0.0000 0.0000 0.0000
# 2 19.5083 76.3498 -7.5789 0.0000 0.0000 0.0000
# 3 38.2003 -7.5789 129.6870 0.0000 0.0000 0.0000
# 4 0.0000 0.0000 0.0000 48.7702 0.0000 0.0000
# 5 0.0000 0.0000 0.0000 0.0000 11.4030 0.0000
# 6 0.0000 0.0000 0.0000 0.0000 0.0000 32.1628
#
#
#
# Elastic Compliance Matrix: (Units=1/GPa)
#
#
# Indices 1 2 3 4 5 6 
#
# 1 0.022366 -0.006406 -0.006963 0.000000 0.000000 0.000000
# 2 -0.006406 0.015009 0.002764 0.000000 0.000000 0.000000
# 3 -0.006963 0.002764 0.009923 0.000000 0.000000 0.000000
# 4 0.000000 0.000000 0.000000 0.020504 0.000000 0.000000
# 5 0.000000 0.000000 0.000000 0.000000 0.087696 0.000000
# 6 0.000000 0.000000 0.000000 0.000000 0.000000 0.031092
#
#
# Mechanical properties :
#
#
# Convention : Reuss Voigt Hill
#
# Bulk Modulus (GPa) = 38.32974 40.94282 39.63628
# Shear Modulus (GPa) = 23.09513 33.00695 28.05104
#
# Velocity S-wave (km/s) = 3.33620 3.98836 3.67676
# Velocity P-wave (km/s) = 5.77169 6.39850 6.09316
#
# Compressibility (1/GPa) = 0.02608940
#
# Stress axis : x y z
#
# Youngs Moduli (GPa) = 44.71022 66.62753 100.77331
#
# Poissons Ratio (x) = 0.42682 0.70164
# Poissons Ratio (y) = 0.28641 -0.27854
# Poissons Ratio (z) = 0.31130 -0.18416
#
# Static dielectric constant tensor:
#      x y z
#    x 1.715810 0.000000 0.000000 
#    y 0.000000 1.768160 0.000000 
#    z 0.000000 0.000000 1.787180 
# 
# From -- ./inp_files/14122.got.cif
#   From: 2010.05.17/outbox.cif.g08.bks.cpg/sg55_8_cif.got.tgz:14122.got - 2010.06.03 13:27:54.
