data_PCOD9428741
_publ_section_title
;
Structure prediction by ZEFSAII (Michael W. Deem and Ramdas Pophale) SiO2 
 PCOD9428741
Probable space group: P B A M
;
_chemical_formula_sum "Si O2"
_cell_formula_units_Z 30
_cell_length_a 34.656145
_cell_length_b 5.037676
_cell_length_c 7.282163
_cell_angle_alpha 90.000000
_cell_angle_beta 90.000000
_cell_angle_gamma 90.000000
_cell_volume 1271.366840
_symmetry_space_group_name_H-M "P B A M"
_symmetry_group_IT_number 55
_symmetry_cell_setting 'orthorhombic'
loop_
_space_group_symop_operation_xyz
x,y,z
-x,-y,z
1/2+x,1/2-y,-z
1/2-x,1/2+y,-z
-x,-y,-z
x,y,-z
1/2-x,1/2+y,z
1/2+x,1/2-y,z
loop_
_atom_site_type_symbol
_atom_site_label
_atom_site_fract_x
_atom_site_fract_y
_atom_site_fract_z
Si Si1 0.539888 0.664693 0.789956
Si Si2 0.775523 0.487285 0.500000
Si Si3 0.000000 0.500000 0.500000
Si Si4 0.387539 0.672266 0.221306
Si Si5 0.159789 0.668526 0.779473
O O1 0.500000 0.500000 0.787140
O O2 0.573079 0.468105 0.718866
O O3 0.530928 0.907431 0.659445
O O4 0.548544 0.746709 0.000000
O O5 0.739526 0.286421 0.500000
O O6 0.802137 0.420627 0.674878
O O7 0.353595 0.464845 0.268240
O O8 0.374435 0.964615 0.276406
O O9 0.390663 0.679820 0.000000
O O10 0.164407 0.652667 0.000000
#
# Coordination Sequence:
#
# PCOD9428741 Si02
#       5
#     8   4   2   8   8
#     4  10  23  41  61  88 129 173 220 281 332 379
#     4  12  26  42  66  98 129 161 200 248 316 385
#     4  12  24  36  56  88 120 164 224 268 326 392
#     4   9  20  40  66  91 124 171 216 261 317 373
#     4  10  22  42  66  94 126 164 210 255 309 380
#
# _framework density 23.596651999999999
#
# number of rings (size 3 to 8) (size 9 to 14) (size 15 to 20)
#    0.000    1.867    0.000    2.400    3.733    3.200 
#    0.000    0.000    0.000    0.000    0.000    0.000 
#    0.000    0.000    0.000    0.000    0.000    0.000 
#
# Total GULP energy -167407.325507 kJ/mol
# GULP energy per Si atom -5580.244184 kJ/mol
# Density = 2.354295 g / cm^3
# Si number density = 23.596652 Si / 1000 Ang^3
#
#
#
# Elastic Constant Matrix: (Units=GPa)
#
#
# Indices 1 2 3 4 5 6 
#
# 1 70.7650 -8.5469 13.8835 0.0000 0.0000 0.0000
# 2 -8.5469 77.5018 8.2677 0.0000 0.0000 0.0000
# 3 13.8835 8.2677 121.0921 0.0000 0.0000 0.0000
# 4 0.0000 0.0000 0.0000 -31.5489 0.0000 0.0000
# 5 0.0000 0.0000 0.0000 0.0000 52.3315 0.0000
# 6 0.0000 0.0000 0.0000 0.0000 0.0000 44.8568
#
#
#
# Elastic Compliance Matrix: (Units=1/GPa)
#
#
# Indices 1 2 3 4 5 6 
#
# 1 0.014706 0.001815 -0.001810 0.000000 0.000000 0.000000
# 2 0.001815 0.013222 -0.001111 0.000000 0.000000 0.000000
# 3 -0.001810 -0.001111 0.008542 0.000000 0.000000 0.000000
# 4 0.000000 0.000000 0.000000 -0.031697 0.000000 0.000000
# 5 0.000000 0.000000 0.000000 0.000000 0.019109 0.000000
# 6 0.000000 0.000000 0.000000 0.000000 0.000000 0.022293
#
#
# Mechanical properties :
#
#
# Convention : Reuss Voigt Hill
#
# Bulk Modulus (GPa) = 29.19128 32.95195 31.07162
# Shear Modulus (GPa) = 83.60549 30.17819 56.89184
#
# Velocity S-wave (km/s) = 5.95886 3.58008 4.91553
# Velocity P-wave (km/s) = 7.72928 5.57532 6.73892
#
# Compressibility (1/GPa) = 0.03425680
#
# Stress axis : x y z
#
# Youngs Moduli (GPa) = 68.00152 75.63404 117.07503
#
# Poissons Ratio (x) = -0.13726 0.21190
# Poissons Ratio (y) = -0.12341 0.13005
# Poissons Ratio (z) = 0.12308 0.08401
#
# Static dielectric constant tensor:
#      x y z
#    x 1.876670 0.000000 0.000000 
#    y 0.000000 1.896030 0.000000 
#    z 0.000000 0.000000 1.885840 
# 
# From -- ./inp_files/1339.got.cif
#   From: 2010.05.17/outbox.cif.g08.bks.cpg/sg55_1_cif.got.tgz:1339.got - 2010.06.03 13:27:54.
