data_PCOD9428006
_publ_section_title
;
Structure prediction by ZEFSAII (Michael W. Deem and Ramdas Pophale) SiO2 
 PCOD9428006
Probable space group: P B A M
;
_chemical_formula_sum "Si O2"
_cell_formula_units_Z 56
_cell_length_a 20.826084
_cell_length_b 15.770452
_cell_length_c 7.726422
_cell_angle_alpha 90.000000
_cell_angle_beta 90.000000
_cell_angle_gamma 90.000000
_cell_volume 2537.640993
_symmetry_space_group_name_H-M "P B A M"
_symmetry_group_IT_number 55
_symmetry_cell_setting 'orthorhombic'
loop_
_space_group_symop_operation_xyz
x,y,z
-x,-y,z
1/2+x,1/2-y,-z
1/2-x,1/2+y,-z
-x,-y,-z
x,y,-z
1/2-x,1/2+y,z
1/2+x,1/2-y,z
loop_
_atom_site_type_symbol
_atom_site_label
_atom_site_fract_x
_atom_site_fract_y
_atom_site_fract_z
Si Si1 0.035831 0.265645 0.209176
Si Si2 0.821588 0.990654 0.790317
Si Si3 0.595343 0.839041 0.703779
Si Si4 0.674803 0.185159 0.800951
Si Si5 0.685631 0.684414 0.206733
Si Si6 0.320687 0.007650 0.296320
Si Si7 0.956758 0.921821 0.211494
O O1 0.107132 0.286153 0.276075
O O2 0.018840 0.170183 0.265930
O O3 0.979820 0.329572 0.260330
O O4 0.037848 0.266888 0.000000
O O5 0.830397 0.089009 0.732917
O O6 0.752484 0.960669 0.725228
O O7 0.883129 0.936881 0.735760
O O8 0.819735 0.988956 0.000000
O O9 0.604892 0.843646 0.500000
O O10 0.632134 0.754446 0.762770
O O11 0.630073 0.922766 0.775238
O O12 0.743842 0.210361 0.722975
O O13 0.675238 0.082846 0.796706
O O14 0.674493 0.216147 0.000000
O O15 0.693002 0.676628 0.000000
O O16 0.332636 0.991998 0.500000
O O17 0.958204 0.922966 0.000000
O O18 0.000000 0.000000 0.270942
#
# Coordination Sequence:
#
# PCOD9428006 Si02
#       7
#     8   8   8   8   8   8   8
#     4  10  21  37  58  84 112 145 186 235 284 333
#     4   9  18  34  59  86 109 140 183 230 279 332
#     4  11  24  38  53  79 113 152 192 225 273 338
#     4   9  20  38  59  85 110 139 187 238 288 336
#     4   9  18  34  58  85 111 141 181 230 280 330
#     4  10  22  38  55  78 110 148 188 230 278 332
#     4   9  17  31  55  85 115 143 175 220 278 335
#
# _framework density 22.067737999999999
#
# number of rings (size 3 to 8) (size 9 to 14) (size 15 to 20)
#    0.000    2.429    0.000    2.571    2.000    8.000 
#    0.000    3.571    0.000    1.714    0.000    0.000 
#    0.000    0.000    0.000    0.000    0.000    0.000 
#
# Total GULP energy -312690.986145 kJ/mol
# GULP energy per Si atom -5583.767610 kJ/mol
# Density = 2.201751 g / cm^3
# Si number density = 22.067738 Si / 1000 Ang^3
#
#
#
# Elastic Constant Matrix: (Units=GPa)
#
#
# Indices 1 2 3 4 5 6 
#
# 1 81.3112 7.2317 -10.6485 0.0000 0.0000 0.0000
# 2 7.2317 22.0105 -7.4197 0.0000 0.0000 0.0000
# 3 -10.6485 -7.4197 30.4086 0.0000 0.0000 0.0000
# 4 0.0000 0.0000 0.0000 20.8758 0.0000 0.0000
# 5 0.0000 0.0000 0.0000 0.0000 109.1988 0.0000
# 6 0.0000 0.0000 0.0000 0.0000 0.0000 36.8942
#
#
#
# Elastic Compliance Matrix: (Units=1/GPa)
#
#
# Indices 1 2 3 4 5 6 
#
# 1 0.013069 -0.002998 0.003845 0.000000 0.000000 0.000000
# 2 -0.002998 0.050192 0.011197 0.000000 0.000000 0.000000
# 3 0.003845 0.011197 0.036964 0.000000 0.000000 0.000000
# 4 0.000000 0.000000 0.000000 0.047902 0.000000 0.000000
# 5 0.000000 0.000000 0.000000 0.000000 0.009158 0.000000
# 6 0.000000 0.000000 0.000000 0.000000 0.000000 0.027105
#
#
# Mechanical properties :
#
#
# Convention : Reuss Voigt Hill
#
# Bulk Modulus (GPa) = 8.04415 12.45081 10.24748
# Shear Modulus (GPa) = 24.78460 43.03155 33.90808
#
# Velocity S-wave (km/s) = 3.35493 4.42064 3.92413
# Velocity P-wave (km/s) = 4.31978 5.63120 5.01851
#
# Compressibility (1/GPa) = 0.12431395
#
# Stress axis : x y z
#
# Youngs Moduli (GPa) = 76.51948 19.92340 27.05332
#
# Poissons Ratio (x) = 0.05972 -0.10402
# Poissons Ratio (y) = 0.22938 -0.30292
# Poissons Ratio (z) = -0.29421 -0.22309
#
# Static dielectric constant tensor:
#      x y z
#    x 1.817130 0.000000 0.000000 
#    y 0.000000 1.800760 0.000000 
#    z 0.000000 0.000000 1.831460 
# 
# From -- ./inp_files/5973.got.cif
#   From: 2010.05.17/outbox.cif.g08.bks.cpg/sg55_3_cif.got.tgz:5973.got - 2010.06.03 13:27:54.
