data_PCOD9428208
_publ_section_title
;
Structure prediction by ZEFSAII (Michael W. Deem and Ramdas Pophale) SiO2 
 PCOD9428208
Probable space group: P B A M
;
_chemical_formula_sum "Si O2"
_cell_formula_units_Z 34
_cell_length_a 26.596986
_cell_length_b 5.116138
_cell_length_c 10.478490
_cell_angle_alpha 90.000000
_cell_angle_beta 90.000000
_cell_angle_gamma 90.000000
_cell_volume 1425.848484
_symmetry_space_group_name_H-M "P B A M"
_symmetry_group_IT_number 55
_symmetry_cell_setting 'orthorhombic'
loop_
_space_group_symop_operation_xyz
x,y,z
-x,-y,z
1/2+x,1/2-y,-z
1/2-x,1/2+y,-z
-x,-y,-z
x,y,-z
1/2-x,1/2+y,z
1/2+x,1/2-y,z
loop_
_atom_site_type_symbol
_atom_site_label
_atom_site_fract_x
_atom_site_fract_y
_atom_site_fract_z
Si Si1 0.426823 0.762062 0.209701
Si Si2 0.464596 0.749031 0.500000
Si Si3 0.777320 0.379505 0.649287
Si Si4 0.781761 0.401704 0.000000
Si Si5 0.136415 0.759876 0.204653
Si Si6 0.000000 0.000000 0.000000
O O1 0.437045 0.745439 0.362284
O O2 0.382581 0.551173 0.184025
O O3 0.470783 0.672367 0.114150
O O4 0.408767 0.057111 0.183123
O O5 0.500000 0.500000 0.500000
O O6 0.500000 0.000000 0.500000
O O7 0.767297 0.405408 0.500000
O O8 0.760699 0.660058 0.702417
O O9 0.835115 0.290179 0.662716
O O10 0.817836 0.327075 0.883866
O O11 0.764529 0.700296 0.000000
#
# Coordination Sequence:
#
# PCOD9428208 Si02
#       6
#     8   4   8   4   8   2
#     4  12  28  45  78 101 151 182 245 305 371 442
#     4  12  26  52  74 112 138 196 242 306 384 460
#     4  10  21  38  62  93 136 181 223 274 340 411
#     4  12  24  43  72 101 149 198 244 299 357 428
#     4  12  25  44  68 108 137 188 240 300 352 429
#     4  12  28  54  72 106 140 196 232 304 374 452
#
# _framework density 23.845451000000001
#
# number of rings (size 3 to 8) (size 9 to 14) (size 15 to 20)
#    0.000    0.471    1.176    7.059    3.294    0.941 
#    0.000    0.000    0.000    0.000    0.000    0.000 
#    0.000    0.000    0.000    0.000    0.000    0.000 
#
# Total GULP energy -189560.211644 kJ/mol
# GULP energy per Si atom -5575.300342 kJ/mol
# Density = 2.379118 g / cm^3
# Si number density = 23.845451 Si / 1000 Ang^3
#
#
#
# Elastic Constant Matrix: (Units=GPa)
#
#
# Indices 1 2 3 4 5 6 
#
# 1 53.4622 0.4881 5.6260 0.0000 0.0000 0.0000
# 2 0.4881 69.6981 -5.0804 0.0000 0.0000 0.0000
# 3 5.6260 -5.0804 105.3449 0.0000 0.0000 0.0000
# 4 0.0000 0.0000 0.0000 1.8137 0.0000 0.0000
# 5 0.0000 0.0000 0.0000 0.0000 23.0588 0.0000
# 6 0.0000 0.0000 0.0000 0.0000 0.0000 56.5435
#
#
#
# Elastic Compliance Matrix: (Units=1/GPa)
#
#
# Indices 1 2 3 4 5 6 
#
# 1 0.018813 -0.000206 -0.001015 0.000000 0.000000 0.000000
# 2 -0.000206 0.014400 0.000705 0.000000 0.000000 0.000000
# 3 -0.001015 0.000705 0.009581 0.000000 0.000000 0.000000
# 4 0.000000 0.000000 0.000000 0.551373 0.000000 0.000000
# 5 0.000000 0.000000 0.000000 0.000000 0.043367 0.000000
# 6 0.000000 0.000000 0.000000 0.000000 0.000000 0.017686
#
#
# Mechanical properties :
#
#
# Convention : Reuss Voigt Hill
#
# Bulk Modulus (GPa) = 23.94353 25.61918 24.78136
# Shear Modulus (GPa) = 7.46077 31.44796 19.45436
#
# Velocity S-wave (km/s) = 1.77076 3.63550 2.85941
# Velocity P-wave (km/s) = 3.77409 5.32820 4.61700
#
# Compressibility (1/GPa) = 0.04176493
#
# Stress axis : x y z
#
# Youngs Moduli (GPa) = 53.15347 69.44224 104.37496
#
# Poissons Ratio (x) = 0.01428 0.10591
# Poissons Ratio (y) = 0.01093 -0.07363
# Poissons Ratio (z) = 0.05393 -0.04899
#
# Static dielectric constant tensor:
#      x y z
#    x 1.902850 0.000000 0.000000 
#    y 0.000000 1.924190 0.000000 
#    z 0.000000 0.000000 2.457450 
# 
# From -- ./inp_files/15545.got.cif
#   From: 2010.05.17/outbox.cif.g08.bks.cpg/sg55_8_cif.got.tgz:15545.got - 2010.06.03 13:27:54.
