data_PCOD9428450
_publ_section_title
;
Structure prediction by ZEFSAII (Michael W. Deem and Ramdas Pophale) SiO2 
 PCOD9428450
Probable space group: P B A M
;
_chemical_formula_sum "Si O2"
_cell_formula_units_Z 48
_cell_length_a 12.165480
_cell_length_b 11.999999
_cell_length_c 15.802004
_cell_angle_alpha 90.000000
_cell_angle_beta 90.000000
_cell_angle_gamma 90.000000
_cell_volume 2306.867371
_symmetry_space_group_name_H-M "P B A M"
_symmetry_group_IT_number 55
_symmetry_cell_setting 'orthorhombic'
loop_
_space_group_symop_operation_xyz
x,y,z
-x,-y,z
1/2+x,1/2-y,-z
1/2-x,1/2+y,-z
-x,-y,-z
x,y,-z
1/2-x,1/2+y,z
1/2+x,1/2-y,z
loop_
_atom_site_type_symbol
_atom_site_label
_atom_site_fract_x
_atom_site_fract_y
_atom_site_fract_z
Si Si1 0.899169 0.072852 0.349212
Si Si2 0.657962 0.034440 0.402399
Si Si3 0.519551 0.675641 0.097643
Si Si4 0.898050 0.418342 0.897740
Si Si5 0.537814 0.815808 0.603493
Si Si6 0.340480 0.518600 0.164043
O O1 0.785162 0.059500 0.397576
O O2 0.935541 0.200382 0.352369
O O3 0.869009 0.026898 0.256633
O O4 0.000000 0.000000 0.383622
O O5 0.624931 0.028017 0.500000
O O6 0.580153 0.133258 0.369383
O O7 0.623551 0.912725 0.369709
O O8 0.567525 0.793123 0.127576
O O9 0.414339 0.627899 0.146984
O O10 0.611559 0.579086 0.104137
O O11 0.486363 0.689918 0.000000
O O12 0.786392 0.457463 0.853062
O O13 0.000000 0.500000 0.879895
O O14 0.879117 0.418924 0.000000
O O15 0.541898 0.797752 0.500000
#
# Coordination Sequence:
#
# PCOD9428450 Si02
#       6
#     8   8   8   8   8   8
#     4  12  25  41  61  98 136 173 217 265 326 399
#     4   9  21  44  70  96 126 170 221 273 328 381
#     4  10  21  42  70  91 122 172 217 264 321 380
#     4  10  23  42  69 101 125 162 224 275 322 387
#     4   9  21  44  70  95 127 169 221 273 323 384
#     4  11  23  44  61  95 137 171 210 265 327 395
#
# _framework density 20.807437
#
# number of rings (size 3 to 8) (size 9 to 14) (size 15 to 20)
#    0.000    1.833    1.667    3.500    4.667    2.667 
#    6.000    0.000    0.000    0.000    0.000    0.000 
#    0.000    0.000    0.000    0.000    0.000    0.000 
#
# Total GULP energy -268096.063661 kJ/mol
# GULP energy per Si atom -5585.334660 kJ/mol
# Density = 2.076008 g / cm^3
# Si number density = 20.807437 Si / 1000 Ang^3
#
#
#
# Elastic Constant Matrix: (Units=GPa)
#
#
# Indices 1 2 3 4 5 6 
#
# 1 187.3291 103.5316 21.0677 0.0000 0.0000 0.0000
# 2 103.5316 161.4445 19.0897 0.0000 0.0000 0.0000
# 3 21.0677 19.0897 43.6074 0.0000 0.0000 0.0000
# 4 0.0000 0.0000 0.0000 -17.6480 0.0000 0.0000
# 5 0.0000 0.0000 0.0000 0.0000 38.7404 0.0000
# 6 0.0000 0.0000 0.0000 0.0000 0.0000 17.7353
#
#
#
# Elastic Compliance Matrix: (Units=1/GPa)
#
#
# Indices 1 2 3 4 5 6 
#
# 1 0.008400 -0.005175 -0.001793 0.000000 0.000000 0.000000
# 2 -0.005175 0.009720 -0.001755 0.000000 0.000000 0.000000
# 3 -0.001793 -0.001755 0.024566 0.000000 0.000000 0.000000
# 4 0.000000 0.000000 0.000000 -0.056664 0.000000 0.000000
# 5 0.000000 0.000000 0.000000 0.000000 0.025813 0.000000
# 6 0.000000 0.000000 0.000000 0.000000 0.000000 0.056385
#
#
# Mechanical properties :
#
#
# Convention : Reuss Voigt Hill
#
# Bulk Modulus (GPa) = 39.61807 75.52878 57.57342
# Shear Modulus (GPa) = 53.14704 24.34501 38.74602
#
# Velocity S-wave (km/s) = 5.05942 3.42426 4.31991
# Velocity P-wave (km/s) = 7.29466 7.21192 7.25341
#
# Compressibility (1/GPa) = 0.02524100
#
# Stress axis : x y z
#
# Youngs Moduli (GPa) = 119.05231 102.88097 40.70608
#
# Poissons Ratio (x) = 0.53237 0.07298
# Poissons Ratio (y) = 0.61604 0.07144
# Poissons Ratio (z) = 0.21344 0.18056
#
# Static dielectric constant tensor:
#      x y z
#    x 1.728150 0.000000 0.000000 
#    y 0.000000 1.727790 0.000000 
#    z 0.000000 0.000000 1.815550 
# 
# From -- ./inp_files/21253.got.cif
#   From: 2010.05.17/outbox.cif.g08.bks.cpg/sg55_11_cif.got.tgz:21253.got - 2010.06.03 13:27:54.
