data_PCOD9428066
_publ_section_title
;
Structure prediction by ZEFSAII (Michael W. Deem and Ramdas Pophale) SiO2 
 PCOD9428066
Probable space group: P B A M
;
_chemical_formula_sum "Si O2"
_cell_formula_units_Z 56
_cell_length_a 11.540497
_cell_length_b 8.980485
_cell_length_c 22.024904
_cell_angle_alpha 90.000000
_cell_angle_beta 90.000000
_cell_angle_gamma 90.000000
_cell_volume 2282.644757
_symmetry_space_group_name_H-M "P B A M"
_symmetry_group_IT_number 55
_symmetry_cell_setting 'orthorhombic'
loop_
_space_group_symop_operation_xyz
x,y,z
-x,-y,z
1/2+x,1/2-y,-z
1/2-x,1/2+y,-z
-x,-y,-z
x,y,-z
1/2-x,1/2+y,z
1/2+x,1/2-y,z
loop_
_atom_site_type_symbol
_atom_site_label
_atom_site_fract_x
_atom_site_fract_y
_atom_site_fract_z
Si Si1 0.132047 0.063721 0.068672
Si Si2 0.486500 0.174270 0.935114
Si Si3 0.267215 0.881955 0.746630
Si Si4 0.684343 0.877347 0.167444
Si Si5 0.808975 0.485329 0.566363
Si Si6 0.135112 0.111036 0.329861
Si Si7 0.014432 0.246574 0.432249
O O1 0.223712 0.042766 0.121940
O O2 0.106798 0.240635 0.069612
O O3 0.171280 0.025492 0.000000
O O4 0.000000 0.000000 0.077388
O O5 0.411602 0.193700 0.875779
O O6 0.500000 0.000000 0.938193
O O7 0.433096 0.223134 0.000000
O O8 0.232513 0.761452 0.796136
O O9 0.325891 0.772275 0.697276
O O10 0.348941 0.001331 0.781218
O O11 0.159297 0.984855 0.722086
O O12 0.752938 0.476147 0.500000
O O13 0.721550 0.451973 0.619226
O O14 0.873990 0.643348 0.569112
O O15 0.905977 0.357477 0.570466
O O16 0.022487 0.150226 0.370924
O O17 0.010421 0.177137 0.500000
#
# Coordination Sequence:
#
# PCOD9428066 Si02
#       7
#     8   8   8   8   8   8   8
#     4  10  21  37  62  92 117 147 192 245 305 357
#     4  10  21  37  62  92 114 144 193 242 299 364
#     4  10  24  36  58  81 113 162 206 224 276 351
#     4  11  21  42  58  81 122 159 190 250 290 338
#     4   9  18  34  60  89 113 145 191 238 299 356
#     4  11  19  40  56  83 117 155 190 244 281 335
#     4   9  18  34  60  89 113 145 190 240 295 357
#
# _framework density 24.532945000000002
#
# number of rings (size 3 to 8) (size 9 to 14) (size 15 to 20)
#    0.000    2.000    1.429    3.429    0.000    0.000 
#    0.000   20.714    0.000    1.714    0.000    0.000 
#    0.000    0.000    0.000    0.000    0.000    0.000 
#
# Total GULP energy -312551.485687 kJ/mol
# GULP energy per Si atom -5581.276530 kJ/mol
# Density = 2.447711 g / cm^3
# Si number density = 24.532945 Si / 1000 Ang^3
#
#
#
# Elastic Constant Matrix: (Units=GPa)
#
#
# Indices 1 2 3 4 5 6 
#
# 1 25.2698 1.4567 19.3010 0.0000 0.0000 0.0000
# 2 1.4567 119.1600 26.2392 0.0000 0.0000 0.0000
# 3 19.3010 26.2392 138.6935 0.0000 0.0000 0.0000
# 4 0.0000 0.0000 0.0000 20.7203 0.0000 0.0000
# 5 0.0000 0.0000 0.0000 0.0000 -20.7978 0.0000
# 6 0.0000 0.0000 0.0000 0.0000 0.0000 25.4642
#
#
#
# Elastic Compliance Matrix: (Units=1/GPa)
#
#
# Indices 1 2 3 4 5 6 
#
# 1 0.044362 0.000853 -0.006335 0.000000 0.000000 0.000000
# 2 0.000853 0.008773 -0.001778 0.000000 0.000000 0.000000
# 3 -0.006335 -0.001778 0.008428 0.000000 0.000000 0.000000
# 4 0.000000 0.000000 0.000000 0.048262 0.000000 0.000000
# 5 0.000000 0.000000 0.000000 0.000000 -0.048082 0.000000
# 6 0.000000 0.000000 0.000000 0.000000 0.000000 0.039271
#
#
# Mechanical properties :
#
#
# Convention : Reuss Voigt Hill
#
# Bulk Modulus (GPa) = 21.25745 41.90191 31.57968
# Shear Modulus (GPa) = 38.10496 20.81912 29.46204
#
# Velocity S-wave (km/s) = 3.94536 2.91627 3.46918
# Velocity P-wave (km/s) = 5.42570 5.33446 5.38027
#
# Compressibility (1/GPa) = 0.04704233
#
# Stress axis : x y z
#
# Youngs Moduli (GPa) = 22.54166 113.98253 118.64937
#
# Poissons Ratio (x) = -0.09719 0.75163
# Poissons Ratio (y) = -0.01922 0.21101
# Poissons Ratio (z) = 0.14280 0.20271
#
# Static dielectric constant tensor:
#      x y z
#    x 2.000620 0.000000 0.000000 
#    y 0.000000 1.996070 0.000000 
#    z 0.000000 0.000000 2.013040 
# 
# From -- ./inp_files/22642.got.cif
#   From: 2010.05.17/outbox.cif.g08.bks.cpg/sg55_12_cif.got.tgz:22642.got - 2010.06.03 13:27:54.
