data_PCOD9428924
_publ_section_title
;
Structure prediction by ZEFSAII (Michael W. Deem and Ramdas Pophale) SiO2 
 PCOD9428924
Probable space group: P B A M
;
_chemical_formula_sum "Si O2"
_cell_formula_units_Z 48
_cell_length_a 18.652106
_cell_length_b 8.371794
_cell_length_c 13.941007
_cell_angle_alpha 90.000000
_cell_angle_beta 90.000000
_cell_angle_gamma 90.000000
_cell_volume 2176.910397
_symmetry_space_group_name_H-M "P B A M"
_symmetry_group_IT_number 55
_symmetry_cell_setting 'orthorhombic'
loop_
_space_group_symop_operation_xyz
x,y,z
-x,-y,z
1/2+x,1/2-y,-z
1/2-x,1/2+y,-z
-x,-y,-z
x,y,-z
1/2-x,1/2+y,z
1/2+x,1/2-y,z
loop_
_atom_site_type_symbol
_atom_site_label
_atom_site_fract_x
_atom_site_fract_y
_atom_site_fract_z
Si Si1 0.166766 0.502862 0.698300
Si Si2 0.727166 0.975990 0.889979
Si Si3 0.470419 0.161744 0.759295
Si Si4 0.862852 0.151317 0.109206
Si Si5 0.055428 0.143818 0.391306
Si Si6 0.709079 0.319617 0.391402
O O1 0.179977 0.441719 0.806986
O O2 0.091608 0.590946 0.690509
O O3 0.182333 0.359477 0.626920
O O4 0.228628 0.631857 0.679221
O O5 0.694740 0.797563 0.888960
O O6 0.811333 0.001829 0.865830
O O7 0.717818 0.033977 0.000000
O O8 0.428766 0.290219 0.825257
O O9 0.531408 0.240683 0.694285
O O10 0.500000 0.000000 0.810369
O O11 0.888336 0.131161 0.000000
O O12 0.053634 0.214100 0.500000
O O13 0.136230 0.080727 0.377089
O O14 0.000000 0.000000 0.389631
O O15 0.734599 0.338624 0.500000
#
# Coordination Sequence:
#
# PCOD9428924 Si02
#       6
#     8   8   8   8   8   8
#     4  11  22  38  62  90 118 156 200 246 300 354
#     4   9  18  35  57  87 118 150 195 241 290 347
#     4  11  22  40  60  85 120 159 196 240 295 365
#     4   9  19  35  60  89 120 155 194 244 297 352
#     4  10  24  43  61  83 117 160 201 247 305 363
#     4  11  24  40  59  88 119 152 200 251 299 357
#
# _framework density 22.049600000000002
#
# number of rings (size 3 to 8) (size 9 to 14) (size 15 to 20)
#    0.000    1.833    1.667    2.500    4.667    2.000 
#    0.000    0.000    0.000    1.500    0.000    0.000 
#    0.000    0.000    0.000    0.000    0.000    0.000 
#
# Total GULP energy -267737.520698 kJ/mol
# GULP energy per Si atom -5577.865015 kJ/mol
# Density = 2.199941 g / cm^3
# Si number density = 22.049600 Si / 1000 Ang^3
#
#
#
# Elastic Constant Matrix: (Units=GPa)
#
#
# Indices 1 2 3 4 5 6 
#
# 1 55.1482 -6.5114 8.5194 0.0000 0.0000 0.0000
# 2 -6.5114 10.8911 1.2971 0.0000 0.0000 0.0000
# 3 8.5194 1.2971 80.4461 0.0000 0.0000 0.0000
# 4 0.0000 0.0000 0.0000 25.2437 0.0000 0.0000
# 5 0.0000 0.0000 0.0000 0.0000 31.2328 0.0000
# 6 0.0000 0.0000 0.0000 0.0000 0.0000 37.0745
#
#
#
# Elastic Compliance Matrix: (Units=1/GPa)
#
#
# Indices 1 2 3 4 5 6 
#
# 1 0.019929 0.012189 -0.002307 0.000000 0.000000 0.000000
# 2 0.012189 0.099450 -0.002894 0.000000 0.000000 0.000000
# 3 -0.002307 -0.002894 0.012722 0.000000 0.000000 0.000000
# 4 0.000000 0.000000 0.000000 0.039614 0.000000 0.000000
# 5 0.000000 0.000000 0.000000 0.000000 0.032018 0.000000
# 6 0.000000 0.000000 0.000000 0.000000 0.000000 0.026973
#
#
# Mechanical properties :
#
#
# Convention : Reuss Voigt Hill
#
# Bulk Modulus (GPa) = 6.84576 17.01064 11.92820
# Shear Modulus (GPa) = 18.83802 28.25556 23.54679
#
# Velocity S-wave (km/s) = 2.92609 3.58362 3.27142
# Velocity P-wave (km/s) = 3.81149 4.98544 4.43746
#
# Compressibility (1/GPa) = 0.14607591
#
# Stress axis : x y z
#
# Youngs Moduli (GPa) = 50.17930 10.05530 78.60602
#
# Poissons Ratio (x) = -0.12257 0.18135
# Poissons Ratio (y) = -0.61165 0.22752
# Poissons Ratio (z) = 0.11576 0.02910
#
# Static dielectric constant tensor:
#      x y z
#    x 1.830980 0.000000 0.000000 
#    y 0.000000 1.885820 0.000000 
#    z 0.000000 0.000000 1.810950 
# 
# From -- ./inp_files/17348.got.cif
#   From: 2010.05.17/outbox.cif.g08.bks.cpg/sg55_9_cif.got.tgz:17348.got - 2010.06.03 13:27:54.
