data_PCOD9428113
_publ_section_title
;
Structure prediction by ZEFSAII (Michael W. Deem and Ramdas Pophale) SiO2 
 PCOD9428113
Probable space group: P B A M
;
_chemical_formula_sum "Si O2"
_cell_formula_units_Z 56
_cell_length_a 23.932170
_cell_length_b 4.996182
_cell_length_c 24.876595
_cell_angle_alpha 90.000000
_cell_angle_beta 90.000000
_cell_angle_gamma 90.000000
_cell_volume 2974.481453
_symmetry_space_group_name_H-M "P B A M"
_symmetry_group_IT_number 55
_symmetry_cell_setting 'orthorhombic'
loop_
_space_group_symop_operation_xyz
x,y,z
-x,-y,z
1/2+x,1/2-y,-z
1/2-x,1/2+y,-z
-x,-y,-z
x,y,-z
1/2-x,1/2+y,z
1/2+x,1/2-y,z
loop_
_atom_site_type_symbol
_atom_site_label
_atom_site_fract_x
_atom_site_fract_y
_atom_site_fract_z
Si Si1 0.286913 0.239704 0.436709
Si Si2 0.871981 0.399094 0.156896
Si Si3 0.287713 0.041717 0.063347
Si Si4 0.132802 0.562825 0.655158
Si Si5 0.713038 0.093663 0.751391
Si Si6 0.939274 0.882414 0.188346
Si Si7 0.562840 0.421162 0.684975
O O1 0.300070 0.216041 0.500000
O O2 0.264508 0.536942 0.425534
O O3 0.337802 0.154207 0.399452
O O4 0.840193 0.396200 0.100459
O O5 0.827685 0.511887 0.200311
O O6 0.922781 0.609687 0.158951
O O7 0.894262 0.109890 0.173930
O O8 0.238008 0.251305 0.074933
O O9 0.300838 0.062199 0.000000
O O10 0.180572 0.464137 0.696254
O O11 0.089296 0.319246 0.650962
O O12 0.101236 0.817521 0.680055
O O13 0.733500 0.398015 0.754143
O O14 0.938123 0.830926 0.252578
O O15 0.000000 0.000000 0.175113
O O16 0.500000 0.500000 0.669467
#
# Coordination Sequence:
#
# PCOD9428113 Si02
#       7
#     8   8   8   8   8   8   8
#     4  10  21  38  59  83 112 150 189 222 266 333
#     4  12  21  37  57  82 113 146 183 230 278 327
#     4  10  21  38  59  83 112 150 189 222 266 333
#     4  12  21  37  57  82 113 146 183 230 278 327
#     4  12  22  32  49  80 115 140 168 216 278 328
#     4  11  22  38  57  81 111 147 191 229 274 334
#     4  11  22  38  57  81 111 147 191 229 274 334
#
# _framework density 18.826809999999998
#
# number of rings (size 3 to 8) (size 9 to 14) (size 15 to 20)
#    0.000    0.857    2.857    6.000    0.000    2.286 
#    0.000    0.000    0.000    5.143    0.000    0.000 
#    0.000    0.000    0.000    0.000    0.000    0.000 
#
# Total GULP energy -313309.051153 kJ/mol
# GULP energy per Si atom -5594.804485 kJ/mol
# Density = 1.878396 g / cm^3
# Si number density = 18.826810 Si / 1000 Ang^3
#
#
#
# Elastic Constant Matrix: (Units=GPa)
#
#
# Indices 1 2 3 4 5 6 
#
# 1 53.3796 -13.6057 20.5808 0.0000 0.0000 0.0000
# 2 -13.6057 41.4953 -11.1362 0.0000 0.0000 0.0000
# 3 20.5808 -11.1362 38.5791 0.0000 0.0000 0.0000
# 4 0.0000 0.0000 0.0000 17.1571 0.0000 0.0000
# 5 0.0000 0.0000 0.0000 0.0000 24.0558 0.0000
# 6 0.0000 0.0000 0.0000 0.0000 0.0000 28.1083
#
#
#
# Elastic Compliance Matrix: (Units=1/GPa)
#
#
# Indices 1 2 3 4 5 6 
#
# 1 0.024470 0.004900 -0.011640 0.000000 0.000000 0.000000
# 2 0.004900 0.027104 0.005210 0.000000 0.000000 0.000000
# 3 -0.011640 0.005210 0.033634 0.000000 0.000000 0.000000
# 4 0.000000 0.000000 0.000000 0.058285 0.000000 0.000000
# 5 0.000000 0.000000 0.000000 0.000000 0.041570 0.000000
# 6 0.000000 0.000000 0.000000 0.000000 0.000000 0.035577
#
#
# Mechanical properties :
#
#
# Convention : Reuss Voigt Hill
#
# Bulk Modulus (GPa) = 12.17318 13.90354 13.03836
# Shear Modulus (GPa) = 19.91373 23.03859 21.47616
#
# Velocity S-wave (km/s) = 3.25581 3.50195 3.38112
# Velocity P-wave (km/s) = 4.54022 4.87366 4.70989
#
# Compressibility (1/GPa) = 0.08214778
#
# Stress axis : x y z
#
# Youngs Moduli (GPa) = 40.86569 36.89516 29.73169
#
# Poissons Ratio (x) = -0.18077 0.34607
# Poissons Ratio (y) = -0.20023 -0.15490
# Poissons Ratio (z) = 0.47567 -0.19222
#
# Static dielectric constant tensor:
#      x y z
#    x 1.656530 0.000000 0.000000 
#    y 0.000000 1.648300 0.000000 
#    z 0.000000 0.000000 1.629280 
# 
# From -- ./inp_files/23337.got.cif
#   From: 2010.05.17/outbox.cif.g08.bks.cpg/sg55_12_cif.got.tgz:23337.got - 2010.06.03 13:27:54.
