data_PCOD9428999
_publ_section_title
;
Structure prediction by ZEFSAII (Michael W. Deem and Ramdas Pophale) SiO2 
 PCOD9428999
Probable space group: P B A M
;
_chemical_formula_sum "Si O2"
_cell_formula_units_Z 32
_cell_length_a 25.851956
_cell_length_b 5.076773
_cell_length_c 14.232099
_cell_angle_alpha 90.000000
_cell_angle_beta 90.000000
_cell_angle_gamma 90.000000
_cell_volume 1867.884891
_symmetry_space_group_name_H-M "P B A M"
_symmetry_group_IT_number 55
_symmetry_cell_setting 'orthorhombic'
loop_
_space_group_symop_operation_xyz
x,y,z
-x,-y,z
1/2+x,1/2-y,-z
1/2-x,1/2+y,-z
-x,-y,-z
x,y,-z
1/2-x,1/2+y,z
1/2+x,1/2-y,z
loop_
_atom_site_type_symbol
_atom_site_label
_atom_site_fract_x
_atom_site_fract_y
_atom_site_fract_z
Si Si1 0.280136 0.868769 0.614147
Si Si2 0.608329 0.908432 0.611334
Si Si3 0.440906 0.603152 0.302202
Si Si4 0.037370 0.251249 0.103254
O O1 0.280758 0.863944 0.500000
O O2 0.236585 0.078509 0.644211
O O3 0.336241 0.973866 0.641974
O O4 0.610124 0.853329 0.500000
O O5 0.593638 0.640739 0.664026
O O6 0.567928 0.141685 0.633367
O O7 0.500000 0.500000 0.305706
O O8 0.429156 0.697779 0.195648
O O9 0.000000 0.500000 0.120761
O O10 0.937665 0.713197 0.000000
O O11 0.000000 0.000000 0.096785
#
# Coordination Sequence:
#
# PCOD9428999 Si02
#       4
#     8   8   8   8
#     4   9  17  31  49  66  86 115 155 205 249 273
#     4  11  22  33  47  69  98 132 165 193 227 280
#     4  11  21  33  47  68 100 133 163 192 225 278
#     4   9  17  31  50  68  88 119 159 203 244 270
#
# _framework density 17.131675000000001
#
# number of rings (size 3 to 8) (size 9 to 14) (size 15 to 20)
#    0.000    2.000    0.000    6.000    0.000    7.000 
#    0.000    0.000    0.000    0.000    0.000    0.000 
#    0.000   20.000    0.000    0.000    0.000    0.000 
#
# Total GULP energy -178397.709843 kJ/mol
# GULP energy per Si atom -5574.928433 kJ/mol
# Density = 1.709268 g / cm^3
# Si number density = 17.131675 Si / 1000 Ang^3
#
#
#
# Elastic Constant Matrix: (Units=GPa)
#
#
# Indices 1 2 3 4 5 6 
#
# 1 34.5996 -2.2007 16.7188 0.0000 0.0000 0.0000
# 2 -2.2007 92.3576 7.0770 0.0000 0.0000 0.0000
# 3 16.7188 7.0770 58.6209 0.0000 0.0000 0.0000
# 4 0.0000 0.0000 0.0000 25.1608 0.0000 0.0000
# 5 0.0000 0.0000 0.0000 0.0000 -1.3877 0.0000
# 6 0.0000 0.0000 0.0000 0.0000 0.0000 26.9908
#
#
#
# Elastic Compliance Matrix: (Units=1/GPa)
#
#
# Indices 1 2 3 4 5 6 
#
# 1 0.033742 0.001556 -0.009811 0.000000 0.000000 0.000000
# 2 0.001556 0.011000 -0.001772 0.000000 0.000000 0.000000
# 3 -0.009811 -0.001772 0.020071 0.000000 0.000000 0.000000
# 4 0.000000 0.000000 0.000000 0.039744 0.000000 0.000000
# 5 0.000000 0.000000 0.000000 0.000000 -0.720623 0.000000
# 6 0.000000 0.000000 0.000000 0.000000 0.000000 0.037050
#
#
# Mechanical properties :
#
#
# Convention : Reuss Voigt Hill
#
# Bulk Modulus (GPa) = 22.34192 25.41869 23.88031
# Shear Modulus (GPa) = -9.19045 21.08500 5.94728
#
# Velocity S-wave (km/s) = -2.31867 3.51203 1.86522
# Velocity P-wave (km/s) = 2.42926 5.59600 4.31373
#
# Compressibility (1/GPa) = 0.04475891
#
# Stress axis : x y z
#
# Youngs Moduli (GPa) = 29.63687 90.90650 49.82368
#
# Poissons Ratio (x) = -0.14143 0.48882
# Poissons Ratio (y) = -0.04611 0.08827
# Poissons Ratio (z) = 0.29077 0.16106
#
# Static dielectric constant tensor:
#      x y z
#    x 1.593170 0.000000 0.000000 
#    y 0.000000 1.579460 0.000000 
#    z 0.000000 0.000000 1.623450 
# 
# From -- ./inp_files/11208.got.cif
#   From: 2010.05.17/outbox.cif.g08.bks.cpg/sg55_6_cif.got.tgz:11208.got - 2010.06.03 13:27:54.
