data_PCOD9428565
_publ_section_title
;
Structure prediction by ZEFSAII (Michael W. Deem and Ramdas Pophale) SiO2 
 PCOD9428565
Probable space group: P B A M
;
_chemical_formula_sum "Si O2"
_cell_formula_units_Z 36
_cell_length_a 10.982385
_cell_length_b 4.744250
_cell_length_c 27.098410
_cell_angle_alpha 90.000000
_cell_angle_beta 90.000000
_cell_angle_gamma 90.000000
_cell_volume 1411.913335
_symmetry_space_group_name_H-M "P B A M"
_symmetry_group_IT_number 55
_symmetry_cell_setting 'orthorhombic'
loop_
_space_group_symop_operation_xyz
x,y,z
-x,-y,z
1/2+x,1/2-y,-z
1/2-x,1/2+y,-z
-x,-y,-z
x,y,-z
1/2-x,1/2+y,z
1/2+x,1/2-y,z
loop_
_atom_site_type_symbol
_atom_site_label
_atom_site_fract_x
_atom_site_fract_y
_atom_site_fract_z
Si Si1 0.335684 0.803239 0.659611
Si Si2 0.500000 0.500000 0.149182
Si Si3 0.167525 0.128967 0.764936
Si Si4 0.000000 0.500000 0.917365
Si Si5 0.672044 0.249853 0.000000
Si Si6 0.832813 0.275970 0.500000
Si Si7 0.000000 0.000000 0.581649
O O1 0.210217 0.621522 0.656568
O O2 0.390688 0.725439 0.713229
O O3 0.421733 0.704435 0.616298
O O4 0.590445 0.336733 0.186121
O O5 0.555328 0.747217 0.115494
O O6 0.207485 0.804764 0.765350
O O7 0.901702 0.651438 0.952181
O O8 0.700663 0.579523 0.000000
O O9 0.793854 0.600235 0.500000
O O10 0.910124 0.180372 0.547043
#
# Coordination Sequence:
#
# PCOD9428565 Si02
#       7
#     8   4   8   4   4   4   4
#     4  10  22  39  60  89 120 155 203 245 285 354
#     4  12  23  39  61  90 125 155 197 246 292 352
#     4  10  22  39  59  87 124 161 197 240 293 350
#     4  11  26  40  62  96 118 152 208 247 286 360
#     4  11  24  45  66  86 120 159 196 249 306 348
#     4  11  26  43  60  90 122 151 198 251 300 366
#     4  11  23  40  67  86 117 162 195 245 312 346
#
# _framework density 25.497316999999999
#
# number of rings (size 3 to 8) (size 9 to 14) (size 15 to 20)
#    0.000    1.333    0.000    4.667    0.000   11.556 
#    0.000    6.667    0.000    0.000    0.000    0.000 
#    0.000    0.000    0.000    0.000    0.000    0.000 
#
# Total GULP energy -201909.971917 kJ/mol
# GULP energy per Si atom -5608.610331 kJ/mol
# Density = 2.543928 g / cm^3
# Si number density = 25.497317 Si / 1000 Ang^3
#
#
#
# Elastic Constant Matrix: (Units=GPa)
#
#
# Indices 1 2 3 4 5 6 
#
# 1 54.9847 4.1653 36.2365 0.0000 0.0000 0.0000
# 2 4.1653 83.7358 24.2858 0.0000 0.0000 0.0000
# 3 36.2365 24.2858 163.2550 0.0000 0.0000 0.0000
# 4 0.0000 0.0000 0.0000 -22.1176 0.0000 0.0000
# 5 0.0000 0.0000 0.0000 0.0000 22.9555 0.0000
# 6 0.0000 0.0000 0.0000 0.0000 0.0000 36.4926
#
#
#
# Elastic Compliance Matrix: (Units=1/GPa)
#
#
# Indices 1 2 3 4 5 6 
#
# 1 0.021312 0.000326 -0.004779 0.000000 0.000000 0.000000
# 2 0.000326 0.012486 -0.001930 0.000000 0.000000 0.000000
# 3 -0.004779 -0.001930 0.007473 0.000000 0.000000 0.000000
# 4 0.000000 0.000000 0.000000 -0.045213 0.000000 0.000000
# 5 0.000000 0.000000 0.000000 0.000000 0.043563 0.000000
# 6 0.000000 0.000000 0.000000 0.000000 0.000000 0.027403
#
#
# Mechanical properties :
#
#
# Convention : Reuss Voigt Hill
#
# Bulk Modulus (GPa) = 35.08129 47.92785 41.50457
# Shear Modulus (GPa) = 55.99722 23.28530 39.64126
#
# Velocity S-wave (km/s) = 4.69145 3.02527 3.94727
# Velocity P-wave (km/s) = 6.56772 5.57145 6.08999
#
# Compressibility (1/GPa) = 0.02850522
#
# Stress axis : x y z
#
# Youngs Moduli (GPa) = 46.92280 80.09105 133.81190
#
# Poissons Ratio (x) = -0.02610 0.63947
# Poissons Ratio (y) = -0.01529 0.25822
# Poissons Ratio (z) = 0.22424 0.15455
#
# Static dielectric constant tensor:
#      x y z
#    x 2.070770 0.000000 0.000000 
#    y 0.000000 1.921650 0.000000 
#    z 0.000000 0.000000 1.997290 
# 
# From -- ./inp_files/23541.got.cif
#   From: 2010.05.17/outbox.cif.g08.bks.cpg/sg55_12_cif.got.tgz:23541.got - 2010.06.03 13:27:54.
