data_PCOD9428163
_publ_section_title
;
Structure prediction by ZEFSAII (Michael W. Deem and Ramdas Pophale) SiO2 
 PCOD9428163
Probable space group: P B A M
;
_chemical_formula_sum "Si O2"
_cell_formula_units_Z 48
_cell_length_a 19.121151
_cell_length_b 15.332181
_cell_length_c 8.005308
_cell_angle_alpha 90.000000
_cell_angle_beta 90.000000
_cell_angle_gamma 90.000000
_cell_volume 2346.907725
_symmetry_space_group_name_H-M "P B A M"
_symmetry_group_IT_number 55
_symmetry_cell_setting 'orthorhombic'
loop_
_space_group_symop_operation_xyz
x,y,z
-x,-y,z
1/2+x,1/2-y,-z
1/2-x,1/2+y,-z
-x,-y,-z
x,y,-z
1/2-x,1/2+y,z
1/2+x,1/2-y,z
loop_
_atom_site_type_symbol
_atom_site_label
_atom_site_fract_x
_atom_site_fract_y
_atom_site_fract_z
Si Si1 0.087786 0.256446 0.204785
Si Si2 0.258124 0.815470 0.197790
Si Si3 0.021276 0.596113 0.201572
Si Si4 0.440019 0.562335 0.803075
Si Si5 0.177681 0.647058 0.300100
Si Si6 0.209746 0.004115 0.696149
O O1 0.166478 0.280331 0.257775
O O2 0.065477 0.160625 0.265337
O O3 0.033622 0.330669 0.258840
O O4 0.088468 0.254648 0.000000
O O5 0.201653 0.740221 0.230681
O O6 0.237512 0.906616 0.279436
O O7 0.263269 0.830954 0.000000
O O8 0.099728 0.620851 0.250100
O O9 0.000000 0.500000 0.263075
O O10 0.017711 0.594479 0.000000
O O11 0.500000 0.500000 0.730001
O O12 0.364275 0.518822 0.783874
O O13 0.455606 0.572347 0.000000
O O14 0.181415 0.650734 0.500000
O O15 0.232951 0.573693 0.240687
O O16 0.198875 0.020453 0.500000
#
# Coordination Sequence:
#
# PCOD9428163 Si02
#       6
#     8   8   8   8   8   8
#     4   9  19  37  60  90 121 153 200 253 303 352
#     4  11  22  39  66  91 117 157 206 255 303 359
#     4  10  21  38  62  91 123 159 204 255 302 357
#     4  10  21  38  61  88 119 157 206 255 300 356
#     4  11  24  41  60  90 128 163 201 248 306 369
#     4  11  24  41  61  88 126 162 201 250 305 368
#
# _framework density 20.452444
#
# number of rings (size 3 to 8) (size 9 to 14) (size 15 to 20)
#    0.000    1.667    1.667    2.500    2.333    4.000 
#    0.000    2.500    0.000    0.000    0.000    0.000 
#    0.000    0.000    0.000    0.000    0.000    0.000 
#
# Total GULP energy -268314.921820 kJ/mol
# GULP energy per Si atom -5589.894205 kJ/mol
# Density = 2.040589 g / cm^3
# Si number density = 20.452444 Si / 1000 Ang^3
#
#
#
# Elastic Constant Matrix: (Units=GPa)
#
#
# Indices 1 2 3 4 5 6 
#
# 1 99.8757 30.5684 -9.6355 0.0000 0.0000 0.0000
# 2 30.5684 126.9941 -4.3936 0.0000 0.0000 0.0000
# 3 -9.6355 -4.3936 12.8921 0.0000 0.0000 0.0000
# 4 0.0000 0.0000 0.0000 -388.2873 0.0000 0.0000
# 5 0.0000 0.0000 0.0000 0.0000 2.2178 0.0000
# 6 0.0000 0.0000 0.0000 0.0000 0.0000 41.9776
#
#
#
# Elastic Compliance Matrix: (Units=1/GPa)
#
#
# Indices 1 2 3 4 5 6 
#
# 1 0.011528 -0.002506 0.007762 0.000000 0.000000 0.000000
# 2 -0.002506 0.008513 0.001028 0.000000 0.000000 0.000000
# 3 0.007762 0.001028 0.083719 0.000000 0.000000 0.000000
# 4 0.000000 0.000000 0.000000 -0.002575 0.000000 0.000000
# 5 0.000000 0.000000 0.000000 0.000000 0.450905 0.000000
# 6 0.000000 0.000000 0.000000 0.000000 0.000000 0.023822
#
#
# Mechanical properties :
#
#
# Convention : Reuss Voigt Hill
#
# Bulk Modulus (GPa) = 8.59639 30.31560 19.45599
# Shear Modulus (GPa) = 8.30397 -53.93690 -22.81646
#
# Velocity S-wave (km/s) = 2.01716 -5.14092 -3.34366
# Velocity P-wave (km/s) = 3.10443 4.51488 2.31804
#
# Compressibility (1/GPa) = 0.11632796
#
# Stress axis : x y z
#
# Youngs Moduli (GPa) = 86.74218 117.46376 11.94475
#
# Poissons Ratio (x) = 0.29441 -0.09272
# Poissons Ratio (y) = 0.21741 -0.01228
# Poissons Ratio (z) = -0.67330 -0.12076
#
# Static dielectric constant tensor:
#      x y z
#    x 1.686410 0.000000 0.000000 
#    y 0.000000 1.708100 0.000000 
#    z 0.000000 0.000000 1.722560 
# 
# From -- ./inp_files/5571.got.cif
#   From: 2010.05.17/outbox.cif.g08.bks.cpg/sg55_3_cif.got.tgz:5571.got - 2010.06.03 13:27:54.
