data_PCOD9428146
_publ_section_title
;
Structure prediction by ZEFSAII (Michael W. Deem and Ramdas Pophale) SiO2 
 PCOD9428146
Probable space group: P B A M
;
_chemical_formula_sum "Si O2"
_cell_formula_units_Z 48
_cell_length_a 31.504672
_cell_length_b 9.495053
_cell_length_c 8.712856
_cell_angle_alpha 90.000000
_cell_angle_beta 90.000000
_cell_angle_gamma 90.000000
_cell_volume 2606.350939
_symmetry_space_group_name_H-M "P B A M"
_symmetry_group_IT_number 55
_symmetry_cell_setting 'orthorhombic'
loop_
_space_group_symop_operation_xyz
x,y,z
-x,-y,z
1/2+x,1/2-y,-z
1/2-x,1/2+y,-z
-x,-y,-z
x,y,-z
1/2-x,1/2+y,z
1/2+x,1/2-y,z
loop_
_atom_site_type_symbol
_atom_site_label
_atom_site_fract_x
_atom_site_fract_y
_atom_site_fract_z
Si Si1 0.712299 0.605403 0.681654
Si Si2 0.459741 0.593629 0.814663
Si Si3 0.040348 0.407287 0.316527
Si Si4 0.377669 0.412656 0.185145
Si Si5 0.714420 0.915479 0.182870
Si Si6 0.117356 0.583628 0.816037
O O1 0.711835 0.629373 0.500000
O O2 0.666593 0.547532 0.735995
O O3 0.750415 0.503940 0.729223
O O4 0.718091 0.752630 0.770084
O O5 0.500000 0.500000 0.765192
O O6 0.461633 0.750513 0.750216
O O7 0.416462 0.513117 0.771116
O O8 0.460684 0.601302 0.000000
O O9 0.039267 0.399295 0.500000
O O10 0.082774 0.487032 0.263743
O O11 0.000000 0.500000 0.263839
O O12 0.387604 0.249232 0.224778
O O13 0.372225 0.417760 0.000000
O O14 0.665894 0.957807 0.221124
O O15 0.720117 0.930433 0.000000
O O16 0.112211 0.572801 0.000000
#
# Coordination Sequence:
#
# PCOD9428146 Si02
#       6
#     8   8   8   8   8   8
#     4  11  22  36  57  86 116 148 188 233 281 333
#     4  10  21  38  61  85 108 141 187 233 273 322
#     4  11  24  38  54  81 116 150 181 220 275 333
#     4   9  19  37  59  83 111 144 184 230 282 334
#     4  10  21  39  60  82 112 151 191 232 282 335
#     4   9  19  37  61  83 105 141 187 231 273 323
#
# _framework density 18.416554000000001
#
# number of rings (size 3 to 8) (size 9 to 14) (size 15 to 20)
#    0.000    2.000    0.000    4.500    0.000    8.333 
#    0.000    1.667    0.000    0.000    0.000    0.000 
#    0.000    0.000    0.000    0.000    0.000    0.000 
#
# Total GULP energy -268127.844596 kJ/mol
# GULP energy per Si atom -5585.996762 kJ/mol
# Density = 1.837464 g / cm^3
# Si number density = 18.416554 Si / 1000 Ang^3
#
#
#
# Elastic Constant Matrix: (Units=GPa)
#
#
# Indices 1 2 3 4 5 6 
#
# 1 135.1762 81.8008 28.7503 0.0000 0.0000 0.0000
# 2 81.8008 100.3747 19.2158 0.0000 0.0000 0.0000
# 3 28.7503 19.2158 21.9923 0.0000 0.0000 0.0000
# 4 0.0000 0.0000 0.0000 -64.3509 0.0000 0.0000
# 5 0.0000 0.0000 0.0000 0.0000 7.2094 0.0000
# 6 0.0000 0.0000 0.0000 0.0000 0.0000 39.0722
#
#
#
# Elastic Compliance Matrix: (Units=1/GPa)
#
#
# Indices 1 2 3 4 5 6 
#
# 1 0.016905 -0.011463 -0.012083 0.000000 0.000000 0.000000
# 2 -0.011463 0.019737 -0.002260 0.000000 0.000000 0.000000
# 3 -0.012083 -0.002260 0.063241 0.000000 0.000000 0.000000
# 4 0.000000 0.000000 0.000000 -0.015540 0.000000 0.000000
# 5 0.000000 0.000000 0.000000 0.000000 0.138708 0.000000
# 6 0.000000 0.000000 0.000000 0.000000 0.000000 0.025594
#
#
# Mechanical properties :
#
#
# Convention : Reuss Voigt Hill
#
# Bulk Modulus (GPa) = 20.71655 57.45300 39.08477
# Shear Modulus (GPa) = 15.80544 4.90457 10.35500
#
# Velocity S-wave (km/s) = 2.93272 1.63368 2.37379
# Velocity P-wave (km/s) = 4.76876 5.90107 5.36487
#
# Compressibility (1/GPa) = 0.04827059
#
# Stress axis : x y z
#
# Youngs Moduli (GPa) = 59.15564 50.66546 15.81256
#
# Poissons Ratio (x) = 0.58079 0.19106
# Poissons Ratio (y) = 0.67812 0.03573
# Poissons Ratio (z) = 0.71478 0.11449
#
# Static dielectric constant tensor:
#      x y z
#    x 1.627220 0.000000 0.000000 
#    y 0.000000 1.599880 0.000000 
#    z 0.000000 0.000000 1.613390 
# 
# From -- ./inp_files/2773.got.cif
#   From: 2010.05.17/outbox.cif.g08.bks.cpg/sg55_2_cif.got.tgz:2773.got - 2010.06.03 13:27:54.
