data_PCOD9428526
_publ_section_title
;
Structure prediction by ZEFSAII (Michael W. Deem and Ramdas Pophale) SiO2 
 PCOD9428526
Probable space group: P B A M
;
_chemical_formula_sum "Si O2"
_cell_formula_units_Z 30
_cell_length_a 4.884958
_cell_length_b 17.153143
_cell_length_c 15.107355
_cell_angle_alpha 90.000000
_cell_angle_beta 90.000000
_cell_angle_gamma 90.000000
_cell_volume 1265.881278
_symmetry_space_group_name_H-M "P B A M"
_symmetry_group_IT_number 55
_symmetry_cell_setting 'orthorhombic'
loop_
_space_group_symop_operation_xyz
x,y,z
-x,-y,z
1/2+x,1/2-y,-z
1/2-x,1/2+y,-z
-x,-y,-z
x,y,-z
1/2-x,1/2+y,z
1/2+x,1/2-y,z
loop_
_atom_site_type_symbol
_atom_site_label
_atom_site_fract_x
_atom_site_fract_y
_atom_site_fract_z
Si Si1 0.000000 0.000000 0.500000
Si Si2 0.746412 0.802145 0.398249
Si Si3 0.201413 0.801581 0.000000
Si Si4 0.163590 0.427342 0.671192
Si Si5 0.409287 0.309323 0.195074
O O1 0.181969 0.955285 0.419285
O O2 0.731871 0.827682 0.500000
O O3 0.055873 0.774252 0.386605
O O4 0.585813 0.869031 0.350052
O O5 0.124134 0.838042 0.906161
O O6 0.019604 0.721794 0.000000
O O7 0.353940 0.382227 0.741147
O O8 0.000000 0.500000 0.711045
O O9 0.689914 0.261540 0.207289
#
# Coordination Sequence:
#
# PCOD9428526 Si02
#       5
#     2   8   4   8   8
#     4  12  30  44  60  80 136 180 228 270 338 380
#     4  10  22  38  60  82 109 152 213 271 312 361
#     4   8  16  36  69 103 130 162 208 274 342 394
#     4  12  27  42  62  90 132 180 222 272 334 400
#     4  10  22  43  72 102 132 169 222 278 332 402
#
# _framework density 23.698903000000001
#
# number of rings (size 3 to 8) (size 9 to 14) (size 15 to 20)
#    0.000    1.600    1.333    2.000    7.467    0.000 
#    0.000    0.667    0.000    0.800    0.000    0.000 
#    0.000    0.000    0.000    0.000    0.000    0.000 
#
# Total GULP energy -167286.490852 kJ/mol
# GULP energy per Si atom -5576.216362 kJ/mol
# Density = 2.364496 g / cm^3
# Si number density = 23.698903 Si / 1000 Ang^3
#
#
#
# Elastic Constant Matrix: (Units=GPa)
#
#
# Indices 1 2 3 4 5 6 
#
# 1 137.4847 30.6056 42.9347 0.0000 0.0000 0.0000
# 2 30.6056 82.3054 41.7997 0.0000 0.0000 0.0000
# 3 42.9347 41.7997 171.0319 0.0000 0.0000 0.0000
# 4 0.0000 0.0000 0.0000 23.2196 0.0000 0.0000
# 5 0.0000 0.0000 0.0000 0.0000 37.3392 0.0000
# 6 0.0000 0.0000 0.0000 0.0000 0.0000 37.4852
#
#
#
# Elastic Compliance Matrix: (Units=1/GPa)
#
#
# Indices 1 2 3 4 5 6 
#
# 1 0.008258 -0.002304 -0.001510 0.000000 0.000000 0.000000
# 2 -0.002304 0.014514 -0.002969 0.000000 0.000000 0.000000
# 3 -0.001510 -0.002969 0.006952 0.000000 0.000000 0.000000
# 4 0.000000 0.000000 0.000000 0.043067 0.000000 0.000000
# 5 0.000000 0.000000 0.000000 0.000000 0.026781 0.000000
# 6 0.000000 0.000000 0.000000 0.000000 0.000000 0.026677
#
#
# Mechanical properties :
#
#
# Convention : Reuss Voigt Hill
#
# Bulk Modulus (GPa) = 61.88774 69.05579 65.47177
# Shear Modulus (GPa) = 34.43496 37.97426 36.20461
#
# Velocity S-wave (km/s) = 3.81598 4.00730 3.91281
# Velocity P-wave (km/s) = 6.75178 7.11430 6.93541
#
# Compressibility (1/GPa) = 0.01615829
#
# Stress axis : x y z
#
# Youngs Moduli (GPa) = 121.09543 68.89714 143.85371
#
# Poissons Ratio (x) = 0.15873 0.21721
# Poissons Ratio (y) = 0.27899 0.42709
# Poissons Ratio (z) = 0.18285 0.20455
#
# Static dielectric constant tensor:
#      x y z
#    x 1.940610 0.000000 0.000000 
#    y 0.000000 1.998300 0.000000 
#    z 0.000000 0.000000 2.043920 
# 
# From -- ./inp_files/20287.got.cif
#   From: 2010.05.17/outbox.cif.g08.bks.cpg/sg55_11_cif.got.tgz:20287.got - 2010.06.03 13:27:54.
