data_PCOD9428589
_publ_section_title
;
Structure prediction by ZEFSAII (Michael W. Deem and Ramdas Pophale) SiO2 
 PCOD9428589
Probable space group: P B A M
;
_chemical_formula_sum "Si O2"
_cell_formula_units_Z 48
_cell_length_a 9.376925
_cell_length_b 16.671577
_cell_length_c 14.500092
_cell_angle_alpha 90.000000
_cell_angle_beta 90.000000
_cell_angle_gamma 90.000000
_cell_volume 2266.772226
_symmetry_space_group_name_H-M "P B A M"
_symmetry_group_IT_number 55
_symmetry_cell_setting 'orthorhombic'
loop_
_space_group_symop_operation_xyz
x,y,z
-x,-y,z
1/2+x,1/2-y,-z
1/2-x,1/2+y,-z
-x,-y,-z
x,y,-z
1/2-x,1/2+y,z
1/2+x,1/2-y,z
loop_
_atom_site_type_symbol
_atom_site_label
_atom_site_fract_x
_atom_site_fract_y
_atom_site_fract_z
Si Si1 0.390255 0.866103 0.500000
Si Si2 0.660002 0.072591 0.303655
Si Si3 0.730574 0.980612 0.000000
Si Si4 0.974464 0.301670 0.190843
Si Si5 0.524451 0.639605 0.696678
Si Si6 0.549358 0.135867 0.000000
Si Si7 0.264330 0.572764 0.800660
Si Si8 0.427983 0.289241 0.500000
O O1 0.387059 0.921291 0.409527
O O2 0.523073 0.803904 0.500000
O O3 0.242293 0.811665 0.500000
O O4 0.574370 0.142533 0.253217
O O5 0.826547 0.094470 0.300810
O O6 0.655797 0.989618 0.247845
O O7 0.588605 0.923787 0.000000
O O8 0.803613 0.959834 0.097504
O O9 0.680032 0.073201 0.000000
O O10 0.966570 0.215004 0.234676
O O11 0.819658 0.343582 0.189006
O O12 0.039869 0.309197 0.089466
O O13 0.396010 0.586330 0.733501
O O14 0.507262 0.672227 0.592747
#
# Coordination Sequence:
#
# PCOD9428589 Si02
#       8
#     4   8   4   8   8   4   8   4
#     4  10  22  39  63  91 123 160 206 252 306 365
#     4  11  22  40  61  90 123 159 207 254 303 364
#     4   9  18  37  61  90 119 163 199 249 312 363
#     4  11  21  39  64  90 116 163 211 252 297 367
#     4  11  24  40  60  90 128 162 200 253 316 367
#     4   9  18  35  62  89 123 154 203 253 310 351
#     4  11  23  40  64  91 123 165 207 252 308 367
#     4  10  22  39  62  86 124 167 198 248 318 365
#
# _framework density 21.175484000000001
#
# number of rings (size 3 to 8) (size 9 to 14) (size 15 to 20)
#    0.000    1.500    3.333    2.000    2.333    1.333 
#    0.000   10.833    0.000    0.000    0.000    0.000 
#    0.000    0.000    0.000    0.000    0.000    0.000 
#
# Total GULP energy -268303.573923 kJ/mol
# GULP energy per Si atom -5589.657790 kJ/mol
# Density = 2.112729 g / cm^3
# Si number density = 21.175484 Si / 1000 Ang^3
#
#
#
# Elastic Constant Matrix: (Units=GPa)
#
#
# Indices 1 2 3 4 5 6 
#
# 1 46.3009 0.4463 3.3056 0.0000 0.0000 0.0000
# 2 0.4463 85.5109 28.9341 0.0000 0.0000 0.0000
# 3 3.3056 28.9341 155.9513 0.0000 0.0000 0.0000
# 4 0.0000 0.0000 0.0000 10.7312 0.0000 0.0000
# 5 0.0000 0.0000 0.0000 0.0000 10.6719 0.0000
# 6 0.0000 0.0000 0.0000 0.0000 0.0000 39.0108
#
#
#
# Elastic Compliance Matrix: (Units=1/GPa)
#
#
# Indices 1 2 3 4 5 6 
#
# 1 0.021631 0.000045 -0.000467 0.000000 0.000000 0.000000
# 2 0.000045 0.012478 -0.002316 0.000000 0.000000 0.000000
# 3 -0.000467 -0.002316 0.006852 0.000000 0.000000 0.000000
# 4 0.000000 0.000000 0.000000 0.093186 0.000000 0.000000
# 5 0.000000 0.000000 0.000000 0.000000 0.093704 0.000000
# 6 0.000000 0.000000 0.000000 0.000000 0.000000 0.025634
#
#
# Mechanical properties :
#
#
# Convention : Reuss Voigt Hill
#
# Bulk Modulus (GPa) = 28.18105 39.23724 33.70914
# Shear Modulus (GPa) = 18.46463 29.08794 23.77629
#
# Velocity S-wave (km/s) = 2.95614 3.71031 3.35449
# Velocity P-wave (km/s) = 4.99889 6.07660 5.56390
#
# Compressibility (1/GPa) = 0.03548484
#
# Stress axis : x y z
#
# Youngs Moduli (GPa) = 46.23053 80.14209 145.94594
#
# Poissons Ratio (x) = -0.00361 0.06814
# Poissons Ratio (y) = -0.00208 0.33801
# Poissons Ratio (z) = 0.02158 0.18561
#
# Static dielectric constant tensor:
#      x y z
#    x 1.790780 0.000000 0.000000 
#    y 0.000000 1.752750 0.000000 
#    z 0.000000 0.000000 1.773400 
# 
# From -- ./inp_files/17428.got.cif
#   From: 2010.05.17/outbox.cif.g08.bks.cpg/sg55_9_cif.got.tgz:17428.got - 2010.06.03 13:27:54.
