data_PCOD9428365
_publ_section_title
;
Structure prediction by ZEFSAII (Michael W. Deem and Ramdas Pophale) SiO2 
 PCOD9428365
Probable space group: P B A M
;
_chemical_formula_sum "Si O2"
_cell_formula_units_Z 36
_cell_length_a 17.302816
_cell_length_b 15.100642
_cell_length_c 7.477994
_cell_angle_alpha 90.000000
_cell_angle_beta 90.000000
_cell_angle_gamma 90.000000
_cell_volume 1953.877417
_symmetry_space_group_name_H-M "P B A M"
_symmetry_group_IT_number 55
_symmetry_cell_setting 'orthorhombic'
loop_
_space_group_symop_operation_xyz
x,y,z
-x,-y,z
1/2+x,1/2-y,-z
1/2-x,1/2+y,-z
-x,-y,-z
x,y,-z
1/2-x,1/2+y,z
1/2+x,1/2-y,z
loop_
_atom_site_type_symbol
_atom_site_label
_atom_site_fract_x
_atom_site_fract_y
_atom_site_fract_z
Si Si1 0.843489 0.635731 0.288902
Si Si2 0.108029 0.743738 0.000000
Si Si3 0.736492 0.799183 0.288177
Si Si4 0.918705 0.050374 0.000000
Si Si5 0.293324 0.502737 0.287473
Si Si6 0.971937 0.600916 0.000000
O O1 0.860239 0.629115 0.500000
O O2 0.806238 0.731381 0.251295
O O3 0.776040 0.565196 0.246092
O O4 0.917874 0.617673 0.171249
O O5 0.163662 0.729293 0.170678
O O6 0.074518 0.843052 0.000000
O O7 0.042260 0.669565 0.000000
O O8 0.718788 0.793291 0.500000
O O9 0.763316 0.898610 0.247032
O O10 0.867270 0.022088 0.170842
O O11 0.000000 0.000000 0.000000
O O12 0.309364 0.497006 0.500000
O O13 0.000000 0.500000 0.000000
#
# Coordination Sequence:
#
# PCOD9428365 Si02
#       6
#     8   4   8   4   8   4
#     4  10  21  40  64  88 116 154 202 250 293 350
#     4  12  24  39  61  90 128 162 193 245 305 364
#     4  10  21  40  67  90 112 154 206 251 295 349
#     4  12  26  38  57  89 128 164 195 244 305 363
#     4  10  21  41  67  89 114 155 206 253 295 351
#     4  12  26  39  58  91 126 160 193 242 308 361
#
# _framework density 18.424901999999999
#
# number of rings (size 3 to 8) (size 9 to 14) (size 15 to 20)
#    0.000    1.333    2.222    3.333    3.111    1.778 
#    0.000    0.000    0.000    0.000    0.000    0.000 
#    0.000    0.000    0.000    0.000    0.000    0.000 
#
# Total GULP energy -201300.170658 kJ/mol
# GULP energy per Si atom -5591.671407 kJ/mol
# Density = 1.838297 g / cm^3
# Si number density = 18.424902 Si / 1000 Ang^3
#
#
#
# Elastic Constant Matrix: (Units=GPa)
#
#
# Indices 1 2 3 4 5 6 
#
# 1 108.4586 35.3148 56.6843 0.0000 0.0000 0.0000
# 2 35.3148 129.8346 29.4222 0.0000 0.0000 0.0000
# 3 56.6843 29.4222 72.4181 0.0000 0.0000 0.0000
# 4 0.0000 0.0000 0.0000 14.3331 0.0000 0.0000
# 5 0.0000 0.0000 0.0000 0.0000 -44.7698 0.0000
# 6 0.0000 0.0000 0.0000 0.0000 0.0000 31.1295
#
#
#
# Elastic Compliance Matrix: (Units=1/GPa)
#
#
# Indices 1 2 3 4 5 6 
#
# 1 0.015921 -0.001659 -0.011788 0.000000 0.000000 0.000000
# 2 -0.001659 0.008656 -0.002218 0.000000 0.000000 0.000000
# 3 -0.011788 -0.002218 0.023937 0.000000 0.000000 0.000000
# 4 0.000000 0.000000 0.000000 0.069769 0.000000 0.000000
# 5 0.000000 0.000000 0.000000 0.000000 -0.022336 0.000000
# 6 0.000000 0.000000 0.000000 0.000000 0.000000 0.032124
#
#
# Mechanical properties :
#
#
# Convention : Reuss Voigt Hill
#
# Bulk Modulus (GPa) = 58.19556 61.50599 59.85078
# Shear Modulus (GPa) = 30.27947 12.75788 21.51867
#
# Velocity S-wave (km/s) = 4.05828 2.63425 3.42118
# Velocity P-wave (km/s) = 7.32212 6.53505 6.93975
#
# Compressibility (1/GPa) = 0.01718344
#
# Stress axis : x y z
#
# Youngs Moduli (GPa) = 62.80953 115.52603 41.77687
#
# Poissons Ratio (x) = 0.19168 0.49246
# Poissons Ratio (y) = 0.10422 0.09266
# Poissons Ratio (z) = 0.74039 0.25624
#
# Static dielectric constant tensor:
#      x y z
#    x 1.575300 0.000000 0.000000 
#    y 0.000000 1.617180 0.000000 
#    z 0.000000 0.000000 1.647200 
# 
# From -- ./inp_files/5145.got.cif
#   From: 2010.05.17/outbox.cif.g08.bks.cpg/sg55_3_cif.got.tgz:5145.got - 2010.06.03 13:27:54.
