data_PCOD9428134
_publ_section_title
;
Structure prediction by ZEFSAII (Michael W. Deem and Ramdas Pophale) SiO2 
 PCOD9428134
Probable space group: P B A M
;
_chemical_formula_sum "Si O2"
_cell_formula_units_Z 64
_cell_length_a 10.971871
_cell_length_b 33.556774
_cell_length_c 8.829182
_cell_angle_alpha 90.000000
_cell_angle_beta 90.000000
_cell_angle_gamma 90.000000
_cell_volume 3250.733487
_symmetry_space_group_name_H-M "P B A M"
_symmetry_group_IT_number 55
_symmetry_cell_setting 'orthorhombic'
loop_
_space_group_symop_operation_xyz
x,y,z
-x,-y,z
1/2+x,1/2-y,-z
1/2-x,1/2+y,-z
-x,-y,-z
x,y,-z
1/2-x,1/2+y,z
1/2+x,1/2-y,z
loop_
_atom_site_type_symbol
_atom_site_label
_atom_site_fract_x
_atom_site_fract_y
_atom_site_fract_z
Si Si1 0.470348 0.220016 0.823575
Si Si2 0.481403 0.304958 0.327766
Si Si3 0.395520 0.467626 0.683377
Si Si4 0.761943 0.323865 0.669922
Si Si5 0.871133 0.404320 0.321935
Si Si6 0.367582 0.382711 0.818729
Si Si7 0.358805 0.006770 0.316061
Si Si8 0.097525 0.358395 0.182355
O O1 0.456382 0.261546 0.738905
O O2 0.344825 0.196633 0.794754
O O3 0.570661 0.187452 0.767938
O O4 0.492327 0.227811 0.000000
O O5 0.435391 0.308102 0.500000
O O6 0.626897 0.308365 0.328788
O O7 0.432989 0.342204 0.232737
O O8 0.500000 0.500000 0.727638
O O9 0.396152 0.466396 0.500000
O O10 0.418135 0.423245 0.745630
O O11 0.257753 0.480635 0.733826
O O12 0.815122 0.316658 0.500000
O O13 0.767132 0.371219 0.694057
O O14 0.901304 0.407811 0.500000
O O15 0.832409 0.447718 0.270597
O O16 0.989507 0.386376 0.241489
O O17 0.226859 0.375831 0.770052
O O18 0.371981 0.386255 0.000000
O O19 0.360175 0.003252 0.500000
O O20 0.500000 0.000000 0.266538
O O21 0.093420 0.357639 0.000000
#
# Coordination Sequence:
#
# PCOD9428134 Si02
#       8
#     8   8   8   8   8   8   8   8
#     4  10  21  38  60  85 116 153 192 237 297 352
#     4  11  24  39  59  86 116 150 198 246 291 347
#     4  10  22  39  62  88 118 157 200 248 302 356
#     4   9  20  37  57  83 114 148 192 242 287 339
#     4   9  17  32  58  85 113 148 188 237 290 341
#     4  11  24  41  60  85 119 159 200 239 293 355
#     4   9  17  30  54  87 116 144 187 240 292 347
#     4   9  20  38  58  84 119 155 191 236 287 349
#
# _framework density 19.687864999999999
#
# number of rings (size 3 to 8) (size 9 to 14) (size 15 to 20)
#    0.000    2.250    0.000    1.875    3.500    3.750 
#    0.000    0.625    0.000    2.250    0.000    0.000 
#    0.000    0.000    0.000    0.000    0.000    0.000 
#
# Total GULP energy -356863.241143 kJ/mol
# GULP energy per Si atom -5575.988143 kJ/mol
# Density = 1.964305 g / cm^3
# Si number density = 19.687865 Si / 1000 Ang^3
#
#
#
# Elastic Constant Matrix: (Units=GPa)
#
#
# Indices 1 2 3 4 5 6 
#
# 1 33.2246 14.5348 5.1250 0.0000 0.0000 0.0000
# 2 14.5348 124.6735 17.0323 0.0000 0.0000 0.0000
# 3 5.1250 17.0323 13.6852 0.0000 0.0000 0.0000
# 4 0.0000 0.0000 0.0000 -6.4124 0.0000 0.0000
# 5 0.0000 0.0000 0.0000 0.0000 15.5844 0.0000
# 6 0.0000 0.0000 0.0000 0.0000 0.0000 21.1075
#
#
#
# Elastic Compliance Matrix: (Units=1/GPa)
#
#
# Indices 1 2 3 4 5 6 
#
# 1 0.032613 -0.002571 -0.009014 0.000000 0.000000 0.000000
# 2 -0.002571 0.009867 -0.011317 0.000000 0.000000 0.000000
# 3 -0.009014 -0.011317 0.090532 0.000000 0.000000 0.000000
# 4 0.000000 0.000000 0.000000 -0.155949 0.000000 0.000000
# 5 0.000000 0.000000 0.000000 0.000000 0.064167 0.000000
# 6 0.000000 0.000000 0.000000 0.000000 0.000000 0.047376
#
#
# Mechanical properties :
#
#
# Convention : Reuss Voigt Hill
#
# Bulk Modulus (GPa) = 11.46677 27.21861 19.34269
# Shear Modulus (GPa) = 30.58493 15.04866 22.81680
#
# Velocity S-wave (km/s) = 3.94571 2.76771 3.40799
# Velocity P-wave (km/s) = 5.15705 4.90599 5.03308
#
# Compressibility (1/GPa) = 0.08720851
#
# Stress axis : x y z
#
# Youngs Moduli (GPa) = 30.66246 101.35052 11.04582
#
# Poissons Ratio (x) = 0.26054 0.09957
# Poissons Ratio (y) = 0.07882 0.12501
# Poissons Ratio (z) = 0.27639 1.14700
#
# Static dielectric constant tensor:
#      x y z
#    x 1.703330 0.000000 0.000000 
#    y 0.000000 1.692360 0.000000 
#    z 0.000000 0.000000 1.696030 
# 
# From -- ./inp_files/4516.got.cif
#   From: 2010.05.17/outbox.cif.g08.bks.cpg/sg55_3_cif.got.tgz:4516.got - 2010.06.03 13:27:54.
