data_PCOD9428859
_publ_section_title
;
Structure prediction by ZEFSAII (Michael W. Deem and Ramdas Pophale) SiO2 
 PCOD9428859
Probable space group: P B A M
;
_chemical_formula_sum "Si O2"
_cell_formula_units_Z 38
_cell_length_a 9.493728
_cell_length_b 11.650086
_cell_length_c 19.454432
_cell_angle_alpha 90.000000
_cell_angle_beta 90.000000
_cell_angle_gamma 90.000000
_cell_volume 2151.713633
_symmetry_space_group_name_H-M "P B A M"
_symmetry_group_IT_number 55
_symmetry_cell_setting 'orthorhombic'
loop_
_space_group_symop_operation_xyz
x,y,z
-x,-y,z
1/2+x,1/2-y,-z
1/2-x,1/2+y,-z
-x,-y,-z
x,y,-z
1/2-x,1/2+y,z
1/2+x,1/2-y,z
loop_
_atom_site_type_symbol
_atom_site_label
_atom_site_fract_x
_atom_site_fract_y
_atom_site_fract_z
Si Si1 0.532214 0.123568 0.857919
Si Si2 0.000000 0.000000 0.719651
Si Si3 0.187989 0.194316 0.655389
Si Si4 0.500000 0.000000 0.000000
Si Si5 0.526190 0.866110 0.418504
Si Si6 0.180125 0.805605 0.792315
O O1 0.691279 0.158920 0.841136
O O2 0.426431 0.218475 0.829088
O O3 0.500000 0.000000 0.822583
O O4 0.510317 0.097618 0.938285
O O5 0.099295 0.080979 0.673802
O O6 0.905279 0.083763 0.766151
O O7 0.083942 0.287427 0.622322
O O8 0.317370 0.166736 0.605519
O O9 0.252435 0.244355 0.725815
O O10 0.509728 0.848279 0.500000
O O11 0.500000 0.000000 0.403256
#
# Coordination Sequence:
#
# PCOD9428859 Si02
#       6
#     8   4   8   2   8   8
#     4  10  23  43  63  97 127 171 212 261 319 385
#     4  12  24  38  65 103 122 168 212 274 330 370
#     4  12  23  43  64  98 129 166 220 274 324 374
#     4   8  24  44  64  92 136 172 206 260 316 388
#     4  11  25  44  65  91 131 177 216 262 328 391
#     4  12  22  40  70  94 134 165 219 270 321 377
#
# _framework density 17.660340999999999
#
# number of rings (size 3 to 8) (size 9 to 14) (size 15 to 20)
#    0.632    0.211    4.211    3.158    0.000    2.526 
#    0.000    1.053    0.000    2.526    0.000    0.000 
#    0.000    0.000    0.000    0.000    0.000    0.000 
#
# Total GULP energy -211737.508122 kJ/mol
# GULP energy per Si atom -5572.039687 kJ/mol
# Density = 1.762015 g / cm^3
# Si number density = 17.660341 Si / 1000 Ang^3
#
#
#
# Elastic Constant Matrix: (Units=GPa)
#
#
# Indices 1 2 3 4 5 6 
#
# 1 124.6515 50.2751 32.1767 0.0000 0.0000 0.0000
# 2 50.2751 91.6618 32.1875 0.0000 0.0000 0.0000
# 3 32.1767 32.1875 72.2345 0.0000 0.0000 0.0000
# 4 0.0000 0.0000 0.0000 38.4266 0.0000 0.0000
# 5 0.0000 0.0000 0.0000 0.0000 10.0839 0.0000
# 6 0.0000 0.0000 0.0000 0.0000 0.0000 46.1769
#
#
#
# Elastic Compliance Matrix: (Units=1/GPa)
#
#
# Indices 1 2 3 4 5 6 
#
# 1 0.010682 -0.004965 -0.002546 0.000000 0.000000 0.000000
# 2 -0.004965 0.015241 -0.004580 0.000000 0.000000 0.000000
# 3 -0.002546 -0.004580 0.017019 0.000000 0.000000 0.000000
# 4 0.000000 0.000000 0.000000 0.026024 0.000000 0.000000
# 5 0.000000 0.000000 0.000000 0.000000 0.099168 0.000000
# 6 0.000000 0.000000 0.000000 0.000000 0.000000 0.021656
#
#
# Mechanical properties :
#
#
# Convention : Reuss Voigt Hill
#
# Bulk Modulus (GPa) = 53.30353 57.53625 55.41989
# Shear Modulus (GPa) = 22.70412 30.53138 26.61775
#
# Velocity S-wave (km/s) = 3.58942 4.16241 3.88649
# Velocity P-wave (km/s) = 6.88670 7.46665 7.18253
#
# Compressibility (1/GPa) = 0.01876048
#
# Stress axis : x y z
#
# Youngs Moduli (GPa) = 93.61516 65.61223 58.75918
#
# Poissons Ratio (x) = 0.32576 0.14960
# Poissons Ratio (y) = 0.46479 0.26910
# Poissons Ratio (z) = 0.23834 0.30049
#
# Static dielectric constant tensor:
#      x y z
#    x 1.589930 0.000000 0.000000 
#    y 0.000000 1.595990 0.000000 
#    z 0.000000 0.000000 1.572770 
# 
# From -- ./inp_files/20632.got.cif
#   From: 2010.05.17/outbox.cif.g08.bks.cpg/sg55_11_cif.got.tgz:20632.got - 2010.06.03 13:27:54.
