data_PCOD9428511
_publ_section_title
;
Structure prediction by ZEFSAII (Michael W. Deem and Ramdas Pophale) SiO2 
 PCOD9428511
Probable space group: P B A M
;
_chemical_formula_sum "Si O2"
_cell_formula_units_Z 38
_cell_length_a 4.823291
_cell_length_b 10.633431
_cell_length_c 27.594853
_cell_angle_alpha 90.000000
_cell_angle_beta 90.000000
_cell_angle_gamma 90.000000
_cell_volume 1415.288464
_symmetry_space_group_name_H-M "P B A M"
_symmetry_group_IT_number 55
_symmetry_cell_setting 'orthorhombic'
loop_
_space_group_symop_operation_xyz
x,y,z
-x,-y,z
1/2+x,1/2-y,-z
1/2-x,1/2+y,-z
-x,-y,-z
x,y,-z
1/2-x,1/2+y,z
1/2+x,1/2-y,z
loop_
_atom_site_type_symbol
_atom_site_label
_atom_site_fract_x
_atom_site_fract_y
_atom_site_fract_z
Si Si1 0.179941 0.833552 0.054472
Si Si2 0.330330 0.163524 0.687762
Si Si3 0.807885 0.836243 0.791549
Si Si4 0.705339 0.340950 0.582837
Si Si5 0.500000 0.000000 0.500000
Si Si6 0.500000 0.000000 0.869743
O O1 0.360618 0.705197 0.058397
O O2 0.299550 0.919817 0.095859
O O3 0.228718 0.883455 0.000000
O O4 0.147124 0.292319 0.687634
O O5 0.254700 0.103220 0.739005
O O6 0.254018 0.103677 0.636585
O O7 0.123593 0.791834 0.793859
O O8 0.696224 0.918257 0.834993
O O9 0.399091 0.284211 0.577958
O O10 0.803910 0.434577 0.542045
#
# Coordination Sequence:
#
# PCOD9428511 Si02
#       6
#     8   8   8   8   2   4
#     4  10  23  42  61  84 115 151 193 235 276 331
#     4   8  16  35  57  76 108 148 183 225 273 326
#     4  10  22  38  57  85 117 148 186 231 278 333
#     4  10  22  39  58  82 112 147 188 231 277 334
#     4  12  24  36  60  84 114 146 184 234 290 332
#     4  12  23  37  62  88 117 151 186 232 288 334
#
# _framework density 26.849651000000001
#
# number of rings (size 3 to 8) (size 9 to 14) (size 15 to 20)
#    0.000    2.105    0.000    2.211    0.000    5.895 
#    0.000    3.158    0.000   15.158    0.000    0.000 
#    0.000    0.000    0.000    0.000    0.000    0.000 
#
# Total GULP energy -212717.119359 kJ/mol
# GULP energy per Si atom -5597.818930 kJ/mol
# Density = 2.678854 g / cm^3
# Si number density = 26.849651 Si / 1000 Ang^3
#
#
#
# Elastic Constant Matrix: (Units=GPa)
#
#
# Indices 1 2 3 4 5 6 
#
# 1 98.4617 21.0896 12.7464 0.0000 0.0000 0.0000
# 2 21.0896 64.1364 63.0384 0.0000 0.0000 0.0000
# 3 12.7464 63.0384 261.7141 0.0000 0.0000 0.0000
# 4 0.0000 0.0000 0.0000 39.6749 0.0000 0.0000
# 5 0.0000 0.0000 0.0000 0.0000 -18.8710 0.0000
# 6 0.0000 0.0000 0.0000 0.0000 0.0000 43.2396
#
#
#
# Elastic Compliance Matrix: (Units=1/GPa)
#
#
# Indices 1 2 3 4 5 6 
#
# 1 0.010964 -0.004036 0.000438 0.000000 0.000000 0.000000
# 2 -0.004036 0.021914 -0.005082 0.000000 0.000000 0.000000
# 3 0.000438 -0.005082 0.005024 0.000000 0.000000 0.000000
# 4 0.000000 0.000000 0.000000 0.025205 0.000000 0.000000
# 5 0.000000 0.000000 0.000000 0.000000 -0.052991 0.000000
# 6 0.000000 0.000000 0.000000 0.000000 0.000000 0.023127
#
#
# Mechanical properties :
#
#
# Convention : Reuss Voigt Hill
#
# Bulk Modulus (GPa) = 48.67996 68.67343 58.67669
# Shear Modulus (GPa) = 87.03527 34.63788 60.83657
#
# Velocity S-wave (km/s) = 5.69966 3.59565 4.76523
# Velocity P-wave (km/s) = 7.84123 6.54758 7.22342
#
# Compressibility (1/GPa) = 0.02054234
#
# Stress axis : x y z
#
# Youngs Moduli (GPa) = 91.20797 45.63383 199.05874
#
# Poissons Ratio (x) = 0.18417 -0.08721
# Poissons Ratio (y) = 0.36810 1.01156
# Poissons Ratio (z) = -0.03996 0.23190
#
# Static dielectric constant tensor:
#      x y z
#    x 1.997970 0.000000 0.000000 
#    y 0.000000 2.105400 0.000000 
#    z 0.000000 0.000000 2.048630 
# 
# From -- ./inp_files/23757.got.cif
#   From: 2010.05.17/outbox.cif.g08.bks.cpg/sg55_12_cif.got.tgz:23757.got - 2010.06.03 13:27:54.
