data_PCOD9428543
_publ_section_title
;
Structure prediction by ZEFSAII (Michael W. Deem and Ramdas Pophale) SiO2 
 PCOD9428543
Probable space group: P B A M
;
_chemical_formula_sum "Si O2"
_cell_formula_units_Z 48
_cell_length_a 15.971170
_cell_length_b 9.680831
_cell_length_c 14.623090
_cell_angle_alpha 90.000000
_cell_angle_beta 90.000000
_cell_angle_gamma 90.000000
_cell_volume 2260.937327
_symmetry_space_group_name_H-M "P B A M"
_symmetry_group_IT_number 55
_symmetry_cell_setting 'orthorhombic'
loop_
_space_group_symop_operation_xyz
x,y,z
-x,-y,z
1/2+x,1/2-y,-z
1/2-x,1/2+y,-z
-x,-y,-z
x,y,-z
1/2-x,1/2+y,z
1/2+x,1/2-y,z
loop_
_atom_site_type_symbol
_atom_site_label
_atom_site_fract_x
_atom_site_fract_y
_atom_site_fract_z
Si Si1 0.378375 0.479854 0.696855
Si Si2 0.593838 0.676467 0.000000
Si Si3 0.397033 0.738134 0.809212
Si Si4 0.183998 0.382263 0.500000
Si Si5 0.680102 0.036459 0.302003
Si Si6 0.390297 0.641537 0.000000
Si Si7 0.914527 0.297234 0.197072
Si Si8 0.144429 0.052845 0.500000
O O1 0.415382 0.587418 0.768914
O O2 0.277837 0.498024 0.697863
O O3 0.398670 0.327929 0.732041
O O4 0.403322 0.522010 0.594261
O O5 0.615034 0.753604 0.094919
O O6 0.492146 0.656833 0.000000
O O7 0.629643 0.520885 0.000000
O O8 0.333391 0.815479 0.744035
O O9 0.360461 0.716698 0.909275
O O10 0.485437 0.816949 0.810785
O O11 0.148105 0.445857 0.593847
O O12 0.175692 0.214327 0.500000
O O13 0.279484 0.440120 0.500000
O O14 0.631452 0.927206 0.240450
#
# Coordination Sequence:
#
# PCOD9428543 Si02
#       8
#     8   4   8   4   8   4   8   4
#     4  11  22  40  64  88 119 160 207 247 296 366
#     4   9  18  37  60  88 119 160 210 238 297 376
#     4  11  21  41  63  90 121 159 207 248 304 361
#     4  10  22  40  63  87 122 168 202 243 302 376
#     4  11  24  40  61  91 127 156 200 255 309 358
#     4   9  18  35  64  86 117 166 202 244 295 374
#     4  11  23  39  64  91 120 164 202 251 303 361
#     4  10  22  38  63  89 122 162 208 243 296 378
#
# _framework density 21.230132000000001
#
# number of rings (size 3 to 8) (size 9 to 14) (size 15 to 20)
#    0.000    1.500    3.333    2.000    7.000    0.667 
#    0.000   12.500    0.000    0.000    0.000    0.000 
#    0.000    0.000    0.000    0.000    0.000    0.000 
#
# Total GULP energy -268104.877168 kJ/mol
# GULP energy per Si atom -5585.518274 kJ/mol
# Density = 2.118181 g / cm^3
# Si number density = 21.230132 Si / 1000 Ang^3
#
#
#
# Elastic Constant Matrix: (Units=GPa)
#
#
# Indices 1 2 3 4 5 6 
#
# 1 47.7381 19.0600 19.0107 0.0000 0.0000 0.0000
# 2 19.0600 90.4985 28.3530 0.0000 0.0000 0.0000
# 3 19.0107 28.3530 166.3843 0.0000 0.0000 0.0000
# 4 0.0000 0.0000 0.0000 64.1857 0.0000 0.0000
# 5 0.0000 0.0000 0.0000 0.0000 3.0229 0.0000
# 6 0.0000 0.0000 0.0000 0.0000 0.0000 37.1032
#
#
#
# Elastic Compliance Matrix: (Units=1/GPa)
#
#
# Indices 1 2 3 4 5 6 
#
# 1 0.023450 -0.004331 -0.001941 0.000000 0.000000 0.000000
# 2 -0.004331 0.012473 -0.001631 0.000000 0.000000 0.000000
# 3 -0.001941 -0.001631 0.006510 0.000000 0.000000 0.000000
# 4 0.000000 0.000000 0.000000 0.015580 0.000000 0.000000
# 5 0.000000 0.000000 0.000000 0.000000 0.330807 0.000000
# 6 0.000000 0.000000 0.000000 0.000000 0.000000 0.026952
#
#
# Mechanical properties :
#
#
# Convention : Reuss Voigt Hill
#
# Bulk Modulus (GPa) = 37.55541 48.60759 43.08150
# Shear Modulus (GPa) = 11.35196 36.74217 24.04707
#
# Velocity S-wave (km/s) = 2.31489 4.16463 3.36919
# Velocity P-wave (km/s) = 4.98729 6.78755 5.95583
#
# Compressibility (1/GPa) = 0.02662732
#
# Stress axis : x y z
#
# Youngs Moduli (GPa) = 42.64434 80.17407 153.61278
#
# Poissons Ratio (x) = 0.34720 0.29822
# Poissons Ratio (y) = 0.18467 0.25049
# Poissons Ratio (z) = 0.08279 0.13074
#
# Static dielectric constant tensor:
#      x y z
#    x 1.788710 0.000000 0.000000 
#    y 0.000000 1.725420 0.000000 
#    z 0.000000 0.000000 1.784440 
# 
# From -- ./inp_files/19420.got.cif
#   From: 2010.05.17/outbox.cif.g08.bks.cpg/sg55_10_cif.got.tgz:19420.got - 2010.06.03 13:27:54.
