data_PCOD9428683
_publ_section_title
;
Structure prediction by ZEFSAII (Michael W. Deem and Ramdas Pophale) SiO2 
 PCOD9428683
Probable space group: P B A M
;
_chemical_formula_sum "Si O2"
_cell_formula_units_Z 58
_cell_length_a 19.801526
_cell_length_b 16.339036
_cell_length_c 7.595442
_cell_angle_alpha 90.000000
_cell_angle_beta 90.000000
_cell_angle_gamma 90.000000
_cell_volume 2457.412945
_symmetry_space_group_name_H-M "P B A M"
_symmetry_group_IT_number 55
_symmetry_cell_setting 'orthorhombic'
loop_
_space_group_symop_operation_xyz
x,y,z
-x,-y,z
1/2+x,1/2-y,-z
1/2-x,1/2+y,-z
-x,-y,-z
x,y,-z
1/2-x,1/2+y,z
1/2+x,1/2-y,z
loop_
_atom_site_type_symbol
_atom_site_label
_atom_site_fract_x
_atom_site_fract_y
_atom_site_fract_z
Si Si1 0.088208 0.332624 0.701783
Si Si2 0.062283 0.684181 0.796483
Si Si3 0.732034 0.226160 0.287279
Si Si4 0.379724 0.014665 0.795234
Si Si5 0.869194 0.153827 0.793510
Si Si6 0.906499 0.974925 0.205867
Si Si7 0.259613 0.588823 0.711683
Si Si8 0.000000 0.000000 0.500000
O O1 0.082042 0.305608 0.500000
O O2 0.156935 0.294061 0.777177
O O3 0.098737 0.430471 0.707056
O O4 0.018207 0.310284 0.791880
O O5 0.085605 0.596907 0.719652
O O6 0.096213 0.765004 0.716216
O O7 0.085416 0.681215 0.000000
O O8 0.730462 0.222063 0.500000
O O9 0.789051 0.163932 0.225091
O O10 0.754446 0.317347 0.235560
O O11 0.299696 0.030844 0.780621
O O12 0.399308 0.006118 0.000000
O O13 0.893000 0.067353 0.721347
O O14 0.886327 0.150182 0.000000
O O15 0.834000 0.932484 0.222649
O O16 0.961962 0.945168 0.342680
O O17 0.926064 0.972501 0.000000
O O18 0.259354 0.583651 0.500000
#
# Coordination Sequence:
#
# PCOD9428683 Si02
#       8
#     8   8   8   8   8   8   8   2
#     4  11  24  40  59  92 129 165 212 267 327 396
#     4  10  22  41  62  91 130 171 215 266 329 396
#     4  10  23  40  63  94 132 171 217 273 332 398
#     4  11  22  39  64  92 127 170 215 266 329 399
#     4  10  22  42  67  96 128 171 225 271 330 403
#     4  11  25  45  71 102 134 179 231 281 343 410
#     4  11  22  41  66  98 132 173 224 278 336 395
#     4  12  26  48  68  94 136 176 222 292 344 402
#
# _framework density 23.602056000000001
#
# number of rings (size 3 to 8) (size 9 to 14) (size 15 to 20)
#    0.000    1.379    2.069    2.690    0.966    8.276 
#    2.483    1.379    0.000    0.000    0.000    0.000 
#    0.000    0.000    0.000    0.000    0.000    0.000 
#
# Total GULP energy -323978.811076 kJ/mol
# GULP energy per Si atom -5585.841570 kJ/mol
# Density = 2.354834 g / cm^3
# Si number density = 23.602056 Si / 1000 Ang^3
#
#
#
# Elastic Constant Matrix: (Units=GPa)
#
#
# Indices 1 2 3 4 5 6 
#
# 1 93.5141 0.5744 -4.1502 0.0000 0.0000 0.0000
# 2 0.5744 53.5058 -4.1820 0.0000 0.0000 0.0000
# 3 -4.1502 -4.1820 92.2433 0.0000 0.0000 0.0000
# 4 0.0000 0.0000 0.0000 2.0968 0.0000 0.0000
# 5 0.0000 0.0000 0.0000 0.0000 32.8019 0.0000
# 6 0.0000 0.0000 0.0000 0.0000 0.0000 7.7496
#
#
#
# Elastic Compliance Matrix: (Units=1/GPa)
#
#
# Indices 1 2 3 4 5 6 
#
# 1 0.010715 -0.000078 0.000479 0.000000 0.000000 0.000000
# 2 -0.000078 0.018757 0.000847 0.000000 0.000000 0.000000
# 3 0.000479 0.000847 0.010901 0.000000 0.000000 0.000000
# 4 0.000000 0.000000 0.000000 0.476915 0.000000 0.000000
# 5 0.000000 0.000000 0.000000 0.000000 0.030486 0.000000
# 6 0.000000 0.000000 0.000000 0.000000 0.000000 0.129040
#
#
# Mechanical properties :
#
#
# Convention : Reuss Voigt Hill
#
# Bulk Modulus (GPa) = 23.32725 24.86085 24.09405
# Shear Modulus (GPa) = 7.26103 24.99773 16.12938
#
# Velocity S-wave (km/s) = 1.75588 3.25796 2.61701
# Velocity P-wave (km/s) = 3.74377 4.97078 4.40026
#
# Compressibility (1/GPa) = 0.04286832
#
# Stress axis : x y z
#
# Youngs Moduli (GPa) = 93.32458 53.31461 91.73624
#
# Poissons Ratio (x) = 0.00414 -0.04390
# Poissons Ratio (y) = 0.00724 -0.07769
# Poissons Ratio (z) = -0.04466 -0.04515
#
# Static dielectric constant tensor:
#      x y z
#    x 1.903750 0.000000 0.000000 
#    y 0.000000 1.919430 0.000000 
#    z 0.000000 0.000000 1.889680 
# 
# From -- ./inp_files/7689.got.cif
#   From: 2010.05.17/outbox.cif.g08.bks.cpg/sg55_4_cif.got.tgz:7689.got - 2010.06.03 13:27:54.
