data_PCOD9428359
_publ_section_title
;
Structure prediction by ZEFSAII (Michael W. Deem and Ramdas Pophale) SiO2 
 PCOD9428359
Probable space group: P B A M
;
_chemical_formula_sum "Si O2"
_cell_formula_units_Z 48
_cell_length_a 13.885695
_cell_length_b 9.638642
_cell_length_c 18.541346
_cell_angle_alpha 90.000000
_cell_angle_beta 90.000000
_cell_angle_gamma 90.000000
_cell_volume 2481.559713
_symmetry_space_group_name_H-M "P B A M"
_symmetry_group_IT_number 55
_symmetry_cell_setting 'orthorhombic'
loop_
_space_group_symop_operation_xyz
x,y,z
-x,-y,z
1/2+x,1/2-y,-z
1/2-x,1/2+y,-z
-x,-y,-z
x,y,-z
1/2-x,1/2+y,z
1/2+x,1/2-y,z
loop_
_atom_site_type_symbol
_atom_site_label
_atom_site_fract_x
_atom_site_fract_y
_atom_site_fract_z
Si Si1 0.086985 0.393552 0.583993
Si Si2 0.454309 0.150851 0.084905
Si Si3 0.930478 0.873412 0.334007
Si Si4 0.712907 0.816238 0.197260
Si Si5 0.259686 0.954661 0.704567
Si Si6 0.434341 0.638401 0.173621
O O1 0.111425 0.409310 0.500000
O O2 0.056934 0.237669 0.603874
O O3 0.178235 0.411578 0.636164
O O4 0.000000 0.500000 0.600063
O O5 0.360386 0.191812 0.131350
O O6 0.532989 0.260586 0.111120
O O7 0.500000 0.000000 0.100628
O O8 0.434334 0.158261 0.000000
O O9 0.827314 0.947358 0.322745
O O10 0.953878 0.806578 0.255335
O O11 0.000000 0.000000 0.346520
O O12 0.725394 0.675897 0.245683
O O13 0.676497 0.941964 0.247218
O O14 0.818469 0.869366 0.171236
O O15 0.500000 0.500000 0.168772
#
# Coordination Sequence:
#
# PCOD9428359 Si02
#       6
#     8   8   8   8   8   8
#     4  11  26  43  63  97 133 172 214 265 333 387
#     4  11  25  40  61  96 132 170 212 272 343 393
#     4  10  22  40  66  93 124 167 221 266 313 390
#     4  11  22  40  67  96 125 170 224 276 324 394
#     4  11  22  41  65  97 121 169 219 261 327 384
#     4  10  21  40  63  93 122 169 224 264 323 393
#
# _framework density 19.342673999999999
#
# number of rings (size 3 to 8) (size 9 to 14) (size 15 to 20)
#    0.000    1.333    3.333    4.000    4.667    2.000 
#    0.000    4.167    0.000    0.000    0.000    0.000 
#    0.000    0.000    0.000    0.000    0.000    0.000 
#
# Total GULP energy -267671.016829 kJ/mol
# GULP energy per Si atom -5576.479517 kJ/mol
# Density = 1.929865 g / cm^3
# Si number density = 19.342674 Si / 1000 Ang^3
#
#
#
# Elastic Constant Matrix: (Units=GPa)
#
#
# Indices 1 2 3 4 5 6 
#
# 1 71.6071 19.2639 47.1377 0.0000 0.0000 0.0000
# 2 19.2639 85.5198 54.1897 0.0000 0.0000 0.0000
# 3 47.1377 54.1897 106.7991 0.0000 0.0000 0.0000
# 4 0.0000 0.0000 0.0000 -24.8511 0.0000 0.0000
# 5 0.0000 0.0000 0.0000 0.0000 34.1772 0.0000
# 6 0.0000 0.0000 0.0000 0.0000 0.0000 11.1316
#
#
#
# Elastic Compliance Matrix: (Units=1/GPa)
#
#
# Indices 1 2 3 4 5 6 
#
# 1 0.019830 0.001590 -0.009559 0.000000 0.000000 0.000000
# 2 0.001590 0.017362 -0.009511 0.000000 0.000000 0.000000
# 3 -0.009559 -0.009511 0.018409 0.000000 0.000000 0.000000
# 4 0.000000 0.000000 0.000000 -0.040240 0.000000 0.000000
# 5 0.000000 0.000000 0.000000 0.000000 0.029259 0.000000
# 6 0.000000 0.000000 0.000000 0.000000 0.000000 0.089834
#
#
# Mechanical properties :
#
#
# Convention : Reuss Voigt Hill
#
# Bulk Modulus (GPa) = 48.44975 56.12321 52.28648
# Shear Modulus (GPa) = 28.36167 13.64719 21.00443
#
# Velocity S-wave (km/s) = 3.83335 2.65910 3.29889
# Velocity P-wave (km/s) = 6.68545 6.20532 6.44985
#
# Compressibility (1/GPa) = 0.02063994
#
# Stress axis : x y z
#
# Youngs Moduli (GPa) = 50.42885 57.59776 54.32262
#
# Poissons Ratio (x) = -0.09160 0.51928
# Poissons Ratio (y) = -0.08020 0.51668
# Poissons Ratio (z) = 0.48206 0.54783
#
# Static dielectric constant tensor:
#      x y z
#    x 1.750390 0.000000 0.000000 
#    y 0.000000 1.706910 0.000000 
#    z 0.000000 0.000000 1.675580 
# 
# From -- ./inp_files/21508.got.cif
#   From: 2010.05.17/outbox.cif.g08.bks.cpg/sg55_11_cif.got.tgz:21508.got - 2010.06.03 13:27:54.
