data_PCOD9428127
_publ_section_title
;
Structure prediction by ZEFSAII (Michael W. Deem and Ramdas Pophale) SiO2 
 PCOD9428127
Probable space group: P B A M
;
_chemical_formula_sum "Si O2"
_cell_formula_units_Z 40
_cell_length_a 13.585799
_cell_length_b 18.444875
_cell_length_c 8.871717
_cell_angle_alpha 90.000000
_cell_angle_beta 90.000000
_cell_angle_gamma 90.000000
_cell_volume 2223.149052
_symmetry_space_group_name_H-M "P B A M"
_symmetry_group_IT_number 55
_symmetry_cell_setting 'orthorhombic'
loop_
_space_group_symop_operation_xyz
x,y,z
-x,-y,z
1/2+x,1/2-y,-z
1/2-x,1/2+y,-z
-x,-y,-z
x,y,-z
1/2-x,1/2+y,z
1/2+x,1/2-y,z
loop_
_atom_site_type_symbol
_atom_site_label
_atom_site_fract_x
_atom_site_fract_y
_atom_site_fract_z
Si Si1 0.894416 0.965002 0.819632
Si Si2 0.406402 0.832155 0.820867
Si Si3 0.889811 0.372440 0.678570
Si Si4 0.828633 0.816255 0.320068
Si Si5 0.198528 0.471427 0.680442
O O1 0.884906 0.884191 0.753508
O O2 0.806082 0.010746 0.745619
O O3 0.881211 0.963057 0.000000
O O4 0.000000 0.000000 0.786076
O O5 0.519744 0.842608 0.772787
O O6 0.364352 0.758739 0.749139
O O7 0.348012 0.900873 0.754422
O O8 0.396863 0.829968 0.000000
O O9 0.912680 0.366667 0.500000
O O10 0.787519 0.330646 0.707304
O O11 0.867474 0.457007 0.711558
O O12 0.843483 0.817126 0.500000
O O13 0.203695 0.463339 0.500000
#
# Coordination Sequence:
#
# PCOD9428127 Si02
#       5
#     8   8   8   8   8
#     4  10  21  38  60  86 117 150 186 232 284 336
#     4  12  24  36  57  87 117 149 185 232 287 336
#     4   9  20  39  60  81 108 145 187 231 280 334
#     4  10  22  40  60  82 112 150 190 233 279 332
#     4  10  21  38  60  84 112 149 193 234 274 333
#
# _framework density 17.992495999999999
#
# number of rings (size 3 to 8) (size 9 to 14) (size 15 to 20)
#    0.000    1.800    0.000    5.400    0.000   10.400 
#    0.000    0.000    0.000    0.000    0.000    0.000 
#    0.000    0.000    0.000    0.000    0.000    0.000 
#
# Total GULP energy -223551.700263 kJ/mol
# GULP energy per Si atom -5588.792507 kJ/mol
# Density = 1.795154 g / cm^3
# Si number density = 17.992496 Si / 1000 Ang^3
#
#
#
# Elastic Constant Matrix: (Units=GPa)
#
#
# Indices 1 2 3 4 5 6 
#
# 1 97.1078 97.6412 73.8164 0.0000 0.0000 0.0000
# 2 97.6412 153.5366 87.5515 0.0000 0.0000 0.0000
# 3 73.8164 87.5515 101.6757 0.0000 0.0000 0.0000
# 4 0.0000 0.0000 0.0000 32.6516 0.0000 0.0000
# 5 0.0000 0.0000 0.0000 0.0000 66.3518 0.0000
# 6 0.0000 0.0000 0.0000 0.0000 0.0000 19.3214
#
#
#
# Elastic Compliance Matrix: (Units=1/GPa)
#
#
# Indices 1 2 3 4 5 6 
#
# 1 0.034897 -0.015218 -0.012231 0.000000 0.000000 0.000000
# 2 -0.015218 0.019433 -0.005685 0.000000 0.000000 0.000000
# 3 -0.012231 -0.005685 0.023610 0.000000 0.000000 0.000000
# 4 0.000000 0.000000 0.000000 0.030626 0.000000 0.000000
# 5 0.000000 0.000000 0.000000 0.000000 0.015071 0.000000
# 6 0.000000 0.000000 0.000000 0.000000 0.000000 0.051756
#
#
# Mechanical properties :
#
#
# Convention : Reuss Voigt Hill
#
# Bulk Modulus (GPa) = 85.67762 96.70425 91.19093
# Shear Modulus (GPa) = 20.36226 29.88568 25.12397
#
# Velocity S-wave (km/s) = 3.36774 4.07997 3.74084
# Velocity P-wave (km/s) = 7.92743 8.72115 8.33375
#
# Compressibility (1/GPa) = 0.01167166
#
# Stress axis : x y z
#
# Youngs Moduli (GPa) = 28.65583 51.45945 42.35465
#
# Poissons Ratio (x) = 0.78311 0.51804
# Poissons Ratio (y) = 0.43609 0.24079
# Poissons Ratio (z) = 0.35049 0.29255
#
# Static dielectric constant tensor:
#      x y z
#    x 1.596630 0.000000 0.000000 
#    y 0.000000 1.585440 0.000000 
#    z 0.000000 0.000000 1.595450 
# 
# From -- ./inp_files/3600.got.cif
#   From: 2010.05.17/outbox.cif.g08.bks.cpg/sg55_2_cif.got.tgz:3600.got - 2010.06.03 13:27:54.
