data_PCOD9428100
_publ_section_title
;
Structure prediction by ZEFSAII (Michael W. Deem and Ramdas Pophale) SiO2 
 PCOD9428100
Probable space group: P B A M
;
_chemical_formula_sum "Si O2"
_cell_formula_units_Z 40
_cell_length_a 18.325929
_cell_length_b 5.303077
_cell_length_c 18.455530
_cell_angle_alpha 90.000000
_cell_angle_beta 90.000000
_cell_angle_gamma 90.000000
_cell_volume 1793.578769
_symmetry_space_group_name_H-M "P B A M"
_symmetry_group_IT_number 55
_symmetry_cell_setting 'orthorhombic'
loop_
_space_group_symop_operation_xyz
x,y,z
-x,-y,z
1/2+x,1/2-y,-z
1/2-x,1/2+y,-z
-x,-y,-z
x,y,-z
1/2-x,1/2+y,z
1/2+x,1/2-y,z
loop_
_atom_site_type_symbol
_atom_site_label
_atom_site_fract_x
_atom_site_fract_y
_atom_site_fract_z
Si Si1 0.218898 0.870373 0.915190
Si Si2 0.588740 0.507474 0.292781
Si Si3 0.296955 0.407909 0.413974
Si Si4 0.068740 0.156568 0.082851
Si Si5 0.414002 0.993676 0.213517
O O1 0.264463 0.100409 0.881417
O O2 0.137030 0.969132 0.916617
O O3 0.242833 0.837493 0.000000
O O4 0.500000 0.500000 0.299810
O O5 0.629866 0.562642 0.367352
O O6 0.615451 0.241603 0.259854
O O7 0.611956 0.733009 0.238090
O O8 0.312469 0.413510 0.500000
O O9 0.244040 0.645140 0.397720
O O10 0.086662 0.398398 0.130761
O O11 0.053080 0.228658 0.000000
O O12 0.000000 0.000000 0.112887
O O13 0.500000 0.000000 0.231283
#
# Coordination Sequence:
#
# PCOD9428100 Si02
#       5
#     8   8   8   8   8
#     4   9  19  36  54  74 106 143 178 228 296 359
#     4  10  21  39  62  86 119 165 208 244 291 360
#     4  10  21  39  64  96 133 164 194 245 304 352
#     4  10  21  38  62  89 116 154 208 263 315 373
#     4  10  21  38  58  84 120 158 200 256 312 353
#
# _framework density 22.301780000000001
#
# number of rings (size 3 to 8) (size 9 to 14) (size 15 to 20)
#    0.000    2.200    0.000    3.000    0.000    4.000 
#    0.000   13.000    0.000    7.800    0.000    0.000 
#    0.000    0.000    0.000    0.000    0.000    0.000 
#
# Total GULP energy -223647.184391 kJ/mol
# GULP energy per Si atom -5591.179610 kJ/mol
# Density = 2.225102 g / cm^3
# Si number density = 22.301780 Si / 1000 Ang^3
#
#
#
# Elastic Constant Matrix: (Units=GPa)
#
#
# Indices 1 2 3 4 5 6 
#
# 1 75.4547 44.2698 26.3962 0.0000 0.0000 0.0000
# 2 44.2698 153.8175 33.4808 0.0000 0.0000 0.0000
# 3 26.3962 33.4808 81.0952 0.0000 0.0000 0.0000
# 4 0.0000 0.0000 0.0000 7.2161 0.0000 0.0000
# 5 0.0000 0.0000 0.0000 0.0000 19.1135 0.0000
# 6 0.0000 0.0000 0.0000 0.0000 0.0000 25.5103
#
#
#
# Elastic Compliance Matrix: (Units=1/GPa)
#
#
# Indices 1 2 3 4 5 6 
#
# 1 0.016976 -0.004047 -0.003855 0.000000 0.000000 0.000000
# 2 -0.004047 0.008108 -0.002030 0.000000 0.000000 0.000000
# 3 -0.003855 -0.002030 0.014424 0.000000 0.000000 0.000000
# 4 0.000000 0.000000 0.000000 0.138579 0.000000 0.000000
# 5 0.000000 0.000000 0.000000 0.000000 0.052319 0.000000
# 6 0.000000 0.000000 0.000000 0.000000 0.000000 0.039200
#
#
# Mechanical properties :
#
#
# Convention : Reuss Voigt Hill
#
# Bulk Modulus (GPa) = 50.90554 57.62899 54.26726
# Shear Modulus (GPa) = 16.89095 24.11602 20.50349
#
# Velocity S-wave (km/s) = 2.75504 3.29196 3.03539
# Velocity P-wave (km/s) = 5.74419 6.35184 6.05564
#
# Compressibility (1/GPa) = 0.01964423
#
# Stress axis : x y z
#
# Youngs Moduli (GPa) = 58.90762 123.33841 69.32843
#
# Poissons Ratio (x) = 0.49911 0.26725
# Poissons Ratio (y) = 0.23838 0.14075
# Poissons Ratio (z) = 0.22708 0.25040
#
# Static dielectric constant tensor:
#      x y z
#    x 1.861670 0.000000 0.000000 
#    y 0.000000 1.874660 0.000000 
#    z 0.000000 0.000000 1.820040 
# 
# From -- ./inp_files/20335.got.cif
#   From: 2010.05.17/outbox.cif.g08.bks.cpg/sg55_11_cif.got.tgz:20335.got - 2010.06.03 13:27:54.
