data_PCOD9428262
_publ_section_title
;
Structure prediction by ZEFSAII (Michael W. Deem and Ramdas Pophale) SiO2 
 PCOD9428262
Probable space group: P B A M
;
_chemical_formula_sum "Si O2"
_cell_formula_units_Z 64
_cell_length_a 14.253931
_cell_length_b 25.158190
_cell_length_c 9.037128
_cell_angle_alpha 90.000000
_cell_angle_beta 90.000000
_cell_angle_gamma 90.000000
_cell_volume 3240.742155
_symmetry_space_group_name_H-M "P B A M"
_symmetry_group_IT_number 55
_symmetry_cell_setting 'orthorhombic'
loop_
_space_group_symop_operation_xyz
x,y,z
-x,-y,z
1/2+x,1/2-y,-z
1/2-x,1/2+y,-z
-x,-y,-z
x,y,-z
1/2-x,1/2+y,z
1/2+x,1/2-y,z
loop_
_atom_site_type_symbol
_atom_site_label
_atom_site_fract_x
_atom_site_fract_y
_atom_site_fract_z
Si Si1 0.125758 0.117954 0.823666
Si Si2 0.777628 0.452954 0.676337
Si Si3 0.455605 0.101466 0.823206
Si Si4 0.262151 0.836867 0.672066
Si Si5 0.843299 0.559975 0.824767
Si Si6 0.727695 0.271389 0.171327
Si Si7 0.536773 0.670300 0.328371
Si Si8 0.453369 0.220811 0.171630
O O1 0.183109 0.071613 0.744340
O O2 0.178760 0.173544 0.787410
O O3 0.021161 0.127427 0.764826
O O4 0.128224 0.110888 0.000000
O O5 0.774666 0.451765 0.500000
O O6 0.864699 0.417885 0.736722
O O7 0.797263 0.511919 0.736132
O O8 0.544800 0.063901 0.798465
O O9 0.483546 0.161858 0.782093
O O10 0.434334 0.102123 0.000000
O O11 0.286828 0.844377 0.500000
O O12 0.301331 0.884316 0.770786
O O13 0.295790 0.779525 0.730170
O O14 0.148676 0.836829 0.684866
O O15 0.829104 0.552637 0.000000
O O16 0.839863 0.279881 0.179166
O O17 0.704610 0.259531 0.000000
O O18 0.510696 0.666404 0.500000
O O19 0.514406 0.729189 0.266604
O O20 0.479965 0.229522 0.000000
#
# Coordination Sequence:
#
# PCOD9428262 Si02
#       8
#     8   8   8   8   8   8   8   8
#     4  11  22  39  63  89 119 160 207 251 297 358
#     4  12  25  41  62  89 124 159 199 252 309 362
#     4  10  21  39  61  88 121 161 204 248 295 354
#     4  10  22  40  60  86 124 159 197 250 307 359
#     4  11  24  41  64  88 117 160 210 253 297 357
#     4   9  18  34  58  84 115 155 197 241 292 353
#     4  10  22  38  57  88 126 161 197 248 310 363
#     4   9  17  34  57  84 119 158 198 239 288 352
#
# _framework density 19.748563999999998
#
# number of rings (size 3 to 8) (size 9 to 14) (size 15 to 20)
#    0.000    1.750    1.250    3.000    1.750    5.500 
#    0.000    0.625    0.000    3.750    0.000    0.000 
#    0.000    0.000    0.000    0.000    0.000    0.000 
#
# Total GULP energy -357830.359590 kJ/mol
# GULP energy per Si atom -5591.099369 kJ/mol
# Density = 1.970362 g / cm^3
# Si number density = 19.748564 Si / 1000 Ang^3
#
#
#
# Elastic Constant Matrix: (Units=GPa)
#
#
# Indices 1 2 3 4 5 6 
#
# 1 26.1815 1.2343 8.8190 0.0000 0.0000 0.0000
# 2 1.2343 57.9354 19.6999 0.0000 0.0000 0.0000
# 3 8.8190 19.6999 55.6482 0.0000 0.0000 0.0000
# 4 0.0000 0.0000 0.0000 60.4577 0.0000 0.0000
# 5 0.0000 0.0000 0.0000 0.0000 24.5036 0.0000
# 6 0.0000 0.0000 0.0000 0.0000 0.0000 26.5384
#
#
#
# Elastic Compliance Matrix: (Units=1/GPa)
#
#
# Indices 1 2 3 4 5 6 
#
# 1 0.040463 0.001499 -0.006943 0.000000 0.000000 0.000000
# 2 0.001499 0.019678 -0.007204 0.000000 0.000000 0.000000
# 3 -0.006943 -0.007204 0.021621 0.000000 0.000000 0.000000
# 4 0.000000 0.000000 0.000000 0.016540 0.000000 0.000000
# 5 0.000000 0.000000 0.000000 0.000000 0.040810 0.000000
# 6 0.000000 0.000000 0.000000 0.000000 0.000000 0.037681
#
#
# Mechanical properties :
#
#
# Convention : Reuss Voigt Hill
#
# Bulk Modulus (GPa) = 17.70988 22.14128 19.92558
# Shear Modulus (GPa) = 22.63347 29.63405 26.13376
#
# Velocity S-wave (km/s) = 3.38906 3.87792 3.64170
# Velocity P-wave (km/s) = 4.92965 5.59347 5.27202
#
# Compressibility (1/GPa) = 0.05646566
#
# Stress axis : x y z
#
# Youngs Moduli (GPa) = 24.71397 50.81765 46.25230
#
# Poissons Ratio (x) = -0.07617 0.32113
# Poissons Ratio (y) = -0.03704 0.33319
# Poissons Ratio (z) = 0.17159 0.36608
#
# Static dielectric constant tensor:
#      x y z
#    x 1.713940 0.000000 0.000000 
#    y 0.000000 1.675960 0.000000 
#    z 0.000000 0.000000 1.657850 
# 
# From -- ./inp_files/6491.got.cif
#   From: 2010.05.17/outbox.cif.g08.bks.cpg/sg55_4_cif.got.tgz:6491.got - 2010.06.03 13:27:54.
