data_PCOD9428128
_publ_section_title
;
Structure prediction by ZEFSAII (Michael W. Deem and Ramdas Pophale) SiO2 
 PCOD9428128
Probable space group: P B A M
;
_chemical_formula_sum "Si O2"
_cell_formula_units_Z 48
_cell_length_a 8.132235
_cell_length_b 14.979352
_cell_length_c 17.978245
_cell_angle_alpha 90.000000
_cell_angle_beta 90.000000
_cell_angle_gamma 90.000000
_cell_volume 2190.030892
_symmetry_space_group_name_H-M "P B A M"
_symmetry_group_IT_number 55
_symmetry_cell_setting 'orthorhombic'
loop_
_space_group_symop_operation_xyz
x,y,z
-x,-y,z
1/2+x,1/2-y,-z
1/2-x,1/2+y,-z
-x,-y,-z
x,y,-z
1/2-x,1/2+y,z
1/2+x,1/2-y,z
loop_
_atom_site_type_symbol
_atom_site_label
_atom_site_fract_x
_atom_site_fract_y
_atom_site_fract_z
Si Si1 0.650481 0.386129 0.685377
Si Si2 0.776177 0.201605 0.852778
Si Si3 0.864885 0.885499 0.150171
Si Si4 0.760032 0.446093 0.000000
Si Si5 0.591134 0.140299 0.000000
Si Si6 0.186021 0.464613 0.414343
Si Si7 0.781159 0.191093 0.313079
O O1 0.654680 0.428228 0.768760
O O2 0.700456 0.462967 0.628284
O O3 0.468795 0.343100 0.680616
O O4 0.764595 0.297786 0.676673
O O5 0.772620 0.308254 0.848647
O O6 0.714571 0.172090 0.770829
O O7 0.957776 0.161154 0.857966
O O8 0.666839 0.180092 0.924655
O O9 0.838588 0.941401 0.076447
O O10 0.848884 0.539420 0.000000
O O11 0.894116 0.365844 0.000000
O O12 0.238252 0.455744 0.500000
O O13 0.189803 0.369627 0.372903
O O14 0.000000 0.500000 0.412010
#
# Coordination Sequence:
#
# PCOD9428128 Si02
#       7
#     8   8   8   4   4   8   8
#     4  10  22  41  66  95 125 163 207 254 309 367
#     4  10  21  38  60  84 114 153 197 245 296 351
#     4  10  21  38  60  84 114 153 197 245 296 351
#     4  11  24  37  52  81 117 157 200 243 294 347
#     4  11  24  37  52  81 117 157 200 243 294 347
#     4  11  25  43  65  94 127 164 203 249 308 371
#     4  10  22  41  66  95 125 163 207 254 309 367
#
# _framework density 21.917497000000001
#
# number of rings (size 3 to 8) (size 9 to 14) (size 15 to 20)
#    0.000    1.667    0.000    3.500    2.333    7.333 
#    0.000    0.000    0.000    0.000    0.000    0.000 
#    0.000    0.000    0.000    0.000    0.000    0.000 
#
# Total GULP energy -268176.163720 kJ/mol
# GULP energy per Si atom -5587.003411 kJ/mol
# Density = 2.186761 g / cm^3
# Si number density = 21.917497 Si / 1000 Ang^3
#
#
#
# Elastic Constant Matrix: (Units=GPa)
#
#
# Indices 1 2 3 4 5 6 
#
# 1 50.1514 5.1291 35.2115 0.0000 0.0000 0.0000
# 2 5.1291 74.2164 57.4684 0.0000 0.0000 0.0000
# 3 35.2115 57.4684 190.2790 0.0000 0.0000 0.0000
# 4 0.0000 0.0000 0.0000 5.2632 0.0000 0.0000
# 5 0.0000 0.0000 0.0000 0.0000 29.3764 0.0000
# 6 0.0000 0.0000 0.0000 0.0000 0.0000 39.2952
#
#
#
# Elastic Compliance Matrix: (Units=1/GPa)
#
#
# Indices 1 2 3 4 5 6 
#
# 1 0.023201 0.002246 -0.004972 0.000000 0.000000 0.000000
# 2 0.002246 0.017805 -0.005793 0.000000 0.000000 0.000000
# 3 -0.004972 -0.005793 0.007925 0.000000 0.000000 0.000000
# 4 0.000000 0.000000 0.000000 0.190000 0.000000 0.000000
# 5 0.000000 0.000000 0.000000 0.000000 0.034041 0.000000
# 6 0.000000 0.000000 0.000000 0.000000 0.000000 0.025448
#
#
# Mechanical properties :
#
#
# Convention : Reuss Voigt Hill
#
# Bulk Modulus (GPa) = 31.35434 56.69606 44.02520
# Shear Modulus (GPa) = 15.33328 29.24280 22.28804
#
# Velocity S-wave (km/s) = 2.64785 3.65666 3.19236
# Velocity P-wave (km/s) = 4.86670 6.61456 5.80677
#
# Compressibility (1/GPa) = 0.03189351
#
# Stress axis : x y z
#
# Youngs Moduli (GPa) = 43.10233 56.16503 126.18108
#
# Poissons Ratio (x) = -0.12617 0.62735
# Poissons Ratio (y) = -0.09683 0.73098
# Poissons Ratio (z) = 0.21430 0.32537
#
# Static dielectric constant tensor:
#      x y z
#    x 1.835770 0.000000 0.000000 
#    y 0.000000 1.797160 0.000000 
#    z 0.000000 0.000000 1.822530 
# 
# From -- ./inp_files/20831.got.cif
#   From: 2010.05.17/outbox.cif.g08.bks.cpg/sg55_11_cif.got.tgz:20831.got - 2010.06.03 13:27:54.
