data_PCOD9428787
_publ_section_title
;
Structure prediction by ZEFSAII (Michael W. Deem and Ramdas Pophale) SiO2 
 PCOD9428787
Probable space group: P B A M
;
_chemical_formula_sum "Si O2"
_cell_formula_units_Z 40
_cell_length_a 13.419245
_cell_length_b 9.354864
_cell_length_c 15.272815
_cell_angle_alpha 90.000000
_cell_angle_beta 90.000000
_cell_angle_gamma 90.000000
_cell_volume 1917.276068
_symmetry_space_group_name_H-M "P B A M"
_symmetry_group_IT_number 55
_symmetry_cell_setting 'orthorhombic'
loop_
_space_group_symop_operation_xyz
x,y,z
-x,-y,z
1/2+x,1/2-y,-z
1/2-x,1/2+y,-z
-x,-y,-z
x,y,-z
1/2-x,1/2+y,z
1/2+x,1/2-y,z
loop_
_atom_site_type_symbol
_atom_site_label
_atom_site_fract_x
_atom_site_fract_y
_atom_site_fract_z
Si Si1 0.962619 0.737470 0.600718
Si Si2 0.154326 0.563692 0.597955
Si Si3 0.645055 0.098188 0.000000
Si Si4 0.438262 0.220117 0.000000
Si Si5 0.819757 0.884904 0.735037
Si Si6 0.697209 0.653453 0.150182
O O1 0.957626 0.795852 0.500000
O O2 0.903256 0.586753 0.598366
O O3 0.912858 0.825830 0.679030
O O4 0.075901 0.689511 0.619731
O O5 0.190946 0.591944 0.500000
O O6 0.244110 0.554979 0.663194
O O7 0.557963 0.216862 0.000000
O O8 0.714837 0.109551 0.916048
O O9 0.596618 0.943416 0.000000
O O10 0.389732 0.285440 0.912298
O O11 0.753609 0.765680 0.786162
O O12 0.842795 0.014894 0.799554
#
# Coordination Sequence:
#
# PCOD9428787 Si02
#       6
#     8   8   4   4   8   8
#     4   9  19  37  61  90 126 175 220 258 310 379
#     4   9  19  37  61  89 126 174 222 256 310 384
#     4  10  22  45  70  89 126 169 208 254 326 397
#     4  10  22  45  70  93 120 174 206 252 327 395
#     4  12  21  39  62  96 133 163 207 276 321 367
#     4  11  24  40  65  99 128 158 214 265 321 390
#
# _framework density 20.862933999999999
#
# number of rings (size 3 to 8) (size 9 to 14) (size 15 to 20)
#    0.000    1.800    4.000    1.800    0.000    1.600 
#    0.000    5.000    0.000    2.400    0.000    0.000 
#    0.000    0.000    0.000    0.000    0.000    0.000 
#
# Total GULP energy -223378.739518 kJ/mol
# GULP energy per Si atom -5584.468488 kJ/mol
# Density = 2.081545 g / cm^3
# Si number density = 20.862934 Si / 1000 Ang^3
#
#
#
# Elastic Constant Matrix: (Units=GPa)
#
#
# Indices 1 2 3 4 5 6 
#
# 1 63.6613 22.7391 50.7664 0.0000 0.0000 0.0000
# 2 22.7391 80.7234 52.3929 0.0000 0.0000 0.0000
# 3 50.7664 52.3929 112.3516 0.0000 0.0000 0.0000
# 4 0.0000 0.0000 0.0000 99.1747 0.0000 0.0000
# 5 0.0000 0.0000 0.0000 0.0000 1.9103 0.0000
# 6 0.0000 0.0000 0.0000 0.0000 0.0000 26.8020
#
#
#
# Elastic Compliance Matrix: (Units=1/GPa)
#
#
# Indices 1 2 3 4 5 6 
#
# 1 0.024566 0.000408 -0.011290 0.000000 0.000000 0.000000
# 2 0.000408 0.017772 -0.008472 0.000000 0.000000 0.000000
# 3 -0.011290 -0.008472 0.017953 0.000000 0.000000 0.000000
# 4 0.000000 0.000000 0.000000 0.010083 0.000000 0.000000
# 5 0.000000 0.000000 0.000000 0.000000 0.523484 0.000000
# 6 0.000000 0.000000 0.000000 0.000000 0.000000 0.037311
#
#
# Mechanical properties :
#
#
# Convention : Reuss Voigt Hill
#
# Bulk Modulus (GPa) = 46.33513 56.50370 51.41941
# Shear Modulus (GPa) = 7.38476 34.29993 20.84234
#
# Velocity S-wave (km/s) = 1.88344 4.05910 3.16415
# Velocity P-wave (km/s) = 5.19493 7.00789 6.16838
#
# Compressibility (1/GPa) = 0.02158190
#
# Stress axis : x y z
#
# Youngs Moduli (GPa) = 40.70684 56.26964 55.70141
#
# Poissons Ratio (x) = -0.02295 0.62889
# Poissons Ratio (y) = -0.01661 0.47189
# Poissons Ratio (z) = 0.45960 0.47670
#
# Static dielectric constant tensor:
#      x y z
#    x 1.729380 0.000000 0.000000 
#    y 0.000000 1.761260 0.000000 
#    z 0.000000 0.000000 1.807450 
# 
# From -- ./inp_files/18767.got.cif
#   From: 2010.05.17/outbox.cif.g08.bks.cpg/sg55_10_cif.got.tgz:18767.got - 2010.06.03 13:27:54.
