data_PCOD9428628
_publ_section_title
;
Structure prediction by ZEFSAII (Michael W. Deem and Ramdas Pophale) SiO2 
 PCOD9428628
Probable space group: P B A M
;
_chemical_formula_sum "Si O2"
_cell_formula_units_Z 34
_cell_length_a 20.879490
_cell_length_b 9.676380
_cell_length_c 7.212923
_cell_angle_alpha 90.000000
_cell_angle_beta 90.000000
_cell_angle_gamma 90.000000
_cell_volume 1457.283668
_symmetry_space_group_name_H-M "P B A M"
_symmetry_group_IT_number 55
_symmetry_cell_setting 'orthorhombic'
loop_
_space_group_symop_operation_xyz
x,y,z
-x,-y,z
1/2+x,1/2-y,-z
1/2-x,1/2+y,-z
-x,-y,-z
x,y,-z
1/2-x,1/2+y,z
1/2+x,1/2-y,z
loop_
_atom_site_type_symbol
_atom_site_label
_atom_site_fract_x
_atom_site_fract_y
_atom_site_fract_z
Si Si1 0.810298 0.982724 0.225113
Si Si2 0.188892 0.334523 0.226268
Si Si3 0.072420 0.522162 0.224221
Si Si4 0.431181 0.335289 0.779040
Si Si5 0.000000 0.000000 0.500000
O O1 0.749899 0.074451 0.283125
O O2 0.876011 0.057344 0.280324
O O3 0.806873 0.824295 0.285629
O O4 0.810217 0.982965 0.000000
O O5 0.124443 0.411717 0.287164
O O6 0.189044 0.333035 0.000000
O O7 0.091085 0.680133 0.264941
O O8 0.000000 0.500000 0.288506
O O9 0.071210 0.510950 0.000000
O O10 0.492021 0.380794 0.662653
O O11 0.442058 0.343237 0.000000
#
# Coordination Sequence:
#
# PCOD9428628 Si02
#       5
#     8   8   8   8   2
#     4   9  17  30  55  87 120 158 204 251 301 361
#     4   9  16  28  52  89 124 158 203 251 300 361
#     4   9  18  32  55  88 125 162 204 250 301 363
#     4  10  22  40  62  88 123 163 204 253 307 361
#     4  12  26  40  62  90 124 160 206 256 300 374
#
# _framework density 23.331078999999999
#
# number of rings (size 3 to 8) (size 9 to 14) (size 15 to 20)
#    0.000    2.588    0.000    1.765    3.294    5.647 
#    0.000    0.588    0.000    5.647    0.000    0.000 
#    0.000    0.000    0.000    0.000    0.000    0.000 
#
# Total GULP energy -189637.540338 kJ/mol
# GULP energy per Si atom -5577.574716 kJ/mol
# Density = 2.327798 g / cm^3
# Si number density = 23.331079 Si / 1000 Ang^3
#
#
#
# Elastic Constant Matrix: (Units=GPa)
#
#
# Indices 1 2 3 4 5 6 
#
# 1 88.3600 67.0923 8.4699 0.0000 0.0000 0.0000
# 2 67.0923 211.5992 24.8060 0.0000 0.0000 0.0000
# 3 8.4699 24.8060 125.8377 0.0000 0.0000 0.0000
# 4 0.0000 0.0000 0.0000 4.4958 0.0000 0.0000
# 5 0.0000 0.0000 0.0000 0.0000 -108.2635 0.0000
# 6 0.0000 0.0000 0.0000 0.0000 0.0000 48.5645
#
#
#
# Elastic Compliance Matrix: (Units=1/GPa)
#
#
# Indices 1 2 3 4 5 6 
#
# 1 0.014907 -0.004718 -0.000073 0.000000 0.000000 0.000000
# 2 -0.004718 0.006331 -0.000930 0.000000 0.000000 0.000000
# 3 -0.000073 -0.000930 0.008135 0.000000 0.000000 0.000000
# 4 0.000000 0.000000 0.000000 0.222432 0.000000 0.000000
# 5 0.000000 0.000000 0.000000 0.000000 -0.009237 0.000000
# 6 0.000000 0.000000 0.000000 0.000000 0.000000 0.020591
#
#
# Mechanical properties :
#
#
# Convention : Reuss Voigt Hill
#
# Bulk Modulus (GPa) = 55.77436 69.61480 62.69458
# Shear Modulus (GPa) = 17.82030 10.65461 14.23746
#
# Velocity S-wave (km/s) = 2.76669 2.13930 2.47297
# Velocity P-wave (km/s) = 5.84497 6.00039 5.92319
#
# Compressibility (1/GPa) = 0.01792939
#
# Stress axis : x y z
#
# Youngs Moduli (GPa) = 67.08386 157.95506 122.92423
#
# Poissons Ratio (x) = 0.74522 0.00901
# Poissons Ratio (y) = 0.31650 0.11437
# Poissons Ratio (z) = 0.00492 0.14697
#
# Static dielectric constant tensor:
#      x y z
#    x 1.897970 0.000000 0.000000 
#    y 0.000000 1.830950 0.000000 
#    z 0.000000 0.000000 1.785590 
# 
# From -- ./inp_files/2112.got.cif
#   From: 2010.05.17/outbox.cif.g08.bks.cpg/sg55_2_cif.got.tgz:2112.got - 2010.06.03 13:27:54.
