data_PCOD9428941
_publ_section_title
;
Structure prediction by ZEFSAII (Michael W. Deem and Ramdas Pophale) SiO2 
 PCOD9428941
Probable space group: P B A M
;
_chemical_formula_sum "Si O2"
_cell_formula_units_Z 40
_cell_length_a 13.878990
_cell_length_b 7.563615
_cell_length_c 14.994349
_cell_angle_alpha 90.000000
_cell_angle_beta 90.000000
_cell_angle_gamma 90.000000
_cell_volume 1574.036839
_symmetry_space_group_name_H-M "P B A M"
_symmetry_group_IT_number 55
_symmetry_cell_setting 'orthorhombic'
loop_
_space_group_symop_operation_xyz
x,y,z
-x,-y,z
1/2+x,1/2-y,-z
1/2-x,1/2+y,-z
-x,-y,-z
x,y,-z
1/2-x,1/2+y,z
1/2+x,1/2-y,z
loop_
_atom_site_type_symbol
_atom_site_label
_atom_site_fract_x
_atom_site_fract_y
_atom_site_fract_z
Si Si1 0.394786 0.452284 0.864075
Si Si2 0.316618 0.828784 0.102555
Si Si3 0.405245 0.584275 0.398619
Si Si4 0.903715 0.398880 0.242522
Si Si5 0.725363 0.760778 0.396116
O O1 0.500000 0.500000 0.904808
O O2 0.298786 0.357704 0.904171
O O3 0.348735 0.647081 0.849109
O O4 0.421725 0.301238 0.792399
O O5 0.360248 0.986228 0.161287
O O6 0.352964 0.824458 0.000000
O O7 0.500000 0.500000 0.356862
O O8 0.434008 0.634221 0.500000
O O9 0.328307 0.425798 0.397375
O O10 0.337371 0.741635 0.366283
O O11 0.832424 0.373925 0.324722
O O12 0.000000 0.500000 0.270286
O O13 0.721205 0.820925 0.500000
#
# Coordination Sequence:
#
# PCOD9428941 Si02
#       5
#     8   8   8   8   8
#     4  12  27  51  81 118 159 212 262 326 397 474
#     4  12  28  50  79 117 160 206 260 326 398 477
#     4   9  20  42  70 105 144 194 256 316 382 460
#     4  12  28  51  77 116 161 207 271 329 395 471
#     4  10  24  45  73 108 153 205 259 321 388 461
#
# _framework density 25.412364
#
# number of rings (size 3 to 8) (size 9 to 14) (size 15 to 20)
#    0.000    1.000    4.000    0.600    2.800    5.600 
#    0.000    4.000    0.000    0.000    0.000    0.000 
#    0.000    0.000    0.000    0.000    0.000    0.000 
#
# Total GULP energy -223169.758840 kJ/mol
# GULP energy per Si atom -5579.243971 kJ/mol
# Density = 2.535452 g / cm^3
# Si number density = 25.412364 Si / 1000 Ang^3
#
#
#
# Elastic Constant Matrix: (Units=GPa)
#
#
# Indices 1 2 3 4 5 6 
#
# 1 168.7703 37.5688 14.3586 0.0000 0.0000 0.0000
# 2 37.5688 170.2109 54.7968 0.0000 0.0000 0.0000
# 3 14.3586 54.7968 90.5998 0.0000 0.0000 0.0000
# 4 0.0000 0.0000 0.0000 -4.3220 0.0000 0.0000
# 5 0.0000 0.0000 0.0000 0.0000 4.5649 0.0000
# 6 0.0000 0.0000 0.0000 0.0000 0.0000 52.9687
#
#
#
# Elastic Compliance Matrix: (Units=1/GPa)
#
#
# Indices 1 2 3 4 5 6 
#
# 1 0.006234 -0.001314 -0.000193 0.000000 0.000000 0.000000
# 2 -0.001314 0.007572 -0.004372 0.000000 0.000000 0.000000
# 3 -0.000193 -0.004372 0.013712 0.000000 0.000000 0.000000
# 4 0.000000 0.000000 0.000000 -0.231372 0.000000 0.000000
# 5 0.000000 0.000000 0.000000 0.000000 0.219065 0.000000
# 6 0.000000 0.000000 0.000000 0.000000 0.000000 0.018879
#
#
# Mechanical properties :
#
#
# Convention : Reuss Voigt Hill
#
# Bulk Modulus (GPa) = 63.44757 71.44770 67.44764
# Shear Modulus (GPa) = 97.84341 32.16610 65.00476
#
# Velocity S-wave (km/s) = 6.21175 3.56162 5.06315
# Velocity P-wave (km/s) = 8.74467 6.71490 7.79612
#
# Compressibility (1/GPa) = 0.01576104
#
# Stress axis : x y z
#
# Youngs Moduli (GPa) = 160.40794 132.05759 72.92688
#
# Poissons Ratio (x) = 0.17349 0.01411
# Poissons Ratio (y) = 0.21073 0.31882
# Poissons Ratio (z) = 0.03103 0.57733
#
# Static dielectric constant tensor:
#      x y z
#    x 2.045890 0.000000 0.000000 
#    y 0.000000 2.089310 0.000000 
#    z 0.000000 0.000000 2.011010 
# 
# From -- ./inp_files/21175.got.cif
#   From: 2010.05.17/outbox.cif.g08.bks.cpg/sg55_11_cif.got.tgz:21175.got - 2010.06.03 13:27:54.
