data_PCOD9428948
_publ_section_title
;
Structure prediction by ZEFSAII (Michael W. Deem and Ramdas Pophale) SiO2 
 PCOD9428948
Probable space group: P B A M
;
_chemical_formula_sum "Si O2"
_cell_formula_units_Z 34
_cell_length_a 8.506743
_cell_length_b 10.325045
_cell_length_c 17.752320
_cell_angle_alpha 90.000000
_cell_angle_beta 90.000000
_cell_angle_gamma 90.000000
_cell_volume 1559.230722
_symmetry_space_group_name_H-M "P B A M"
_symmetry_group_IT_number 55
_symmetry_cell_setting 'orthorhombic'
loop_
_space_group_symop_operation_xyz
x,y,z
-x,-y,z
1/2+x,1/2-y,-z
1/2-x,1/2+y,-z
-x,-y,-z
x,y,-z
1/2-x,1/2+y,z
1/2+x,1/2-y,z
loop_
_atom_site_type_symbol
_atom_site_label
_atom_site_fract_x
_atom_site_fract_y
_atom_site_fract_z
Si Si1 0.759220 0.920075 0.142736
Si Si2 0.114907 0.613067 0.307370
Si Si3 0.046023 0.130845 0.349958
Si Si4 0.500000 0.500000 0.500000
Si Si5 0.911719 0.173037 0.912599
O O1 0.685929 0.921336 0.225944
O O2 0.650391 0.818164 0.098265
O O3 0.933284 0.857634 0.136064
O O4 0.781673 0.065284 0.111054
O O5 0.267106 0.632732 0.359035
O O6 0.000000 0.500000 0.333411
O O7 0.017575 0.744831 0.308222
O O8 0.972723 0.107807 0.432220
O O9 0.000000 0.000000 0.305849
O O10 0.952619 0.152101 0.000000
#
# Coordination Sequence:
#
# PCOD9428948 Si02
#       5
#     8   8   8   2   8
#     4  11  26  41  68  99 134 178 231 288 345 408
#     4  12  26  44  71 107 138 186 228 288 343 408
#     4  10  24  47  72 101 145 176 233 275 335 416
#     4   8  24  48  76 104 140 188 216 278 344 400
#     4  11  24  45  67  96 136 182 234 290 350 411
#
# _framework density 21.805623000000001
#
# number of rings (size 3 to 8) (size 9 to 14) (size 15 to 20)
#    0.706    0.471    0.000    5.647   13.176    0.941 
#    0.000    3.529    0.000    0.000    0.000    0.000 
#    0.000    0.000    0.000    0.000    0.000    0.000 
#
# Total GULP energy -189420.012777 kJ/mol
# GULP energy per Si atom -5571.176846 kJ/mol
# Density = 2.175599 g / cm^3
# Si number density = 21.805623 Si / 1000 Ang^3
#
#
#
# Elastic Constant Matrix: (Units=GPa)
#
#
# Indices 1 2 3 4 5 6 
#
# 1 87.5618 28.1472 -8.6910 0.0000 0.0000 0.0000
# 2 28.1472 69.0139 -25.0529 0.0000 0.0000 0.0000
# 3 -8.6910 -25.0529 51.0346 0.0000 0.0000 0.0000
# 4 0.0000 0.0000 0.0000 -85.9191 0.0000 0.0000
# 5 0.0000 0.0000 0.0000 0.0000 -0.5658 0.0000
# 6 0.0000 0.0000 0.0000 0.0000 0.0000 43.1120
#
#
#
# Elastic Compliance Matrix: (Units=1/GPa)
#
#
# Indices 1 2 3 4 5 6 
#
# 1 0.013153 -0.005538 -0.000479 0.000000 0.000000 0.000000
# 2 -0.005538 0.019964 0.008857 0.000000 0.000000 0.000000
# 3 -0.000479 0.008857 0.023861 0.000000 0.000000 0.000000
# 4 0.000000 0.000000 0.000000 -0.011639 0.000000 0.000000
# 5 0.000000 0.000000 0.000000 0.000000 -1.767349 0.000000
# 6 0.000000 0.000000 0.000000 0.000000 0.000000 0.023195
#
#
# Mechanical properties :
#
#
# Convention : Reuss Voigt Hill
#
# Bulk Modulus (GPa) = 15.95967 21.82411 18.89189
# Shear Modulus (GPa) = -2.96981 5.53921 1.28470
#
# Velocity S-wave (km/s) = -1.16829 1.59555 0.76840
# Velocity P-wave (km/s) = 2.34842 3.66396 3.07731
#
# Compressibility (1/GPa) = 0.06265794
#
# Stress axis : x y z
#
# Youngs Moduli (GPa) = 76.02637 50.09042 41.90949
#
# Poissons Ratio (x) = 0.27742 0.02007
# Poissons Ratio (y) = 0.42106 -0.37120
# Poissons Ratio (z) = 0.03640 -0.44366
#
# Static dielectric constant tensor:
#      x y z
#    x 1.836170 0.000000 0.000000 
#    y 0.000000 1.814100 0.000000 
#    z 0.000000 0.000000 1.720550 
# 
# From -- ./inp_files/22510.got.cif
#   From: 2010.05.17/outbox.cif.g08.bks.cpg/sg55_12_cif.got.tgz:22510.got - 2010.06.03 13:27:54.
