data_PCOD9428742
_publ_section_title
;
Structure prediction by ZEFSAII (Michael W. Deem and Ramdas Pophale) SiO2 
 PCOD9428742
Probable space group: P B A M
;
_chemical_formula_sum "Si O2"
_cell_formula_units_Z 34
_cell_length_a 21.721733
_cell_length_b 8.992486
_cell_length_c 8.686862
_cell_angle_alpha 90.000000
_cell_angle_beta 90.000000
_cell_angle_gamma 90.000000
_cell_volume 1696.825428
_symmetry_space_group_name_H-M "P B A M"
_symmetry_group_IT_number 55
_symmetry_cell_setting 'orthorhombic'
loop_
_space_group_symop_operation_xyz
x,y,z
-x,-y,z
1/2+x,1/2-y,-z
1/2-x,1/2+y,-z
-x,-y,-z
x,y,-z
1/2-x,1/2+y,z
1/2+x,1/2-y,z
loop_
_atom_site_type_symbol
_atom_site_label
_atom_site_fract_x
_atom_site_fract_y
_atom_site_fract_z
Si Si1 0.890701 0.838197 0.329586
Si Si2 0.178332 0.655087 0.680800
Si Si3 0.500000 0.500000 0.500000
Si Si4 0.572338 0.025297 0.181888
Si Si5 0.715472 0.532114 0.181151
O O1 0.862699 0.806747 0.500000
O O2 0.908690 0.684314 0.250353
O O3 0.951565 0.934488 0.368319
O O4 0.841784 0.929111 0.230500
O O5 0.179185 0.686633 0.500000
O O6 0.111233 0.601189 0.732607
O O7 0.199199 0.800534 0.772415
O O8 0.225410 0.524522 0.725551
O O9 0.500000 0.000000 0.204763
O O10 0.585986 0.020276 0.000000
O O11 0.727576 0.520306 0.000000
#
# Coordination Sequence:
#
# PCOD9428742 Si02
#       5
#     8   8   2   8   8
#     4  10  22  42  66  95 129 172 216 264 317 383
#     4  12  26  44  68  97 129 173 220 268 325 390
#     4   8  24  40  68  96 136 168 222 264 312 392
#     4  11  25  43  65  97 135 174 217 268 328 387
#     4  12  25  44  69  97 133 169 215 274 329 386
#
# _framework density 20.037417000000001
#
# number of rings (size 3 to 8) (size 9 to 14) (size 15 to 20)
#    0.706    0.235    0.000    7.059    3.294    1.882 
#    0.000    1.176    0.000    0.000    0.000    0.000 
#    0.000    0.000    0.000    0.000    0.000    0.000 
#
# Total GULP energy -189662.657001 kJ/mol
# GULP energy per Si atom -5578.313441 kJ/mol
# Density = 1.999181 g / cm^3
# Si number density = 20.037417 Si / 1000 Ang^3
#
#
#
# Elastic Constant Matrix: (Units=GPa)
#
#
# Indices 1 2 3 4 5 6 
#
# 1 35.9183 7.8864 8.1583 0.0000 0.0000 0.0000
# 2 7.8864 47.1134 -3.6610 0.0000 0.0000 0.0000
# 3 8.1583 -3.6610 58.7909 0.0000 0.0000 0.0000
# 4 0.0000 0.0000 0.0000 33.6836 0.0000 0.0000
# 5 0.0000 0.0000 0.0000 0.0000 35.8076 0.0000
# 6 0.0000 0.0000 0.0000 0.0000 0.0000 27.0806
#
#
#
# Elastic Compliance Matrix: (Units=1/GPa)
#
#
# Indices 1 2 3 4 5 6 
#
# 1 0.030045 -0.005379 -0.004504 0.000000 0.000000 0.000000
# 2 -0.005379 0.022292 0.002135 0.000000 0.000000 0.000000
# 3 -0.004504 0.002135 0.017767 0.000000 0.000000 0.000000
# 4 0.000000 0.000000 0.000000 0.029688 0.000000 0.000000
# 5 0.000000 0.000000 0.000000 0.000000 0.027927 0.000000
# 6 0.000000 0.000000 0.000000 0.000000 0.000000 0.036927
#
#
# Mechanical properties :
#
#
# Convention : Reuss Voigt Hill
#
# Bulk Modulus (GPa) = 18.31290 18.50999 18.41145
# Shear Modulus (GPa) = 25.20845 27.94363 26.57604
#
# Velocity S-wave (km/s) = 3.55077 3.73845 3.64582
# Velocity P-wave (km/s) = 5.09606 5.28133 5.18952
#
# Compressibility (1/GPa) = 0.05460632
#
# Stress axis : x y z
#
# Youngs Moduli (GPa) = 33.28322 44.85972 56.28280
#
# Poissons Ratio (x) = 0.24131 0.25351
# Poissons Ratio (y) = 0.17904 -0.12014
# Poissons Ratio (z) = 0.14992 -0.09576
#
# Static dielectric constant tensor:
#      x y z
#    x 1.698380 0.000000 0.000000 
#    y 0.000000 1.695580 0.000000 
#    z 0.000000 0.000000 1.679160 
# 
# From -- ./inp_files/8366.got.cif
#   From: 2010.05.17/outbox.cif.g08.bks.cpg/sg55_5_cif.got.tgz:8366.got - 2010.06.03 13:27:54.
