data_PCOD9428087
_publ_section_title
;
Structure prediction by ZEFSAII (Michael W. Deem and Ramdas Pophale) SiO2 
 PCOD9428087
Probable space group: P B A M
;
_chemical_formula_sum "Si O2"
_cell_formula_units_Z 64
_cell_length_a 15.881023
_cell_length_b 24.552601
_cell_length_c 7.568888
_cell_angle_alpha 90.000000
_cell_angle_beta 90.000000
_cell_angle_gamma 90.000000
_cell_volume 2951.263997
_symmetry_space_group_name_H-M "P B A M"
_symmetry_group_IT_number 55
_symmetry_cell_setting 'orthorhombic'
loop_
_space_group_symop_operation_xyz
x,y,z
-x,-y,z
1/2+x,1/2-y,-z
1/2-x,1/2+y,-z
-x,-y,-z
x,y,-z
1/2-x,1/2+y,z
1/2+x,1/2-y,z
loop_
_atom_site_type_symbol
_atom_site_label
_atom_site_fract_x
_atom_site_fract_y
_atom_site_fract_z
Si Si1 0.248619 0.073260 0.710731
Si Si2 0.590951 0.727929 0.786550
Si Si3 0.139490 0.386583 0.799853
Si Si4 0.596725 0.502229 0.715859
Si Si5 0.325001 0.383295 0.706731
Si Si6 0.406411 0.004890 0.297637
Si Si7 0.249300 0.701264 0.787185
Si Si8 0.410913 0.770740 0.216767
O O1 0.249746 0.063455 0.500000
O O2 0.162656 0.044196 0.775645
O O3 0.248457 0.137683 0.740789
O O4 0.333673 0.043762 0.781198
O O5 0.613181 0.667017 0.731062
O O6 0.664752 0.768473 0.724220
O O7 0.498849 0.745329 0.726607
O O8 0.591024 0.729641 0.000000
O O9 0.237744 0.371493 0.802351
O O10 0.129093 0.443604 0.703024
O O11 0.094777 0.333381 0.723872
O O12 0.109394 0.395518 0.000000
O O13 0.500000 0.500000 0.776351
O O14 0.594114 0.500279 0.500000
O O15 0.635531 0.560196 0.768276
O O16 0.304919 0.389170 0.500000
O O17 0.419263 0.024081 0.500000
O O18 0.500000 0.000000 0.216768
O O19 0.331230 0.734792 0.725077
O O20 0.249447 0.704333 0.000000
O O21 0.408442 0.772176 0.000000
#
# Coordination Sequence:
#
# PCOD9428087 Si02
#       8
#     8   8   8   8   8   8   8   8
#     4  10  21  38  57  80 114 151 186 227 283 342
#     4  10  21  39  60  81 113 151 187 232 284 333
#     4  11  21  38  63  86 113 151 197 239 285 344
#     4   9  19  36  57  80 111 148 183 227 283 337
#     4  11  21  37  61  86 114 147 190 237 285 338
#     4  10  22  40  59  83 118 154 188 239 295 335
#     4  10  21  38  57  80 114 150 185 229 283 337
#     4   9  20  38  58  82 113 149 186 233 288 334
#
# _framework density 21.685624000000001
#
# number of rings (size 3 to 8) (size 9 to 14) (size 15 to 20)
#    0.000    2.000    2.500    0.750    3.500    1.250 
#    0.000    1.250    0.000    1.875    0.000    0.000 
#    0.000    0.000    0.000    0.000    0.000    0.000 
#
# Total GULP energy -357516.944877 kJ/mol
# GULP energy per Si atom -5586.202264 kJ/mol
# Density = 2.163627 g / cm^3
# Si number density = 21.685624 Si / 1000 Ang^3
#
#
#
# Elastic Constant Matrix: (Units=GPa)
#
#
# Indices 1 2 3 4 5 6 
#
# 1 105.7112 18.2928 8.7303 0.0000 0.0000 0.0000
# 2 18.2928 111.7203 -2.9654 0.0000 0.0000 0.0000
# 3 8.7303 -2.9654 51.0613 0.0000 0.0000 0.0000
# 4 0.0000 0.0000 0.0000 4.9179 0.0000 0.0000
# 5 0.0000 0.0000 0.0000 0.0000 -8.6609 0.0000
# 6 0.0000 0.0000 0.0000 0.0000 0.0000 38.8109
#
#
#
# Elastic Compliance Matrix: (Units=1/GPa)
#
#
# Indices 1 2 3 4 5 6 
#
# 1 0.009896 -0.001668 -0.001789 0.000000 0.000000 0.000000
# 2 -0.001668 0.009246 0.000822 0.000000 0.000000 0.000000
# 3 -0.001789 0.000822 0.019938 0.000000 0.000000 0.000000
# 4 0.000000 0.000000 0.000000 0.203339 0.000000 0.000000
# 5 0.000000 0.000000 0.000000 0.000000 -0.115462 0.000000
# 6 0.000000 0.000000 0.000000 0.000000 0.000000 0.025766
#
#
# Mechanical properties :
#
#
# Convention : Reuss Voigt Hill
#
# Bulk Modulus (GPa) = 29.57647 35.17867 32.37757
# Shear Modulus (GPa) = 29.54003 23.30926 26.42464
#
# Velocity S-wave (km/s) = 3.69480 3.28208 3.49454
# Velocity P-wave (km/s) = 5.64539 5.53354 5.58974
#
# Compressibility (1/GPa) = 0.03381066
#
# Stress axis : x y z
#
# Youngs Moduli (GPa) = 101.05006 108.15681 50.15574
#
# Poissons Ratio (x) = 0.18039 0.08972
# Poissons Ratio (y) = 0.16854 -0.04123
# Poissons Ratio (z) = 0.18076 -0.08892
#
# Static dielectric constant tensor:
#      x y z
#    x 1.787400 0.000000 0.000000 
#    y 0.000000 1.743120 0.000000 
#    z 0.000000 0.000000 1.845290 
# 
# From -- ./inp_files/6734.got.cif
#   From: 2010.05.17/outbox.cif.g08.bks.cpg/sg55_4_cif.got.tgz:6734.got - 2010.06.03 13:27:54.
