data_PCOD9428234
_publ_section_title
;
Structure prediction by ZEFSAII (Michael W. Deem and Ramdas Pophale) SiO2 
 PCOD9428234
Probable space group: P B A M
;
_chemical_formula_sum "Si O2"
_cell_formula_units_Z 64
_cell_length_a 23.590789
_cell_length_b 15.202170
_cell_length_c 9.252566
_cell_angle_alpha 90.000000
_cell_angle_beta 90.000000
_cell_angle_gamma 90.000000
_cell_volume 3318.258707
_symmetry_space_group_name_H-M "P B A M"
_symmetry_group_IT_number 55
_symmetry_cell_setting 'orthorhombic'
loop_
_space_group_symop_operation_xyz
x,y,z
-x,-y,z
1/2+x,1/2-y,-z
1/2-x,1/2+y,-z
-x,-y,-z
x,y,-z
1/2-x,1/2+y,z
1/2+x,1/2-y,z
loop_
_atom_site_type_symbol
_atom_site_label
_atom_site_fract_x
_atom_site_fract_y
_atom_site_fract_z
Si Si1 0.193589 0.685217 0.824782
Si Si2 0.074392 0.756978 0.828671
Si Si3 0.122969 0.350008 0.330216
Si Si4 0.663003 0.505510 0.833060
Si Si5 0.708518 0.018473 0.825485
Si Si6 0.679700 0.295676 0.833300
Si Si7 0.513220 0.102934 0.835764
Si Si8 0.449417 0.432178 0.326714
O O1 0.138885 0.739724 0.776773
O O2 0.192986 0.582093 0.782910
O O3 0.255416 0.721390 0.785249
O O4 0.192134 0.685405 0.000000
O O5 0.044261 0.835628 0.743528
O O6 0.040981 0.665135 0.814110
O O7 0.075315 0.778311 0.000000
O O8 0.129750 0.356077 0.500000
O O9 0.166352 0.415061 0.249952
O O10 0.137415 0.253748 0.270769
O O11 0.060450 0.374110 0.279470
O O12 0.725693 0.538102 0.789455
O O13 0.669364 0.399837 0.832305
O O14 0.610724 0.534093 0.735478
O O15 0.652805 0.533150 0.000000
O O16 0.703795 0.023665 0.000000
O O17 0.673423 0.265471 0.000000
O O18 0.500000 0.000000 0.827683
O O19 0.534494 0.120713 0.000000
O O20 0.500000 0.500000 0.286581
O O21 0.447982 0.426265 0.500000
#
# Coordination Sequence:
#
# PCOD9428234 Si02
#       8
#     8   8   8   8   8   8   8   8
#     4   8  16  35  63  91 115 143 188 247 303 348
#     4  10  21  38  65  95 118 151 204 256 300 355
#     4  12  25  36  54  87 127 162 195 234 290 366
#     4   9  20  39  65  90 112 148 202 257 300 345
#     4   9  18  37  63  89 118 152 193 246 300 352
#     4   9  19  37  61  88 117 150 193 244 297 353
#     4  10  22  42  67  92 119 156 204 256 304 352
#     4  11  26  43  58  81 121 167 203 246 307 369
#
# _framework density 19.287224999999999
#
# number of rings (size 3 to 8) (size 9 to 14) (size 15 to 20)
#    0.000    2.250    0.000    3.750    3.500    4.750 
#    0.000    3.750    0.000    0.000    0.000    0.000 
#    0.000    0.000    0.000    0.000    0.000    0.000 
#
# Total GULP energy -357365.729527 kJ/mol
# GULP energy per Si atom -5583.839524 kJ/mol
# Density = 1.924333 g / cm^3
# Si number density = 19.287225 Si / 1000 Ang^3
#
#
#
# Elastic Constant Matrix: (Units=GPa)
#
#
# Indices 1 2 3 4 5 6 
#
# 1 66.8964 22.3717 31.6956 0.0000 0.0000 0.0000
# 2 22.3717 60.6804 15.7461 0.0000 0.0000 0.0000
# 3 31.6956 15.7461 49.0638 0.0000 0.0000 0.0000
# 4 0.0000 0.0000 0.0000 -39.0981 0.0000 0.0000
# 5 0.0000 0.0000 0.0000 0.0000 5.4742 0.0000
# 6 0.0000 0.0000 0.0000 0.0000 0.0000 28.6748
#
#
#
# Elastic Compliance Matrix: (Units=1/GPa)
#
#
# Indices 1 2 3 4 5 6 
#
# 1 0.022860 -0.005013 -0.013159 0.000000 0.000000 0.000000
# 2 -0.005013 0.019076 -0.002884 0.000000 0.000000 0.000000
# 3 -0.013159 -0.002884 0.029808 0.000000 0.000000 0.000000
# 4 0.000000 0.000000 0.000000 -0.025577 0.000000 0.000000
# 5 0.000000 0.000000 0.000000 0.000000 0.182676 0.000000
# 6 0.000000 0.000000 0.000000 0.000000 0.000000 0.034874
#
#
# Mechanical properties :
#
#
# Convention : Reuss Voigt Hill
#
# Bulk Modulus (GPa) = 33.74652 35.14082 34.44367
# Shear Modulus (GPa) = 15.83754 6.13198 10.98476
#
# Velocity S-wave (km/s) = 2.86867 1.78499 2.38908
# Velocity P-wave (km/s) = 5.33921 4.74421 5.05048
#
# Compressibility (1/GPa) = 0.02963269
#
# Stress axis : x y z
#
# Youngs Moduli (GPa) = 43.74529 52.42082 33.54851
#
# Poissons Ratio (x) = 0.26281 0.44145
# Poissons Ratio (y) = 0.21931 0.09674
# Poissons Ratio (z) = 0.57562 0.15116
#
# Static dielectric constant tensor:
#      x y z
#    x 1.674970 0.000000 0.000000 
#    y 0.000000 1.682680 0.000000 
#    z 0.000000 0.000000 1.636030 
# 
# From -- ./inp_files/9632.got.cif
#   From: 2010.05.17/outbox.cif.g08.bks.cpg/sg55_5_cif.got.tgz:9632.got - 2010.06.03 13:27:54.
