data_PCOD9428377
_publ_section_title
;
Structure prediction by ZEFSAII (Michael W. Deem and Ramdas Pophale) SiO2 
 PCOD9428377
Probable space group: P B A M
;
_chemical_formula_sum "Si O2"
_cell_formula_units_Z 48
_cell_length_a 32.294926
_cell_length_b 9.260593
_cell_length_c 7.898416
_cell_angle_alpha 90.000000
_cell_angle_beta 90.000000
_cell_angle_gamma 90.000000
_cell_volume 2362.180582
_symmetry_space_group_name_H-M "P B A M"
_symmetry_group_IT_number 55
_symmetry_cell_setting 'orthorhombic'
loop_
_space_group_symop_operation_xyz
x,y,z
-x,-y,z
1/2+x,1/2-y,-z
1/2-x,1/2+y,-z
-x,-y,-z
x,y,-z
1/2-x,1/2+y,z
1/2+x,1/2-y,z
loop_
_atom_site_type_symbol
_atom_site_label
_atom_site_fract_x
_atom_site_fract_y
_atom_site_fract_z
Si Si1 0.711658 0.601444 0.198029
Si Si2 0.871911 0.957441 0.696520
Si Si3 0.508377 0.304980 0.000000
Si Si4 0.427086 0.433478 0.000000
Si Si5 0.205624 0.565914 0.702545
Si Si6 0.628471 0.120008 0.703135
Si Si7 0.963747 0.616419 0.690427
O O1 0.673627 0.526176 0.293914
O O2 0.710675 0.773694 0.224227
O O3 0.754625 0.532378 0.258542
O O4 0.706477 0.569331 0.000000
O O5 0.886447 0.963557 0.500000
O O6 0.870181 0.788995 0.753978
O O7 0.899920 0.043759 0.831717
O O8 0.523157 0.228855 0.170115
O O9 0.458200 0.298778 0.000000
O O10 0.537001 0.446548 0.000000
O O11 0.202079 0.583099 0.500000
O O12 0.165057 0.481255 0.769758
O O13 0.634324 0.122993 0.500000
O O14 0.582306 0.061525 0.735905
O O15 0.960318 0.678428 0.500000
O O16 0.000000 0.500000 0.687882
#
# Coordination Sequence:
#
# PCOD9428377 Si02
#       7
#     8   8   4   4   8   8   8
#     4  12  25  43  63  98 135 168 215 268 323 384
#     4  11  22  43  69  93 129 174 216 268 325 387
#     4  11  23  40  62  93 132 165 208 271 326 380
#     4  11  24  40  62  97 127 166 218 261 319 397
#     4  11  23  42  66  94 129 173 217 262 321 390
#     4   9  20  39  65  93 123 168 222 267 322 387
#     4  10  21  40  64  92 127 170 219 270 326 390
#
# _framework density 20.320208000000001
#
# number of rings (size 3 to 8) (size 9 to 14) (size 15 to 20)
#    0.000    1.333    2.500    3.250    0.000    3.333 
#    6.000    3.333    0.000    0.000    0.000    0.000 
#    0.000    0.000    0.000    0.000    0.000    0.000 
#
# Total GULP energy -267927.833058 kJ/mol
# GULP energy per Si atom -5581.829855 kJ/mol
# Density = 2.027396 g / cm^3
# Si number density = 20.320208 Si / 1000 Ang^3
#
#
#
# Elastic Constant Matrix: (Units=GPa)
#
#
# Indices 1 2 3 4 5 6 
#
# 1 170.9026 46.0722 22.9358 0.0000 0.0000 0.0000
# 2 46.0722 37.5402 -1.0548 0.0000 0.0000 0.0000
# 3 22.9358 -1.0548 74.4125 0.0000 0.0000 0.0000
# 4 0.0000 0.0000 0.0000 25.0512 0.0000 0.0000
# 5 0.0000 0.0000 0.0000 0.0000 26.1006 0.0000
# 6 0.0000 0.0000 0.0000 0.0000 0.0000 37.1726
#
#
#
# Elastic Compliance Matrix: (Units=1/GPa)
#
#
# Indices 1 2 3 4 5 6 
#
# 1 0.009393 -0.011613 -0.003060 0.000000 0.000000 0.000000
# 2 -0.011613 0.041008 0.004161 0.000000 0.000000 0.000000
# 3 -0.003060 0.004161 0.014441 0.000000 0.000000 0.000000
# 4 0.000000 0.000000 0.000000 0.039918 0.000000 0.000000
# 5 0.000000 0.000000 0.000000 0.000000 0.038313 0.000000
# 6 0.000000 0.000000 0.000000 0.000000 0.000000 0.026902
#
#
# Mechanical properties :
#
#
# Convention : Reuss Voigt Hill
#
# Bulk Modulus (GPa) = 22.82232 46.52907 34.67569
# Shear Modulus (GPa) = 24.31856 31.99169 28.15512
#
# Velocity S-wave (km/s) = 3.46319 3.97215 3.72637
# Velocity P-wave (km/s) = 5.21989 6.63211 5.96792
#
# Compressibility (1/GPa) = 0.04381676
#
# Stress axis : x y z
#
# Youngs Moduli (GPa) = 106.46616 24.38555 69.24899
#
# Poissons Ratio (x) = 0.28320 0.21188
# Poissons Ratio (y) = 1.23643 -0.28813
# Poissons Ratio (z) = 0.32575 -0.10146
#
# Static dielectric constant tensor:
#      x y z
#    x 1.813130 0.000000 0.000000 
#    y 0.000000 2.641630 0.000000 
#    z 0.000000 0.000000 1.718130 
# 
# From -- ./inp_files/10580.got.cif
#   From: 2010.05.17/outbox.cif.g08.bks.cpg/sg55_6_cif.got.tgz:10580.got - 2010.06.03 13:27:54.
