data_PCOD9428712
_publ_section_title
;
Structure prediction by ZEFSAII (Michael W. Deem and Ramdas Pophale) SiO2 
 PCOD9428712
Probable space group: P B A M
;
_chemical_formula_sum "Si O2"
_cell_formula_units_Z 56
_cell_length_a 14.821805
_cell_length_b 8.401863
_cell_length_c 19.337021
_cell_angle_alpha 90.000000
_cell_angle_beta 90.000000
_cell_angle_gamma 90.000000
_cell_volume 2408.054212
_symmetry_space_group_name_H-M "P B A M"
_symmetry_group_IT_number 55
_symmetry_cell_setting 'orthorhombic'
loop_
_space_group_symop_operation_xyz
x,y,z
-x,-y,z
1/2+x,1/2-y,-z
1/2-x,1/2+y,-z
-x,-y,-z
x,y,-z
1/2-x,1/2+y,z
1/2+x,1/2-y,z
loop_
_atom_site_type_symbol
_atom_site_label
_atom_site_fract_x
_atom_site_fract_y
_atom_site_fract_z
Si Si1 0.511645 0.812909 0.720261
Si Si2 0.450926 0.329098 0.146454
Si Si3 0.609922 0.812311 0.424532
Si Si4 0.720714 0.840246 0.869842
Si Si5 0.184867 0.202831 0.723868
Si Si6 0.255162 0.450877 0.376683
Si Si7 0.117923 0.346410 0.079892
O O1 0.574333 0.723896 0.774903
O O2 0.545151 0.796974 0.641644
O O3 0.418817 0.727675 0.738580
O O4 0.500000 0.000000 0.733861
O O5 0.500000 0.500000 0.142117
O O6 0.353106 0.298542 0.113069
O O7 0.524262 0.205686 0.115433
O O8 0.566067 0.810815 0.500000
O O9 0.682208 0.668593 0.418715
O O10 0.669500 0.972504 0.414871
O O11 0.760049 0.844602 0.791430
O O12 0.810141 0.798006 0.913102
O O13 0.667238 0.003291 0.884541
O O14 0.221450 0.366325 0.692874
O O15 0.188553 0.093514 0.655833
O O16 0.101504 0.382903 0.000000
#
# Coordination Sequence:
#
# PCOD9428712 Si02
#       7
#     8   8   8   8   8   8   8
#     4  12  25  45  67 106 141 186 249 309 369 441
#     4  12  28  46  75 107 144 190 247 307 365 437
#     4  11  24  43  67  98 142 192 244 305 377 448
#     4  12  25  45  74 107 147 193 241 303 372 433
#     4  11  23  41  72 101 136 185 239 304 361 429
#     4  10  22  41  66  99 133 183 241 301 364 440
#     4  12  27  48  75 110 150 195 244 296 368 450
#
# _framework density 23.255291
#
# number of rings (size 3 to 8) (size 9 to 14) (size 15 to 20)
#    0.000    0.571    2.857    5.571    4.000    2.286 
#    0.000    2.143    0.000    0.000    0.000    0.000 
#    0.000    0.000    0.000    0.000    0.000    0.000 
#
# Total GULP energy -313053.669718 kJ/mol
# GULP energy per Si atom -5590.244102 kJ/mol
# Density = 2.320236 g / cm^3
# Si number density = 23.255291 Si / 1000 Ang^3
#
#
#
# Elastic Constant Matrix: (Units=GPa)
#
#
# Indices 1 2 3 4 5 6 
#
# 1 104.6178 21.4702 38.0301 0.0000 0.0000 0.0000
# 2 21.4702 73.7487 21.3697 0.0000 0.0000 0.0000
# 3 38.0301 21.3697 125.2293 0.0000 0.0000 0.0000
# 4 0.0000 0.0000 0.0000 48.0353 0.0000 0.0000
# 5 0.0000 0.0000 0.0000 0.0000 19.4673 0.0000
# 6 0.0000 0.0000 0.0000 0.0000 0.0000 13.4279
#
#
#
# Elastic Compliance Matrix: (Units=1/GPa)
#
#
# Indices 1 2 3 4 5 6 
#
# 1 0.011128 -0.002378 -0.002973 0.000000 0.000000 0.000000
# 2 -0.002378 0.014773 -0.001799 0.000000 0.000000 0.000000
# 3 -0.002973 -0.001799 0.009195 0.000000 0.000000 0.000000
# 4 0.000000 0.000000 0.000000 0.020818 0.000000 0.000000
# 5 0.000000 0.000000 0.000000 0.000000 0.051368 0.000000
# 6 0.000000 0.000000 0.000000 0.000000 0.000000 0.074472
#
#
# Mechanical properties :
#
#
# Convention : Reuss Voigt Hill
#
# Bulk Modulus (GPa) = 48.08735 51.70400 49.89567
# Shear Modulus (GPa) = 24.63219 31.03447 27.83333
#
# Velocity S-wave (km/s) = 3.25808 3.65706 3.46332
# Velocity P-wave (km/s) = 5.90562 6.33353 6.12331
#
# Compressibility (1/GPa) = 0.02079549
#
# Stress axis : x y z
#
# Youngs Moduli (GPa) = 89.86733 67.69079 108.75120
#
# Poissons Ratio (x) = 0.16096 0.32337
# Poissons Ratio (y) = 0.21370 0.19562
# Poissons Ratio (z) = 0.26722 0.12176
#
# Static dielectric constant tensor:
#      x y z
#    x 2.006080 0.000000 0.000000 
#    y 0.000000 1.939790 0.000000 
#    z 0.000000 0.000000 1.900830 
# 
# From -- ./inp_files/22974.got.cif
#   From: 2010.05.17/outbox.cif.g08.bks.cpg/sg55_12_cif.got.tgz:22974.got - 2010.06.03 13:27:54.
