data_PCOD9428159
_publ_section_title
;
Structure prediction by ZEFSAII (Michael W. Deem and Ramdas Pophale) SiO2 
 PCOD9428159
Probable space group: P B A M
;
_chemical_formula_sum "Si O2"
_cell_formula_units_Z 64
_cell_length_a 24.966799
_cell_length_b 15.676454
_cell_length_c 8.295016
_cell_angle_alpha 90.000000
_cell_angle_beta 90.000000
_cell_angle_gamma 90.000000
_cell_volume 3246.593579
_symmetry_space_group_name_H-M "P B A M"
_symmetry_group_IT_number 55
_symmetry_cell_setting 'orthorhombic'
loop_
_space_group_symop_operation_xyz
x,y,z
-x,-y,z
1/2+x,1/2-y,-z
1/2-x,1/2+y,-z
-x,-y,-z
x,y,-z
1/2-x,1/2+y,z
1/2+x,1/2-y,z
loop_
_atom_site_type_symbol
_atom_site_label
_atom_site_fract_x
_atom_site_fract_y
_atom_site_fract_z
Si Si1 0.935506 0.245671 0.805616
Si Si2 0.367681 0.647065 0.315433
Si Si3 0.687488 0.735668 0.194226
Si Si4 0.515938 0.404695 0.195016
Si Si5 0.744978 0.400384 0.811738
Si Si6 0.122926 0.350179 0.312429
Si Si7 0.764816 0.587729 0.690619
Si Si8 0.506750 0.098814 0.304724
O O1 0.874117 0.236903 0.747846
O O2 0.962291 0.335368 0.757547
O O3 0.974065 0.168187 0.749029
O O4 0.934265 0.241345 0.000000
O O5 0.357820 0.619898 0.500000
O O6 0.424730 0.613972 0.256944
O O7 0.317674 0.619314 0.209087
O O8 0.370610 0.749097 0.311297
O O9 0.720700 0.819290 0.250291
O O10 0.719455 0.650192 0.240081
O O11 0.686436 0.739594 0.000000
O O12 0.500000 0.500000 0.245401
O O13 0.516402 0.402170 0.000000
O O14 0.755568 0.488625 0.722223
O O15 0.757769 0.412126 0.000000
O O16 0.120806 0.379278 0.500000
O O17 0.176674 0.388988 0.238939
O O18 0.065270 0.373035 0.242250
O O19 0.765940 0.604973 0.500000
O O20 0.505559 0.104983 0.500000
O O21 0.500000 0.000000 0.260816
#
# Coordination Sequence:
#
# PCOD9428159 Si02
#       8
#     8   8   8   8   8   8   8   8
#     4  10  22  40  59  84 121 158 196 244 295 352
#     4  11  21  39  64  89 119 154 201 256 303 351
#     4  10  23  42  61  85 122 164 202 246 299 359
#     4  10  22  39  60  88 120 160 201 243 302 361
#     4  11  24  41  61  88 122 160 205 249 300 362
#     4   9  19  37  59  86 120 151 191 249 299 348
#     4  11  23  40  63  91 121 156 200 249 305 359
#     4  10  21  38  61  88 118 158 199 240 295 354
#
# _framework density 19.712969000000001
#
# number of rings (size 3 to 8) (size 9 to 14) (size 15 to 20)
#    0.000    1.750    2.500    1.125    3.500    1.500 
#    0.000    1.250    0.000    0.000    0.000    0.000 
#    0.000    0.000    0.000    0.000    0.000    0.000 
#
# Total GULP energy -357338.903278 kJ/mol
# GULP energy per Si atom -5583.420364 kJ/mol
# Density = 1.966810 g / cm^3
# Si number density = 19.712969 Si / 1000 Ang^3
#
#
#
# Elastic Constant Matrix: (Units=GPa)
#
#
# Indices 1 2 3 4 5 6 
#
# 1 76.3450 2.3788 12.0940 0.0000 0.0000 0.0000
# 2 2.3788 71.2871 10.8421 0.0000 0.0000 0.0000
# 3 12.0940 10.8421 11.0675 0.0000 0.0000 0.0000
# 4 0.0000 0.0000 0.0000 9.3252 0.0000 0.0000
# 5 0.0000 0.0000 0.0000 0.0000 16.6087 0.0000
# 6 0.0000 0.0000 0.0000 0.0000 0.0000 32.7991
#
#
#
# Elastic Compliance Matrix: (Units=1/GPa)
#
#
# Indices 1 2 3 4 5 6 
#
# 1 0.016220 0.002532 -0.020205 0.000000 0.000000 0.000000
# 2 0.002532 0.016879 -0.019302 0.000000 0.000000 0.000000
# 3 -0.020205 -0.019302 0.131342 0.000000 0.000000 0.000000
# 4 0.000000 0.000000 0.000000 0.107236 0.000000 0.000000
# 5 0.000000 0.000000 0.000000 0.000000 0.060209 0.000000
# 6 0.000000 0.000000 0.000000 0.000000 0.000000 0.030489
#
#
# Mechanical properties :
#
#
# Convention : Reuss Voigt Hill
#
# Bulk Modulus (GPa) = 11.05074 23.25882 17.15478
# Shear Modulus (GPa) = 10.71837 20.63891 15.67864
#
# Velocity S-wave (km/s) = 2.33431 3.23920 2.82325
# Velocity P-wave (km/s) = 3.58934 5.08077 4.39873
#
# Compressibility (1/GPa) = 0.09049170
#
# Stress axis : x y z
#
# Youngs Moduli (GPa) = 61.65121 59.24564 7.61370
#
# Poissons Ratio (x) = -0.14999 0.15383
# Poissons Ratio (y) = -0.15608 0.14696
# Poissons Ratio (z) = 1.24566 1.14354
#
# Static dielectric constant tensor:
#      x y z
#    x 1.670680 0.000000 0.000000 
#    y 0.000000 1.667400 0.000000 
#    z 0.000000 0.000000 1.703310 
# 
# From -- ./inp_files/9645.got.cif
#   From: 2010.05.17/outbox.cif.g08.bks.cpg/sg55_5_cif.got.tgz:9645.got - 2010.06.03 13:27:54.
