data_PCOD9428426
_publ_section_title
;
Structure prediction by ZEFSAII (Michael W. Deem and Ramdas Pophale) SiO2 
 PCOD9428426
Probable space group: P B A M
;
_chemical_formula_sum "Si O2"
_cell_formula_units_Z 60
_cell_length_a 20.486907
_cell_length_b 11.515961
_cell_length_c 12.544709
_cell_angle_alpha 90.000000
_cell_angle_beta 90.000000
_cell_angle_gamma 90.000000
_cell_volume 2959.628310
_symmetry_space_group_name_H-M "P B A M"
_symmetry_group_IT_number 55
_symmetry_cell_setting 'orthorhombic'
loop_
_space_group_symop_operation_xyz
x,y,z
-x,-y,z
1/2+x,1/2-y,-z
1/2-x,1/2+y,-z
-x,-y,-z
x,y,-z
1/2-x,1/2+y,z
1/2+x,1/2-y,z
loop_
_atom_site_type_symbol
_atom_site_label
_atom_site_fract_x
_atom_site_fract_y
_atom_site_fract_z
Si Si1 0.879649 0.247128 0.772849
Si Si2 0.763483 0.105130 0.120780
Si Si3 0.845026 0.843320 0.652437
Si Si4 0.564738 0.556232 0.381729
Si Si5 0.864789 0.765245 0.117093
Si Si6 0.161180 0.373016 0.500000
Si Si7 0.211181 0.551916 0.315050
Si Si8 0.000723 0.371150 0.124263
O O1 0.827926 0.177273 0.846216
O O2 0.901707 0.159589 0.680825
O O3 0.844354 0.361992 0.728089
O O4 0.946080 0.288285 0.827915
O O5 0.702138 0.192873 0.117791
O O6 0.743814 0.015574 0.214290
O O7 0.769838 0.056244 0.000000
O O8 0.861875 0.841464 0.777829
O O9 0.860237 0.723750 0.592938
O O10 0.768277 0.866509 0.638513
O O11 0.884074 0.952554 0.609914
O O12 0.500000 0.500000 0.330088
O O13 0.545480 0.597556 0.500000
O O14 0.927010 0.681266 0.130460
O O15 0.871233 0.822001 0.000000
O O16 0.185913 0.463573 0.404792
O O17 0.000000 0.500000 0.173472
O O18 0.983502 0.383125 0.000000
#
# Coordination Sequence:
#
# PCOD9428426 Si02
#       8
#     8   8   8   8   8   4   8   8
#     4  12  24  44  69 104 140 184 239 293 357 425
#     4  11  23  41  67 103 144 180 226 285 357 424
#     4  12  23  44  70  94 136 181 229 283 348 420
#     4  11  26  47  70  97 136 193 237 286 347 421
#     4  10  21  41  66  97 136 177 224 282 350 421
#     4  12  26  42  65 101 130 176 229 286 349 409
#     4  12  25  41  68 102 140 176 225 296 348 411
#     4  10  22  41  68  98 136 184 231 287 354 424
#
# _framework density 20.272815000000001
#
# number of rings (size 3 to 8) (size 9 to 14) (size 15 to 20)
#    0.000    0.800    4.667    2.400    0.933    2.667 
#    0.000    0.000    0.000    4.800    0.000    0.000 
#    0.000    0.000    0.000    0.000    0.000    0.000 
#
# Total GULP energy -334050.736998 kJ/mol
# GULP energy per Si atom -5567.512283 kJ/mol
# Density = 2.022667 g / cm^3
# Si number density = 20.272815 Si / 1000 Ang^3
#
#
#
# Elastic Constant Matrix: (Units=GPa)
#
#
# Indices 1 2 3 4 5 6 
#
# 1 70.5541 12.7720 19.9783 0.0000 0.0000 0.0000
# 2 12.7720 82.0137 55.8399 0.0000 0.0000 0.0000
# 3 19.9783 55.8399 133.7862 0.0000 0.0000 0.0000
# 4 0.0000 0.0000 0.0000 21.7645 0.0000 0.0000
# 5 0.0000 0.0000 0.0000 0.0000 2.3464 0.0000
# 6 0.0000 0.0000 0.0000 0.0000 0.0000 40.0104
#
#
#
# Elastic Compliance Matrix: (Units=1/GPa)
#
#
# Indices 1 2 3 4 5 6 
#
# 1 0.014873 -0.001123 -0.001752 0.000000 0.000000 0.000000
# 2 -0.001123 0.017119 -0.006977 0.000000 0.000000 0.000000
# 3 -0.001752 -0.006977 0.010648 0.000000 0.000000 0.000000
# 4 0.000000 0.000000 0.000000 0.045946 0.000000 0.000000
# 5 0.000000 0.000000 0.000000 0.000000 0.426190 0.000000
# 6 0.000000 0.000000 0.000000 0.000000 0.000000 0.024994
#
#
# Mechanical properties :
#
#
# Convention : Reuss Voigt Hill
#
# Bulk Modulus (GPa) = 43.60193 51.50382 47.55288
# Shear Modulus (GPa) = 8.81648 26.00850 17.41249
#
# Velocity S-wave (km/s) = 2.08767 3.58568 2.93389
# Velocity P-wave (km/s) = 5.23120 6.52712 5.91476
#
# Compressibility (1/GPa) = 0.02293476
#
# Stress axis : x y z
#
# Youngs Moduli (GPa) = 67.23592 58.41632 93.91057
#
# Poissons Ratio (x) = 0.06561 0.16455
# Poissons Ratio (y) = 0.07552 0.65523
# Poissons Ratio (z) = 0.11781 0.40758
#
# Static dielectric constant tensor:
#      x y z
#    x 1.720320 0.000000 0.000000 
#    y 0.000000 1.548460 0.000000 
#    z 0.000000 0.000000 1.771030 
# 
# From -- ./inp_files/15394.got.cif
#   From: 2010.05.17/outbox.cif.g08.bks.cpg/sg55_8_cif.got.tgz:15394.got - 2010.06.03 13:27:54.
