data_PCOD9428039
_publ_section_title
;
Structure prediction by ZEFSAII (Michael W. Deem and Ramdas Pophale) SiO2 
 PCOD9428039
Probable space group: P B A M
;
_chemical_formula_sum "Si O2"
_cell_formula_units_Z 56
_cell_length_a 14.314828
_cell_length_b 13.658213
_cell_length_c 14.340117
_cell_angle_alpha 90.000000
_cell_angle_beta 90.000000
_cell_angle_gamma 90.000000
_cell_volume 2803.707543
_symmetry_space_group_name_H-M "P B A M"
_symmetry_group_IT_number 55
_symmetry_cell_setting 'orthorhombic'
loop_
_space_group_symop_operation_xyz
x,y,z
-x,-y,z
1/2+x,1/2-y,-z
1/2-x,1/2+y,-z
-x,-y,-z
x,y,-z
1/2-x,1/2+y,z
1/2+x,1/2-y,z
loop_
_atom_site_type_symbol
_atom_site_label
_atom_site_fract_x
_atom_site_fract_y
_atom_site_fract_z
Si Si1 0.006851 0.614629 0.273213
Si Si2 0.598975 0.450895 0.112583
Si Si3 0.084926 0.274268 0.892306
Si Si4 0.159849 0.756058 0.287295
Si Si5 0.856803 0.729253 0.390518
Si Si6 0.789337 0.137735 0.107241
Si Si7 0.489701 0.389238 0.390303
O O1 0.109434 0.652099 0.302219
O O2 0.000000 0.500000 0.260116
O O3 0.983547 0.672701 0.178401
O O4 0.928421 0.650498 0.346735
O O5 0.500000 0.500000 0.138590
O O6 0.604519 0.337411 0.142128
O O7 0.680090 0.528311 0.138339
O O8 0.601723 0.445780 0.000000
O O9 0.179779 0.338103 0.891165
O O10 0.052422 0.269488 0.000000
O O11 0.260757 0.765603 0.334210
O O12 0.167343 0.785967 0.179333
O O13 0.089364 0.832769 0.334446
O O14 0.840209 0.710630 0.500000
O O15 0.913547 0.830798 0.381070
O O16 0.821925 0.150679 0.000000
O O17 0.500000 0.500000 0.358848
O O18 0.464717 0.388678 0.500000
#
# Coordination Sequence:
#
# PCOD9428039 Si02
#       7
#     8   8   8   8   8   8   8
#     4  11  25  42  62  94 129 168 210 257 319 383
#     4   9  18  34  58  85 115 158 211 260 313 370
#     4  10  21  40  61  89 129 167 213 265 314 373
#     4  11  22  39  64  89 122 167 210 253 312 376
#     4  10  22  43  65  90 124 159 204 257 309 375
#     4  10  21  37  59  89 125 167 213 264 317 372
#     4   9  20  39  64  95 123 151 196 255 314 369
#
# _framework density 19.973552999999999
#
# number of rings (size 3 to 8) (size 9 to 14) (size 15 to 20)
#    0.000    2.000    1.429    1.286    0.000    8.000 
#    0.000    2.857    0.000    0.000    0.000    0.000 
#    0.000    0.000    0.000    0.000    0.000    0.000 
#
# Total GULP energy -312755.085484 kJ/mol
# GULP energy per Si atom -5584.912241 kJ/mol
# Density = 1.992809 g / cm^3
# Si number density = 19.973553 Si / 1000 Ang^3
#
#
#
# Elastic Constant Matrix: (Units=GPa)
#
#
# Indices 1 2 3 4 5 6 
#
# 1 77.0245 32.5818 31.2207 0.0000 0.0000 0.0000
# 2 32.5818 112.9549 24.9874 0.0000 0.0000 0.0000
# 3 31.2207 24.9874 99.7410 0.0000 0.0000 0.0000
# 4 0.0000 0.0000 0.0000 21.1408 0.0000 0.0000
# 5 0.0000 0.0000 0.0000 0.0000 -8.2453 0.0000
# 6 0.0000 0.0000 0.0000 0.0000 0.0000 14.6735
#
#
#
# Elastic Compliance Matrix: (Units=1/GPa)
#
#
# Indices 1 2 3 4 5 6 
#
# 1 0.016259 -0.003773 -0.004144 0.000000 0.000000 0.000000
# 2 -0.003773 0.010248 -0.001386 0.000000 0.000000 0.000000
# 3 -0.004144 -0.001386 0.011670 0.000000 0.000000 0.000000
# 4 0.000000 0.000000 0.000000 0.047302 0.000000 0.000000
# 5 0.000000 0.000000 0.000000 0.000000 -0.121282 0.000000
# 6 0.000000 0.000000 0.000000 0.000000 0.000000 0.068150
#
#
# Mechanical properties :
#
#
# Convention : Reuss Voigt Hill
#
# Bulk Modulus (GPa) = 51.09777 51.92223 51.51000
# Shear Modulus (GPa) = 86.99055 18.90918 52.94987
#
# Velocity S-wave (km/s) = 6.60662 3.08020 5.15437
# Velocity P-wave (km/s) = 9.15614 6.22110 7.82742
#
# Compressibility (1/GPa) = 0.01957033
#
# Stress axis : x y z
#
# Youngs Moduli (GPa) = 61.50585 97.57885 85.68673
#
# Poissons Ratio (x) = 0.36817 0.35508
# Poissons Ratio (y) = 0.23207 0.11879
# Poissons Ratio (z) = 0.25488 0.13528
#
# Static dielectric constant tensor:
#      x y z
#    x 1.691490 0.000000 0.000000 
#    y 0.000000 1.687110 0.000000 
#    z 0.000000 0.000000 1.729370 
# 
# From -- ./inp_files/18948.got.cif
#   From: 2010.05.17/outbox.cif.g08.bks.cpg/sg55_10_cif.got.tgz:18948.got - 2010.06.03 13:27:54.
