data_PCOD9428464
_publ_section_title
;
Structure prediction by ZEFSAII (Michael W. Deem and Ramdas Pophale) SiO2 
 PCOD9428464
Probable space group: P B A M
;
_chemical_formula_sum "Si O2"
_cell_formula_units_Z 56
_cell_length_a 21.385046
_cell_length_b 9.967891
_cell_length_c 13.857658
_cell_angle_alpha 90.000000
_cell_angle_beta 90.000000
_cell_angle_gamma 90.000000
_cell_volume 2953.951143
_symmetry_space_group_name_H-M "P B A M"
_symmetry_group_IT_number 55
_symmetry_cell_setting 'orthorhombic'
loop_
_space_group_symop_operation_xyz
x,y,z
-x,-y,z
1/2+x,1/2-y,-z
1/2-x,1/2+y,-z
-x,-y,-z
x,y,-z
1/2-x,1/2+y,z
1/2+x,1/2-y,z
loop_
_atom_site_type_symbol
_atom_site_label
_atom_site_fract_x
_atom_site_fract_y
_atom_site_fract_z
Si Si1 0.489292 0.842190 0.612039
Si Si2 0.828977 0.489067 0.714349
Si Si3 0.396312 0.283645 0.712733
Si Si4 0.898404 0.735083 0.217479
Si Si5 0.986794 0.158935 0.108749
Si Si6 0.823168 0.516383 0.500000
Si Si7 0.219550 0.193667 0.500000
Si Si8 0.317402 0.547474 0.307882
O O1 0.471264 0.832089 0.500000
O O2 0.554575 0.766536 0.632500
O O3 0.440431 0.774903 0.685084
O O4 0.500000 0.000000 0.636290
O O5 0.848915 0.337505 0.732762
O O6 0.860988 0.595523 0.784846
O O7 0.853669 0.522621 0.605015
O O8 0.753867 0.496639 0.713665
O O9 0.436072 0.308075 0.809813
O O10 0.359809 0.416410 0.681848
O O11 0.849341 0.855973 0.229179
O O12 0.948924 0.764311 0.135129
O O13 0.966599 0.191238 0.000000
O O14 0.000000 0.000000 0.114747
O O15 0.778040 0.646422 0.500000
O O16 0.787081 0.375471 0.500000
O O17 0.186459 0.136568 0.595080
#
# Coordination Sequence:
#
# PCOD9428464 Si02
#       8
#     8   8   8   8   8   4   4   8
#     4  10  22  36  56  82 119 165 201 251 304 346
#     4  11  23  37  60  84 133 164 205 249 299 360
#     4  11  23  39  61  92 115 161 206 250 311 367
#     4  11  21  39  61  89 116 160 201 248 307 363
#     4  10  22  44  70  92 116 153 202 258 315 376
#     4  10  22  34  52  81 120 179 213 238 280 340
#     4  10  22  34  50  81 122 173 217 242 276 338
#     4  11  23  37  57  87 126 165 209 247 290 360
#
# _framework density 18.957659
#
# number of rings (size 3 to 8) (size 9 to 14) (size 15 to 20)
#    0.000    1.429    4.286    0.857   10.000    0.000 
#    0.000    2.143    0.000    5.143    0.000    0.000 
#    0.000    0.000    0.000    0.000    0.000    0.000 
#
# Total GULP energy -312698.863418 kJ/mol
# GULP energy per Si atom -5583.908275 kJ/mol
# Density = 1.891451 g / cm^3
# Si number density = 18.957659 Si / 1000 Ang^3
#
#
#
# Elastic Constant Matrix: (Units=GPa)
#
#
# Indices 1 2 3 4 5 6 
#
# 1 70.9631 0.9967 7.7275 0.0000 0.0000 0.0000
# 2 0.9967 63.2101 -4.0433 0.0000 0.0000 0.0000
# 3 7.7275 -4.0433 57.2973 0.0000 0.0000 0.0000
# 4 0.0000 0.0000 0.0000 12.9812 0.0000 0.0000
# 5 0.0000 0.0000 0.0000 0.0000 14.6961 0.0000
# 6 0.0000 0.0000 0.0000 0.0000 0.0000 44.0320
#
#
#
# Elastic Compliance Matrix: (Units=1/GPa)
#
#
# Indices 1 2 3 4 5 6 
#
# 1 0.014310 -0.000351 -0.001955 0.000000 0.000000 0.000000
# 2 -0.000351 0.015901 0.001169 0.000000 0.000000 0.000000
# 3 -0.001955 0.001169 0.017799 0.000000 0.000000 0.000000
# 4 0.000000 0.000000 0.000000 0.077034 0.000000 0.000000
# 5 0.000000 0.000000 0.000000 0.000000 0.068045 0.000000
# 6 0.000000 0.000000 0.000000 0.000000 0.000000 0.022711
#
#
# Mechanical properties :
#
#
# Convention : Reuss Voigt Hill
#
# Bulk Modulus (GPa) = 21.86402 22.31470 22.08936
# Shear Modulus (GPa) = 21.43003 26.79449 24.11226
#
# Velocity S-wave (km/s) = 3.36581 3.76358 3.57024
# Velocity P-wave (km/s) = 5.16363 5.53917 5.35469
#
# Compressibility (1/GPa) = 0.04573724
#
# Stress axis : x y z
#
# Youngs Moduli (GPa) = 69.88309 62.89072 56.18306
#
# Poissons Ratio (x) = 0.02205 0.10982
# Poissons Ratio (y) = 0.02451 -0.06570
# Poissons Ratio (z) = 0.13660 -0.07354
#
# Static dielectric constant tensor:
#      x y z
#    x 1.696610 0.000000 0.000000 
#    y 0.000000 1.650240 0.000000 
#    z 0.000000 0.000000 1.644190 
# 
# From -- ./inp_files/17679.got.cif
#   From: 2010.05.17/outbox.cif.g08.bks.cpg/sg55_9_cif.got.tgz:17679.got - 2010.06.03 13:27:54.
