data_PCOD9428829
_publ_section_title
;
Structure prediction by ZEFSAII (Michael W. Deem and Ramdas Pophale) SiO2 
 PCOD9428829
Probable space group: P B A M
;
_chemical_formula_sum "Si O2"
_cell_formula_units_Z 38
_cell_length_a 12.207278
_cell_length_b 8.217719
_cell_length_c 16.996568
_cell_angle_alpha 90.000000
_cell_angle_beta 90.000000
_cell_angle_gamma 90.000000
_cell_volume 1705.027382
_symmetry_space_group_name_H-M "P B A M"
_symmetry_group_IT_number 55
_symmetry_cell_setting 'orthorhombic'
loop_
_space_group_symop_operation_xyz
x,y,z
-x,-y,z
1/2+x,1/2-y,-z
1/2-x,1/2+y,-z
-x,-y,-z
x,y,-z
1/2-x,1/2+y,z
1/2+x,1/2-y,z
loop_
_atom_site_type_symbol
_atom_site_label
_atom_site_fract_x
_atom_site_fract_y
_atom_site_fract_z
Si Si1 0.848318 0.036055 0.650302
Si Si2 0.908122 0.307084 0.135697
Si Si3 0.500000 0.500000 0.780584
Si Si4 0.758073 0.409205 0.000000
Si Si5 0.387361 0.084095 0.309531
Si Si6 0.500000 0.500000 0.500000
Si Si7 0.580943 0.202823 0.000000
O O1 0.875762 0.227044 0.664872
O O2 0.907765 0.933212 0.720238
O O3 0.719349 0.007157 0.657999
O O4 0.904809 0.988078 0.569253
O O5 0.804479 0.327276 0.079461
O O6 0.891255 0.413978 0.213941
O O7 0.934860 0.128847 0.168327
O O8 0.009933 0.333485 0.076723
O O9 0.815296 0.583558 0.000000
O O10 0.628632 0.385035 0.000000
O O11 0.500000 0.000000 0.337017
#
# Coordination Sequence:
#
# PCOD9428829 Si02
#       7
#     8   8   4   4   8   2   4
#     4  10  25  45  75 104 143 183 231 286 357 420
#     4  10  23  41  62  91 137 169 238 295 341 413
#     4   9  22  40  68  99 122 186 230 289 352 418
#     4  11  25  38  59  89 123 186 224 282 368 395
#     4  11  25  45  74 108 139 186 243 285 349 426
#     4  10  24  52  72 106 150 180 224 292 342 432
#     4  11  25  40  57  89 133 179 228 297 350 408
#
# _framework density 22.287032
#
# number of rings (size 3 to 8) (size 9 to 14) (size 15 to 20)
#    0.000    1.684    0.000    2.526   14.737    5.053 
#    0.000    1.053    0.000    0.000    0.000    0.000 
#    0.000    0.000    0.000    0.000    0.000    0.000 
#
# Total GULP energy -211723.625050 kJ/mol
# GULP energy per Si atom -5571.674343 kJ/mol
# Density = 2.223631 g / cm^3
# Si number density = 22.287032 Si / 1000 Ang^3
#
#
#
# Elastic Constant Matrix: (Units=GPa)
#
#
# Indices 1 2 3 4 5 6 
#
# 1 158.0398 25.8786 36.1155 0.0000 0.0000 0.0000
# 2 25.8786 43.2510 28.3866 0.0000 0.0000 0.0000
# 3 36.1155 28.3866 132.9937 0.0000 0.0000 0.0000
# 4 0.0000 0.0000 0.0000 -10.9278 0.0000 0.0000
# 5 0.0000 0.0000 0.0000 0.0000 39.9279 0.0000
# 6 0.0000 0.0000 0.0000 0.0000 0.0000 41.8792
#
#
#
# Elastic Compliance Matrix: (Units=1/GPa)
#
#
# Indices 1 2 3 4 5 6 
#
# 1 0.007176 -0.003506 -0.001200 0.000000 0.000000 0.000000
# 2 -0.003506 0.028600 -0.005152 0.000000 0.000000 0.000000
# 3 -0.001200 -0.005152 0.008945 0.000000 0.000000 0.000000
# 4 0.000000 0.000000 0.000000 -0.091510 0.000000 0.000000
# 5 0.000000 0.000000 0.000000 0.000000 0.025045 0.000000
# 6 0.000000 0.000000 0.000000 0.000000 0.000000 0.023878
#
#
# Mechanical properties :
#
#
# Convention : Reuss Voigt Hill
#
# Bulk Modulus (GPa) = 39.99414 57.22733 48.61073
# Shear Modulus (GPa) = 165.63700 30.43610 98.03655
#
# Velocity S-wave (km/s) = 8.63025 3.69947 6.63955
# Velocity P-wave (km/s) = 10.83016 6.63184 8.97980
#
# Compressibility (1/GPa) = 0.02500366
#
# Stress axis : x y z
#
# Youngs Moduli (GPa) = 139.35554 34.96487 111.79558
#
# Poissons Ratio (x) = 0.12258 0.13420
# Poissons Ratio (y) = 0.48854 0.57603
# Poissons Ratio (z) = 0.16728 0.18016
#
# Static dielectric constant tensor:
#      x y z
#    x 1.847520 0.000000 0.000000 
#    y 0.000000 1.926110 0.000000 
#    z 0.000000 0.000000 1.788780 
# 
# From -- ./inp_files/21203.got.cif
#   From: 2010.05.17/outbox.cif.g08.bks.cpg/sg55_11_cif.got.tgz:21203.got - 2010.06.03 13:27:54.
