data_PCOD9428456
_publ_section_title
;
Structure prediction by ZEFSAII (Michael W. Deem and Ramdas Pophale) SiO2 
 PCOD9428456
Probable space group: P B A M
;
_chemical_formula_sum "Si O2"
_cell_formula_units_Z 64
_cell_length_a 9.298284
_cell_length_b 12.916070
_cell_length_c 26.509788
_cell_angle_alpha 90.000000
_cell_angle_beta 90.000000
_cell_angle_gamma 90.000000
_cell_volume 3183.753618
_symmetry_space_group_name_H-M "P B A M"
_symmetry_group_IT_number 55
_symmetry_cell_setting 'orthorhombic'
loop_
_space_group_symop_operation_xyz
x,y,z
-x,-y,z
1/2+x,1/2-y,-z
1/2-x,1/2+y,-z
-x,-y,-z
x,y,-z
1/2-x,1/2+y,z
1/2+x,1/2-y,z
loop_
_atom_site_type_symbol
_atom_site_label
_atom_site_fract_x
_atom_site_fract_y
_atom_site_fract_z
Si Si1 0.254438 0.627131 0.191988
Si Si2 0.138881 0.799678 0.353347
Si Si3 0.632588 0.924576 0.384949
Si Si4 0.343202 0.644527 0.304841
Si Si5 0.996427 0.259396 0.152193
Si Si6 0.661300 0.545032 0.443541
Si Si7 0.580811 0.109984 0.942884
Si Si8 0.144838 0.947407 0.117378
O O1 0.313119 0.611678 0.247988
O O2 0.089056 0.662671 0.188546
O O3 0.348555 0.722828 0.170675
O O4 0.282592 0.529461 0.155682
O O5 0.083433 0.694125 0.380607
O O6 0.008543 0.847824 0.321190
O O7 0.266120 0.755502 0.317611
O O8 0.186019 0.873400 0.398749
O O9 0.720949 0.955424 0.434572
O O10 0.500000 0.000000 0.377508
O O11 0.753515 0.931694 0.341043
O O12 0.909576 0.152820 0.147123
O O13 0.010635 0.313525 0.097842
O O14 0.500000 0.500000 0.438276
O O15 0.675239 0.588215 0.500000
O O16 0.742178 0.087037 0.924450
O O17 0.500000 0.000000 0.941193
O O18 0.575449 0.150014 0.000000
O O19 0.000000 0.000000 0.096155
#
# Coordination Sequence:
#
# PCOD9428456 Si02
#       8
#     8   8   8   8   8   8   8   8
#     4  11  22  42  63  96 129 174 216 267 325 388
#     4  10  21  43  62  95 133 166 216 275 315 395
#     4  10  23  42  62  95 131 162 217 269 315 387
#     4  10  22  41  65  93 129 172 211 267 327 383
#     4  11  22  42  64  93 134 167 219 269 315 393
#     4  11  22  41  68  93 126 175 216 265 336 389
#     4  11  23  42  69  95 127 171 214 270 331 377
#     4  10  23  43  63  95 133 167 215 271 320 390
#
# _framework density 20.102058
#
# number of rings (size 3 to 8) (size 9 to 14) (size 15 to 20)
#    0.750    0.750    3.750    1.500    0.000    1.500 
#   13.500    5.000    0.000    0.000    0.000    0.000 
#    0.000    0.000    0.000    0.000    0.000    0.000 
#
# Total GULP energy -356994.715397 kJ/mol
# GULP energy per Si atom -5578.042428 kJ/mol
# Density = 2.005631 g / cm^3
# Si number density = 20.102058 Si / 1000 Ang^3
#
#
#
# Elastic Constant Matrix: (Units=GPa)
#
#
# Indices 1 2 3 4 5 6 
#
# 1 45.6195 0.7907 -6.5151 0.0000 0.0000 0.0000
# 2 0.7907 52.9075 6.7178 0.0000 0.0000 0.0000
# 3 -6.5151 6.7178 85.6816 0.0000 0.0000 0.0000
# 4 0.0000 0.0000 0.0000 25.4194 0.0000 0.0000
# 5 0.0000 0.0000 0.0000 0.0000 21.5824 0.0000
# 6 0.0000 0.0000 0.0000 0.0000 0.0000 30.9287
#
#
#
# Elastic Compliance Matrix: (Units=1/GPa)
#
#
# Indices 1 2 3 4 5 6 
#
# 1 0.022177 -0.000551 0.001730 0.000000 0.000000 0.000000
# 2 -0.000551 0.019105 -0.001540 0.000000 0.000000 0.000000
# 3 0.001730 -0.001540 0.011923 0.000000 0.000000 0.000000
# 4 0.000000 0.000000 0.000000 0.039340 0.000000 0.000000
# 5 0.000000 0.000000 0.000000 0.000000 0.046334 0.000000
# 6 0.000000 0.000000 0.000000 0.000000 0.000000 0.032332
#
#
# Mechanical properties :
#
#
# Convention : Reuss Voigt Hill
#
# Bulk Modulus (GPa) = 19.05401 20.68837 19.87119
# Shear Modulus (GPa) = 26.39521 27.80045 27.09783
#
# Velocity S-wave (km/s) = 3.62755 3.72286 3.67551
# Velocity P-wave (km/s) = 5.20045 5.36596 5.28386
#
# Compressibility (1/GPa) = 0.05248239
#
# Stress axis : x y z
#
# Youngs Moduli (GPa) = 45.09179 52.34327 83.86901
#
# Poissons Ratio (x) = 0.02884 -0.14505
# Poissons Ratio (y) = 0.02485 0.12914
# Poissons Ratio (z) = -0.07799 0.08060
#
# Static dielectric constant tensor:
#      x y z
#    x 1.767630 0.000000 0.000000 
#    y 0.000000 1.727930 0.000000 
#    z 0.000000 0.000000 1.676960 
# 
# From -- ./inp_files/23497.got.cif
#   From: 2010.05.17/outbox.cif.g08.bks.cpg/sg55_12_cif.got.tgz:23497.got - 2010.06.03 13:27:54.
