data_PCOD9428503
_publ_section_title
;
Structure prediction by ZEFSAII (Michael W. Deem and Ramdas Pophale) SiO2 
 PCOD9428503
Probable space group: P B A M
;
_chemical_formula_sum "Si O2"
_cell_formula_units_Z 32
_cell_length_a 10.524038
_cell_length_b 4.873377
_cell_length_c 22.932286
_cell_angle_alpha 90.000000
_cell_angle_beta 90.000000
_cell_angle_gamma 90.000000
_cell_volume 1176.142020
_symmetry_space_group_name_H-M "P B A M"
_symmetry_group_IT_number 55
_symmetry_cell_setting 'orthorhombic'
loop_
_space_group_symop_operation_xyz
x,y,z
-x,-y,z
1/2+x,1/2-y,-z
1/2-x,1/2+y,-z
-x,-y,-z
x,y,-z
1/2-x,1/2+y,z
1/2+x,1/2-y,z
loop_
_atom_site_type_symbol
_atom_site_label
_atom_site_fract_x
_atom_site_fract_y
_atom_site_fract_z
Si Si1 0.662899 0.692042 0.186737
Si Si2 0.336427 0.694166 0.624472
Si Si3 0.162137 0.328081 0.500000
Si Si4 0.000000 0.500000 0.718895
Si Si5 0.160129 0.682542 0.062591
O O1 0.709467 0.380396 0.188829
O O2 0.581579 0.802114 0.239713
O O3 0.597246 0.751036 0.124199
O O4 0.291502 0.381508 0.626709
O O5 0.399661 0.755935 0.561638
O O6 0.417807 0.803869 0.677419
O O7 0.210271 0.638953 0.500000
O O8 0.285451 0.876032 0.063294
O O9 0.095447 0.732754 0.000000
#
# Coordination Sequence:
#
# PCOD9428503 Si02
#       5
#     8   8   4   4   8
#     4  10  22  38  55  80 112 144 183 227 270 323
#     4  10  22  39  59  84 112 143 183 227 270 322
#     4   8  16  35  58  79 108 140 174 225 274 311
#     4  12  24  37  59  82 112 152 184 218 274 326
#     4   8  14  28  51  74  99 135 175 219 270 315
#
# _framework density 27.207599999999999
#
# number of rings (size 3 to 8) (size 9 to 14) (size 15 to 20)
#    0.000    2.500    0.000    1.500    0.000    4.500 
#    0.000    0.625    0.000    9.000    0.000   17.500 
#    0.000    0.000    0.000    0.000    0.000    0.000 
#
# Total GULP energy -179410.823647 kJ/mol
# GULP energy per Si atom -5606.588239 kJ/mol
# Density = 2.714567 g / cm^3
# Si number density = 27.207600 Si / 1000 Ang^3
#
#
#
# Elastic Constant Matrix: (Units=GPa)
#
#
# Indices 1 2 3 4 5 6 
#
# 1 61.3534 23.9428 53.0048 0.0000 0.0000 0.0000
# 2 23.9428 100.5162 11.7775 0.0000 0.0000 0.0000
# 3 53.0048 11.7775 273.9063 0.0000 0.0000 0.0000
# 4 0.0000 0.0000 0.0000 16.6705 0.0000 0.0000
# 5 0.0000 0.0000 0.0000 0.0000 -274.4548 0.0000
# 6 0.0000 0.0000 0.0000 0.0000 0.0000 40.7311
#
#
#
# Elastic Compliance Matrix: (Units=1/GPa)
#
#
# Indices 1 2 3 4 5 6 
#
# 1 0.021550 -0.004668 -0.003970 0.000000 0.000000 0.000000
# 2 -0.004668 0.011010 0.000430 0.000000 0.000000 0.000000
# 3 -0.003970 0.000430 0.004401 0.000000 0.000000 0.000000
# 4 0.000000 0.000000 0.000000 0.059986 0.000000 0.000000
# 5 0.000000 0.000000 0.000000 0.000000 -0.003644 0.000000
# 6 0.000000 0.000000 0.000000 0.000000 0.000000 0.024551
#
#
# Mechanical properties :
#
#
# Convention : Reuss Voigt Hill
#
# Bulk Modulus (GPa) = 48.67255 68.13622 58.40439
# Shear Modulus (GPa) = 35.43119 -20.27393 7.57863
#
# Velocity S-wave (km/s) = 3.61259 -2.73272 1.67079
# Velocity P-wave (km/s) = 5.94384 3.89107 5.02343
#
# Compressibility (1/GPa) = 0.02054546
#
# Stress axis : x y z
#
# Youngs Moduli (GPa) = 46.40351 90.82482 227.24383
#
# Poissons Ratio (x) = 0.42398 0.90205
# Poissons Ratio (y) = 0.21662 -0.09770
# Poissons Ratio (z) = 0.18420 -0.03905
#
# Static dielectric constant tensor:
#      x y z
#    x 2.078550 0.000000 0.000000 
#    y 0.000000 2.003820 0.000000 
#    z 0.000000 0.000000 2.141910 
# 
# From -- ./inp_files/23217.got.cif
#   From: 2010.05.17/outbox.cif.g08.bks.cpg/sg55_12_cif.got.tgz:23217.got - 2010.06.03 13:27:54.
