data_PCOD9428738
_publ_section_title
;
Structure prediction by ZEFSAII (Michael W. Deem and Ramdas Pophale) SiO2 
 PCOD9428738
Probable space group: P B A M
;
_chemical_formula_sum "Si O2"
_cell_formula_units_Z 34
_cell_length_a 9.593382
_cell_length_b 19.474644
_cell_length_c 7.441754
_cell_angle_alpha 90.000000
_cell_angle_beta 90.000000
_cell_angle_gamma 90.000000
_cell_volume 1390.325778
_symmetry_space_group_name_H-M "P B A M"
_symmetry_group_IT_number 55
_symmetry_cell_setting 'orthorhombic'
loop_
_space_group_symop_operation_xyz
x,y,z
-x,-y,z
1/2+x,1/2-y,-z
1/2-x,1/2+y,-z
-x,-y,-z
x,y,-z
1/2-x,1/2+y,z
1/2+x,1/2-y,z
loop_
_atom_site_type_symbol
_atom_site_label
_atom_site_fract_x
_atom_site_fract_y
_atom_site_fract_z
Si Si1 0.402678 0.911063 0.209660
Si Si2 0.347257 0.503894 0.208103
Si Si3 0.198846 0.160620 0.281902
Si Si4 0.514262 0.769745 0.284558
Si Si5 0.500000 0.000000 0.500000
O O1 0.405397 0.830025 0.234743
O O2 0.265859 0.950619 0.283201
O O3 0.517879 0.941480 0.341993
O O4 0.424941 0.927002 0.000000
O O5 0.500000 0.500000 0.292023
O O6 0.301814 0.582722 0.216318
O O7 0.359259 0.482700 0.000000
O O8 0.199983 0.159303 0.500000
O O9 0.334868 0.203791 0.220377
O O10 0.056694 0.199233 0.222930
O O11 0.523936 0.765692 0.500000
#
# Coordination Sequence:
#
# PCOD9428738 Si02
#       5
#     8   8   8   8   2
#     4  11  24  41  68  99 132 177 224 278 341 401
#     4  10  24  44  65  96 136 175 226 282 339 404
#     4  10  23  40  65  97 131 176 222 275 335 404
#     4  10  22  42  65  97 137 174 225 279 337 404
#     4  12  22  40  66  94 136 168 220 280 330 398
#
# _framework density 24.454702999999999
#
# number of rings (size 3 to 8) (size 9 to 14) (size 15 to 20)
#    0.000    1.647    1.176    1.765    8.235    4.235 
#    0.000    0.000    0.000    0.000    0.000    0.000 
#    0.000    0.000    0.000    0.000    0.000    0.000 
#
# Total GULP energy -189612.746918 kJ/mol
# GULP energy per Si atom -5576.845498 kJ/mol
# Density = 2.439904 g / cm^3
# Si number density = 24.454703 Si / 1000 Ang^3
#
#
#
# Elastic Constant Matrix: (Units=GPa)
#
#
# Indices 1 2 3 4 5 6 
#
# 1 119.2986 7.7721 -2.2685 0.0000 0.0000 0.0000
# 2 7.7721 35.2504 -11.8164 0.0000 0.0000 0.0000
# 3 -2.2685 -11.8164 114.8462 0.0000 0.0000 0.0000
# 4 0.0000 0.0000 0.0000 19.3292 0.0000 0.0000
# 5 0.0000 0.0000 0.0000 0.0000 -12.1602 0.0000
# 6 0.0000 0.0000 0.0000 0.0000 0.0000 46.4612
#
#
#
# Elastic Compliance Matrix: (Units=1/GPa)
#
#
# Indices 1 2 3 4 5 6 
#
# 1 0.008505 -0.001884 -0.000026 0.000000 0.000000 0.000000
# 2 -0.001884 0.029799 0.003029 0.000000 0.000000 0.000000
# 3 -0.000026 0.003029 0.009018 0.000000 0.000000 0.000000
# 4 0.000000 0.000000 0.000000 0.051735 0.000000 0.000000
# 5 0.000000 0.000000 0.000000 0.000000 -0.082235 0.000000
# 6 0.000000 0.000000 0.000000 0.000000 0.000000 0.021523
#
#
# Mechanical properties :
#
#
# Convention : Reuss Voigt Hill
#
# Bulk Modulus (GPa) = 20.17740 28.52997 24.35368
# Shear Modulus (GPa) = 95.00812 29.10656 62.05734
#
# Velocity S-wave (km/s) = 6.23979 3.45370 5.04297
# Velocity P-wave (km/s) = 7.75772 5.25318 6.62488
#
# Compressibility (1/GPa) = 0.04956040
#
# Stress axis : x y z
#
# Youngs Moduli (GPa) = 117.58392 33.55809 110.88426
#
# Poissons Ratio (x) = 0.06322 0.00286
# Poissons Ratio (y) = 0.22150 -0.33584
# Poissons Ratio (z) = 0.00304 -0.10164
#
# Static dielectric constant tensor:
#      x y z
#    x 2.163250 0.000000 0.000000 
#    y 0.000000 1.976790 0.000000 
#    z 0.000000 0.000000 1.947410 
# 
# From -- ./inp_files/2119.got.cif
#   From: 2010.05.17/outbox.cif.g08.bks.cpg/sg55_2_cif.got.tgz:2119.got - 2010.06.03 13:27:54.
