data_PCOD9428197
_publ_section_title
;
Structure prediction by ZEFSAII (Michael W. Deem and Ramdas Pophale) SiO2 
 PCOD9428197
Probable space group: P B A M
;
_chemical_formula_sum "Si O2"
_cell_formula_units_Z 64
_cell_length_a 11.844406
_cell_length_b 30.396352
_cell_length_c 7.714350
_cell_angle_alpha 90.000000
_cell_angle_beta 90.000000
_cell_angle_gamma 90.000000
_cell_volume 2777.372235
_symmetry_space_group_name_H-M "P B A M"
_symmetry_group_IT_number 55
_symmetry_cell_setting 'orthorhombic'
loop_
_space_group_symop_operation_xyz
x,y,z
-x,-y,z
1/2+x,1/2-y,-z
1/2-x,1/2+y,-z
-x,-y,-z
x,y,-z
1/2-x,1/2+y,z
1/2+x,1/2-y,z
loop_
_atom_site_type_symbol
_atom_site_label
_atom_site_fract_x
_atom_site_fract_y
_atom_site_fract_z
Si Si1 0.813352 0.835142 0.199306
Si Si2 0.803952 0.933750 0.788029
Si Si3 0.827590 0.155397 0.208546
Si Si4 0.714285 0.021047 0.792457
Si Si5 0.491025 0.271903 0.210648
Si Si6 0.427067 0.178314 0.296583
Si Si7 0.443523 0.433016 0.790028
Si Si8 0.594762 0.107590 0.702218
O O1 0.794340 0.883837 0.275742
O O2 0.906330 0.802528 0.273632
O O3 0.691058 0.813477 0.204139
O O4 0.850119 0.842515 0.000000
O O5 0.931923 0.947779 0.738670
O O6 0.714610 0.970643 0.729246
O O7 0.798041 0.932579 0.000000
O O8 0.708091 0.136757 0.270672
O O9 0.876414 0.202331 0.264478
O O10 0.920192 0.117942 0.254479
O O11 0.820152 0.155961 0.000000
O O12 0.619902 0.057732 0.758644
O O13 0.833183 0.041381 0.726472
O O14 0.721519 0.019075 0.000000
O O15 0.499178 0.222494 0.276102
O O16 0.493201 0.270051 0.000000
O O17 0.404455 0.171850 0.500000
O O18 0.492089 0.135869 0.221154
O O19 0.441747 0.436396 0.000000
O O20 0.573701 0.105246 0.500000
#
# Coordination Sequence:
#
# PCOD9428197 Si02
#       8
#     8   8   8   8   8   8   8   8
#     4  10  21  39  63  90 118 146 186 242 294 343
#     4   9  15  28  53  86 118 145 181 233 291 342
#     4   9  17  32  57  86 112 141 178 225 281 341
#     4   9  17  29  54  86 113 148 190 233 284 342
#     4  10  21  38  62  91 115 140 182 236 293 345
#     4  11  26  43  58  78 112 157 199 236 282 342
#     4   8  12  23  46  80 116 143 170 212 271 337
#     4  10  22  39  55  76 112 156 197 237 277 327
#
# _framework density 23.043365000000001
#
# number of rings (size 3 to 8) (size 9 to 14) (size 15 to 20)
#    0.000    2.500    1.250    1.875    1.750    4.500 
#    0.000    1.250    0.000    9.750    0.000    0.000 
#    0.000    0.000    0.000    0.000    0.000    0.000 
#
# Total GULP energy -357065.100395 kJ/mol
# GULP energy per Si atom -5579.142194 kJ/mol
# Density = 2.299092 g / cm^3
# Si number density = 23.043365 Si / 1000 Ang^3
#
#
#
# Elastic Constant Matrix: (Units=GPa)
#
#
# Indices 1 2 3 4 5 6 
#
# 1 28.6580 -3.1769 -6.0369 0.0000 0.0000 0.0000
# 2 -3.1769 77.9363 3.4505 0.0000 0.0000 0.0000
# 3 -6.0369 3.4505 37.5929 0.0000 0.0000 0.0000
# 4 0.0000 0.0000 0.0000 -4.1877 0.0000 0.0000
# 5 0.0000 0.0000 0.0000 0.0000 12.9755 0.0000
# 6 0.0000 0.0000 0.0000 0.0000 0.0000 16.3182
#
#
#
# Elastic Compliance Matrix: (Units=1/GPa)
#
#
# Indices 1 2 3 4 5 6 
#
# 1 0.036232 0.001224 0.005706 0.000000 0.000000 0.000000
# 2 0.001224 0.012925 -0.000990 0.000000 0.000000 0.000000
# 3 0.005706 -0.000990 0.027608 0.000000 0.000000 0.000000
# 4 0.000000 0.000000 0.000000 -0.238794 0.000000 0.000000
# 5 0.000000 0.000000 0.000000 0.000000 0.077068 0.000000
# 6 0.000000 0.000000 0.000000 0.000000 0.000000 0.061281
#
#
# Mechanical properties :
#
#
# Convention : Reuss Voigt Hill
#
# Bulk Modulus (GPa) = 11.28085 14.74005 13.01045
# Shear Modulus (GPa) = -831.59032 15.01789 -408.28621
#
# Velocity S-wave (km/s) = -19.01747 2.55566 -13.32540
# Velocity P-wave (km/s) = 21.84748 3.88832 15.20187
#
# Compressibility (1/GPa) = 0.08864580
#
# Stress axis : x y z
#
# Youngs Moduli (GPa) = 27.59996 77.37113 36.22145
#
# Poissons Ratio (x) = -0.09472 -0.20668
# Poissons Ratio (y) = -0.03379 0.03585
# Poissons Ratio (z) = -0.15749 0.07657
#
# Static dielectric constant tensor:
#      x y z
#    x 1.861330 0.000000 0.000000 
#    y 0.000000 1.931350 0.000000 
#    z 0.000000 0.000000 1.873830 
# 
# From -- ./inp_files/4571.got.cif
#   From: 2010.05.17/outbox.cif.g08.bks.cpg/sg55_3_cif.got.tgz:4571.got - 2010.06.03 13:27:54.
