data_PCOD9428735
_publ_section_title
;
Structure prediction by ZEFSAII (Michael W. Deem and Ramdas Pophale) SiO2 
 PCOD9428735
Probable space group: P B A M
;
_chemical_formula_sum "Si O2"
_cell_formula_units_Z 48
_cell_length_a 19.065993
_cell_length_b 15.746064
_cell_length_c 7.874223
_cell_angle_alpha 90.000000
_cell_angle_beta 90.000000
_cell_angle_gamma 90.000000
_cell_volume 2363.954708
_symmetry_space_group_name_H-M "P B A M"
_symmetry_group_IT_number 55
_symmetry_cell_setting 'orthorhombic'
loop_
_space_group_symop_operation_xyz
x,y,z
-x,-y,z
1/2+x,1/2-y,-z
1/2-x,1/2+y,-z
-x,-y,-z
x,y,-z
1/2-x,1/2+y,z
1/2+x,1/2-y,z
loop_
_atom_site_type_symbol
_atom_site_label
_atom_site_fract_x
_atom_site_fract_y
_atom_site_fract_z
Si Si1 0.774722 0.774784 0.203987
Si Si2 0.434545 0.752682 0.200395
Si Si3 0.275258 0.036799 0.195473
Si Si4 0.816616 0.114821 0.693908
Si Si5 0.472466 0.410971 0.200391
Si Si6 0.881735 0.484542 0.500000
Si Si7 0.007079 0.362848 0.500000
O O1 0.853439 0.749753 0.256517
O O2 0.755584 0.871487 0.250341
O O3 0.719972 0.704279 0.264812
O O4 0.774877 0.772725 0.000000
O O5 0.467348 0.659078 0.214629
O O6 0.477973 0.810278 0.329280
O O7 0.438775 0.777816 0.000000
O O8 0.334707 0.012840 0.330849
O O9 0.217182 0.962506 0.200998
O O10 0.300637 0.043927 0.000000
O O11 0.800994 0.093690 0.500000
O O12 0.899717 0.118728 0.719817
O O13 0.500000 0.500000 0.271109
O O14 0.457507 0.422788 0.000000
O O15 0.936280 0.561577 0.500000
O O16 0.929105 0.400092 0.500000
#
# Coordination Sequence:
#
# PCOD9428735 Si02
#       7
#     8   8   8   8   8   4   4
#     4  10  23  42  67  96 128 173 222 268 327 392
#     4  10  23  42  67  95 129 174 217 264 328 393
#     4  11  24  44  69  96 133 171 219 278 330 390
#     4  12  25  39  65 101 134 172 218 271 329 398
#     4  10  22  42  65  92 132 173 215 267 330 399
#     4  11  26  45  63  95 126 172 222 274 335 390
#     4  11  26  43  64  91 131 168 223 276 324 389
#
# _framework density 20.304956000000001
#
# number of rings (size 3 to 8) (size 9 to 14) (size 15 to 20)
#    0.000    1.333    0.833    3.500    5.833    5.667 
#    3.000    1.667    0.000    0.000    0.000    0.000 
#    0.000    0.000    0.000    0.000    0.000    0.000 
#
# Total GULP energy -268333.655138 kJ/mol
# GULP energy per Si atom -5590.284482 kJ/mol
# Density = 2.025874 g / cm^3
# Si number density = 20.304956 Si / 1000 Ang^3
#
#
#
# Elastic Constant Matrix: (Units=GPa)
#
#
# Indices 1 2 3 4 5 6 
#
# 1 70.5735 3.3658 -4.7681 0.0000 0.0000 0.0000
# 2 3.3658 72.9361 8.3858 0.0000 0.0000 0.0000
# 3 -4.7681 8.3858 44.5083 0.0000 0.0000 0.0000
# 4 0.0000 0.0000 0.0000 28.6976 0.0000 0.0000
# 5 0.0000 0.0000 0.0000 0.0000 26.2836 0.0000
# 6 0.0000 0.0000 0.0000 0.0000 0.0000 17.0605
#
#
#
# Elastic Compliance Matrix: (Units=1/GPa)
#
#
# Indices 1 2 3 4 5 6 
#
# 1 0.014325 -0.000856 0.001696 0.000000 0.000000 0.000000
# 2 -0.000856 0.014065 -0.002742 0.000000 0.000000 0.000000
# 3 0.001696 -0.002742 0.023166 0.000000 0.000000 0.000000
# 4 0.000000 0.000000 0.000000 0.034846 0.000000 0.000000
# 5 0.000000 0.000000 0.000000 0.000000 0.038047 0.000000
# 6 0.000000 0.000000 0.000000 0.000000 0.000000 0.058615
#
#
# Mechanical properties :
#
#
# Convention : Reuss Voigt Hill
#
# Bulk Modulus (GPa) = 20.94130 22.44278 21.69204
# Shear Modulus (GPa) = 24.65662 26.47730 25.56696
#
# Velocity S-wave (km/s) = 3.48848 3.61499 3.55230
# Velocity P-wave (km/s) = 5.15381 5.33864 5.24704
#
# Compressibility (1/GPa) = 0.04775253
#
# Stress axis : x y z
#
# Youngs Moduli (GPa) = 69.80792 71.09664 43.16676
#
# Poissons Ratio (x) = 0.06086 -0.07321
# Poissons Ratio (y) = 0.05976 0.11835
# Poissons Ratio (z) = -0.11839 0.19493
#
# Static dielectric constant tensor:
#      x y z
#    x 1.689200 0.000000 0.000000 
#    y 0.000000 1.729730 0.000000 
#    z 0.000000 0.000000 1.709650 
# 
# From -- ./inp_files/5723.got.cif
#   From: 2010.05.17/outbox.cif.g08.bks.cpg/sg55_3_cif.got.tgz:5723.got - 2010.06.03 13:27:54.
