data_PCOD9428094
_publ_section_title
;
Structure prediction by ZEFSAII (Michael W. Deem and Ramdas Pophale) SiO2 
 PCOD9428094
Probable space group: P B A M
;
_chemical_formula_sum "Si O2"
_cell_formula_units_Z 36
_cell_length_a 31.793407
_cell_length_b 5.171753
_cell_length_c 10.807456
_cell_angle_alpha 90.000000
_cell_angle_beta 90.000000
_cell_angle_gamma 90.000000
_cell_volume 1777.044571
_symmetry_space_group_name_H-M "P B A M"
_symmetry_group_IT_number 55
_symmetry_cell_setting 'orthorhombic'
loop_
_space_group_symop_operation_xyz
x,y,z
-x,-y,z
1/2+x,1/2-y,-z
1/2-x,1/2+y,-z
-x,-y,-z
x,y,-z
1/2-x,1/2+y,z
1/2+x,1/2-y,z
loop_
_atom_site_type_symbol
_atom_site_label
_atom_site_fract_x
_atom_site_fract_y
_atom_site_fract_z
Si Si1 0.097724 0.680429 0.855063
Si Si2 0.725990 0.397877 0.646839
Si Si3 0.847553 0.820063 0.803150
Si Si4 0.722805 0.182699 0.000000
Si Si5 0.529681 0.749568 0.360008
O O1 0.119130 0.410094 0.815657
O O2 0.062031 0.741393 0.753683
O O3 0.131288 0.913227 0.844833
O O4 0.084158 0.663201 0.000000
O O5 0.731194 0.401239 0.500000
O O6 0.743818 0.669174 0.695613
O O7 0.676872 0.356451 0.674688
O O8 0.808189 0.741735 0.887348
O O9 0.759959 0.392811 0.000000
O O10 0.500000 0.500000 0.349354
O O11 0.548953 0.745135 0.500000
O O12 0.500000 0.000000 0.353213
#
# Coordination Sequence:
#
# PCOD9428094 Si02
#       5
#     8   8   8   4   8
#     4  12  24  41  62  91 131 161 197 254 310 364
#     4  10  21  38  58  82 114 156 208 260 305 361
#     4  12  23  39  58  87 124 159 204 256 306 363
#     4  12  22  36  58  80 114 164 208 248 298 344
#     4  10  23  44  69  96 124 159 205 250 301 377
#
# _framework density 20.258355999999999
#
# number of rings (size 3 to 8) (size 9 to 14) (size 15 to 20)
#    0.000    0.889    2.222    5.333    0.000    2.667 
#    0.000    0.000    0.000    0.000    0.000    0.000 
#    0.000    0.000    0.000    0.000    0.000    0.000 
#
# Total GULP energy -201082.140474 kJ/mol
# GULP energy per Si atom -5585.615013 kJ/mol
# Density = 2.021225 g / cm^3
# Si number density = 20.258356 Si / 1000 Ang^3
#
#
#
# Elastic Constant Matrix: (Units=GPa)
#
#
# Indices 1 2 3 4 5 6 
#
# 1 55.1492 -11.1521 47.4427 0.0000 0.0000 0.0000
# 2 -11.1521 48.3792 -3.6194 0.0000 0.0000 0.0000
# 3 47.4427 -3.6194 78.6808 0.0000 0.0000 0.0000
# 4 0.0000 0.0000 0.0000 18.8535 0.0000 0.0000
# 5 0.0000 0.0000 0.0000 0.0000 30.7539 0.0000
# 6 0.0000 0.0000 0.0000 0.0000 0.0000 34.3537
#
#
#
# Elastic Compliance Matrix: (Units=1/GPa)
#
#
# Indices 1 2 3 4 5 6 
#
# 1 0.040203 0.007480 -0.023898 0.000000 0.000000 0.000000
# 2 0.007480 0.022133 -0.003492 0.000000 0.000000 0.000000
# 3 -0.023898 -0.003492 0.026959 0.000000 0.000000 0.000000
# 4 0.000000 0.000000 0.000000 0.053041 0.000000 0.000000
# 5 0.000000 0.000000 0.000000 0.000000 0.032516 0.000000
# 6 0.000000 0.000000 0.000000 0.000000 0.000000 0.029109
#
#
# Mechanical properties :
#
#
# Convention : Reuss Voigt Hill
#
# Bulk Modulus (GPa) = 20.21217 27.50573 23.85895
# Shear Modulus (GPa) = 19.21066 26.76142 22.98604
#
# Velocity S-wave (km/s) = 3.08276 3.63851 3.37210
# Velocity P-wave (km/s) = 4.76131 5.59094 5.19272
#
# Compressibility (1/GPa) = 0.04947514
#
# Stress axis : x y z
#
# Youngs Moduli (GPa) = 24.87357 45.18150 37.09386
#
# Poissons Ratio (x) = -0.33794 0.88645
# Poissons Ratio (y) = -0.18604 0.12953
# Poissons Ratio (z) = 0.59442 0.15777
#
# Static dielectric constant tensor:
#      x y z
#    x 1.673740 0.000000 0.000000 
#    y 0.000000 1.700850 0.000000 
#    z 0.000000 0.000000 1.866210 
# 
# From -- ./inp_files/15526.got.cif
#   From: 2010.05.17/outbox.cif.g08.bks.cpg/sg55_8_cif.got.tgz:15526.got - 2010.06.03 13:27:54.
