data_PCOD9428389
_publ_section_title
;
Structure prediction by ZEFSAII (Michael W. Deem and Ramdas Pophale) SiO2 
 PCOD9428389
Probable space group: P B A M
;
_chemical_formula_sum "Si O2"
_cell_formula_units_Z 48
_cell_length_a 15.245936
_cell_length_b 18.925898
_cell_length_c 8.476922
_cell_angle_alpha 90.000000
_cell_angle_beta 90.000000
_cell_angle_gamma 90.000000
_cell_volume 2445.956756
_symmetry_space_group_name_H-M "P B A M"
_symmetry_group_IT_number 55
_symmetry_cell_setting 'orthorhombic'
loop_
_space_group_symop_operation_xyz
x,y,z
-x,-y,z
1/2+x,1/2-y,-z
1/2-x,1/2+y,-z
-x,-y,-z
x,y,-z
1/2-x,1/2+y,z
1/2+x,1/2-y,z
loop_
_atom_site_type_symbol
_atom_site_label
_atom_site_fract_x
_atom_site_fract_y
_atom_site_fract_z
Si Si1 0.347561 0.674470 0.187426
Si Si2 0.741666 0.583068 0.187474
Si Si3 0.695183 0.734871 0.315159
Si Si4 0.506405 0.779523 0.809380
Si Si5 0.902579 0.977164 0.312320
Si Si6 0.559003 0.065622 0.807630
O O1 0.260560 0.701412 0.273409
O O2 0.427621 0.726397 0.232117
O O3 0.372941 0.595077 0.230651
O O4 0.333718 0.680734 0.000000
O O5 0.727574 0.665653 0.222143
O O6 0.666715 0.538038 0.271566
O O7 0.839405 0.561389 0.241014
O O8 0.735307 0.570934 0.000000
O O9 0.698502 0.719203 0.500000
O O10 0.597066 0.754432 0.264731
O O11 0.480758 0.858861 0.759761
O O12 0.515306 0.778750 0.000000
O O13 0.905189 0.965721 0.500000
O O14 0.000000 0.000000 0.259864
O O15 0.500000 0.000000 0.754070
O O16 0.559104 0.065205 0.000000
#
# Coordination Sequence:
#
# PCOD9428389 Si02
#       6
#     8   8   8   8   8   8
#     4  11  23  42  66  93 124 166 218 266 311 373
#     4  11  22  41  67  95 125 167 216 259 312 379
#     4  12  25  40  62  93 130 168 206 260 325 379
#     4  10  21  40  66  93 124 161 212 266 312 375
#     4  11  25  43  63  93 132 169 206 259 327 385
#     4   9  19  37  62  93 124 158 204 261 314 365
#
# _framework density 19.624222
#
# number of rings (size 3 to 8) (size 9 to 14) (size 15 to 20)
#    0.000    1.333    1.667    4.000    2.333    5.333 
#    0.000    0.000    0.000    2.500    0.000    0.000 
#    0.000    0.000    0.000    0.000    0.000    0.000 
#
# Total GULP energy -268465.096973 kJ/mol
# GULP energy per Si atom -5593.022854 kJ/mol
# Density = 1.957956 g / cm^3
# Si number density = 19.624222 Si / 1000 Ang^3
#
#
#
# Elastic Constant Matrix: (Units=GPa)
#
#
# Indices 1 2 3 4 5 6 
#
# 1 102.4148 1.5772 8.7305 0.0000 0.0000 0.0000
# 2 1.5772 62.6757 -13.8422 0.0000 0.0000 0.0000
# 3 8.7305 -13.8422 21.7563 0.0000 0.0000 0.0000
# 4 0.0000 0.0000 0.0000 21.9817 0.0000 0.0000
# 5 0.0000 0.0000 0.0000 0.0000 6.6396 0.0000
# 6 0.0000 0.0000 0.0000 0.0000 0.0000 39.6312
#
#
#
# Elastic Compliance Matrix: (Units=1/GPa)
#
#
# Indices 1 2 3 4 5 6 
#
# 1 0.010208 -0.001351 -0.004956 0.000000 0.000000 0.000000
# 2 -0.001351 0.018743 0.012467 0.000000 0.000000 0.000000
# 3 -0.004956 0.012467 0.055884 0.000000 0.000000 0.000000
# 4 0.000000 0.000000 0.000000 0.045492 0.000000 0.000000
# 5 0.000000 0.000000 0.000000 0.000000 0.150612 0.000000
# 6 0.000000 0.000000 0.000000 0.000000 0.000000 0.025233
#
#
# Mechanical properties :
#
#
# Convention : Reuss Voigt Hill
#
# Bulk Modulus (GPa) = 10.29296 19.97531 15.13413
# Shear Modulus (GPa) = 15.32628 26.34257 20.83442
#
# Velocity S-wave (km/s) = 2.79765 3.66778 3.26186
# Velocity P-wave (km/s) = 3.96134 5.30451 4.68135
#
# Compressibility (1/GPa) = 0.09715380
#
# Stress axis : x y z
#
# Youngs Moduli (GPa) = 97.96716 53.35449 17.89410
#
# Poissons Ratio (x) = 0.07210 0.08868
# Poissons Ratio (y) = 0.13239 -0.22309
# Poissons Ratio (z) = 0.48552 -0.66517
#
# Static dielectric constant tensor:
#      x y z
#    x 1.654570 0.000000 0.000000 
#    y 0.000000 1.651480 0.000000 
#    z 0.000000 0.000000 1.666870 
# 
# From -- ./inp_files/5654.got.cif
#   From: 2010.05.17/outbox.cif.g08.bks.cpg/sg55_3_cif.got.tgz:5654.got - 2010.06.03 13:27:54.
