data_PCOD9428668
_publ_section_title
;
Structure prediction by ZEFSAII (Michael W. Deem and Ramdas Pophale) SiO2 
 PCOD9428668
Probable space group: P B A M
;
_chemical_formula_sum "Si O2"
_cell_formula_units_Z 64
_cell_length_a 23.334213
_cell_length_b 9.000197
_cell_length_c 13.980364
_cell_angle_alpha 90.000000
_cell_angle_beta 90.000000
_cell_angle_gamma 90.000000
_cell_volume 2936.051388
_symmetry_space_group_name_H-M "P B A M"
_symmetry_group_IT_number 55
_symmetry_cell_setting 'orthorhombic'
loop_
_space_group_symop_operation_xyz
x,y,z
-x,-y,z
1/2+x,1/2-y,-z
1/2-x,1/2+y,-z
-x,-y,-z
x,y,-z
1/2-x,1/2+y,z
1/2+x,1/2-y,z
loop_
_atom_site_type_symbol
_atom_site_label
_atom_site_fract_x
_atom_site_fract_y
_atom_site_fract_z
Si Si1 0.562086 0.431702 0.114747
Si Si2 0.442302 0.916561 0.114422
Si Si3 0.163342 0.020622 0.254530
Si Si4 0.973687 0.342264 0.615304
Si Si5 0.753492 0.223359 0.801110
Si Si6 0.580711 0.313942 0.610298
Si Si7 0.823540 0.474462 0.819246
Si Si8 0.358637 0.013502 0.610955
O O1 0.500000 0.500000 0.140741
O O2 0.560000 0.256558 0.139994
O O3 0.618767 0.495721 0.166016
O O4 0.567787 0.446625 0.000000
O O5 0.500000 0.000000 0.141828
O O6 0.388887 0.998576 0.159993
O O7 0.437366 0.925198 0.000000
O O8 0.206821 0.160752 0.241055
O O9 0.120178 0.067286 0.338008
O O10 0.204002 0.877028 0.264262
O O11 0.979669 0.339991 0.500000
O O12 0.906375 0.359057 0.631435
O O13 0.000000 0.500000 0.646929
O O14 0.016165 0.213272 0.649701
O O15 0.797587 0.324347 0.858508
O O16 0.714941 0.107692 0.858187
O O17 0.576396 0.356572 0.500000
O O18 0.611094 0.150024 0.614859
O O19 0.817428 0.478416 0.702515
O O20 0.338224 0.030264 0.500000
#
# Coordination Sequence:
#
# PCOD9428668 Si02
#       8
#     8   8   8   8   8   8   8   8
#     4  10  22  41  66  95 125 155 190 239 303 367
#     4  10  22  40  65  97 125 151 192 243 299 364
#     4  11  21  43  60  85 121 161 200 254 297 357
#     4   7  12  23  43  76 111 139 184 240 287 352
#     4  10  24  40  61  84 119 160 214 250 289 353
#     4   9  16  30  55  85 117 156 197 246 304 357
#     4  11  21  42  60  85 121 162 200 257 300 351
#     4   9  16  29  53  85 116 152 201 247 299 360
#
# _framework density 21.797982000000001
#
# number of rings (size 3 to 8) (size 9 to 14) (size 15 to 20)
#    0.000    2.375    2.500    1.500    1.750    2.500 
#    0.000    8.125    0.000    0.375    0.000    0.000 
#    0.000    0.000    0.000    0.000    0.000    0.000 
#
# Total GULP energy -356790.105744 kJ/mol
# GULP energy per Si atom -5574.845402 kJ/mol
# Density = 2.174837 g / cm^3
# Si number density = 21.797982 Si / 1000 Ang^3
#
#
#
# Elastic Constant Matrix: (Units=GPa)
#
#
# Indices 1 2 3 4 5 6 
#
# 1 139.2759 44.6529 35.2260 0.0000 0.0000 0.0000
# 2 44.6529 63.4854 2.1503 0.0000 0.0000 0.0000
# 3 35.2260 2.1503 64.0374 0.0000 0.0000 0.0000
# 4 0.0000 0.0000 0.0000 10.5404 0.0000 0.0000
# 5 0.0000 0.0000 0.0000 0.0000 1515.7850 0.0000
# 6 0.0000 0.0000 0.0000 0.0000 0.0000 49.8704
#
#
#
# Elastic Compliance Matrix: (Units=1/GPa)
#
#
# Indices 1 2 3 4 5 6 
#
# 1 0.011099 -0.007608 -0.005850 0.000000 0.000000 0.000000
# 2 -0.007608 0.020985 0.003481 0.000000 0.000000 0.000000
# 3 -0.005850 0.003481 0.018717 0.000000 0.000000 0.000000
# 4 0.000000 0.000000 0.000000 0.094873 0.000000 0.000000
# 5 0.000000 0.000000 0.000000 0.000000 0.000660 0.000000
# 6 0.000000 0.000000 0.000000 0.000000 0.000000 0.020052
#
#
# Mechanical properties :
#
#
# Convention : Reuss Voigt Hill
#
# Bulk Modulus (GPa) = 32.41941 47.87300 40.14621
# Shear Modulus (GPa) = 25.42946 327.55713 176.49329
#
# Velocity S-wave (km/s) = 3.41925 12.27174 9.00797
# Velocity P-wave (km/s) = 5.52208 14.92662 11.25383
#
# Compressibility (1/GPa) = 0.03084571
#
# Stress axis : x y z
#
# Youngs Moduli (GPa) = 90.09967 47.65288 53.42765
#
# Poissons Ratio (x) = 0.36256 0.31254
# Poissons Ratio (y) = 0.68550 -0.18596
# Poissons Ratio (z) = 0.52707 -0.16586
#
# Static dielectric constant tensor:
#      x y z
#    x 1.800480 0.000000 0.000000 
#    y 0.000000 1.840000 0.000000 
#    z 0.000000 0.000000 1.819400 
# 
# From -- ./inp_files/19990.got.cif
#   From: 2010.05.17/outbox.cif.g08.bks.cpg/sg55_10_cif.got.tgz:19990.got - 2010.06.03 13:27:54.
