data_PCOD9428157
_publ_section_title
;
Structure prediction by ZEFSAII (Michael W. Deem and Ramdas Pophale) SiO2 
 PCOD9428157
Probable space group: P B A M
;
_chemical_formula_sum "Si O2"
_cell_formula_units_Z 56
_cell_length_a 28.702815
_cell_length_b 5.114466
_cell_length_c 16.225649
_cell_angle_alpha 90.000000
_cell_angle_beta 90.000000
_cell_angle_gamma 90.000000
_cell_volume 2381.918319
_symmetry_space_group_name_H-M "P B A M"
_symmetry_group_IT_number 55
_symmetry_cell_setting 'orthorhombic'
loop_
_space_group_symop_operation_xyz
x,y,z
-x,-y,z
1/2+x,1/2-y,-z
1/2-x,1/2+y,-z
-x,-y,-z
x,y,-z
1/2-x,1/2+y,z
1/2+x,1/2-y,z
loop_
_atom_site_type_symbol
_atom_site_label
_atom_site_fract_x
_atom_site_fract_y
_atom_site_fract_z
Si Si1 0.945250 0.431392 0.593457
Si Si2 0.032557 0.750673 0.087362
Si Si3 0.906167 0.146613 0.244838
Si Si4 0.219144 0.191331 0.907152
Si Si5 0.642918 0.283943 0.592228
Si Si6 0.778930 0.155105 0.401369
Si Si7 0.651249 0.131275 0.763618
O O1 0.939695 0.317263 0.500000
O O2 0.928257 0.245380 0.668292
O O3 0.911070 0.687279 0.593791
O O4 0.000000 0.500000 0.603931
O O5 0.059791 0.785524 0.170878
O O6 0.000000 0.500000 0.092312
O O7 0.060008 0.733162 0.000000
O O8 0.000000 0.000000 0.081976
O O9 0.863018 0.334324 0.222422
O O10 0.891141 0.844407 0.239623
O O11 0.261548 0.398066 0.900989
O O12 0.185224 0.264480 0.833050
O O13 0.198903 0.225402 0.000000
O O14 0.658995 0.211789 0.500000
O O15 0.665966 0.571463 0.607983
O O16 0.665112 0.132738 0.668124
O O17 0.774611 0.176919 0.500000
O O18 0.749098 0.906501 0.370204
#
# Coordination Sequence:
#
# PCOD9428157 Si02
#       7
#     8   8   8   8   8   8   8
#     4   9  19  38  63  89 121 168 222 272 325 383
#     4  10  21  38  61  88 118 154 193 238 302 372
#     4  11  23  39  60  89 124 159 203 261 315 371
#     4  10  22  42  67  94 127 166 207 255 311 379
#     4   9  20  38  58  86 124 161 207 266 318 371
#     4   9  18  32  52  78 107 143 184 229 292 361
#     4  11  24  39  61  91 121 161 206 252 314 376
#
# _framework density 23.510460999999999
#
# number of rings (size 3 to 8) (size 9 to 14) (size 15 to 20)
#    0.000    2.143    0.000    2.143    0.000    6.286 
#    0.000    4.286    0.000    8.143    0.000    0.000 
#    0.000    0.000    0.000    0.000    0.000    0.000 
#
# Total GULP energy -312260.905297 kJ/mol
# GULP energy per Si atom -5576.087595 kJ/mol
# Density = 2.345695 g / cm^3
# Si number density = 23.510461 Si / 1000 Ang^3
#
#
#
# Elastic Constant Matrix: (Units=GPa)
#
#
# Indices 1 2 3 4 5 6 
#
# 1 99.8761 9.3715 56.2787 0.0000 0.0000 0.0000
# 2 9.3715 88.4363 10.5451 0.0000 0.0000 0.0000
# 3 56.2787 10.5451 163.9021 0.0000 0.0000 0.0000
# 4 0.0000 0.0000 0.0000 44.1609 0.0000 0.0000
# 5 0.0000 0.0000 0.0000 0.0000 40.6392 0.0000
# 6 0.0000 0.0000 0.0000 0.0000 0.0000 32.5901
#
#
#
# Elastic Compliance Matrix: (Units=1/GPa)
#
#
# Indices 1 2 3 4 5 6 
#
# 1 0.012473 -0.000817 -0.004230 0.000000 0.000000 0.000000
# 2 -0.000817 0.011449 -0.000456 0.000000 0.000000 0.000000
# 3 -0.004230 -0.000456 0.007583 0.000000 0.000000 0.000000
# 4 0.000000 0.000000 0.000000 0.022644 0.000000 0.000000
# 5 0.000000 0.000000 0.000000 0.000000 0.024607 0.000000
# 6 0.000000 0.000000 0.000000 0.000000 0.000000 0.030684
#
#
# Mechanical properties :
#
#
# Convention : Reuss Voigt Hill
#
# Bulk Modulus (GPa) = 48.78645 56.06726 52.42686
# Shear Modulus (GPa) = 39.28376 41.87930 40.58153
#
# Velocity S-wave (km/s) = 4.09211 4.22513 4.15915
# Velocity P-wave (km/s) = 6.56682 6.90665 6.73888
#
# Compressibility (1/GPa) = 0.02049749
#
# Stress axis : x y z
#
# Youngs Moduli (GPa) = 80.17494 87.34729 131.87334
#
# Poissons Ratio (x) = 0.07139 0.55784
# Poissons Ratio (y) = 0.06553 0.06013
# Poissons Ratio (z) = 0.33915 0.03982
#
# Static dielectric constant tensor:
#      x y z
#    x 1.968710 0.000000 0.000000 
#    y 0.000000 1.967510 0.000000 
#    z 0.000000 0.000000 1.876170 
# 
# From -- ./inp_files/20147.got.cif
#   From: 2010.05.17/outbox.cif.g08.bks.cpg/sg55_11_cif.got.tgz:20147.got - 2010.06.03 13:27:54.
