data_PCOD9428981
_publ_section_title
;
Structure prediction by ZEFSAII (Michael W. Deem and Ramdas Pophale) SiO2 
 PCOD9428981
Probable space group: P B A M
;
_chemical_formula_sum "Si O2"
_cell_formula_units_Z 28
_cell_length_a 19.590680
_cell_length_b 6.969353
_cell_length_c 7.617305
_cell_angle_alpha 90.000000
_cell_angle_beta 90.000000
_cell_angle_gamma 90.000000
_cell_volume 1040.023897
_symmetry_space_group_name_H-M "P B A M"
_symmetry_group_IT_number 55
_symmetry_cell_setting 'orthorhombic'
loop_
_space_group_symop_operation_xyz
x,y,z
-x,-y,z
1/2+x,1/2-y,-z
1/2-x,1/2+y,-z
-x,-y,-z
x,y,-z
1/2-x,1/2+y,z
1/2+x,1/2-y,z
loop_
_atom_site_type_symbol
_atom_site_label
_atom_site_fract_x
_atom_site_fract_y
_atom_site_fract_z
Si Si1 0.493674 0.229795 0.301290
Si Si2 0.597046 0.371223 0.000000
Si Si3 0.689659 0.252194 0.696915
Si Si4 0.342397 0.182953 0.788734
O O1 0.514085 0.277446 0.500000
O O2 0.413491 0.270599 0.275088
O O3 0.500000 0.000000 0.278267
O O4 0.539910 0.324400 0.153814
O O5 0.657068 0.379826 0.847725
O O6 0.675713 0.317121 0.500000
O O7 0.771060 0.236289 0.720811
O O8 0.659032 0.039906 0.728566
O O9 0.344514 0.186880 0.000000
#
# Coordination Sequence:
#
# PCOD9428981 Si02
#       4
#     8   4   8   8
#     4  11  20  34  59  89 119 154 203 255 299 348
#     4  12  21  36  58  87 125 150 206 248 308 347
#     4  12  24  39  62  90 125 162 202 250 307 361
#     4  12  22  42  62  92 125 162 202 254 305 362
#
# _framework density 26.922459
#
# number of rings (size 3 to 8) (size 9 to 14) (size 15 to 20)
#    0.000    0.286    7.143    3.857    0.000    0.000 
#    0.000    0.000    0.000    3.429    0.000    6.000 
#    0.000    0.000    0.000    0.000    0.000    0.000 
#
# Total GULP energy -156379.328219 kJ/mol
# GULP energy per Si atom -5584.976008 kJ/mol
# Density = 2.686118 g / cm^3
# Si number density = 26.922459 Si / 1000 Ang^3
#
#
#
# Elastic Constant Matrix: (Units=GPa)
#
#
# Indices 1 2 3 4 5 6 
#
# 1 243.4864 26.8122 95.6171 0.0000 0.0000 0.0000
# 2 26.8122 93.7434 22.9073 0.0000 0.0000 0.0000
# 3 95.6171 22.9073 323.2852 0.0000 0.0000 0.0000
# 4 0.0000 0.0000 0.0000 2.2553 0.0000 0.0000
# 5 0.0000 0.0000 0.0000 0.0000 -6.8426 0.0000
# 6 0.0000 0.0000 0.0000 0.0000 0.0000 40.6270
#
#
#
# Elastic Compliance Matrix: (Units=1/GPa)
#
#
# Indices 1 2 3 4 5 6 
#
# 1 0.004743 -0.001032 -0.001330 0.000000 0.000000 0.000000
# 2 -0.001032 0.011080 -0.000480 0.000000 0.000000 0.000000
# 3 -0.001330 -0.000480 0.003521 0.000000 0.000000 0.000000
# 4 0.000000 0.000000 0.000000 0.443398 0.000000 0.000000
# 5 0.000000 0.000000 0.000000 0.000000 -0.146143 0.000000
# 6 0.000000 0.000000 0.000000 0.000000 0.000000 0.024614
#
#
# Mechanical properties :
#
#
# Convention : Reuss Voigt Hill
#
# Bulk Modulus (GPa) = 73.20327 105.68759 89.44543
# Shear Modulus (GPa) = 14.22681 41.55316 27.88999
#
# Velocity S-wave (km/s) = 2.30127 3.93292 3.22209
# Velocity P-wave (km/s) = 5.85752 7.74373 6.86571
#
# Compressibility (1/GPa) = 0.01366059
#
# Stress axis : x y z
#
# Youngs Moduli (GPa) = 210.84782 90.25465 284.04877
#
# Poissons Ratio (x) = 0.09311 0.37769
# Poissons Ratio (y) = 0.21751 0.13634
# Poissons Ratio (z) = 0.28035 0.04332
#
# Static dielectric constant tensor:
#      x y z
#    x 2.089450 0.000000 0.000000 
#    y 0.000000 2.275810 0.000000 
#    z 0.000000 0.000000 1.972510 
# 
# From -- ./inp_files/4836.got.cif
#   From: 2010.05.17/outbox.cif.g08.bks.cpg/sg55_3_cif.got.tgz:4836.got - 2010.06.03 13:27:54.
