data_PCOD9428289
_publ_section_title
;
Structure prediction by ZEFSAII (Michael W. Deem and Ramdas Pophale) SiO2 
 PCOD9428289
Probable space group: P B A M
;
_chemical_formula_sum "Si O2"
_cell_formula_units_Z 48
_cell_length_a 8.158773
_cell_length_b 31.805408
_cell_length_c 7.950230
_cell_angle_alpha 90.000000
_cell_angle_beta 90.000000
_cell_angle_gamma 90.000000
_cell_volume 2063.029861
_symmetry_space_group_name_H-M "P B A M"
_symmetry_group_IT_number 55
_symmetry_cell_setting 'orthorhombic'
loop_
_space_group_symop_operation_xyz
x,y,z
-x,-y,z
1/2+x,1/2-y,-z
1/2-x,1/2+y,-z
-x,-y,-z
x,y,-z
1/2-x,1/2+y,z
1/2+x,1/2-y,z
loop_
_atom_site_type_symbol
_atom_site_label
_atom_site_fract_x
_atom_site_fract_y
_atom_site_fract_z
Si Si1 0.661908 0.180555 0.814496
Si Si2 0.344561 0.973778 0.802419
Si Si3 0.151431 0.896775 0.304263
Si Si4 0.812287 0.366268 0.189152
Si Si5 0.170181 0.053097 0.702659
Si Si6 0.299213 0.684867 0.500000
Si Si7 0.553315 0.231087 0.500000
O O1 0.802667 0.146043 0.787945
O O2 0.492473 0.153929 0.804969
O O3 0.646201 0.213851 0.665258
O O4 0.674619 0.199890 0.000000
O O5 0.197870 0.007252 0.776443
O O6 0.500000 0.000000 0.735301
O O7 0.297565 0.930641 0.713833
O O8 0.368900 0.965288 0.000000
O O9 0.128798 0.886738 0.500000
O O10 0.993201 0.922281 0.241853
O O11 0.812068 0.415501 0.233394
O O12 0.707438 0.343728 0.334333
O O13 0.749368 0.360148 0.000000
O O14 0.168685 0.050019 0.500000
O O15 0.442280 0.718772 0.500000
O O16 0.128537 0.711477 0.500000
#
# Coordination Sequence:
#
# PCOD9428289 Si02
#       7
#     8   8   8   8   8   4   4
#     4  10  21  39  63  89 118 157 201 241 291 354
#     4  11  24  39  56  82 116 157 204 248 293 349
#     4  11  23  38  58  86 119 155 198 247 298 349
#     4  10  21  39  63  89 118 157 201 241 291 354
#     4  11  23  38  58  86 119 155 198 247 298 349
#     4  10  22  40  62  89 122 155 192 242 293 350
#     4  10  22  40  62  89 122 155 192 242 293 350
#
# _framework density 23.266748
#
# number of rings (size 3 to 8) (size 9 to 14) (size 15 to 20)
#    0.000    1.500    1.667    3.000    0.000   12.000 
#    0.000    0.000    0.000    0.000    0.000    0.000 
#    0.000    0.000    0.000    0.000    0.000    0.000 
#
# Total GULP energy -268695.760865 kJ/mol
# GULP energy per Si atom -5597.828351 kJ/mol
# Density = 2.321379 g / cm^3
# Si number density = 23.266748 Si / 1000 Ang^3
#
#
#
# Elastic Constant Matrix: (Units=GPa)
#
#
# Indices 1 2 3 4 5 6 
#
# 1 59.4547 -8.3601 4.1777 0.0000 0.0000 0.0000
# 2 -8.3601 77.1377 22.0626 0.0000 0.0000 0.0000
# 3 4.1777 22.0626 101.3561 0.0000 0.0000 0.0000
# 4 0.0000 0.0000 0.000024956.5927 0.0000 0.0000
# 5 0.0000 0.0000 0.0000 0.0000 -3.7358 0.0000
# 6 0.0000 0.0000 0.0000 0.0000 0.0000 37.2341
#
#
#
# Elastic Compliance Matrix: (Units=1/GPa)
#
#
# Indices 1 2 3 4 5 6 
#
# 1 0.017213 0.002206 -0.001190 0.000000 0.000000 0.000000
# 2 0.002206 0.014107 -0.003162 0.000000 0.000000 0.000000
# 3 -0.001190 -0.003162 0.010603 0.000000 0.000000 0.000000
# 4 0.000000 0.000000 0.000000 0.000040 0.000000 0.000000
# 5 0.000000 0.000000 0.000000 0.000000 -0.267679 0.000000
# 6 0.000000 0.000000 0.000000 0.000000 0.000000 0.026857
#
#
# Mechanical properties :
#
#
# Convention : Reuss Voigt Hill
#
# Bulk Modulus (GPa) = 26.57251 30.41212 28.49231
# Shear Modulus (GPa) = -27.46917 5012.68941 2492.61012
#
# Velocity S-wave (km/s) = -3.43974 46.46634 32.76651
# Velocity P-wave (km/s) = 2.08090 53.77664 37.99735
#
# Compressibility (1/GPa) = 0.03763288
#
# Stress axis : x y z
#
# Youngs Moduli (GPa) = 58.09462 70.88586 94.30886
#
# Poissons Ratio (x) = -0.15636 0.11219
# Poissons Ratio (y) = -0.12815 0.29818
# Poissons Ratio (z) = 0.06911 0.22412
#
# Static dielectric constant tensor:
#      x y z
#    x 1.976010 0.000000 0.000000 
#    y 0.000000 1.800550 0.000000 
#    z 0.000000 0.000000 1.820540 
# 
# From -- ./inp_files/2924.got.cif
#   From: 2010.05.17/outbox.cif.g08.bks.cpg/sg55_2_cif.got.tgz:2924.got - 2010.06.03 13:27:54.
