data_PCOD9428206
_publ_section_title
;
Structure prediction by ZEFSAII (Michael W. Deem and Ramdas Pophale) SiO2 
 PCOD9428206
Probable space group: P B A M
;
_chemical_formula_sum "Si O2"
_cell_formula_units_Z 48
_cell_length_a 8.483242
_cell_length_b 13.205759
_cell_length_c 16.344828
_cell_angle_alpha 90.000000
_cell_angle_beta 90.000000
_cell_angle_gamma 90.000000
_cell_volume 1831.072661
_symmetry_space_group_name_H-M "P B A M"
_symmetry_group_IT_number 55
_symmetry_cell_setting 'orthorhombic'
loop_
_space_group_symop_operation_xyz
x,y,z
-x,-y,z
1/2+x,1/2-y,-z
1/2-x,1/2+y,-z
-x,-y,-z
x,y,-z
1/2-x,1/2+y,z
1/2+x,1/2-y,z
loop_
_atom_site_type_symbol
_atom_site_label
_atom_site_fract_x
_atom_site_fract_y
_atom_site_fract_z
Si Si1 0.648877 0.942568 0.906524
Si Si2 0.664978 0.774037 0.409303
Si Si3 0.867693 0.798744 0.172593
Si Si4 0.604820 0.092414 0.638925
Si Si5 0.348214 0.564934 0.671256
Si Si6 0.189671 0.857763 0.093448
O O1 0.705384 0.846053 0.860413
O O2 0.500000 0.000000 0.871896
O O3 0.791851 0.021683 0.905958
O O4 0.609543 0.915826 0.000000
O O5 0.593423 0.772759 0.500000
O O6 0.754778 0.667447 0.394222
O O7 0.531982 0.821650 0.347559
O O8 0.794514 0.863043 0.402296
O O9 0.888353 0.855571 0.257438
O O10 0.817172 0.683456 0.159563
O O11 0.014029 0.827264 0.116478
O O12 0.500000 0.000000 0.595969
O O13 0.709696 0.015504 0.694754
O O14 0.500000 0.500000 0.651639
O O15 0.231084 0.825410 0.000000
#
# Coordination Sequence:
#
# PCOD9428206 Si02
#       6
#     8   8   8   8   8   8
#     4  10  21  38  62  93 128 168 218 276 341 416
#     4  11  24  44  75 109 145 193 246 306 371 438
#     4  12  25  42  66  96 135 178 227 287 357 431
#     4  10  24  45  72 107 147 191 246 306 370 443
#     4  11  26  45  68 101 144 192 245 304 373 450
#     4  11  23  41  68  98 132 179 233 292 358 432
#
# _framework density 26.214141000000001
#
# number of rings (size 3 to 8) (size 9 to 14) (size 15 to 20)
#    0.000    1.167    0.000    5.500    0.000   16.333 
#    0.000    1.667    0.000    0.000    0.000    0.000 
#    0.000    0.000    0.000    0.000    0.000    0.000 
#
# Total GULP energy -267663.825837 kJ/mol
# GULP energy per Si atom -5576.329705 kJ/mol
# Density = 2.615448 g / cm^3
# Si number density = 26.214141 Si / 1000 Ang^3
#
#
#
# Elastic Constant Matrix: (Units=GPa)
#
#
# Indices 1 2 3 4 5 6 
#
# 1 102.9044 53.1868 10.8878 0.0000 0.0000 0.0000
# 2 53.1868 165.3821 41.7939 0.0000 0.0000 0.0000
# 3 10.8878 41.7939 24.5413 0.0000 0.0000 0.0000
# 4 0.0000 0.0000 0.0000 -3.7470 0.0000 0.0000
# 5 0.0000 0.0000 0.0000 0.0000 -40.5436 0.0000
# 6 0.0000 0.0000 0.0000 0.0000 0.0000 68.7690
#
#
#
# Elastic Compliance Matrix: (Units=1/GPa)
#
#
# Indices 1 2 3 4 5 6 
#
# 1 0.011719 -0.004310 0.002140 0.000000 0.000000 0.000000
# 2 -0.004310 0.012200 -0.018864 0.000000 0.000000 0.000000
# 3 0.002140 -0.018864 0.071924 0.000000 0.000000 0.000000
# 4 0.000000 0.000000 0.000000 -0.266881 0.000000 0.000000
# 5 0.000000 0.000000 0.000000 0.000000 -0.024665 0.000000
# 6 0.000000 0.000000 0.000000 0.000000 0.000000 0.014541
#
#
# Mechanical properties :
#
#
# Convention : Reuss Voigt Hill
#
# Bulk Modulus (GPa) = 18.59594 56.06276 37.32935
# Shear Modulus (GPa) = -41.26445 17.35964 -11.95241
#
# Velocity S-wave (km/s) = -3.97183 2.57616 -2.13762
# Velocity P-wave (km/s) = 3.73158 5.50288 2.85981
#
# Compressibility (1/GPa) = 0.05377518
#
# Stress axis : x y z
#
# Youngs Moduli (GPa) = 85.33330 81.96862 13.90357
#
# Poissons Ratio (x) = 0.35325 -0.02976
# Poissons Ratio (y) = 0.36775 0.26228
# Poissons Ratio (z) = -0.18263 1.54628
#
# Static dielectric constant tensor:
#      x y z
#    x 2.076500 0.000000 0.000000 
#    y 0.000000 2.064000 0.000000 
#    z 0.000000 0.000000 2.079460 
# 
# From -- ./inp_files/20778.got.cif
#   From: 2010.05.17/outbox.cif.g08.bks.cpg/sg55_11_cif.got.tgz:20778.got - 2010.06.03 13:27:54.
