data_PCOD9428852
_publ_section_title
;
Structure prediction by ZEFSAII (Michael W. Deem and Ramdas Pophale) SiO2 
 PCOD9428852
Probable space group: P B A M
;
_chemical_formula_sum "Si O2"
_cell_formula_units_Z 40
_cell_length_a 26.896253
_cell_length_b 7.652306
_cell_length_c 8.681401
_cell_angle_alpha 90.000000
_cell_angle_beta 90.000000
_cell_angle_gamma 90.000000
_cell_volume 1786.791701
_symmetry_space_group_name_H-M "P B A M"
_symmetry_group_IT_number 55
_symmetry_cell_setting 'orthorhombic'
loop_
_space_group_symop_operation_xyz
x,y,z
-x,-y,z
1/2+x,1/2-y,-z
1/2-x,1/2+y,-z
-x,-y,-z
x,y,-z
1/2-x,1/2+y,z
1/2+x,1/2-y,z
loop_
_atom_site_type_symbol
_atom_site_label
_atom_site_fract_x
_atom_site_fract_y
_atom_site_fract_z
Si Si1 0.948113 0.898724 0.677115
Si Si2 0.310041 0.792857 0.177096
Si Si3 0.786133 0.064847 0.321653
Si Si4 0.616554 0.690507 0.182318
Si Si5 0.579830 0.051203 0.179924
O O1 0.930936 0.907712 0.500000
O O2 0.910219 0.007506 0.783029
O O3 0.950456 0.697778 0.729390
O O4 0.000000 0.000000 0.688799
O O5 0.262892 0.910616 0.219671
O O6 0.306150 0.629062 0.290337
O O7 0.362367 0.890097 0.192075
O O8 0.306256 0.731495 0.000000
O O9 0.774549 0.092678 0.500000
O O10 0.830645 0.190866 0.267461
O O11 0.581151 0.850481 0.233314
O O12 0.624989 0.710263 0.000000
O O13 0.565159 0.057288 0.000000
#
# Coordination Sequence:
#
# PCOD9428852 Si02
#       5
#     8   8   8   8   8
#     4  11  25  44  67  96 131 171 216 272 336 396
#     4  11  22  39  62  90 128 174 220 264 320 387
#     4  12  24  38  60  94 132 171 217 268 325 385
#     4  11  23  42  67  96 130 170 219 270 326 390
#     4  10  23  42  67  95 126 170 219 268 321 385
#
# _framework density 22.386493999999999
#
# number of rings (size 3 to 8) (size 9 to 14) (size 15 to 20)
#    0.000    1.000    2.000    4.800    0.000    6.400 
#    0.000    4.000    0.000    0.000    0.000    0.000 
#    0.000    0.000    0.000    0.000    0.000    0.000 
#
# Total GULP energy -223868.078516 kJ/mol
# GULP energy per Si atom -5596.701963 kJ/mol
# Density = 2.233554 g / cm^3
# Si number density = 22.386494 Si / 1000 Ang^3
#
#
#
# Elastic Constant Matrix: (Units=GPa)
#
#
# Indices 1 2 3 4 5 6 
#
# 1 43.0857 -13.6492 4.3818 0.0000 0.0000 0.0000
# 2 -13.6492 70.6057 -13.3933 0.0000 0.0000 0.0000
# 3 4.3818 -13.3933 51.5093 0.0000 0.0000 0.0000
# 4 0.0000 0.0000 0.0000 -27.7303 0.0000 0.0000
# 5 0.0000 0.0000 0.0000 0.0000 16.7828 0.0000
# 6 0.0000 0.0000 0.0000 0.0000 0.0000 32.6111
#
#
#
# Elastic Compliance Matrix: (Units=1/GPa)
#
#
# Indices 1 2 3 4 5 6 
#
# 1 0.024764 0.004615 -0.000907 0.000000 0.000000 0.000000
# 2 0.004615 0.015758 0.003705 0.000000 0.000000 0.000000
# 3 -0.000907 0.003705 0.020454 0.000000 0.000000 0.000000
# 4 0.000000 0.000000 0.000000 -0.036062 0.000000 0.000000
# 5 0.000000 0.000000 0.000000 0.000000 0.059585 0.000000
# 6 0.000000 0.000000 0.000000 0.000000 0.000000 0.030664
#
#
# Mechanical properties :
#
#
# Convention : Reuss Voigt Hill
#
# Bulk Modulus (GPa) = 13.19203 13.31992 13.25597
# Shear Modulus (GPa) = 39.80743 16.85682 28.33213
#
# Velocity S-wave (km/s) = 4.22143 2.74704 3.56137
# Velocity P-wave (km/s) = 5.44668 4.00307 4.77969
#
# Compressibility (1/GPa) = 0.07580335
#
# Stress axis : x y z
#
# Youngs Moduli (GPa) = 40.38149 63.45926 48.88924
#
# Poissons Ratio (x) = -0.29288 0.04432
# Poissons Ratio (y) = -0.18637 -0.18112
# Poissons Ratio (z) = 0.03661 -0.23510
#
# Static dielectric constant tensor:
#      x y z
#    x 1.838310 0.000000 0.000000 
#    y 0.000000 1.837960 0.000000 
#    z 0.000000 0.000000 1.748540 
# 
# From -- ./inp_files/9998.got.cif
#   From: 2010.05.17/outbox.cif.g08.bks.cpg/sg55_5_cif.got.tgz:9998.got - 2010.06.03 13:27:54.
