data_PCOD9428643
_publ_section_title
;
Structure prediction by ZEFSAII (Michael W. Deem and Ramdas Pophale) SiO2 
 PCOD9428643
Probable space group: P B A M
;
_chemical_formula_sum "Si O2"
_cell_formula_units_Z 56
_cell_length_a 15.217589
_cell_length_b 8.516628
_cell_length_c 20.093672
_cell_angle_alpha 90.000000
_cell_angle_beta 90.000000
_cell_angle_gamma 90.000000
_cell_volume 2604.191021
_symmetry_space_group_name_H-M "P B A M"
_symmetry_group_IT_number 55
_symmetry_cell_setting 'orthorhombic'
loop_
_space_group_symop_operation_xyz
x,y,z
-x,-y,z
1/2+x,1/2-y,-z
1/2-x,1/2+y,-z
-x,-y,-z
x,y,-z
1/2-x,1/2+y,z
1/2+x,1/2-y,z
loop_
_atom_site_type_symbol
_atom_site_label
_atom_site_fract_x
_atom_site_fract_y
_atom_site_fract_z
Si Si1 0.977591 0.680510 0.578053
Si Si2 0.849302 0.687374 0.214799
Si Si3 0.123140 0.816990 0.072836
Si Si4 0.807957 0.814290 0.358957
Si Si5 0.033482 0.825711 0.213156
Si Si6 0.867540 0.174313 0.657590
Si Si7 0.255597 0.063278 0.127875
O O1 0.995896 0.699562 0.500000
O O2 0.877418 0.728865 0.593239
O O3 0.000000 0.500000 0.596511
O O4 0.040521 0.792575 0.621149
O O5 0.817014 0.726858 0.288176
O O6 0.811168 0.820767 0.165556
O O7 0.809736 0.529889 0.184312
O O8 0.954166 0.703288 0.218637
O O9 0.061190 0.831741 0.136573
O O10 0.175297 0.655332 0.083075
O O11 0.197335 0.948349 0.083691
O O12 0.082047 0.828239 0.000000
O O13 0.705674 0.788055 0.374452
O O14 0.834931 0.995816 0.351369
O O15 0.112544 0.792282 0.264269
O O16 0.000000 0.000000 0.232662
#
# Coordination Sequence:
#
# PCOD9428643 Si02
#       7
#     8   8   8   8   8   8   8
#     4  11  26  47  69 101 141 179 224 273 327 395
#     4  11  21  41  64  96 127 166 213 277 327 394
#     4  11  23  40  61  88 124 169 219 274 339 403
#     4  12  23  41  71  99 135 177 223 274 341 394
#     4  12  22  41  63  96 133 165 220 279 332 395
#     4  12  24  44  70 103 138 176 226 278 331 399
#     4  10  22  40  63  89 124 167 216 272 334 401
#
# _framework density 21.503799000000001
#
# number of rings (size 3 to 8) (size 9 to 14) (size 15 to 20)
#    0.000    0.714    4.286    4.286    0.000    3.714 
#    0.000    2.143    0.000    0.000    0.000    0.000 
#    0.000    0.000    0.000    0.000    0.000    0.000 
#
# Total GULP energy -313338.086719 kJ/mol
# GULP energy per Si atom -5595.322977 kJ/mol
# Density = 2.145486 g / cm^3
# Si number density = 21.503799 Si / 1000 Ang^3
#
#
#
# Elastic Constant Matrix: (Units=GPa)
#
#
# Indices 1 2 3 4 5 6 
#
# 1 90.2556 15.4367 0.9666 0.0000 0.0000 0.0000
# 2 15.4367 70.2108 16.4630 0.0000 0.0000 0.0000
# 3 0.9666 16.4630 73.9140 0.0000 0.0000 0.0000
# 4 0.0000 0.0000 0.0000 8.3981 0.0000 0.0000
# 5 0.0000 0.0000 0.0000 0.0000 12.2419 0.0000
# 6 0.0000 0.0000 0.0000 0.0000 0.0000 26.1117
#
#
#
# Elastic Compliance Matrix: (Units=1/GPa)
#
#
# Indices 1 2 3 4 5 6 
#
# 1 0.011526 -0.002636 0.000436 0.000000 0.000000 0.000000
# 2 -0.002636 0.015631 -0.003447 0.000000 0.000000 0.000000
# 3 0.000436 -0.003447 0.014291 0.000000 0.000000 0.000000
# 4 0.000000 0.000000 0.000000 0.119074 0.000000 0.000000
# 5 0.000000 0.000000 0.000000 0.000000 0.081686 0.000000
# 6 0.000000 0.000000 0.000000 0.000000 0.000000 0.038297
#
#
# Mechanical properties :
#
#
# Convention : Reuss Voigt Hill
#
# Bulk Modulus (GPa) = 33.16309 33.34589 33.25449
# Shear Modulus (GPa) = 16.56448 22.78462 19.67455
#
# Velocity S-wave (km/s) = 2.77845 3.25862 3.02807
# Velocity P-wave (km/s) = 5.07430 5.44966 5.26532
#
# Compressibility (1/GPa) = 0.03015401
#
# Stress axis : x y z
#
# Youngs Moduli (GPa) = 86.76117 63.97660 69.97279
#
# Poissons Ratio (x) = 0.16867 -0.03054
# Poissons Ratio (y) = 0.22874 0.24119
# Poissons Ratio (z) = -0.03787 0.22053
#
# Static dielectric constant tensor:
#      x y z
#    x 1.809950 0.000000 0.000000 
#    y 0.000000 1.798400 0.000000 
#    z 0.000000 0.000000 1.747880 
# 
# From -- ./inp_files/22615.got.cif
#   From: 2010.05.17/outbox.cif.g08.bks.cpg/sg55_12_cif.got.tgz:22615.got - 2010.06.03 13:27:54.
