data_PCOD9428487
_publ_section_title
;
Structure prediction by ZEFSAII (Michael W. Deem and Ramdas Pophale) SiO2 
 PCOD9428487
Probable space group: P B A M
;
_chemical_formula_sum "Si O2"
_cell_formula_units_Z 48
_cell_length_a 13.420242
_cell_length_b 8.601799
_cell_length_c 17.083401
_cell_angle_alpha 90.000000
_cell_angle_beta 90.000000
_cell_angle_gamma 90.000000
_cell_volume 1972.077475
_symmetry_space_group_name_H-M "P B A M"
_symmetry_group_IT_number 55
_symmetry_cell_setting 'orthorhombic'
loop_
_space_group_symop_operation_xyz
x,y,z
-x,-y,z
1/2+x,1/2-y,-z
1/2-x,1/2+y,-z
-x,-y,-z
x,y,-z
1/2-x,1/2+y,z
1/2+x,1/2-y,z
loop_
_atom_site_type_symbol
_atom_site_label
_atom_site_fract_x
_atom_site_fract_y
_atom_site_fract_z
Si Si1 0.962235 0.653875 0.335696
Si Si2 0.119577 0.829075 0.592607
Si Si3 0.975878 0.259531 0.000000
Si Si4 0.334909 0.548969 0.000000
Si Si5 0.029695 0.748942 0.170786
Si Si6 0.670773 0.459925 0.168339
Si Si7 0.727164 0.965248 0.672803
O O1 0.016891 0.657788 0.251189
O O2 0.847142 0.614847 0.326100
O O3 0.000000 0.500000 0.380508
O O4 0.005794 0.801295 0.380210
O O5 0.127295 0.835477 0.500000
O O6 0.173143 0.975268 0.631381
O O7 0.177190 0.676677 0.626636
O O8 0.959666 0.331627 0.914147
O O9 0.904672 0.105539 0.000000
O O10 0.088571 0.193191 0.000000
O O11 0.279820 0.549464 0.917447
O O12 0.120282 0.870926 0.178985
O O13 0.925598 0.846978 0.168098
O O14 0.744783 0.425254 0.238269
#
# Coordination Sequence:
#
# PCOD9428487 Si02
#       7
#     8   8   4   4   8   8   8
#     4  10  22  37  56  80 116 153 186 228 291 354
#     4  11  24  42  62  85 113 147 191 241 296 354
#     4   7  12  22  48  77 109 145 183 230 273 321
#     4   7  12  24  45  85 112 141 181 229 280 323
#     4   9  15  31  53  82 111 146 191 232 276 324
#     4   9  16  29  58  84 113 143 189 238 275 326
#     4  11  22  39  62  87 115 152 193 236 289 349
#
# _framework density 24.339815999999999
#
# number of rings (size 3 to 8) (size 9 to 14) (size 15 to 20)
#    0.000    2.500    1.667    3.500    0.000    3.667 
#    0.000    1.250    0.000    7.000    0.000    0.000 
#    0.000    0.000    0.000    0.000    0.000    0.000 
#
# Total GULP energy -268113.377814 kJ/mol
# GULP energy per Si atom -5585.695371 kJ/mol
# Density = 2.428442 g / cm^3
# Si number density = 24.339816 Si / 1000 Ang^3
#
#
#
# Elastic Constant Matrix: (Units=GPa)
#
#
# Indices 1 2 3 4 5 6 
#
# 1 95.4803 21.0440 29.2590 0.0000 0.0000 0.0000
# 2 21.0440 52.3775 5.0922 0.0000 0.0000 0.0000
# 3 29.2590 5.0922 175.6253 0.0000 0.0000 0.0000
# 4 0.0000 0.0000 0.0000 15.0863 0.0000 0.0000
# 5 0.0000 0.0000 0.0000 0.0000 -6.4941 0.0000
# 6 0.0000 0.0000 0.0000 0.0000 0.0000 36.6917
#
#
#
# Elastic Compliance Matrix: (Units=1/GPa)
#
#
# Indices 1 2 3 4 5 6 
#
# 1 0.012078 -0.004670 -0.001877 0.000000 0.000000 0.000000
# 2 -0.004670 0.020952 0.000171 0.000000 0.000000 0.000000
# 3 -0.001877 0.000171 0.006002 0.000000 0.000000 0.000000
# 4 0.000000 0.000000 0.000000 0.066285 0.000000 0.000000
# 5 0.000000 0.000000 0.000000 0.000000 -0.153985 0.000000
# 6 0.000000 0.000000 0.000000 0.000000 0.000000 0.027254
#
#
# Mechanical properties :
#
#
# Convention : Reuss Voigt Hill
#
# Bulk Modulus (GPa) = 38.05357 48.25262 43.15310
# Shear Modulus (GPa) = 51326.06637 26.92931 25676.49784
#
# Velocity S-wave (km/s) = 145.37216 3.32985 102.82060
# Velocity P-wave (km/s) = 167.90798 5.88655 118.80181
#
# Compressibility (1/GPa) = 0.02627874
#
# Stress axis : x y z
#
# Youngs Moduli (GPa) = 82.79672 47.72837 166.62065
#
# Poissons Ratio (x) = 0.22290 0.31270
# Poissons Ratio (y) = 0.38667 -0.02841
# Poissons Ratio (z) = 0.15539 -0.00814
#
# Static dielectric constant tensor:
#      x y z
#    x 2.006570 0.000000 0.000000 
#    y 0.000000 1.987230 0.000000 
#    z 0.000000 0.000000 1.921800 
# 
# From -- ./inp_files/21544.got.cif
#   From: 2010.05.17/outbox.cif.g08.bks.cpg/sg55_11_cif.got.tgz:21544.got - 2010.06.03 13:27:54.
