data_PCOD9428736
_publ_section_title
;
Structure prediction by ZEFSAII (Michael W. Deem and Ramdas Pophale) SiO2 
 PCOD9428736
Probable space group: P B A M
;
_chemical_formula_sum "Si O2"
_cell_formula_units_Z 56
_cell_length_a 21.357777
_cell_length_b 14.727675
_cell_length_c 8.589905
_cell_angle_alpha 90.000000
_cell_angle_beta 90.000000
_cell_angle_gamma 90.000000
_cell_volume 2701.958040
_symmetry_space_group_name_H-M "P B A M"
_symmetry_group_IT_number 55
_symmetry_cell_setting 'orthorhombic'
loop_
_space_group_symop_operation_xyz
x,y,z
-x,-y,z
1/2+x,1/2-y,-z
1/2-x,1/2+y,-z
-x,-y,-z
x,y,-z
1/2-x,1/2+y,z
1/2+x,1/2-y,z
loop_
_atom_site_type_symbol
_atom_site_label
_atom_site_fract_x
_atom_site_fract_y
_atom_site_fract_z
Si Si1 0.967998 0.594847 0.687719
Si Si2 0.206878 0.805883 0.315100
Si Si3 0.324170 0.926830 0.312729
Si Si4 0.092816 0.919842 0.815743
Si Si5 0.768276 0.386770 0.183186
Si Si6 0.369776 0.607861 0.681857
Si Si7 0.980516 0.783880 0.814969
O O1 0.971356 0.603284 0.500000
O O2 0.895105 0.592735 0.735526
O O3 0.999051 0.683023 0.763276
O O4 0.000000 0.500000 0.731495
O O5 0.197222 0.817832 0.500000
O O6 0.275191 0.846900 0.275003
O O7 0.155165 0.863618 0.224360
O O8 0.204285 0.700783 0.270458
O O9 0.323985 0.937152 0.500000
O O10 0.299259 0.020022 0.240036
O O11 0.034067 0.856636 0.774672
O O12 0.095964 0.013439 0.722444
O O13 0.089981 0.940362 0.000000
O O14 0.694615 0.390637 0.223336
O O15 0.777254 0.375754 0.000000
O O16 0.354349 0.613094 0.500000
O O17 0.416847 0.687466 0.729333
O O18 0.970950 0.787344 0.000000
#
# Coordination Sequence:
#
# PCOD9428736 Si02
#       7
#     8   8   8   8   8   8   8
#     4  10  23  43  67  96 130 172 219 268 321 385
#     4  11  23  40  65  94 130 173 219 269 320 382
#     4  10  22  42  65  94 128 167 216 266 316 379
#     4  11  24  42  64  96 134 169 213 267 325 389
#     4  12  25  40  65  96 131 170 211 263 326 388
#     4  12  24  42  67  97 130 170 219 268 323 389
#     4  11  25  43  65  94 131 173 215 268 328 387
#
# _framework density 20.725709999999999
#
# number of rings (size 3 to 8) (size 9 to 14) (size 15 to 20)
#    0.000    1.000    1.429    5.143    2.000    6.571 
#    0.000    0.000    0.000    0.000    0.000    0.000 
#    0.000    0.000    0.000    0.000    0.000    0.000 
#
# Total GULP energy -313506.461504 kJ/mol
# GULP energy per Si atom -5598.329670 kJ/mol
# Density = 2.067854 g / cm^3
# Si number density = 20.725710 Si / 1000 Ang^3
#
#
#
# Elastic Constant Matrix: (Units=GPa)
#
#
# Indices 1 2 3 4 5 6 
#
# 1 46.1088 -14.5566 -1.6624 0.0000 0.0000 0.0000
# 2 -14.5566 83.3189 -3.2939 0.0000 0.0000 0.0000
# 3 -1.6624 -3.2939 14.4875 0.0000 0.0000 0.0000
# 4 0.0000 0.0000 0.0000 48.3178 0.0000 0.0000
# 5 0.0000 0.0000 0.0000 0.0000 20.4692 0.0000
# 6 0.0000 0.0000 0.0000 0.0000 0.0000 28.0218
#
#
#
# Elastic Compliance Matrix: (Units=1/GPa)
#
#
# Indices 1 2 3 4 5 6 
#
# 1 0.023139 0.004185 0.003607 0.000000 0.000000 0.000000
# 2 0.004185 0.012868 0.003406 0.000000 0.000000 0.000000
# 3 0.003607 0.003406 0.070213 0.000000 0.000000 0.000000
# 4 0.000000 0.000000 0.000000 0.020696 0.000000 0.000000
# 5 0.000000 0.000000 0.000000 0.000000 0.048854 0.000000
# 6 0.000000 0.000000 0.000000 0.000000 0.000000 0.035687
#
#
# Mechanical properties :
#
#
# Convention : Reuss Voigt Hill
#
# Bulk Modulus (GPa) = 7.77509 11.65439 9.71474
# Shear Modulus (GPa) = 21.55793 30.25696 25.90744
#
# Velocity S-wave (km/s) = 3.22864 3.82498 3.53939
# Velocity P-wave (km/s) = 4.20219 5.01424 4.62607
#
# Compressibility (1/GPa) = 0.12861582
#
# Stress axis : x y z
#
# Youngs Moduli (GPa) = 43.21681 77.71270 14.24236
#
# Poissons Ratio (x) = -0.32524 -0.05137
# Poissons Ratio (y) = -0.18087 -0.04851
# Poissons Ratio (z) = -0.15587 -0.26468
#
# Static dielectric constant tensor:
#      x y z
#    x 1.731120 0.000000 0.000000 
#    y 0.000000 1.720910 0.000000 
#    z 0.000000 0.000000 1.693750 
# 
# From -- ./inp_files/8757.got.cif
#   From: 2010.05.17/outbox.cif.g08.bks.cpg/sg55_5_cif.got.tgz:8757.got - 2010.06.03 13:27:54.
