data_PCOD9428746
_publ_section_title
;
Structure prediction by ZEFSAII (Michael W. Deem and Ramdas Pophale) SiO2 
 PCOD9428746
Probable space group: P B A M
;
_chemical_formula_sum "Si O2"
_cell_formula_units_Z 54
_cell_length_a 29.047708
_cell_length_b 5.023503
_cell_length_c 16.498560
_cell_angle_alpha 90.000000
_cell_angle_beta 90.000000
_cell_angle_gamma 90.000000
_cell_volume 2407.490470
_symmetry_space_group_name_H-M "P B A M"
_symmetry_group_IT_number 55
_symmetry_cell_setting 'orthorhombic'
loop_
_space_group_symop_operation_xyz
x,y,z
-x,-y,z
1/2+x,1/2-y,-z
1/2-x,1/2+y,-z
-x,-y,-z
x,y,-z
1/2-x,1/2+y,z
1/2+x,1/2-y,z
loop_
_atom_site_type_symbol
_atom_site_label
_atom_site_fract_x
_atom_site_fract_y
_atom_site_fract_z
Si Si1 0.000000 0.500000 0.792111
Si Si2 0.865084 0.689524 0.302869
Si Si3 0.462418 0.709039 0.640013
Si Si4 0.000000 0.500000 0.500000
Si Si5 0.779778 0.394574 0.903456
Si Si6 0.549092 0.653906 0.095104
Si Si7 0.778444 0.505977 0.402792
Si Si8 0.635364 0.674054 0.802992
O O1 0.983449 0.719135 0.727807
O O2 0.960411 0.420868 0.854337
O O3 0.909144 0.838442 0.342901
O O4 0.825939 0.595511 0.363833
O O5 0.880211 0.416733 0.256681
O O6 0.845772 0.918851 0.244574
O O7 0.500000 0.500000 0.604101
O O8 0.462735 0.938687 0.572781
O O9 0.760913 0.686189 0.884080
O O10 0.825376 0.307866 0.857283
O O11 0.788246 0.378756 0.000000
O O12 0.500000 0.500000 0.103011
O O13 0.594094 0.553849 0.141519
O O14 0.557469 0.690617 0.000000
O O15 0.782614 0.515102 0.500000
O O16 0.761476 0.214049 0.378687
#
# Coordination Sequence:
#
# PCOD9428746 Si02
#       8
#     4   8   8   2   8   8   8   8
#     4  11  19  41  65  86 132 172 219 281 331 395
#     4  12  26  42  72  99 134 179 229 274 351 408
#     4  11  24  44  66  99 138 176 225 283 341 410
#     4  10  26  44  70  98 130 180 228 272 350 406
#     4  10  22  42  67  96 133 177 222 281 348 405
#     4  11  24  41  63  93 130 182 235 283 342 405
#     4  10  23  46  69  99 136 174 218 279 339 409
#     4  12  25  44  65 102 134 177 227 285 341 408
#
# _framework density 22.429997
#
# number of rings (size 3 to 8) (size 9 to 14) (size 15 to 20)
#    0.000    1.037    1.481    4.889    3.111    3.556 
#    0.000    1.481    0.000    0.000    0.000    0.000 
#    0.000    0.000    0.000    0.000    0.000    0.000 
#
# Total GULP energy -300933.372016 kJ/mol
# GULP energy per Si atom -5572.840223 kJ/mol
# Density = 2.237895 g / cm^3
# Si number density = 22.429997 Si / 1000 Ang^3
#
#
#
# Elastic Constant Matrix: (Units=GPa)
#
#
# Indices 1 2 3 4 5 6 
#
# 1 87.1040 -8.6568 26.1736 0.0000 0.0000 0.0000
# 2 -8.6568 63.7897 23.0498 0.0000 0.0000 0.0000
# 3 26.1736 23.0498 78.8450 0.0000 0.0000 0.0000
# 4 0.0000 0.0000 0.0000 28.6733 0.0000 0.0000
# 5 0.0000 0.0000 0.0000 0.0000 2.1120 0.0000
# 6 0.0000 0.0000 0.0000 0.0000 0.0000 32.8546
#
#
#
# Elastic Compliance Matrix: (Units=1/GPa)
#
#
# Indices 1 2 3 4 5 6 
#
# 1 0.013559 0.003876 -0.005634 0.000000 0.000000 0.000000
# 2 0.003876 0.018636 -0.006735 0.000000 0.000000 0.000000
# 3 -0.005634 -0.006735 0.016522 0.000000 0.000000 0.000000
# 4 0.000000 0.000000 0.000000 0.034876 0.000000 0.000000
# 5 0.000000 0.000000 0.000000 0.000000 0.473477 0.000000
# 6 0.000000 0.000000 0.000000 0.000000 0.000000 0.030437
#
#
# Mechanical properties :
#
#
# Convention : Reuss Voigt Hill
#
# Bulk Modulus (GPa) = 31.51488 34.54132 33.02810
# Shear Modulus (GPa) = 8.12916 25.33946 16.73431
#
# Velocity S-wave (km/s) = 1.90581 3.36477 2.73439
# Velocity P-wave (km/s) = 4.35013 5.52527 4.97254
#
# Compressibility (1/GPa) = 0.03173104
#
# Stress axis : x y z
#
# Youngs Moduli (GPa) = 73.75350 53.65953 60.52438
#
# Poissons Ratio (x) = -0.20798 0.34100
# Poissons Ratio (y) = -0.28586 0.40762
# Poissons Ratio (z) = 0.41553 0.36138
#
# Static dielectric constant tensor:
#      x y z
#    x 2.057970 0.000000 0.000000 
#    y 0.000000 1.961600 0.000000 
#    z 0.000000 0.000000 1.809460 
# 
# From -- ./inp_files/20166.got.cif
#   From: 2010.05.17/outbox.cif.g08.bks.cpg/sg55_11_cif.got.tgz:20166.got - 2010.06.03 13:27:54.
