data_PCOD9428316
_publ_section_title
;
Structure prediction by ZEFSAII (Michael W. Deem and Ramdas Pophale) SiO2 
 PCOD9428316
Probable space group: P B A M
;
_chemical_formula_sum "Si O2"
_cell_formula_units_Z 48
_cell_length_a 23.596542
_cell_length_b 10.835523
_cell_length_c 8.868333
_cell_angle_alpha 90.000000
_cell_angle_beta 90.000000
_cell_angle_gamma 90.000000
_cell_volume 2267.463128
_symmetry_space_group_name_H-M "P B A M"
_symmetry_group_IT_number 55
_symmetry_cell_setting 'orthorhombic'
loop_
_space_group_symop_operation_xyz
x,y,z
-x,-y,z
1/2+x,1/2-y,-z
1/2-x,1/2+y,-z
-x,-y,-z
x,y,-z
1/2-x,1/2+y,z
1/2+x,1/2-y,z
loop_
_atom_site_type_symbol
_atom_site_label
_atom_site_fract_x
_atom_site_fract_y
_atom_site_fract_z
Si Si1 0.519265 0.313473 0.324144
Si Si2 0.814231 0.175369 0.679516
Si Si3 0.415159 0.193221 0.822249
Si Si4 0.412352 0.944198 0.325874
Si Si5 0.623101 0.443444 0.823660
Si Si6 0.690625 0.184877 0.176064
O O1 0.509854 0.342316 0.500000
O O2 0.460733 0.291720 0.238027
O O3 0.550836 0.180293 0.315527
O O4 0.562488 0.409085 0.248402
O O5 0.809711 0.178773 0.500000
O O6 0.855875 0.281497 0.739818
O O7 0.752911 0.186285 0.754937
O O8 0.844484 0.049884 0.734549
O O9 0.434058 0.056296 0.774976
O O10 0.408901 0.203438 0.000000
O O11 0.412386 0.984076 0.500000
O O12 0.350189 0.906159 0.268261
O O13 0.661334 0.319469 0.815170
O O14 0.616941 0.476540 0.000000
O O15 0.692290 0.148610 0.000000
#
# Coordination Sequence:
#
# PCOD9428316 Si02
#       6
#     8   8   8   8   8   8
#     4  10  21  40  65  93 126 162 205 253 308 368
#     4  12  26  42  62  89 124 164 209 256 308 367
#     4  12  25  40  61  91 127 164 209 257 308 364
#     4  10  21  39  64  94 126 163 205 254 309 364
#     4  10  22  42  66  91 122 160 205 252 309 370
#     4  10  22  41  65  91 123 161 203 252 307 367
#
# _framework density 21.169032000000001
#
# number of rings (size 3 to 8) (size 9 to 14) (size 15 to 20)
#    0.000    1.333    0.000    5.500    2.333    6.667 
#    0.000    3.333    0.000    0.000    0.000    0.000 
#    0.000    0.000    0.000    0.000    0.000    0.000 
#
# Total GULP energy -268744.289609 kJ/mol
# GULP energy per Si atom -5598.839367 kJ/mol
# Density = 2.112085 g / cm^3
# Si number density = 21.169032 Si / 1000 Ang^3
#
#
#
# Elastic Constant Matrix: (Units=GPa)
#
#
# Indices 1 2 3 4 5 6 
#
# 1 82.0792 -6.7122 8.0279 0.0000 0.0000 0.0000
# 2 -6.7122 57.8977 1.9041 0.0000 0.0000 0.0000
# 3 8.0279 1.9041 81.6401 0.0000 0.0000 0.0000
# 4 0.0000 0.0000 0.0000 30.7223 0.0000 0.0000
# 5 0.0000 0.0000 0.0000 0.0000 33.5348 0.0000
# 6 0.0000 0.0000 0.0000 0.0000 0.0000 15.5374
#
#
#
# Elastic Compliance Matrix: (Units=1/GPa)
#
#
# Indices 1 2 3 4 5 6 
#
# 1 0.012427 0.001482 -0.001257 0.000000 0.000000 0.000000
# 2 0.001482 0.017462 -0.000553 0.000000 0.000000 0.000000
# 3 -0.001257 -0.000553 0.012385 0.000000 0.000000 0.000000
# 4 0.000000 0.000000 0.000000 0.032550 0.000000 0.000000
# 5 0.000000 0.000000 0.000000 0.000000 0.029820 0.000000
# 6 0.000000 0.000000 0.000000 0.000000 0.000000 0.064361
#
#
# Mechanical properties :
#
#
# Convention : Reuss Voigt Hill
#
# Bulk Modulus (GPa) = 24.02714 25.33962 24.68338
# Shear Modulus (GPa) = 27.24301 30.51871 28.88086
#
# Velocity S-wave (km/s) = 3.59127 3.80105 3.69765
# Velocity P-wave (km/s) = 5.34519 5.59107 5.46951
#
# Compressibility (1/GPa) = 0.04161960
#
# Stress axis : x y z
#
# Youngs Moduli (GPa) = 80.46695 57.26775 80.74058
#
# Poissons Ratio (x) = -0.08487 0.10146
# Poissons Ratio (y) = -0.11926 0.04465
# Poissons Ratio (z) = 0.10111 0.03167
#
# Static dielectric constant tensor:
#      x y z
#    x 1.735530 0.000000 0.000000 
#    y 0.000000 1.801230 0.000000 
#    z 0.000000 0.000000 1.699800 
# 
# From -- ./inp_files/9445.got.cif
#   From: 2010.05.17/outbox.cif.g08.bks.cpg/sg55_5_cif.got.tgz:9445.got - 2010.06.03 13:27:54.
