data_PCOD9428492
_publ_section_title
;
Structure prediction by ZEFSAII (Michael W. Deem and Ramdas Pophale) SiO2 
 PCOD9428492
Probable space group: P B A M
;
_chemical_formula_sum "Si O2"
_cell_formula_units_Z 48
_cell_length_a 11.319176
_cell_length_b 23.239612
_cell_length_c 10.321764
_cell_angle_alpha 90.000000
_cell_angle_beta 90.000000
_cell_angle_gamma 90.000000
_cell_volume 2715.173653
_symmetry_space_group_name_H-M "P B A M"
_symmetry_group_IT_number 55
_symmetry_cell_setting 'orthorhombic'
loop_
_space_group_symop_operation_xyz
x,y,z
-x,-y,z
1/2+x,1/2-y,-z
1/2-x,1/2+y,-z
-x,-y,-z
x,y,-z
1/2-x,1/2+y,z
1/2+x,1/2-y,z
loop_
_atom_site_type_symbol
_atom_site_label
_atom_site_fract_x
_atom_site_fract_y
_atom_site_fract_z
Si Si1 0.882726 0.216220 0.347855
Si Si2 0.606650 0.366568 0.641956
Si Si3 0.120008 0.653448 0.649680
Si Si4 0.743224 0.634642 0.150783
Si Si5 0.492106 0.930958 0.153650
Si Si6 0.499972 0.567795 0.860848
O O1 0.844093 0.215424 0.500000
O O2 0.914922 0.281680 0.312781
O O3 0.787659 0.185516 0.252919
O O4 0.004534 0.180532 0.339570
O O5 0.588499 0.392478 0.500000
O O6 0.738082 0.343360 0.648980
O O7 0.587654 0.412774 0.751267
O O8 0.081938 0.641721 0.500000
O O9 0.074567 0.605480 0.749203
O O10 0.861976 0.597670 0.173495
O O11 0.631107 0.591921 0.162793
O O12 0.746655 0.655086 0.000000
O O13 0.500000 0.000000 0.179142
O O14 0.521441 0.923381 0.000000
O O15 0.500000 0.500000 0.865974
O O16 0.461410 0.591735 0.000000
#
# Coordination Sequence:
#
# PCOD9428492 Si02
#       6
#     8   8   8   8   8   8
#     4   9  19  36  59  83 109 144 180 223 281 332
#     4   9  19  35  52  79 111 137 176 224 271 324
#     4  10  22  37  58  84 111 145 185 229 275 334
#     4   9  19  36  55  81 112 141 182 229 270 325
#     4  10  23  40  58  81 114 154 191 229 279 334
#     4   9  18  32  55  80 103 138 179 219 266 320
#
# _framework density 17.678428
#
# number of rings (size 3 to 8) (size 9 to 14) (size 15 to 20)
#    0.000    2.667    0.000    0.000    4.667    2.667 
#    0.000    0.000    0.000    0.000    0.000    0.000 
#    0.000    0.000    0.000    0.000    0.000    0.000 
#
# Total GULP energy -267246.883731 kJ/mol
# GULP energy per Si atom -5567.643411 kJ/mol
# Density = 1.763819 g / cm^3
# Si number density = 17.678428 Si / 1000 Ang^3
#
#
#
# Elastic Constant Matrix: (Units=GPa)
#
#
# Indices 1 2 3 4 5 6 
#
# 1 40.0023 19.4344 42.0060 0.0000 0.0000 0.0000
# 2 19.4344 104.3076 69.9138 0.0000 0.0000 0.0000
# 3 42.0060 69.9138 95.3672 0.0000 0.0000 0.0000
# 4 0.0000 0.0000 0.0000 31.7032 0.0000 0.0000
# 5 0.0000 0.0000 0.0000 0.0000 33.5502 0.0000
# 6 0.0000 0.0000 0.0000 0.0000 0.0000 16.2408
#
#
#
# Elastic Compliance Matrix: (Units=1/GPa)
#
#
# Indices 1 2 3 4 5 6 
#
# 1 0.052445 0.011230 -0.031333 0.000000 0.000000 0.000000
# 2 0.011230 0.021254 -0.020527 0.000000 0.000000 0.000000
# 3 -0.031333 -0.020527 0.039336 0.000000 0.000000 0.000000
# 4 0.000000 0.000000 0.000000 0.031543 0.000000 0.000000
# 5 0.000000 0.000000 0.000000 0.000000 0.029806 0.000000
# 6 0.000000 0.000000 0.000000 0.000000 0.000000 0.061573
#
#
# Mechanical properties :
#
#
# Convention : Reuss Voigt Hill
#
# Bulk Modulus (GPa) = 31.47295 55.82061 43.64678
# Shear Modulus (GPa) = 15.25285 23.52038 19.38661
#
# Velocity S-wave (km/s) = 2.94052 3.65150 3.31513
# Velocity P-wave (km/s) = 5.41946 7.03008 6.27665
#
# Compressibility (1/GPa) = 0.03177331
#
# Stress axis : x y z
#
# Youngs Moduli (GPa) = 19.06759 47.05107 25.42230
#
# Poissons Ratio (x) = -0.52838 0.79656
# Poissons Ratio (y) = -0.21413 0.52185
# Poissons Ratio (z) = 0.59744 0.96584
#
# Static dielectric constant tensor:
#      x y z
#    x 1.603480 0.000000 0.000000 
#    y 0.000000 1.613020 0.000000 
#    z 0.000000 0.000000 1.632310 
# 
# From -- ./inp_files/4040.got.cif
#   From: 2010.05.17/outbox.cif.g08.bks.cpg/sg55_3_cif.got.tgz:4040.got - 2010.06.03 13:27:54.
