data_PCOD9428940
_publ_section_title
;
Structure prediction by ZEFSAII (Michael W. Deem and Ramdas Pophale) SiO2 
 PCOD9428940
Probable space group: P B A M
;
_chemical_formula_sum "Si O2"
_cell_formula_units_Z 48
_cell_length_a 9.890386
_cell_length_b 15.961240
_cell_length_c 14.187932
_cell_angle_alpha 90.000000
_cell_angle_beta 90.000000
_cell_angle_gamma 90.000000
_cell_volume 2239.747021
_symmetry_space_group_name_H-M "P B A M"
_symmetry_group_IT_number 55
_symmetry_cell_setting 'orthorhombic'
loop_
_space_group_symop_operation_xyz
x,y,z
-x,-y,z
1/2+x,1/2-y,-z
1/2-x,1/2+y,-z
-x,-y,-z
x,y,-z
1/2-x,1/2+y,z
1/2+x,1/2-y,z
loop_
_atom_site_type_symbol
_atom_site_label
_atom_site_fract_x
_atom_site_fract_y
_atom_site_fract_z
Si Si1 0.650290 0.490508 0.891691
Si Si2 0.610742 0.940732 0.225561
Si Si3 0.505519 0.361728 0.608807
Si Si4 0.028599 0.263869 0.777292
Si Si5 0.225823 0.988846 0.391955
Si Si6 0.289969 0.315118 0.108446
O O1 0.500000 0.500000 0.849729
O O2 0.753156 0.432551 0.835703
O O3 0.710776 0.583908 0.890004
O O4 0.635989 0.462128 0.000000
O O5 0.544628 0.851745 0.244519
O O6 0.658050 0.990318 0.318611
O O7 0.500000 0.000000 0.175598
O O8 0.497972 0.332745 0.500000
O O9 0.538733 0.290582 0.683058
O O10 0.619811 0.433816 0.612061
O O11 0.362911 0.406965 0.632727
O O12 0.932700 0.215441 0.850958
O O13 0.171522 0.281495 0.825462
O O14 0.271921 0.980779 0.500000
O O15 0.272746 0.288139 0.000000
#
# Coordination Sequence:
#
# PCOD9428940 Si02
#       6
#     8   8   8   8   8   8
#     4  10  24  45  69  94 123 173 230 272 323 394
#     4  12  25  41  64  96 136 172 214 270 329 389
#     4   9  20  41  71  99 125 168 224 276 325 391
#     4  12  25  42  65  98 136 173 219 271 333 397
#     4   9  20  41  68  96 128 169 219 270 326 394
#     4  11  25  44  65  96 133 171 219 275 331 392
#
# _framework density 21.430992
#
# number of rings (size 3 to 8) (size 9 to 14) (size 15 to 20)
#    0.000    1.500    1.667    3.500    7.000    2.667 
#    0.000    0.833    0.000    0.000    0.000    0.000 
#    0.000    0.000    0.000    0.000    0.000    0.000 
#
# Total GULP energy -268650.625859 kJ/mol
# GULP energy per Si atom -5596.888039 kJ/mol
# Density = 2.138221 g / cm^3
# Si number density = 21.430992 Si / 1000 Ang^3
#
#
#
# Elastic Constant Matrix: (Units=GPa)
#
#
# Indices 1 2 3 4 5 6 
#
# 1 82.5233 7.6128 27.5733 0.0000 0.0000 0.0000
# 2 7.6128 65.0346 31.0963 0.0000 0.0000 0.0000
# 3 27.5733 31.0963 99.5403 0.0000 0.0000 0.0000
# 4 0.0000 0.0000 0.0000 -31.6290 0.0000 0.0000
# 5 0.0000 0.0000 0.0000 0.0000 8.4982 0.0000
# 6 0.0000 0.0000 0.0000 0.0000 0.0000 30.9640
#
#
#
# Elastic Compliance Matrix: (Units=1/GPa)
#
#
# Indices 1 2 3 4 5 6 
#
# 1 0.013357 0.000242 -0.003775 0.000000 0.000000 0.000000
# 2 0.000242 0.018081 -0.005715 0.000000 0.000000 0.000000
# 3 -0.003775 -0.005715 0.012878 0.000000 0.000000 0.000000
# 4 0.000000 0.000000 0.000000 -0.031617 0.000000 0.000000
# 5 0.000000 0.000000 0.000000 0.000000 0.117672 0.000000
# 6 0.000000 0.000000 0.000000 0.000000 0.000000 0.032296
#
#
# Mechanical properties :
#
#
# Convention : Reuss Voigt Hill
#
# Bulk Modulus (GPa) = 38.73408 42.18477 40.45943
# Shear Modulus (GPa) = 26.34760 13.62103 19.98431
#
# Velocity S-wave (km/s) = 3.51011 2.52380 3.05699
# Velocity P-wave (km/s) = 5.87715 5.31220 5.60180
#
# Compressibility (1/GPa) = 0.02581706
#
# Stress axis : x y z
#
# Youngs Moduli (GPa) = 74.86724 55.30679 77.65475
#
# Poissons Ratio (x) = -0.01337 0.29318
# Poissons Ratio (y) = -0.01810 0.44383
# Poissons Ratio (z) = 0.28266 0.31610
#
# Static dielectric constant tensor:
#      x y z
#    x 1.778050 0.000000 0.000000 
#    y 0.000000 1.769980 0.000000 
#    z 0.000000 0.000000 1.770170 
# 
# From -- ./inp_files/17369.got.cif
#   From: 2010.05.17/outbox.cif.g08.bks.cpg/sg55_9_cif.got.tgz:17369.got - 2010.06.03 13:27:54.
