data_PCOD9428114
_publ_section_title
;
Structure prediction by ZEFSAII (Michael W. Deem and Ramdas Pophale) SiO2 
 PCOD9428114
Probable space group: P B A M
;
_chemical_formula_sum "Si O2"
_cell_formula_units_Z 48
_cell_length_a 17.552298
_cell_length_b 17.099462
_cell_length_c 8.624774
_cell_angle_alpha 90.000000
_cell_angle_beta 90.000000
_cell_angle_gamma 90.000000
_cell_volume 2588.595274
_symmetry_space_group_name_H-M "P B A M"
_symmetry_group_IT_number 55
_symmetry_cell_setting 'orthorhombic'
loop_
_space_group_symop_operation_xyz
x,y,z
-x,-y,z
1/2+x,1/2-y,-z
1/2-x,1/2+y,-z
-x,-y,-z
x,y,-z
1/2-x,1/2+y,z
1/2+x,1/2-y,z
loop_
_atom_site_type_symbol
_atom_site_label
_atom_site_fract_x
_atom_site_fract_y
_atom_site_fract_z
Si Si1 0.912136 0.998661 0.687633
Si Si2 0.151905 0.675663 0.314081
Si Si3 0.313853 0.352663 0.686847
Si Si4 0.348839 0.822100 0.186877
Si Si5 0.497358 0.090835 0.812436
Si Si6 0.684787 0.355425 0.814215
O O1 0.910720 0.996444 0.500000
O O2 0.867842 0.076896 0.738432
O O3 0.868492 0.923245 0.750192
O O4 0.000000 0.000000 0.737537
O O5 0.152837 0.672689 0.500000
O O6 0.155414 0.767134 0.264968
O O7 0.077246 0.633262 0.251710
O O8 0.229488 0.637620 0.250087
O O9 0.811250 0.146772 0.500000
O O10 0.228145 0.360692 0.749085
O O11 0.425716 0.864819 0.238543
O O12 0.345534 0.730712 0.233247
O O13 0.346211 0.825265 0.000000
O O14 0.500000 0.000000 0.765549
O O15 0.494559 0.093582 0.000000
O O16 0.686896 0.358361 0.000000
#
# Coordination Sequence:
#
# PCOD9428114 Si02
#       6
#     8   8   8   8   8   8
#     4  10  22  38  58  85 118 150 186 234 285 334
#     4  10  21  38  60  85 113 148 190 232 283 339
#     4   9  20  38  58  83 112 148 188 230 282 338
#     4   9  20  38  58  82 112 150 188 230 283 336
#     4  10  22  38  57  84 117 149 186 233 284 334
#     4  10  21  38  59  83 113 150 192 233 281 337
#
# _framework density 18.542876
#
# number of rings (size 3 to 8) (size 9 to 14) (size 15 to 20)
#    0.000    2.333    0.000    1.000    4.667    3.333 
#    0.000    0.000    0.000    0.000    0.000    0.000 
#    0.000    0.000    0.000    0.000    0.000    0.000 
#
# Total GULP energy -268026.007849 kJ/mol
# GULP energy per Si atom -5583.875164 kJ/mol
# Density = 1.850067 g / cm^3
# Si number density = 18.542876 Si / 1000 Ang^3
#
#
#
# Elastic Constant Matrix: (Units=GPa)
#
#
# Indices 1 2 3 4 5 6 
#
# 1 223.1256 135.8608 37.1305 0.0000 0.0000 0.0000
# 2 135.8608 126.1277 30.2204 0.0000 0.0000 0.0000
# 3 37.1305 30.2204 12.6105 0.0000 0.0000 0.0000
# 4 0.0000 0.0000 0.0000 22.5158 0.0000 0.0000
# 5 0.0000 0.0000 0.0000 0.0000 30.4814 0.0000
# 6 0.0000 0.0000 0.0000 0.0000 0.0000 32.7170
#
#
#
# Elastic Compliance Matrix: (Units=1/GPa)
#
#
# Indices 1 2 3 4 5 6 
#
# 1 0.013722 -0.011978 -0.011699 0.000000 0.000000 0.000000
# 2 -0.011978 0.029075 -0.034409 0.000000 0.000000 0.000000
# 3 -0.011699 -0.034409 0.196204 0.000000 0.000000 0.000000
# 4 0.000000 0.000000 0.000000 0.044413 0.000000 0.000000
# 5 0.000000 0.000000 0.000000 0.000000 0.032807 0.000000
# 6 0.000000 0.000000 0.000000 0.000000 0.000000 0.030565
#
#
# Mechanical properties :
#
#
# Convention : Reuss Voigt Hill
#
# Bulk Modulus (GPa) = 8.14139 85.36523 46.75331
# Shear Modulus (GPa) = 9.92262 27.71966 18.82114
#
# Velocity S-wave (km/s) = 2.31577 3.87058 3.18937
# Velocity P-wave (km/s) = 3.39860 8.13092 6.23147
#
# Compressibility (1/GPa) = 0.12282920
#
# Stress axis : x y z
#
# Youngs Moduli (GPa) = 72.87763 34.39408 5.09675
#
# Poissons Ratio (x) = 0.41196 0.05962
# Poissons Ratio (y) = 0.87289 0.17538
# Poissons Ratio (z) = 0.85257 1.18347
#
# Static dielectric constant tensor:
#      x y z
#    x 1.600140 0.000000 0.000000 
#    y 0.000000 1.633760 0.000000 
#    z 0.000000 0.000000 1.628560 
# 
# From -- ./inp_files/5646.got.cif
#   From: 2010.05.17/outbox.cif.g08.bks.cpg/sg55_3_cif.got.tgz:5646.got - 2010.06.03 13:27:54.
