data_PCOD9428756
_publ_section_title
;
Structure prediction by ZEFSAII (Michael W. Deem and Ramdas Pophale) SiO2 
 PCOD9428756
Probable space group: P B A M
;
_chemical_formula_sum "Si O2"
_cell_formula_units_Z 46
_cell_length_a 8.944173
_cell_length_b 12.459611
_cell_length_c 19.064298
_cell_angle_alpha 90.000000
_cell_angle_beta 90.000000
_cell_angle_gamma 90.000000
_cell_volume 2124.542838
_symmetry_space_group_name_H-M "P B A M"
_symmetry_group_IT_number 55
_symmetry_cell_setting 'orthorhombic'
loop_
_space_group_symop_operation_xyz
x,y,z
-x,-y,z
1/2+x,1/2-y,-z
1/2-x,1/2+y,-z
-x,-y,-z
x,y,-z
1/2-x,1/2+y,z
1/2+x,1/2-y,z
loop_
_atom_site_type_symbol
_atom_site_label
_atom_site_fract_x
_atom_site_fract_y
_atom_site_fract_z
Si Si1 0.986368 0.881990 0.914124
Si Si2 0.300041 0.904959 0.736784
Si Si3 0.000000 0.500000 0.148259
Si Si4 0.684501 0.408307 0.630656
Si Si5 0.500000 0.500000 0.500000
Si Si6 0.171966 0.690916 0.083934
Si Si7 0.432821 0.242576 0.682449
O O1 0.833355 0.833878 0.887011
O O2 0.119649 0.806651 0.893474
O O3 0.982981 0.885276 0.000000
O O4 0.000000 0.000000 0.886788
O O5 0.356232 0.964367 0.806477
O O6 0.455694 0.847332 0.713144
O O7 0.178601 0.808383 0.734063
O O8 0.237292 0.998395 0.684931
O O9 0.052676 0.601235 0.103499
O O10 0.624008 0.465643 0.561189
O O11 0.543825 0.333980 0.653399
O O12 0.823149 0.322573 0.629112
O O13 0.183301 0.691566 0.000000
#
# Coordination Sequence:
#
# PCOD9428756 Si02
#       7
#     8   8   4   8   2   8   8
#     4   9  20  41  67  94 134 177 218 283 360 418
#     4  11  22  45  66  96 132 180 227 283 331 406
#     4  12  25  40  70  97 136 184 240 278 358 423
#     4  11  22  44  67 104 137 175 224 279 332 406
#     4  12  24  40  74 104 144 178 222 266 352 396
#     4  10  23  42  66  99 137 175 230 297 354 420
#     4  10  22  42  74  91 139 182 221 287 337 386
#
# _framework density 21.651717000000001
#
# number of rings (size 3 to 8) (size 9 to 14) (size 15 to 20)
#    0.000    1.565    3.478    0.261    2.435    2.087 
#    0.000    1.739    0.000    0.000    0.000    0.000 
#    0.000    0.000    0.000    0.000    0.000    0.000 
#
# Total GULP energy -256206.003315 kJ/mol
# GULP energy per Si atom -5569.695724 kJ/mol
# Density = 2.160244 g / cm^3
# Si number density = 21.651717 Si / 1000 Ang^3
#
#
#
# Elastic Constant Matrix: (Units=GPa)
#
#
# Indices 1 2 3 4 5 6 
#
# 1 150.7553 77.2100 29.8398 0.0000 0.0000 0.0000
# 2 77.2100 153.1505 21.9934 0.0000 0.0000 0.0000
# 3 29.8398 21.9934 36.5315 0.0000 0.0000 0.0000
# 4 0.0000 0.0000 0.0000 -6.2717 0.0000 0.0000
# 5 0.0000 0.0000 0.0000 0.0000 27.6677 0.0000
# 6 0.0000 0.0000 0.0000 0.0000 0.0000 64.5171
#
#
#
# Elastic Compliance Matrix: (Units=1/GPa)
#
#
# Indices 1 2 3 4 5 6 
#
# 1 0.009872 -0.004180 -0.005547 0.000000 0.000000 0.000000
# 2 -0.004180 0.008918 -0.001954 0.000000 0.000000 0.000000
# 3 -0.005547 -0.001954 0.033081 0.000000 0.000000 0.000000
# 4 0.000000 0.000000 0.000000 -0.159446 0.000000 0.000000
# 5 0.000000 0.000000 0.000000 0.000000 0.036143 0.000000
# 6 0.000000 0.000000 0.000000 0.000000 0.000000 0.015500
#
#
# Mechanical properties :
#
#
# Convention : Reuss Voigt Hill
#
# Bulk Modulus (GPa) = 35.07825 66.50262 50.79043
# Shear Modulus (GPa) = -216.76480 31.27557 -92.74462
#
# Velocity S-wave (km/s) = -10.01657 3.80476 -6.55193
# Velocity P-wave (km/s) = 10.84155 7.07693 5.80759
#
# Compressibility (1/GPa) = 0.02850770
#
# Stress axis : x y z
#
# Youngs Moduli (GPa) = 101.29389 112.13655 30.22879
#
# Poissons Ratio (x) = 0.46878 0.16768
# Poissons Ratio (y) = 0.42345 0.05907
# Poissons Ratio (z) = 0.56189 0.21913
#
# Static dielectric constant tensor:
#      x y z
#    x 1.785990 0.000000 0.000000 
#    y 0.000000 1.881730 0.000000 
#    z 0.000000 0.000000 1.780380 
# 
# From -- ./inp_files/23440.got.cif
#   From: 2010.05.17/outbox.cif.g08.bks.cpg/sg55_12_cif.got.tgz:23440.got - 2010.06.03 13:27:54.
