data_PCOD9428416
_publ_section_title
;
Structure prediction by ZEFSAII (Michael W. Deem and Ramdas Pophale) SiO2 
 PCOD9428416
Probable space group: P B A M
;
_chemical_formula_sum "Si O2"
_cell_formula_units_Z 56
_cell_length_a 14.732398
_cell_length_b 21.485839
_cell_length_c 8.943063
_cell_angle_alpha 90.000000
_cell_angle_beta 90.000000
_cell_angle_gamma 90.000000
_cell_volume 2830.818663
_symmetry_space_group_name_H-M "P B A M"
_symmetry_group_IT_number 55
_symmetry_cell_setting 'orthorhombic'
loop_
_space_group_symop_operation_xyz
x,y,z
-x,-y,z
1/2+x,1/2-y,-z
1/2-x,1/2+y,-z
-x,-y,-z
x,y,-z
1/2-x,1/2+y,z
1/2+x,1/2-y,z
loop_
_atom_site_type_symbol
_atom_site_label
_atom_site_fract_x
_atom_site_fract_y
_atom_site_fract_z
Si Si1 0.609936 0.882353 0.823377
Si Si2 0.416864 0.676753 0.178814
Si Si3 0.586590 0.458963 0.320813
Si Si4 0.787476 0.489851 0.323456
Si Si5 0.400740 0.900703 0.822496
Si Si6 0.886689 0.234763 0.822166
Si Si7 0.300986 0.784047 0.677758
O O1 0.679452 0.921508 0.725377
O O2 0.508042 0.906526 0.793686
O O3 0.610579 0.808805 0.793508
O O4 0.629866 0.891493 0.000000
O O5 0.412050 0.606816 0.237957
O O6 0.516254 0.704947 0.215578
O O7 0.341433 0.720683 0.253131
O O8 0.405326 0.678866 0.000000
O O9 0.500000 0.500000 0.277272
O O10 0.582389 0.447858 0.500000
O O11 0.680677 0.494569 0.290455
O O12 0.801516 0.499064 0.500000
O O13 0.846243 0.539491 0.232986
O O14 0.361504 0.840468 0.739621
O O15 0.389681 0.891921 0.000000
O O16 0.802030 0.207251 0.733138
O O17 0.871901 0.225954 0.000000
O O18 0.304871 0.781787 0.500000
#
# Coordination Sequence:
#
# PCOD9428416 Si02
#       7
#     8   8   8   8   8   8   8
#     4  10  21  41  65  91 124 166 208 253 314 377
#     4  11  23  43  68  96 127 165 215 264 314 374
#     4  10  24  45  65  90 130 172 213 263 320 380
#     4  11  24  40  61  93 128 166 211 261 319 374
#     4  11  23  42  65  91 125 165 213 262 316 375
#     4  10  22  41  65  93 127 166 209 259 312 375
#     4  12  25  40  63  96 131 168 210 260 323 380
#
# _framework density 19.782263
#
# number of rings (size 3 to 8) (size 9 to 14) (size 15 to 20)
#    0.000    1.286    1.429    3.857    2.000    8.286 
#    0.000    0.000    0.000    0.000    0.000    0.000 
#    0.000    0.000    0.000    0.000    0.000    0.000 
#
# Total GULP energy -313330.994860 kJ/mol
# GULP energy per Si atom -5595.196337 kJ/mol
# Density = 1.973724 g / cm^3
# Si number density = 19.782263 Si / 1000 Ang^3
#
#
#
# Elastic Constant Matrix: (Units=GPa)
#
#
# Indices 1 2 3 4 5 6 
#
# 1 79.5615 -7.5810 36.8077 0.0000 0.0000 0.0000
# 2 -7.5810 37.0154 6.0793 0.0000 0.0000 0.0000
# 3 36.8077 6.0793 45.1999 0.0000 0.0000 0.0000
# 4 0.0000 0.0000 0.0000 31.6957 0.0000 0.0000
# 5 0.0000 0.0000 0.0000 0.0000 19.8684 0.0000
# 6 0.0000 0.0000 0.0000 0.0000 0.0000 21.0279
#
#
#
# Elastic Compliance Matrix: (Units=1/GPa)
#
#
# Indices 1 2 3 4 5 6 
#
# 1 0.022100 0.007651 -0.019026 0.000000 0.000000 0.000000
# 2 0.007651 0.030275 -0.010302 0.000000 0.000000 0.000000
# 3 -0.019026 -0.010302 0.039003 0.000000 0.000000 0.000000
# 4 0.000000 0.000000 0.000000 0.031550 0.000000 0.000000
# 5 0.000000 0.000000 0.000000 0.000000 0.050331 0.000000
# 6 0.000000 0.000000 0.000000 0.000000 0.000000 0.047556
#
#
# Mechanical properties :
#
#
# Convention : Reuss Voigt Hill
#
# Bulk Modulus (GPa) = 20.82324 25.82100 23.32212
# Shear Modulus (GPa) = 17.84591 22.94977 20.39784
#
# Velocity S-wave (km/s) = 3.00678 3.40975 3.21459
# Velocity P-wave (km/s) = 4.75430 5.34629 5.05896
#
# Compressibility (1/GPa) = 0.04802327
#
# Stress axis : x y z
#
# Youngs Moduli (GPa) = 45.24934 33.03083 25.63923
#
# Poissons Ratio (x) = -0.25272 0.48780
# Poissons Ratio (y) = -0.34620 0.26414
# Poissons Ratio (z) = 0.86090 0.34029
#
# Static dielectric constant tensor:
#      x y z
#    x 1.691500 0.000000 0.000000 
#    y 0.000000 1.671900 0.000000 
#    z 0.000000 0.000000 1.659870 
# 
# From -- ./inp_files/6114.got.cif
#   From: 2010.05.17/outbox.cif.g08.bks.cpg/sg55_4_cif.got.tgz:6114.got - 2010.06.03 13:27:54.
