data_PCOD9428698
_publ_section_title
;
Structure prediction by ZEFSAII (Michael W. Deem and Ramdas Pophale) SiO2 
 PCOD9428698
Probable space group: P B A M
;
_chemical_formula_sum "Si O2"
_cell_formula_units_Z 40
_cell_length_a 8.391558
_cell_length_b 24.386682
_cell_length_c 8.391348
_cell_angle_alpha 90.000000
_cell_angle_beta 90.000000
_cell_angle_gamma 90.000000
_cell_volume 1717.224389
_symmetry_space_group_name_H-M "P B A M"
_symmetry_group_IT_number 55
_symmetry_cell_setting 'orthorhombic'
loop_
_space_group_symop_operation_xyz
x,y,z
-x,-y,z
1/2+x,1/2-y,-z
1/2-x,1/2+y,-z
-x,-y,-z
x,y,-z
1/2-x,1/2+y,z
1/2+x,1/2-y,z
loop_
_atom_site_type_symbol
_atom_site_label
_atom_site_fract_x
_atom_site_fract_y
_atom_site_fract_z
Si Si1 0.666582 0.132103 0.186038
Si Si2 0.853004 0.421519 0.684914
Si Si3 0.664638 0.730999 0.315386
Si Si4 0.827618 0.021813 0.191781
Si Si5 0.850034 0.828067 0.814107
O O1 0.497760 0.103302 0.214165
O O2 0.696532 0.185972 0.288897
O O3 0.794925 0.085110 0.229288
O O4 0.685110 0.146689 0.000000
O O5 0.894490 0.418145 0.500000
O O6 0.805184 0.482818 0.732111
O O7 0.702065 0.382915 0.724421
O O8 0.653702 0.746603 0.500000
O O9 0.505611 0.700822 0.257261
O O10 0.708820 0.783945 0.212244
O O11 0.816452 0.016407 0.000000
O O12 0.000000 0.000000 0.242592
O O13 0.873623 0.839957 0.000000
#
# Coordination Sequence:
#
# PCOD9428698 Si02
#       5
#     8   8   8   8   8
#     4  11  23  41  65  93 127 169 213 255 308 375
#     4  12  25  41  63  93 128 165 209 263 318 367
#     4  12  25  43  66  96 130 162 205 261 317 367
#     4  10  22  41  65  92 124 164 211 260 311 374
#     4  12  25  44  67  92 125 167 212 254 308 376
#
# _framework density 23.293403000000001
#
# number of rings (size 3 to 8) (size 9 to 14) (size 15 to 20)
#    0.000    0.600    0.000    9.000    0.000    6.000 
#    0.000    0.000    0.000    0.000    0.000    0.000 
#    0.000    0.000    0.000    0.000    0.000    0.000 
#
# Total GULP energy -224298.007980 kJ/mol
# GULP energy per Si atom -5607.450200 kJ/mol
# Density = 2.324039 g / cm^3
# Si number density = 23.293403 Si / 1000 Ang^3
#
#
#
# Elastic Constant Matrix: (Units=GPa)
#
#
# Indices 1 2 3 4 5 6 
#
# 1 64.9944 -11.9149 -11.1476 0.0000 0.0000 0.0000
# 2 -11.9149 75.7152 10.7639 0.0000 0.0000 0.0000
# 3 -11.1476 10.7639 50.0527 0.0000 0.0000 0.0000
# 4 0.0000 0.0000 0.0000 -32.1466 0.0000 0.0000
# 5 0.0000 0.0000 0.0000 0.0000 29.8608 0.0000
# 6 0.0000 0.0000 0.0000 0.0000 0.0000 42.2590
#
#
#
# Elastic Compliance Matrix: (Units=1/GPa)
#
#
# Indices 1 2 3 4 5 6 
#
# 1 0.016319 0.002116 0.003180 0.000000 0.000000 0.000000
# 2 0.002116 0.013898 -0.002518 0.000000 0.000000 0.000000
# 3 0.003180 -0.002518 0.021228 0.000000 0.000000 0.000000
# 4 0.000000 0.000000 0.000000 -0.031108 0.000000 0.000000
# 5 0.000000 0.000000 0.000000 0.000000 0.033489 0.000000
# 6 0.000000 0.000000 0.000000 0.000000 0.000000 0.023664
#
#
# Mechanical properties :
#
#
# Convention : Reuss Voigt Hill
#
# Bulk Modulus (GPa) = 17.54325 18.46279 18.00302
# Shear Modulus (GPa) = 54.98406 21.53203 38.25805
#
# Velocity S-wave (km/s) = 4.86377 3.04367 4.05710
# Velocity P-wave (km/s) = 6.25215 4.50503 5.44907
#
# Compressibility (1/GPa) = 0.05700198
#
# Stress axis : x y z
#
# Youngs Moduli (GPa) = 61.27748 71.95137 47.10653
#
# Poissons Ratio (x) = -0.15225 -0.14978
# Poissons Ratio (y) = -0.12967 0.11859
# Poissons Ratio (z) = -0.19483 0.18114
#
# Static dielectric constant tensor:
#      x y z
#    x 1.930930 0.000000 0.000000 
#    y 0.000000 1.837710 0.000000 
#    z 0.000000 0.000000 1.776950 
# 
# From -- ./inp_files/2315.got.cif
#   From: 2010.05.17/outbox.cif.g08.bks.cpg/sg55_2_cif.got.tgz:2315.got - 2010.06.03 13:27:54.
