data_PCOD9428161
_publ_section_title
;
Structure prediction by ZEFSAII (Michael W. Deem and Ramdas Pophale) SiO2 
 PCOD9428161
Probable space group: P B A M
;
_chemical_formula_sum "Si O2"
_cell_formula_units_Z 40
_cell_length_a 16.937734
_cell_length_b 7.942695
_cell_length_c 13.197309
_cell_angle_alpha 90.000000
_cell_angle_beta 90.000000
_cell_angle_gamma 90.000000
_cell_volume 1775.450544
_symmetry_space_group_name_H-M "P B A M"
_symmetry_group_IT_number 55
_symmetry_cell_setting 'orthorhombic'
loop_
_space_group_symop_operation_xyz
x,y,z
-x,-y,z
1/2+x,1/2-y,-z
1/2-x,1/2+y,-z
-x,-y,-z
x,y,-z
1/2-x,1/2+y,z
1/2+x,1/2-y,z
loop_
_atom_site_type_symbol
_atom_site_label
_atom_site_fract_x
_atom_site_fract_y
_atom_site_fract_z
Si Si1 0.125144 0.910213 0.000000
Si Si2 0.788274 0.731493 0.000000
Si Si3 0.123024 0.405316 0.808938
Si Si4 0.201680 0.259852 0.385231
Si Si5 0.542398 0.730449 0.191299
Si Si6 0.127883 0.887336 0.385496
O O1 0.073393 0.882907 0.099739
O O2 0.170869 0.086587 0.000000
O O3 0.194138 0.769680 0.000000
O O4 0.817606 0.636253 0.100510
O O5 0.164053 0.372538 0.701763
O O6 0.088867 0.592207 0.816111
O O7 0.048903 0.278453 0.817524
O O8 0.185452 0.321045 0.500000
O O9 0.296258 0.265060 0.373353
O O10 0.165263 0.073713 0.375544
O O11 0.565231 0.650382 0.298821
O O12 0.096376 0.868964 0.500000
#
# Coordination Sequence:
#
# PCOD9428161 Si02
#       6
#     4   4   8   8   8   8
#     4  12  25  42  65  89 117 153 195 242 291 348
#     4  12  25  42  65  89 117 153 195 242 291 348
#     4  11  24  41  61  87 121 157 194 240 294 350
#     4  10  21  38  61  88 119 156 199 245 291 344
#     4  11  24  41  61  87 121 157 194 240 294 350
#     4  10  21  38  61  88 119 156 199 245 291 344
#
# _framework density 22.529494
#
# number of rings (size 3 to 8) (size 9 to 14) (size 15 to 20)
#    0.000    1.200    0.000    6.000    0.000    8.800 
#    0.000    4.000    0.000    0.000    0.000    0.000 
#    0.000    0.000    0.000    0.000    0.000    0.000 
#
# Total GULP energy -224180.844078 kJ/mol
# GULP energy per Si atom -5604.521102 kJ/mol
# Density = 2.247822 g / cm^3
# Si number density = 22.529494 Si / 1000 Ang^3
#
#
#
# Elastic Constant Matrix: (Units=GPa)
#
#
# Indices 1 2 3 4 5 6 
#
# 1 77.1783 12.2138 57.0679 0.0000 0.0000 0.0000
# 2 12.2138 80.4846 35.7745 0.0000 0.0000 0.0000
# 3 57.0679 35.7745 140.4502 0.0000 0.0000 0.0000
# 4 0.0000 0.0000 0.0000 -17.7622 0.0000 0.0000
# 5 0.0000 0.0000 0.0000 0.0000 -37.6653 0.0000
# 6 0.0000 0.0000 0.0000 0.0000 0.0000 37.1136
#
#
#
# Elastic Compliance Matrix: (Units=1/GPa)
#
#
# Indices 1 2 3 4 5 6 
#
# 1 0.018548 0.000603 -0.007690 0.000000 0.000000 0.000000
# 2 0.000603 0.014031 -0.003819 0.000000 0.000000 0.000000
# 3 -0.007690 -0.003819 0.011217 0.000000 0.000000 0.000000
# 4 0.000000 0.000000 0.000000 -0.056299 0.000000 0.000000
# 5 0.000000 0.000000 0.000000 0.000000 -0.026550 0.000000
# 6 0.000000 0.000000 0.000000 0.000000 0.000000 0.026944
#
#
# Mechanical properties :
#
#
# Convention : Reuss Voigt Hill
#
# Bulk Modulus (GPa) = 45.48640 56.46949 50.97794
# Shear Modulus (GPa) = 293.59111 9.20767 151.39939
#
# Velocity S-wave (km/s) = 11.42791 2.02381 8.20649
# Velocity P-wave (km/s) = 13.94141 5.52994 10.60526
#
# Compressibility (1/GPa) = 0.02198459
#
# Stress axis : x y z
#
# Youngs Moduli (GPa) = 53.91483 71.27247 89.14761
#
# Poissons Ratio (x) = -0.04301 0.68555
# Poissons Ratio (y) = -0.03254 0.34045
# Poissons Ratio (z) = 0.41461 0.27219
#
# Static dielectric constant tensor:
#      x y z
#    x 1.777830 0.000000 0.000000 
#    y 0.000000 1.854160 0.000000 
#    z 0.000000 0.000000 1.778830 
# 
# From -- ./inp_files/11910.got.cif
#   From: 2010.05.17/outbox.cif.g08.bks.cpg/sg55_6_cif.got.tgz:11910.got - 2010.06.03 13:27:54.
