data_PCOD9428037
_publ_section_title
;
Structure prediction by ZEFSAII (Michael W. Deem and Ramdas Pophale) SiO2 
 PCOD9428037
Probable space group: P B A M
;
_chemical_formula_sum "Si O2"
_cell_formula_units_Z 48
_cell_length_a 15.942016
_cell_length_b 5.036350
_cell_length_c 26.571058
_cell_angle_alpha 90.000000
_cell_angle_beta 90.000000
_cell_angle_gamma 90.000000
_cell_volume 2133.378882
_symmetry_space_group_name_H-M "P B A M"
_symmetry_group_IT_number 55
_symmetry_cell_setting 'orthorhombic'
loop_
_space_group_symop_operation_xyz
x,y,z
-x,-y,z
1/2+x,1/2-y,-z
1/2-x,1/2+y,-z
-x,-y,-z
x,y,-z
1/2-x,1/2+y,z
1/2+x,1/2-y,z
loop_
_atom_site_type_symbol
_atom_site_label
_atom_site_fract_x
_atom_site_fract_y
_atom_site_fract_z
Si Si1 0.811281 0.586901 0.000000
Si Si2 0.410350 0.646463 0.238117
Si Si3 0.197090 0.872391 0.847332
Si Si4 0.808938 0.744483 0.338018
Si Si5 0.500000 0.000000 0.830495
Si Si6 0.425699 0.651445 0.081094
Si Si7 0.808616 0.857051 0.554524
O O1 0.872506 0.645676 0.047407
O O2 0.763439 0.307368 0.000000
O O3 0.500000 0.500000 0.241358
O O4 0.350967 0.467958 0.202670
O O5 0.368880 0.698267 0.291518
O O6 0.427481 0.924826 0.209607
O O7 0.276658 0.068490 0.849396
O O8 0.141198 0.950432 0.894893
O O9 0.768543 0.452831 0.335468
O O10 0.852082 0.795103 0.392449
O O11 0.524727 0.222832 0.871371
O O12 0.500000 0.500000 0.052850
O O13 0.851226 0.817425 0.500000
O O14 0.729868 0.652032 0.555433
#
# Coordination Sequence:
#
# PCOD9428037 Si02
#       7
#     4   8   8   8   4   8   8
#     4  12  29  51  76 106 138 170 210 262 313 364
#     4  11  25  39  60  88 126 169 218 256 317 378
#     4  11  24  40  64  91 125 162 204 256 303 363
#     4  10  21  37  59  88 124 163 209 268 322 372
#     4  10  24  41  66  86 123 166 212 248 304 370
#     4  11  26  45  73 100 134 169 211 251 316 379
#     4   8  14  27  50  81 114 152 202 259 317 374
#
# _framework density 22.499518999999999
#
# number of rings (size 3 to 8) (size 9 to 14) (size 15 to 20)
#    0.000    1.667    0.000    4.250   14.000    0.333 
#    0.000    0.000    0.000    0.500    0.000    0.583 
#    0.000    0.000    0.000    0.000    0.000    0.000 
#
# Total GULP energy -267932.376672 kJ/mol
# GULP energy per Si atom -5581.924514 kJ/mol
# Density = 2.244831 g / cm^3
# Si number density = 22.499519 Si / 1000 Ang^3
#
#
#
# Elastic Constant Matrix: (Units=GPa)
#
#
# Indices 1 2 3 4 5 6 
#
# 1 63.5030 22.3512 38.1415 0.0000 0.0000 0.0000
# 2 22.3512 79.7841 10.7398 0.0000 0.0000 0.0000
# 3 38.1415 10.7398 189.9398 0.0000 0.0000 0.0000
# 4 0.0000 0.0000 0.0000 76.9671 0.0000 0.0000
# 5 0.0000 0.0000 0.0000 0.0000 -244.4141 0.0000
# 6 0.0000 0.0000 0.0000 0.0000 0.0000 20.2642
#
#
#
# Elastic Compliance Matrix: (Units=1/GPa)
#
#
# Indices 1 2 3 4 5 6 
#
# 1 0.019727 -0.005031 -0.003677 0.000000 0.000000 0.000000
# 2 -0.005031 0.013913 0.000224 0.000000 0.000000 0.000000
# 3 -0.003677 0.000224 0.005991 0.000000 0.000000 0.000000
# 4 0.000000 0.000000 0.000000 0.012993 0.000000 0.000000
# 5 0.000000 0.000000 0.000000 0.000000 -0.004091 0.000000
# 6 0.000000 0.000000 0.000000 0.000000 0.000000 0.049348
#
#
# Mechanical properties :
#
#
# Convention : Reuss Voigt Hill
#
# Bulk Modulus (GPa) = 44.12813 52.85467 48.49140
# Shear Modulus (GPa) = 40.84886 -11.97028 14.43929
#
# Velocity S-wave (km/s) = 4.26554 -2.30907 2.53605
# Velocity P-wave (km/s) = 6.62686 4.05381 5.49312
#
# Compressibility (1/GPa) = 0.02266128
#
# Stress axis : x y z
#
# Youngs Moduli (GPa) = 50.69309 71.87398 166.93081
#
# Poissons Ratio (x) = 0.36163 0.61377
# Poissons Ratio (y) = 0.25506 -0.03733
# Poissons Ratio (z) = 0.18639 -0.01607
#
# Static dielectric constant tensor:
#      x y z
#    x 1.861480 0.000000 0.000000 
#    y 0.000000 1.886350 0.000000 
#    z 0.000000 0.000000 1.869190 
# 
# From -- ./inp_files/23989.got.cif
#   From: 2010.05.17/outbox.cif.g08.bks.cpg/sg55_12_cif.got.tgz:23989.got - 2010.06.03 13:27:54.
