data_PCOD9428319
_publ_section_title
;
Structure prediction by ZEFSAII (Michael W. Deem and Ramdas Pophale) SiO2 
 PCOD9428319
Probable space group: P B A M
;
_chemical_formula_sum "Si O2"
_cell_formula_units_Z 64
_cell_length_a 15.587496
_cell_length_b 8.769543
_cell_length_c 21.475262
_cell_angle_alpha 90.000000
_cell_angle_beta 90.000000
_cell_angle_gamma 90.000000
_cell_volume 2935.565587
_symmetry_space_group_name_H-M "P B A M"
_symmetry_group_IT_number 55
_symmetry_cell_setting 'orthorhombic'
loop_
_space_group_symop_operation_xyz
x,y,z
-x,-y,z
1/2+x,1/2-y,-z
1/2-x,1/2+y,-z
-x,-y,-z
x,y,-z
1/2-x,1/2+y,z
1/2+x,1/2-y,z
loop_
_atom_site_type_symbol
_atom_site_label
_atom_site_fract_x
_atom_site_fract_y
_atom_site_fract_z
Si Si1 0.730077 0.450102 0.717306
Si Si2 0.020343 0.320056 0.427209
Si Si3 0.148518 0.274825 0.071761
Si Si4 0.794428 0.041159 0.863031
Si Si5 0.073075 0.871792 0.674985
Si Si6 0.995128 0.325532 0.231840
Si Si7 0.022904 0.830883 0.109675
Si Si8 0.646961 0.164275 0.328100
O O1 0.716706 0.498574 0.789654
O O2 0.658578 0.531211 0.674446
O O3 0.817585 0.498850 0.685081
O O4 0.713615 0.273768 0.705814
O O5 0.017406 0.285596 0.500000
O O6 0.114807 0.298615 0.396775
O O7 0.000000 0.500000 0.417903
O O8 0.955245 0.215524 0.387465
O O9 0.203300 0.396643 0.111629
O O10 0.043439 0.279464 0.073041
O O11 0.178093 0.112383 0.100637
O O12 0.175545 0.286622 0.000000
O O13 0.873098 0.161781 0.879859
O O14 0.083159 0.752071 0.732038
O O15 0.000000 0.000000 0.689288
O O16 0.013852 0.205902 0.178035
O O17 0.063038 0.321202 0.286525
O O18 0.000000 0.500000 0.208229
O O19 0.000000 0.000000 0.087384
#
# Coordination Sequence:
#
# PCOD9428319 Si02
#       8
#     8   8   8   8   8   8   8   8
#     4  12  23  38  63  96 133 156 212 265 341 386
#     4  10  23  45  67  91 128 177 224 258 311 384
#     4  11  25  43  63  90 126 172 221 266 323 400
#     4  11  23  41  66  93 130 167 215 274 339 398
#     4  11  20  38  64  91 125 166 206 265 310 376
#     4  11  21  36  60  90 127 161 207 261 328 385
#     4  10  21  39  65  89 119 166 218 267 326 400
#     4  11  24  38  60  95 130 169 202 269 323 380
#
# _framework density 21.801590999999998
#
# number of rings (size 3 to 8) (size 9 to 14) (size 15 to 20)
#    0.000    1.125    3.750    5.250    3.500    5.000 
#    0.000    1.250    0.000    1.875    0.000    0.000 
#    0.000    0.000    0.000    0.000    0.000    0.000 
#
# Total GULP energy -356510.157945 kJ/mol
# GULP energy per Si atom -5570.471218 kJ/mol
# Density = 2.175197 g / cm^3
# Si number density = 21.801591 Si / 1000 Ang^3
#
#
#
# Elastic Constant Matrix: (Units=GPa)
#
#
# Indices 1 2 3 4 5 6 
#
# 1 27.2543 6.2318 16.0027 0.0000 0.0000 0.0000
# 2 6.2318 50.5901 16.8959 0.0000 0.0000 0.0000
# 3 16.0027 16.8959 129.7876 0.0000 0.0000 0.0000
# 4 0.0000 0.0000 0.0000 20.1963 0.0000 0.0000
# 5 0.0000 0.0000 0.0000 0.0000 17.9804 0.0000
# 6 0.0000 0.0000 0.0000 0.0000 0.0000 39.7402
#
#
#
# Elastic Compliance Matrix: (Units=1/GPa)
#
#
# Indices 1 2 3 4 5 6 
#
# 1 0.040119 -0.003439 -0.004499 0.000000 0.000000 0.000000
# 2 -0.003439 0.020960 -0.002305 0.000000 0.000000 0.000000
# 3 -0.004499 -0.002305 0.008560 0.000000 0.000000 0.000000
# 4 0.000000 0.000000 0.000000 0.049514 0.000000 0.000000
# 5 0.000000 0.000000 0.000000 0.000000 0.055616 0.000000
# 6 0.000000 0.000000 0.000000 0.000000 0.000000 0.025163
#
#
# Mechanical properties :
#
#
# Convention : Reuss Voigt Hill
#
# Bulk Modulus (GPa) = 20.34451 31.76585 26.05518
# Shear Modulus (GPa) = 21.11460 26.81682 23.96571
#
# Velocity S-wave (km/s) = 3.11543 3.51100 3.31911
# Velocity P-wave (km/s) = 4.72156 5.57119 5.16388
#
# Compressibility (1/GPa) = 0.04915332
#
# Stress axis : x y z
#
# Youngs Moduli (GPa) = 24.92554 47.70984 116.82773
#
# Poissons Ratio (x) = 0.16410 0.52560
# Poissons Ratio (y) = 0.08573 0.26923
# Poissons Ratio (z) = 0.11214 0.10995
#
# Static dielectric constant tensor:
#      x y z
#    x 2.001750 0.000000 0.000000 
#    y 0.000000 1.843910 0.000000 
#    z 0.000000 0.000000 1.753910 
# 
# From -- ./inp_files/23080.got.cif
#   From: 2010.05.17/outbox.cif.g08.bks.cpg/sg55_12_cif.got.tgz:23080.got - 2010.06.03 13:27:54.
