data_PCOD9428832
_publ_section_title
;
Structure prediction by ZEFSAII (Michael W. Deem and Ramdas Pophale) SiO2 
 PCOD9428832
Probable space group: P B A M
;
_chemical_formula_sum "Si O2"
_cell_formula_units_Z 28
_cell_length_a 29.120911
_cell_length_b 5.069269
_cell_length_c 7.291328
_cell_angle_alpha 90.000000
_cell_angle_beta 90.000000
_cell_angle_gamma 90.000000
_cell_volume 1076.358463
_symmetry_space_group_name_H-M "P B A M"
_symmetry_group_IT_number 55
_symmetry_cell_setting 'orthorhombic'
loop_
_space_group_symop_operation_xyz
x,y,z
-x,-y,z
1/2+x,1/2-y,-z
1/2-x,1/2+y,-z
-x,-y,-z
x,y,-z
1/2-x,1/2+y,z
1/2+x,1/2-y,z
loop_
_atom_site_type_symbol
_atom_site_label
_atom_site_fract_x
_atom_site_fract_y
_atom_site_fract_z
Si Si1 0.276475 0.686727 0.277351
Si Si2 0.090084 0.516852 0.000000
Si Si3 0.541909 0.312136 0.712219
Si Si4 0.864124 0.147999 0.712545
O O1 0.277512 0.694624 0.500000
O O2 0.263404 0.980776 0.220410
O O3 0.323685 0.545945 0.223970
O O4 0.127007 0.605712 0.159533
O O5 0.052819 0.430674 0.159233
O O6 0.500000 0.500000 0.768085
O O7 0.535735 0.237593 0.500000
O O8 0.588347 0.485843 0.729430
O O9 0.856283 0.221736 0.500000
#
# Coordination Sequence:
#
# PCOD9428832 Si02
#       4
#     8   4   8   8
#     4   9  19  37  65  95 127 173 227 281 343 414
#     4  12  23  39  65  93 126 169 219 274 334 402
#     4  10  23  42  64  94 135 178 224 281 346 412
#     4  10  23  41  63  93 128 170 221 277 342 412
#
# _framework density 26.013638
#
# number of rings (size 3 to 8) (size 9 to 14) (size 15 to 20)
#    0.000    2.000    0.000    2.143    4.000    2.286 
#    0.000    5.714    0.000    0.000    0.000    0.000 
#    0.000    0.000    0.000    0.000    0.000    0.000 
#
# Total GULP energy -155878.363692 kJ/mol
# GULP energy per Si atom -5567.084418 kJ/mol
# Density = 2.595443 g / cm^3
# Si number density = 26.013638 Si / 1000 Ang^3
#
#
#
# Elastic Constant Matrix: (Units=GPa)
#
#
# Indices 1 2 3 4 5 6 
#
# 1 107.8032 12.5560 14.5242 0.0000 0.0000 0.0000
# 2 12.5560 77.8358 13.3203 0.0000 0.0000 0.0000
# 3 14.5242 13.3203 89.7997 0.0000 0.0000 0.0000
# 4 0.0000 0.0000 0.0000 -6.9514 0.0000 0.0000
# 5 0.0000 0.0000 0.0000 0.0000 26.9779 0.0000
# 6 0.0000 0.0000 0.0000 0.0000 0.0000 43.4302
#
#
#
# Elastic Compliance Matrix: (Units=1/GPa)
#
#
# Indices 1 2 3 4 5 6 
#
# 1 0.009613 -0.001318 -0.001359 0.000000 0.000000 0.000000
# 2 -0.001318 0.013363 -0.001769 0.000000 0.000000 0.000000
# 3 -0.001359 -0.001769 0.011618 0.000000 0.000000 0.000000
# 4 0.000000 0.000000 0.000000 -0.143856 0.000000 0.000000
# 5 0.000000 0.000000 0.000000 0.000000 0.037067 0.000000
# 6 0.000000 0.000000 0.000000 0.000000 0.000000 0.023025
#
#
# Mechanical properties :
#
#
# Convention : Reuss Voigt Hill
#
# Bulk Modulus (GPa) = 38.90860 39.58217 39.24539
# Shear Modulus (GPa) = -157.67940 28.36056 -64.65942
#
# Velocity S-wave (km/s) = -7.79395 3.30543 -4.99098
# Velocity P-wave (km/s) = 8.12433 5.46047 4.25371
#
# Compressibility (1/GPa) = 0.02570126
#
# Stress axis : x y z
#
# Youngs Moduli (GPa) = 104.02779 74.83396 86.07228
#
# Poissons Ratio (x) = 0.09864 0.11700
# Poissons Ratio (y) = 0.13712 0.15226
# Poissons Ratio (z) = 0.14140 0.13238
#
# Static dielectric constant tensor:
#      x y z
#    x 2.045200 0.000000 0.000000 
#    y 0.000000 2.089390 0.000000 
#    z 0.000000 0.000000 2.009010 
# 
# From -- ./inp_files/1291.got.cif
#   From: 2010.05.17/outbox.cif.g08.bks.cpg/sg55_1_cif.got.tgz:1291.got - 2010.06.03 13:27:54.
