data_PCOD9428221
_publ_section_title
;
Structure prediction by ZEFSAII (Michael W. Deem and Ramdas Pophale) SiO2 
 PCOD9428221
Probable space group: P B A M
;
_chemical_formula_sum "Si O2"
_cell_formula_units_Z 32
_cell_length_a 9.182100
_cell_length_b 11.135479
_cell_length_c 11.938105
_cell_angle_alpha 90.000000
_cell_angle_beta 90.000000
_cell_angle_gamma 90.000000
_cell_volume 1220.636398
_symmetry_space_group_name_H-M "P B A M"
_symmetry_group_IT_number 55
_symmetry_cell_setting 'orthorhombic'
loop_
_space_group_symop_operation_xyz
x,y,z
-x,-y,z
1/2+x,1/2-y,-z
1/2-x,1/2+y,-z
-x,-y,-z
x,y,-z
1/2-x,1/2+y,z
1/2+x,1/2-y,z
loop_
_atom_site_type_symbol
_atom_site_label
_atom_site_fract_x
_atom_site_fract_y
_atom_site_fract_z
Si Si1 0.829529 0.095422 0.000000
Si Si2 0.401715 0.881644 0.378295
Si Si3 0.591714 0.379101 0.627597
Si Si4 0.783781 0.464870 0.809534
Si Si5 0.482435 0.156380 0.000000
O O1 0.935243 0.206528 0.000000
O O2 0.837952 0.010311 0.106215
O O3 0.657211 0.140457 0.000000
O O4 0.321869 0.873717 0.500000
O O5 0.479887 0.752893 0.366287
O O6 0.500000 0.000000 0.386771
O O7 0.319972 0.917070 0.264999
O O8 0.500000 0.500000 0.648313
O O9 0.646374 0.391170 0.500000
O O10 0.719652 0.375484 0.717957
O O11 0.905297 0.403631 0.889807
#
# Coordination Sequence:
#
# PCOD9428221 Si02
#       5
#     4   8   8   8   4
#     4  11  25  43  66  96 135 182 236 297 358 421
#     4  10  21  38  63  94 130 176 226 280 348 421
#     4  10  23  42  65 101 145 185 233 295 357 423
#     4  11  22  39  65  94 132 182 234 284 347 426
#     4  11  25  45  68  98 137 182 237 297 356 425
#
# _framework density 26.215833
#
# number of rings (size 3 to 8) (size 9 to 14) (size 15 to 20)
#    0.000    1.500    0.000    5.250    0.000    8.000 
#    0.000    7.500    0.000    0.000    0.000    0.000 
#    0.000    0.000    0.000    0.000    0.000    0.000 
#
# Total GULP energy -178761.849936 kJ/mol
# GULP energy per Si atom -5586.307810 kJ/mol
# Density = 2.615616 g / cm^3
# Si number density = 26.215833 Si / 1000 Ang^3
#
#
#
# Elastic Constant Matrix: (Units=GPa)
#
#
# Indices 1 2 3 4 5 6 
#
# 1 92.8502 38.1952 42.6710 0.0000 0.0000 0.0000
# 2 38.1952 184.3883 24.4812 0.0000 0.0000 0.0000
# 3 42.6710 24.4812 198.0498 0.0000 0.0000 0.0000
# 4 0.0000 0.0000 0.0000 152.7644 0.0000 0.0000
# 5 0.0000 0.0000 0.0000 0.0000 13.0013 0.0000
# 6 0.0000 0.0000 0.0000 0.0000 0.0000 47.1972
#
#
#
# Elastic Compliance Matrix: (Units=1/GPa)
#
#
# Indices 1 2 3 4 5 6 
#
# 1 0.012873 -0.002337 -0.002485 0.000000 0.000000 0.000000
# 2 -0.002337 0.005938 -0.000231 0.000000 0.000000 0.000000
# 3 -0.002485 -0.000231 0.005613 0.000000 0.000000 0.000000
# 4 0.000000 0.000000 0.000000 0.006546 0.000000 0.000000
# 5 0.000000 0.000000 0.000000 0.000000 0.076915 0.000000
# 6 0.000000 0.000000 0.000000 0.000000 0.000000 0.021188
#
#
# Mechanical properties :
#
#
# Convention : Reuss Voigt Hill
#
# Bulk Modulus (GPa) = 69.83134 76.22035 73.02585
# Shear Modulus (GPa) = 34.73406 67.25529 50.99468
#
# Velocity S-wave (km/s) = 3.64390 5.07052 4.41521
# Velocity P-wave (km/s) = 6.66325 7.96351 7.34222
#
# Compressibility (1/GPa) = 0.01432022
#
# Stress axis : x y z
#
# Youngs Moduli (GPa) = 77.68082 168.40721 178.15497
#
# Poissons Ratio (x) = 0.39352 0.44267
# Poissons Ratio (y) = 0.18152 0.04107
# Poissons Ratio (z) = 0.19302 0.03883
#
# Static dielectric constant tensor:
#      x y z
#    x 2.168700 0.000000 0.000000 
#    y 0.000000 2.030260 0.000000 
#    z 0.000000 0.000000 2.212000 
# 
# From -- ./inp_files/12806.got.cif
#   From: 2010.05.17/outbox.cif.g08.bks.cpg/sg55_7_cif.got.tgz:12806.got - 2010.06.03 13:27:54.
