data_PCOD9428438
_publ_section_title
;
Structure prediction by ZEFSAII (Michael W. Deem and Ramdas Pophale) SiO2 
 PCOD9428438
Probable space group: P B A M
;
_chemical_formula_sum "Si O2"
_cell_formula_units_Z 30
_cell_length_a 4.975679
_cell_length_b 13.990122
_cell_length_c 19.797624
_cell_angle_alpha 90.000000
_cell_angle_beta 90.000000
_cell_angle_gamma 90.000000
_cell_volume 1378.119659
_symmetry_space_group_name_H-M "P B A M"
_symmetry_group_IT_number 55
_symmetry_cell_setting 'orthorhombic'
loop_
_space_group_symop_operation_xyz
x,y,z
-x,-y,z
1/2+x,1/2-y,-z
1/2-x,1/2+y,-z
-x,-y,-z
x,y,-z
1/2-x,1/2+y,z
1/2+x,1/2-y,z
loop_
_atom_site_type_symbol
_atom_site_label
_atom_site_fract_x
_atom_site_fract_y
_atom_site_fract_z
Si Si1 0.565317 0.181706 0.400046
Si Si2 0.756574 0.561295 0.125548
Si Si3 0.497365 0.811378 0.242545
Si Si4 0.722138 0.690370 0.000000
Si Si5 0.500000 0.000000 0.500000
O O1 0.342781 0.263273 0.414269
O O2 0.546033 0.158937 0.320156
O O3 0.527265 0.085369 0.442048
O O4 0.500000 0.500000 0.146765
O O5 0.892598 0.613355 0.188923
O O6 0.659332 0.633492 0.067993
O O7 0.000000 0.500000 0.094419
O O8 0.805769 0.781470 0.232654
O O9 0.534855 0.783092 0.000000
#
# Coordination Sequence:
#
# PCOD9428438 Si02
#       5
#     8   8   8   4   2
#     4  10  24  43  65  96 133 168 219 271 320 396
#     4  12  24  39  63  95 128 159 212 273 315 375
#     4  10  21  42  63  88 125 169 207 256 318 383
#     4  12  24  42  64  88 124 174 214 252 324 388
#     4  12  24  42  72  96 132 176 220 266 352 380
#
# _framework density 21.768794
#
# number of rings (size 3 to 8) (size 9 to 14) (size 15 to 20)
#    0.000    1.067    0.000    6.400    1.867    2.133 
#    0.000    0.000    0.000    0.000    0.000    0.000 
#    0.000    0.000    0.000    0.000    0.000    0.000 
#
# Total GULP energy -167315.988571 kJ/mol
# GULP energy per Si atom -5577.199619 kJ/mol
# Density = 2.171925 g / cm^3
# Si number density = 21.768794 Si / 1000 Ang^3
#
#
#
# Elastic Constant Matrix: (Units=GPa)
#
#
# Indices 1 2 3 4 5 6 
#
# 1 58.9547 -7.2147 -2.8875 0.0000 0.0000 0.0000
# 2 -7.2147 100.5242 67.0243 0.0000 0.0000 0.0000
# 3 -2.8875 67.0243 113.3200 0.0000 0.0000 0.0000
# 4 0.0000 0.0000 0.0000 16.2463 0.0000 0.0000
# 5 0.0000 0.0000 0.0000 0.0000 -43.2255 0.0000
# 6 0.0000 0.0000 0.0000 0.0000 0.0000 35.7530
#
#
#
# Elastic Compliance Matrix: (Units=1/GPa)
#
#
# Indices 1 2 3 4 5 6 
#
# 1 0.017128 0.001549 -0.000480 0.000000 0.000000 0.000000
# 2 0.001549 0.016565 -0.009758 0.000000 0.000000 0.000000
# 3 -0.000480 -0.009758 0.014584 0.000000 0.000000 0.000000
# 4 0.000000 0.000000 0.000000 0.061553 0.000000 0.000000
# 5 0.000000 0.000000 0.000000 0.000000 -0.023135 0.000000
# 6 0.000000 0.000000 0.000000 0.000000 0.000000 0.027970
#
#
# Mechanical properties :
#
#
# Convention : Reuss Voigt Hill
#
# Bulk Modulus (GPa) = 32.36267 42.96036 37.66151
# Shear Modulus (GPa) = 35.12640 16.14655 25.63648
#
# Velocity S-wave (km/s) = 4.02134 2.72643 3.43544
# Velocity P-wave (km/s) = 6.03824 5.44875 5.75105
#
# Compressibility (1/GPa) = 0.03089980
#
# Stress axis : x y z
#
# Youngs Moduli (GPa) = 58.38306 60.36690 68.56840
#
# Poissons Ratio (x) = -0.09353 0.03291
# Poissons Ratio (y) = -0.09045 0.66911
# Poissons Ratio (z) = 0.02802 0.58908
#
# Static dielectric constant tensor:
#      x y z
#    x 1.774060 0.000000 0.000000 
#    y 0.000000 1.786550 0.000000 
#    z 0.000000 0.000000 1.762960 
# 
# From -- ./inp_files/22204.got.cif
#   From: 2010.05.17/outbox.cif.g08.bks.cpg/sg55_12_cif.got.tgz:22204.got - 2010.06.03 13:27:54.
