data_PCOD9428058
_publ_section_title
;
Structure prediction by ZEFSAII (Michael W. Deem and Ramdas Pophale) SiO2 
 PCOD9428058
Probable space group: P B A M
;
_chemical_formula_sum "Si O2"
_cell_formula_units_Z 48
_cell_length_a 14.020587
_cell_length_b 11.551803
_cell_length_c 15.562900
_cell_angle_alpha 90.000000
_cell_angle_beta 90.000000
_cell_angle_gamma 90.000000
_cell_volume 2520.614890
_symmetry_space_group_name_H-M "P B A M"
_symmetry_group_IT_number 55
_symmetry_cell_setting 'orthorhombic'
loop_
_space_group_symop_operation_xyz
x,y,z
-x,-y,z
1/2+x,1/2-y,-z
1/2-x,1/2+y,-z
-x,-y,-z
x,y,-z
1/2-x,1/2+y,z
1/2+x,1/2-y,z
loop_
_atom_site_type_symbol
_atom_site_label
_atom_site_fract_x
_atom_site_fract_y
_atom_site_fract_z
Si Si1 0.439861 0.642650 0.096545
Si Si2 0.185868 0.297595 0.807324
Si Si3 0.568380 0.386475 0.500000
Si Si4 0.193478 0.088380 0.328352
Si Si5 0.625869 0.577927 0.183089
Si Si6 0.560402 0.124339 0.500000
Si Si7 0.111702 0.469305 0.327981
O O1 0.376728 0.753691 0.114288
O O2 0.523278 0.635210 0.167748
O O3 0.376439 0.529026 0.116228
O O4 0.477580 0.639217 0.000000
O O5 0.185593 0.195730 0.736552
O O6 0.291802 0.331055 0.833967
O O7 0.140728 0.406565 0.759297
O O8 0.500000 0.500000 0.500000
O O9 0.635223 0.393892 0.584454
O O10 0.519504 0.256533 0.500000
O O11 0.147504 0.979335 0.275899
O O12 0.306471 0.065303 0.342869
O O13 0.618703 0.112476 0.588064
O O14 0.500000 0.000000 0.500000
O O15 0.000000 0.500000 0.321472
#
# Coordination Sequence:
#
# PCOD9428058 Si02
#       7
#     8   8   4   8   8   4   8
#     4  10  21  37  62  88 117 155 199 256 324 386
#     4  10  21  37  61  89 120 158 209 256 305 386
#     4  12  25  40  65  95 136 166 220 270 305 360
#     4  10  22  39  58  92 122 165 211 256 305 365
#     4   9  20  37  60  85 121 155 206 252 310 370
#     4  10  21  42  58  91 127 167 210 249 313 367
#     4  10  21  39  62  85 125 168 206 252 315 372
#
# _framework density 19.042971999999999
#
# number of rings (size 3 to 8) (size 9 to 14) (size 15 to 20)
#    0.000    2.000    1.667    1.500    7.000    1.333 
#    9.000    0.000    0.000    0.500    0.000    0.000 
#    0.000    0.000    0.000    0.000    0.000    0.000 
#
# Total GULP energy -267256.573096 kJ/mol
# GULP energy per Si atom -5567.845273 kJ/mol
# Density = 1.899963 g / cm^3
# Si number density = 19.042972 Si / 1000 Ang^3
#
#
#
# Elastic Constant Matrix: (Units=GPa)
#
#
# Indices 1 2 3 4 5 6 
#
# 1 104.4513 40.4989 41.3044 0.0000 0.0000 0.0000
# 2 40.4989 55.8092 6.2573 0.0000 0.0000 0.0000
# 3 41.3044 6.2573 56.6936 0.0000 0.0000 0.0000
# 4 0.0000 0.0000 0.0000 16.7634 0.0000 0.0000
# 5 0.0000 0.0000 0.0000 0.0000 16.8351 0.0000
# 6 0.0000 0.0000 0.0000 0.0000 0.0000 37.9089
#
#
#
# Elastic Compliance Matrix: (Units=1/GPa)
#
#
# Indices 1 2 3 4 5 6 
#
# 1 0.019637 -0.012804 -0.012893 0.000000 0.000000 0.000000
# 2 -0.012804 0.026492 0.006405 0.000000 0.000000 0.000000
# 3 -0.012893 0.006405 0.026325 0.000000 0.000000 0.000000
# 4 0.000000 0.000000 0.000000 0.059654 0.000000 0.000000
# 5 0.000000 0.000000 0.000000 0.000000 0.059400 0.000000
# 6 0.000000 0.000000 0.000000 0.000000 0.000000 0.026379
#
#
# Mechanical properties :
#
#
# Convention : Reuss Voigt Hill
#
# Bulk Modulus (GPa) = 29.52630 43.67501 36.60065
# Shear Modulus (GPa) = 18.67330 22.89440 20.78385
#
# Velocity S-wave (km/s) = 3.13483 3.47111 3.30725
# Velocity P-wave (km/s) = 5.35179 6.24896 5.81770
#
# Compressibility (1/GPa) = 0.03386811
#
# Stress axis : x y z
#
# Youngs Moduli (GPa) = 50.92407 37.74758 37.98616
#
# Poissons Ratio (x) = 0.48333 0.48977
# Poissons Ratio (y) = 0.65205 -0.24329
# Poissons Ratio (z) = 0.65659 -0.24176
#
# Static dielectric constant tensor:
#      x y z
#    x 1.695290 0.000000 0.000000 
#    y 0.000000 1.716010 0.000000 
#    z 0.000000 0.000000 1.669890 
# 
# From -- ./inp_files/18891.got.cif
#   From: 2010.05.17/outbox.cif.g08.bks.cpg/sg55_10_cif.got.tgz:18891.got - 2010.06.03 13:27:54.
