data_PCOD9428968
_publ_section_title
;
Structure prediction by ZEFSAII (Michael W. Deem and Ramdas Pophale) SiO2 
 PCOD9428968
Probable space group: P B A M
;
_chemical_formula_sum "Si O2"
_cell_formula_units_Z 60
_cell_length_a 9.093526
_cell_length_b 16.989229
_cell_length_c 19.404089
_cell_angle_alpha 90.000000
_cell_angle_beta 90.000000
_cell_angle_gamma 90.000000
_cell_volume 2997.776433
_symmetry_space_group_name_H-M "P B A M"
_symmetry_group_IT_number 55
_symmetry_cell_setting 'orthorhombic'
loop_
_space_group_symop_operation_xyz
x,y,z
-x,-y,z
1/2+x,1/2-y,-z
1/2-x,1/2+y,-z
-x,-y,-z
x,y,-z
1/2-x,1/2+y,z
1/2+x,1/2-y,z
loop_
_atom_site_type_symbol
_atom_site_label
_atom_site_fract_x
_atom_site_fract_y
_atom_site_fract_z
Si Si1 0.021254 0.585413 0.705179
Si Si2 0.510634 0.648166 0.421810
Si Si3 0.222326 0.035644 0.202437
Si Si4 0.500000 0.500000 0.320921
Si Si5 0.488405 0.680743 0.837745
Si Si6 0.135206 0.938039 0.075357
Si Si7 0.784042 0.288175 0.368438
Si Si8 0.795282 0.701948 0.765819
O O1 0.124010 0.568727 0.771502
O O2 0.102811 0.643476 0.652818
O O3 0.000000 0.500000 0.672422
O O4 0.876308 0.626623 0.734525
O O5 0.543111 0.623636 0.500000
O O6 0.511947 0.576030 0.368867
O O7 0.346402 0.683754 0.417231
O O8 0.626102 0.714507 0.397812
O O9 0.138521 0.003534 0.269685
O O10 0.120584 0.108993 0.179884
O O11 0.226208 0.972082 0.140536
O O12 0.568096 0.647763 0.906485
O O13 0.626608 0.689122 0.786308
O O14 0.391164 0.759187 0.827678
O O15 0.207445 0.938000 0.000000
O O16 0.000000 0.000000 0.072084
O O17 0.706152 0.264238 0.296583
#
# Coordination Sequence:
#
# PCOD9428968 Si02
#       8
#     8   8   8   4   8   8   8   8
#     4  12  25  37  61 103 129 159 215 280 326 367
#     4  12  27  44  65  92 129 170 209 260 327 397
#     4  11  20  37  63  94 124 163 215 262 318 375
#     4  12  21  38  69  94 120 156 218 262 307 378
#     4  11  19  35  59  89 126 165 214 257 316 381
#     4   9  19  34  59  91 128 169 209 258 317 383
#     4  12  23  42  66  89 128 168 210 260 328 386
#     4  12  21  37  63  96 124 163 212 274 316 372
#
# _framework density 20.014835000000001
#
# number of rings (size 3 to 8) (size 9 to 14) (size 15 to 20)
#    0.000    0.667    7.333    2.200    1.867    0.000 
#    0.000    0.667    0.000    6.800    0.000    0.000 
#    0.000    0.000    0.000    0.000    0.000    0.000 
#
# Total GULP energy -335072.296473 kJ/mol
# GULP energy per Si atom -5584.538275 kJ/mol
# Density = 1.996928 g / cm^3
# Si number density = 20.014835 Si / 1000 Ang^3
#
#
#
# Elastic Constant Matrix: (Units=GPa)
#
#
# Indices 1 2 3 4 5 6 
#
# 1 50.7724 6.9976 -13.9610 0.0000 0.0000 0.0000
# 2 6.9976 95.4556 18.2222 0.0000 0.0000 0.0000
# 3 -13.9610 18.2222 92.2020 0.0000 0.0000 0.0000
# 4 0.0000 0.0000 0.0000 16.8791 0.0000 0.0000
# 5 0.0000 0.0000 0.0000 0.0000 9.3018 0.0000
# 6 0.0000 0.0000 0.0000 0.0000 0.0000 35.9965
#
#
#
# Elastic Compliance Matrix: (Units=1/GPa)
#
#
# Indices 1 2 3 4 5 6 
#
# 1 0.020999 -0.002230 0.003620 0.000000 0.000000 0.000000
# 2 -0.002230 0.011124 -0.002536 0.000000 0.000000 0.000000
# 3 0.003620 -0.002536 0.011895 0.000000 0.000000 0.000000
# 4 0.000000 0.000000 0.000000 0.059245 0.000000 0.000000
# 5 0.000000 0.000000 0.000000 0.000000 0.107506 0.000000
# 6 0.000000 0.000000 0.000000 0.000000 0.000000 0.027780
#
#
# Mechanical properties :
#
#
# Convention : Reuss Voigt Hill
#
# Bulk Modulus (GPa) = 23.96643 28.99418 26.48031
# Shear Modulus (GPa) = 19.62712 27.58024 23.60368
#
# Velocity S-wave (km/s) = 3.13490 3.71616 3.43783
# Velocity P-wave (km/s) = 5.01037 5.73854 5.38677
#
# Compressibility (1/GPa) = 0.04172503
#
# Stress axis : x y z
#
# Youngs Moduli (GPa) = 47.62216 89.89794 84.06778
#
# Poissons Ratio (x) = 0.20051 -0.30436
# Poissons Ratio (y) = 0.10622 0.21321
# Poissons Ratio (z) = -0.17241 0.22799
#
# Static dielectric constant tensor:
#      x y z
#    x 1.715910 0.000000 0.000000 
#    y 0.000000 1.764220 0.000000 
#    z 0.000000 0.000000 1.711270 
# 
# From -- ./inp_files/21012.got.cif
#   From: 2010.05.17/outbox.cif.g08.bks.cpg/sg55_11_cif.got.tgz:21012.got - 2010.06.03 13:27:54.
