data_PCOD9428165
_publ_section_title
;
Structure prediction by ZEFSAII (Michael W. Deem and Ramdas Pophale) SiO2 
 PCOD9428165
Probable space group: P B A M
;
_chemical_formula_sum "Si O2"
_cell_formula_units_Z 56
_cell_length_a 18.874723
_cell_length_b 17.606965
_cell_length_c 8.709346
_cell_angle_alpha 90.000000
_cell_angle_beta 90.000000
_cell_angle_gamma 90.000000
_cell_volume 2894.347233
_symmetry_space_group_name_H-M "P B A M"
_symmetry_group_IT_number 55
_symmetry_cell_setting 'orthorhombic'
loop_
_space_group_symop_operation_xyz
x,y,z
-x,-y,z
1/2+x,1/2-y,-z
1/2-x,1/2+y,-z
-x,-y,-z
x,y,-z
1/2-x,1/2+y,z
1/2+x,1/2-y,z
loop_
_atom_site_type_symbol
_atom_site_label
_atom_site_fract_x
_atom_site_fract_y
_atom_site_fract_z
Si Si1 0.080745 0.513137 0.187312
Si Si2 0.380536 0.183017 0.816114
Si Si3 0.143559 0.942917 0.816900
Si Si4 0.037802 0.818170 0.316622
Si Si5 0.302156 0.892392 0.184963
Si Si6 0.111460 0.106955 0.314999
Si Si7 0.729384 0.270204 0.316456
O O1 0.107605 0.596315 0.234969
O O2 0.134221 0.446897 0.237221
O O3 0.000000 0.500000 0.237098
O O4 0.081161 0.512506 0.000000
O O5 0.442635 0.237961 0.758059
O O6 0.306564 0.215304 0.753663
O O7 0.378719 0.184846 0.000000
O O8 0.096646 0.878660 0.736455
O O9 0.226204 0.930331 0.778404
O O10 0.118663 0.025486 0.763033
O O11 0.135731 0.935261 0.000000
O O12 0.039726 0.810616 0.500000
O O13 0.961316 0.851024 0.271673
O O14 0.301973 0.809091 0.257133
O O15 0.306130 0.885047 0.000000
O O16 0.110868 0.096659 0.500000
O O17 0.177235 0.160878 0.273951
O O18 0.735089 0.267426 0.500000
#
# Coordination Sequence:
#
# PCOD9428165 Si02
#       7
#     8   8   8   8   8   8   8
#     4   9  20  38  61  90 123 159 200 251 309 362
#     4  11  22  39  63  91 121 157 205 253 304 361
#     4  11  22  38  61  91 121 155 202 249 298 358
#     4  11  23  40  61  87 124 162 196 245 303 361
#     4  10  21  38  61  88 120 156 200 252 301 355
#     4  10  24  41  59  86 121 159 201 245 300 362
#     4  11  23  40  62  88 120 163 206 247 299 359
#
# _framework density 19.348057000000001
#
# number of rings (size 3 to 8) (size 9 to 14) (size 15 to 20)
#    0.000    1.571    1.429    3.000    2.000    5.714 
#    0.000    1.429    0.000    2.143    0.000    0.000 
#    0.000    0.000    0.000    0.000    0.000    0.000 
#
# Total GULP energy -313084.926541 kJ/mol
# GULP energy per Si atom -5590.802260 kJ/mol
# Density = 1.930402 g / cm^3
# Si number density = 19.348057 Si / 1000 Ang^3
#
#
#
# Elastic Constant Matrix: (Units=GPa)
#
#
# Indices 1 2 3 4 5 6 
#
# 1 32.9967 -2.2314 7.8233 0.0000 0.0000 0.0000
# 2 -2.2314 108.1998 14.8688 0.0000 0.0000 0.0000
# 3 7.8233 14.8688 20.6066 0.0000 0.0000 0.0000
# 4 0.0000 0.0000 0.0000 19.7926 0.0000 0.0000
# 5 0.0000 0.0000 0.0000 0.0000 20.9240 0.0000
# 6 0.0000 0.0000 0.0000 0.0000 0.0000 9.7422
#
#
#
# Elastic Compliance Matrix: (Units=1/GPa)
#
#
# Indices 1 2 3 4 5 6 
#
# 1 0.034025 0.002749 -0.014902 0.000000 0.000000 0.000000
# 2 0.002749 0.010482 -0.008607 0.000000 0.000000 0.000000
# 3 -0.014902 -0.008607 0.060396 0.000000 0.000000 0.000000
# 4 0.000000 0.000000 0.000000 0.050524 0.000000 0.000000
# 5 0.000000 0.000000 0.000000 0.000000 0.047792 0.000000
# 6 0.000000 0.000000 0.000000 0.000000 0.000000 0.102646
#
#
# Mechanical properties :
#
#
# Convention : Reuss Voigt Hill
#
# Bulk Modulus (GPa) = 15.77669 22.52494 19.15081
# Shear Modulus (GPa) = 13.56810 19.51457 16.54134
#
# Velocity S-wave (km/s) = 2.65101 3.17930 2.92710
# Velocity P-wave (km/s) = 4.18836 5.01443 4.61989
#
# Compressibility (1/GPa) = 0.06338467
#
# Stress axis : x y z
#
# Youngs Moduli (GPa) = 29.39006 95.40500 16.55740
#
# Poissons Ratio (x) = -0.26231 0.24673
# Poissons Ratio (y) = -0.08081 0.14251
# Poissons Ratio (z) = 0.43796 0.82115
#
# Static dielectric constant tensor:
#      x y z
#    x 1.659410 0.000000 0.000000 
#    y 0.000000 1.644200 0.000000 
#    z 0.000000 0.000000 1.652780 
# 
# From -- ./inp_files/8759.got.cif
#   From: 2010.05.17/outbox.cif.g08.bks.cpg/sg55_5_cif.got.tgz:8759.got - 2010.06.03 13:27:54.
