data_PCOD9428545
_publ_section_title
;
Structure prediction by ZEFSAII (Michael W. Deem and Ramdas Pophale) SiO2 
 PCOD9428545
Probable space group: P B A M
;
_chemical_formula_sum "Si O2"
_cell_formula_units_Z 58
_cell_length_a 14.606740
_cell_length_b 17.460302
_cell_length_c 11.559269
_cell_angle_alpha 90.000000
_cell_angle_beta 90.000000
_cell_angle_gamma 90.000000
_cell_volume 2948.053906
_symmetry_space_group_name_H-M "P B A M"
_symmetry_group_IT_number 55
_symmetry_cell_setting 'orthorhombic'
loop_
_space_group_symop_operation_xyz
x,y,z
-x,-y,z
1/2+x,1/2-y,-z
1/2-x,1/2+y,-z
-x,-y,-z
x,y,-z
1/2-x,1/2+y,z
1/2+x,1/2-y,z
loop_
_atom_site_type_symbol
_atom_site_label
_atom_site_fract_x
_atom_site_fract_y
_atom_site_fract_z
Si Si1 0.935848 0.391956 0.713767
Si Si2 0.146277 0.177045 0.213713
Si Si3 0.597474 0.160569 0.126281
Si Si4 0.993866 0.091056 0.128439
Si Si5 0.275185 0.045623 0.135621
Si Si6 0.801178 0.255221 0.636868
Si Si7 0.000000 0.500000 0.500000
Si Si8 0.205724 0.890813 0.796928
O O1 0.872426 0.438122 0.804932
O O2 0.879848 0.313649 0.682812
O O3 0.956225 0.443360 0.601958
O O4 0.031083 0.370883 0.775238
O O5 0.109782 0.249315 0.143372
O O6 0.217140 0.123553 0.145174
O O7 0.204242 0.208289 0.321706
O O8 0.055456 0.127003 0.228867
O O9 0.700833 0.131002 0.138586
O O10 0.559713 0.141830 0.000000
O O11 0.889385 0.117055 0.136364
O O12 0.029770 0.110976 0.000000
O O13 0.000000 0.000000 0.137165
O O14 0.222345 0.982107 0.213494
O O15 0.280090 0.023695 0.000000
O O16 0.807173 0.250897 0.500000
O O17 0.802988 0.170008 0.692454
#
# Coordination Sequence:
#
# PCOD9428545 Si02
#       8
#     8   8   8   8   8   8   2   8
#     4  11  24  43  69  98 130 176 219 279 337 398
#     4  10  22  38  64  98 130 172 219 262 331 395
#     4  11  22  40  62  99 138 171 214 267 335 412
#     4  11  20  35  61  92 130 170 203 256 320 387
#     4  11  21  40  66 101 138 170 214 278 339 401
#     4  10  23  47  66  90 128 179 222 276 323 388
#     4  12  24  44  66  96 120 164 232 272 316 386
#     4  11  23  38  61  95 128 175 222 260 324 392
#
# _framework density 19.673995999999999
#
# number of rings (size 3 to 8) (size 9 to 14) (size 15 to 20)
#    0.000    1.241    2.069    4.552    0.000    0.000 
#   11.172    8.276    0.000    0.828    0.000    0.000 
#    0.000    0.000    0.000    0.000    0.000    0.000 
#
# Total GULP energy -322931.982421 kJ/mol
# GULP energy per Si atom -5567.792800 kJ/mol
# Density = 1.962922 g / cm^3
# Si number density = 19.673996 Si / 1000 Ang^3
#
#
#
# Elastic Constant Matrix: (Units=GPa)
#
#
# Indices 1 2 3 4 5 6 
#
# 1 115.2146 34.4817 48.9612 0.0000 0.0000 0.0000
# 2 34.4817 73.7343 41.0938 0.0000 0.0000 0.0000
# 3 48.9612 41.0938 115.5845 0.0000 0.0000 0.0000
# 4 0.0000 0.0000 0.0000 18.1610 0.0000 0.0000
# 5 0.0000 0.0000 0.0000 0.0000 11.0212 0.0000
# 6 0.0000 0.0000 0.0000 0.0000 0.0000 27.1829
#
#
#
# Elastic Compliance Matrix: (Units=1/GPa)
#
#
# Indices 1 2 3 4 5 6 
#
# 1 0.011168 -0.003225 -0.003584 0.000000 0.000000 0.000000
# 2 -0.003225 0.017845 -0.004978 0.000000 0.000000 0.000000
# 3 -0.003584 -0.004978 0.011940 0.000000 0.000000 0.000000
# 4 0.000000 0.000000 0.000000 0.055063 0.000000 0.000000
# 5 0.000000 0.000000 0.000000 0.000000 0.090735 0.000000
# 6 0.000000 0.000000 0.000000 0.000000 0.000000 0.036788
#
#
# Mechanical properties :
#
#
# Convention : Reuss Voigt Hill
#
# Bulk Modulus (GPa) = 57.54508 61.51186 59.52847
# Shear Modulus (GPa) = 19.77026 23.27281 21.52153
#
# Velocity S-wave (km/s) = 3.17344 3.44309 3.31102
# Velocity P-wave (km/s) = 6.53762 6.86586 6.70375
#
# Compressibility (1/GPa) = 0.01737768
#
# Stress axis : x y z
#
# Youngs Moduli (GPa) = 89.54391 56.03835 83.75383
#
# Poissons Ratio (x) = 0.18073 0.30017
# Poissons Ratio (y) = 0.28879 0.41695
# Poissons Ratio (z) = 0.32092 0.27897
#
# Static dielectric constant tensor:
#      x y z
#    x 1.709740 0.000000 0.000000 
#    y 0.000000 1.815420 0.000000 
#    z 0.000000 0.000000 1.638910 
# 
# From -- ./inp_files/14380.got.cif
#   From: 2010.05.17/outbox.cif.g08.bks.cpg/sg55_8_cif.got.tgz:14380.got - 2010.06.03 13:27:54.
