data_PCOD9428658
_publ_section_title
;
Structure prediction by ZEFSAII (Michael W. Deem and Ramdas Pophale) SiO2 
 PCOD9428658
Probable space group: P B A M
;
_chemical_formula_sum "Si O2"
_cell_formula_units_Z 48
_cell_length_a 9.197250
_cell_length_b 19.424012
_cell_length_c 13.459448
_cell_angle_alpha 90.000000
_cell_angle_beta 90.000000
_cell_angle_gamma 90.000000
_cell_volume 2404.496661
_symmetry_space_group_name_H-M "P B A M"
_symmetry_group_IT_number 55
_symmetry_cell_setting 'orthorhombic'
loop_
_space_group_symop_operation_xyz
x,y,z
-x,-y,z
1/2+x,1/2-y,-z
1/2-x,1/2+y,-z
-x,-y,-z
x,y,-z
1/2-x,1/2+y,z
1/2+x,1/2-y,z
loop_
_atom_site_type_symbol
_atom_site_label
_atom_site_fract_x
_atom_site_fract_y
_atom_site_fract_z
Si Si1 0.958110 0.847078 0.500000
Si Si2 0.257868 0.260910 0.500000
Si Si3 0.907253 0.932420 0.306787
Si Si4 0.665463 0.173509 0.703970
Si Si5 0.642519 0.345160 0.892312
Si Si6 0.592813 0.758310 0.823415
Si Si7 0.663381 0.026478 0.613253
O O1 0.792635 0.818249 0.500000
O O2 0.977462 0.889653 0.398161
O O3 0.075401 0.785277 0.500000
O O4 0.185024 0.292080 0.402688
O O5 0.883569 0.889256 0.207154
O O6 0.758757 0.963150 0.349456
O O7 0.000000 0.000000 0.284332
O O8 0.512316 0.198390 0.749989
O O9 0.797893 0.205378 0.767945
O O10 0.675987 0.092127 0.685508
O O11 0.519118 0.286266 0.887507
O O12 0.799535 0.309333 0.880615
O O13 0.633535 0.380701 0.000000
O O14 0.708310 0.045704 0.500000
O O15 0.500000 0.000000 0.610491
#
# Coordination Sequence:
#
# PCOD9428658 Si02
#       7
#     4   4   8   8   8   8   8
#     4  12  25  40  61  93 130 167 205 252 320 374
#     4  12  22  34  57  89 124 163 204 254 300 372
#     4  12  25  42  63  89 127 172 210 257 309 374
#     4  11  21  39  59  92 126 165 206 256 312 375
#     4  11  23  42  67  94 123 162 211 265 318 374
#     4  10  22  40  64  92 124 159 203 264 328 373
#     4  11  23  39  58  86 125 172 212 247 298 369
#
# _framework density 19.962596999999999
#
# number of rings (size 3 to 8) (size 9 to 14) (size 15 to 20)
#    0.000    0.833    1.667    7.750    0.000    1.667 
#    0.000    0.000    0.000    5.500    0.000    0.000 
#    0.000    0.000    0.000    0.000    0.000    0.000 
#
# Total GULP energy -268289.842310 kJ/mol
# GULP energy per Si atom -5589.371715 kJ/mol
# Density = 1.991716 g / cm^3
# Si number density = 19.962597 Si / 1000 Ang^3
#
#
#
# Elastic Constant Matrix: (Units=GPa)
#
#
# Indices 1 2 3 4 5 6 
#
# 1 126.6659 32.1875 46.3622 0.0000 0.0000 0.0000
# 2 32.1875 85.0284 43.7027 0.0000 0.0000 0.0000
# 3 46.3622 43.7027 131.0597 0.0000 0.0000 0.0000
# 4 0.0000 0.0000 0.0000 7.6408 0.0000 0.0000
# 5 0.0000 0.0000 0.0000 0.0000 -15.8764 0.0000
# 6 0.0000 0.0000 0.0000 0.0000 0.0000 38.2770
#
#
#
# Elastic Compliance Matrix: (Units=1/GPa)
#
#
# Indices 1 2 3 4 5 6 
#
# 1 0.009408 -0.002234 -0.002583 0.000000 0.000000 0.000000
# 2 -0.002234 0.014724 -0.004120 0.000000 0.000000 0.000000
# 3 -0.002583 -0.004120 0.009918 0.000000 0.000000 0.000000
# 4 0.000000 0.000000 0.000000 0.130877 0.000000 0.000000
# 5 0.000000 0.000000 0.000000 0.000000 -0.062986 0.000000
# 6 0.000000 0.000000 0.000000 0.000000 0.000000 0.026125
#
#
# Mechanical properties :
#
#
# Convention : Reuss Voigt Hill
#
# Bulk Modulus (GPa) = 61.81857 65.25096 63.53477
# Shear Modulus (GPa) = 33.04037 20.70837 26.87437
#
# Velocity S-wave (km/s) = 4.07272 3.22430 3.67309
# Velocity P-wave (km/s) = 7.29044 6.82781 7.06292
#
# Compressibility (1/GPa) = 0.01617637
#
# Stress axis : x y z
#
# Youngs Moduli (GPa) = 106.29379 67.91774 100.83076
#
# Poissons Ratio (x) = 0.15170 0.26047
# Poissons Ratio (y) = 0.23742 0.41538
# Poissons Ratio (z) = 0.27458 0.27979
#
# Static dielectric constant tensor:
#      x y z
#    x 1.745550 0.000000 0.000000 
#    y 0.000000 1.708770 0.000000 
#    z 0.000000 0.000000 1.698940 
# 
# From -- ./inp_files/17382.got.cif
#   From: 2010.05.17/outbox.cif.g08.bks.cpg/sg55_9_cif.got.tgz:17382.got - 2010.06.03 13:27:54.
