data_PCOD9428814
_publ_section_title
;
Structure prediction by ZEFSAII (Michael W. Deem and Ramdas Pophale) SiO2 
 PCOD9428814
Probable space group: P B A M
;
_chemical_formula_sum "Si O2"
_cell_formula_units_Z 64
_cell_length_a 9.059856
_cell_length_b 15.397788
_cell_length_c 22.280321
_cell_angle_alpha 90.000000
_cell_angle_beta 90.000000
_cell_angle_gamma 90.000000
_cell_volume 3108.143592
_symmetry_space_group_name_H-M "P B A M"
_symmetry_group_IT_number 55
_symmetry_cell_setting 'orthorhombic'
loop_
_space_group_symop_operation_xyz
x,y,z
-x,-y,z
1/2+x,1/2-y,-z
1/2-x,1/2+y,-z
-x,-y,-z
x,y,-z
1/2-x,1/2+y,z
1/2+x,1/2-y,z
loop_
_atom_site_type_symbol
_atom_site_label
_atom_site_fract_x
_atom_site_fract_y
_atom_site_fract_z
Si Si1 0.032583 0.755635 0.338716
Si Si2 0.616597 0.174264 0.068566
Si Si3 0.215971 0.192678 0.739304
Si Si4 0.822760 0.008599 0.738605
Si Si5 0.674512 0.010046 0.859560
Si Si6 0.689487 0.811385 0.872493
Si Si7 0.582718 0.589886 0.430739
Si Si8 0.622766 0.075839 0.368434
O O1 0.950327 0.784857 0.277744
O O2 0.960821 0.667203 0.363003
O O3 0.194785 0.734049 0.315485
O O4 0.031769 0.832560 0.387053
O O5 0.679310 0.080619 0.088035
O O6 0.731900 0.250404 0.079721
O O7 0.483196 0.193139 0.114050
O O8 0.565744 0.171330 0.000000
O O9 0.237887 0.089578 0.735714
O O10 0.265919 0.218564 0.805631
O O11 0.772753 0.041927 0.803815
O O12 0.732175 0.060752 0.688612
O O13 0.000000 0.000000 0.731813
O O14 0.500000 0.000000 0.841612
O O15 0.727893 0.913779 0.877467
O O16 0.500000 0.500000 0.414719
O O17 0.548888 0.609901 0.500000
O O18 0.758146 0.576299 0.421933
O O19 0.500000 0.000000 0.371337
#
# Coordination Sequence:
#
# PCOD9428814 Si02
#       8
#     8   8   8   8   8   8   8   8
#     4  12  24  42  67 102 134 174 217 270 330 394
#     4  11  23  40  63  88 125 175 221 269 326 389
#     4  11  23  40  65  99 132 172 213 269 338 396
#     4  11  23  39  65  98 139 170 211 270 340 403
#     4   9  22  40  63  91 123 170 218 267 326 395
#     4  10  23  40  61  94 128 162 217 270 327 389
#     4  11  27  50  71  95 134 182 229 274 321 381
#     4  12  24  41  72 103 137 173 218 271 330 395
#
# _framework density 20.591069000000001
#
# number of rings (size 3 to 8) (size 9 to 14) (size 15 to 20)
#    0.000    1.125    2.500    3.375    5.250    5.500 
#    0.000    0.000    0.000    1.875    0.000    0.000 
#    0.000    0.000    0.000    0.000    0.000    0.000 
#
# Total GULP energy -357591.273796 kJ/mol
# GULP energy per Si atom -5587.363653 kJ/mol
# Density = 2.054420 g / cm^3
# Si number density = 20.591069 Si / 1000 Ang^3
#
#
#
# Elastic Constant Matrix: (Units=GPa)
#
#
# Indices 1 2 3 4 5 6 
#
# 1 67.0736 37.5968 28.2243 0.0000 0.0000 0.0000
# 2 37.5968 113.2982 47.5885 0.0000 0.0000 0.0000
# 3 28.2243 47.5885 88.2785 0.0000 0.0000 0.0000
# 4 0.0000 0.0000 0.0000 16.1951 0.0000 0.0000
# 5 0.0000 0.0000 0.0000 0.0000 24.2207 0.0000
# 6 0.0000 0.0000 0.0000 0.0000 0.0000 28.2331
#
#
#
# Elastic Compliance Matrix: (Units=1/GPa)
#
#
# Indices 1 2 3 4 5 6 
#
# 1 0.019108 -0.004880 -0.003479 0.000000 0.000000 0.000000
# 2 -0.004880 0.012656 -0.005262 0.000000 0.000000 0.000000
# 3 -0.003479 -0.005262 0.015277 0.000000 0.000000 0.000000
# 4 0.000000 0.000000 0.000000 0.061747 0.000000 0.000000
# 5 0.000000 0.000000 0.000000 0.000000 0.041287 0.000000
# 6 0.000000 0.000000 0.000000 0.000000 0.000000 0.035419
#
#
# Mechanical properties :
#
#
# Convention : Reuss Voigt Hill
#
# Bulk Modulus (GPa) = 50.50681 55.05216 52.77948
# Shear Modulus (GPa) = 22.79617 24.07916 23.43766
#
# Velocity S-wave (km/s) = 3.33091 3.42336 3.37745
# Velocity P-wave (km/s) = 6.27495 6.51305 6.39511
#
# Compressibility (1/GPa) = 0.01979931
#
# Stress axis : x y z
#
# Youngs Moduli (GPa) = 52.33403 79.01486 65.45896
#
# Poissons Ratio (x) = 0.38556 0.22771
# Poissons Ratio (y) = 0.25537 0.34446
# Poissons Ratio (z) = 0.18205 0.41580
#
# Static dielectric constant tensor:
#      x y z
#    x 1.735400 0.000000 0.000000 
#    y 0.000000 1.752540 0.000000 
#    z 0.000000 0.000000 1.725020 
# 
# From -- ./inp_files/23480.got.cif
#   From: 2010.05.17/outbox.cif.g08.bks.cpg/sg55_12_cif.got.tgz:23480.got - 2010.06.03 13:27:54.
