data_PCOD9428849
_publ_section_title
;
Structure prediction by ZEFSAII (Michael W. Deem and Ramdas Pophale) SiO2 
 PCOD9428849
Probable space group: P B A M
;
_chemical_formula_sum "Si O2"
_cell_formula_units_Z 36
_cell_length_a 14.245936
_cell_length_b 13.090610
_cell_length_c 7.459085
_cell_angle_alpha 90.000000
_cell_angle_beta 90.000000
_cell_angle_gamma 90.000000
_cell_volume 1391.029786
_symmetry_space_group_name_H-M "P B A M"
_symmetry_group_IT_number 55
_symmetry_cell_setting 'orthorhombic'
loop_
_space_group_symop_operation_xyz
x,y,z
-x,-y,z
1/2+x,1/2-y,-z
1/2-x,1/2+y,-z
-x,-y,-z
x,y,-z
1/2-x,1/2+y,z
1/2+x,1/2-y,z
loop_
_atom_site_type_symbol
_atom_site_label
_atom_site_fract_x
_atom_site_fract_y
_atom_site_fract_z
Si Si1 0.991420 0.143509 0.206511
Si Si2 0.354455 0.460554 0.500000
Si Si3 0.193665 0.453049 0.796152
Si Si4 0.815304 0.780441 0.214661
Si Si5 0.606272 0.847416 0.703737
O O1 0.927180 0.082012 0.342339
O O2 0.954023 0.260295 0.203309
O O3 0.098067 0.151198 0.279025
O O4 0.989596 0.108818 0.000000
O O5 0.273551 0.479587 0.655414
O O6 0.161937 0.338264 0.752033
O O7 0.114791 0.540112 0.784684
O O8 0.230645 0.451308 0.000000
O O9 0.713419 0.803998 0.292079
O O10 0.808724 0.795226 0.000000
O O11 0.574013 0.854837 0.500000
#
# Coordination Sequence:
#
# PCOD9428849 Si02
#       5
#     8   4   8   8   8
#     4  11  23  41  67  96 128 170 214 261 322 380
#     4  12  22  40  65  96 126 171 208 262 316 378
#     4  11  23  42  67  95 130 171 215 264 320 378
#     4  10  23  42  66  93 127 171 214 263 321 381
#     4  12  23  41  66  96 131 169 216 265 320 381
#
# _framework density 25.880108
#
# number of rings (size 3 to 8) (size 9 to 14) (size 15 to 20)
#    0.000    0.889    4.444    2.667    1.556    0.889 
#    0.000    6.667    0.000    4.000    0.000    0.000 
#    0.000    0.000    0.000    0.000    0.000    0.000 
#
# Total GULP energy -200885.302944 kJ/mol
# GULP energy per Si atom -5580.147304 kJ/mol
# Density = 2.582120 g / cm^3
# Si number density = 25.880108 Si / 1000 Ang^3
#
#
#
# Elastic Constant Matrix: (Units=GPa)
#
#
# Indices 1 2 3 4 5 6 
#
# 1 107.9461 17.8074 20.6883 0.0000 0.0000 0.0000
# 2 17.8074 124.6412 3.9642 0.0000 0.0000 0.0000
# 3 20.6883 3.9642 150.0009 0.0000 0.0000 0.0000
# 4 0.0000 0.0000 0.0000 -3.1796 0.0000 0.0000
# 5 0.0000 0.0000 0.0000 0.0000 0.2435 0.0000
# 6 0.0000 0.0000 0.0000 0.0000 0.0000 47.7409
#
#
#
# Elastic Compliance Matrix: (Units=1/GPa)
#
#
# Indices 1 2 3 4 5 6 
#
# 1 0.009737 -0.001350 -0.001307 0.000000 0.000000 0.000000
# 2 -0.001350 0.008217 -0.000031 0.000000 0.000000 0.000000
# 3 -0.001307 -0.000031 0.006848 0.000000 0.000000 0.000000
# 4 0.000000 0.000000 0.000000 -0.314503 0.000000 0.000000
# 5 0.000000 0.000000 0.000000 0.000000 4.106043 0.000000
# 6 0.000000 0.000000 0.000000 0.000000 0.000000 0.020946
#
#
# Mechanical properties :
#
#
# Convention : Reuss Voigt Hill
#
# Bulk Modulus (GPa) = 51.47759 51.94534 51.71146
# Shear Modulus (GPa) = 1.29899 31.63620 16.46760
#
# Velocity S-wave (km/s) = 0.70924 3.50010 2.52524
# Velocity P-wave (km/s) = 4.53924 6.03733 5.34107
#
# Compressibility (1/GPa) = 0.01942593
#
# Stress axis : x y z
#
# Youngs Moduli (GPa) = 102.70045 121.70152 146.03344
#
# Poissons Ratio (x) = 0.16424 0.19091
# Poissons Ratio (y) = 0.13860 0.00453
# Poissons Ratio (z) = 0.13426 0.00378
#
# Static dielectric constant tensor:
#      x y z
#    x 1.990110 0.000000 0.000000 
#    y 0.000000 2.124000 0.000000 
#    z 0.000000 0.000000 1.965790 
# 
# From -- ./inp_files/5119.got.cif
#   From: 2010.05.17/outbox.cif.g08.bks.cpg/sg55_3_cif.got.tgz:5119.got - 2010.06.03 13:27:54.
