data_PCOD9428828
_publ_section_title
;
Structure prediction by ZEFSAII (Michael W. Deem and Ramdas Pophale) SiO2 
 PCOD9428828
Probable space group: P B A M
;
_chemical_formula_sum "Si O2"
_cell_formula_units_Z 34
_cell_length_a 4.945196
_cell_length_b 11.705298
_cell_length_c 23.309979
_cell_angle_alpha 90.000000
_cell_angle_beta 90.000000
_cell_angle_gamma 90.000000
_cell_volume 1349.297968
_symmetry_space_group_name_H-M "P B A M"
_symmetry_group_IT_number 55
_symmetry_cell_setting 'orthorhombic'
loop_
_space_group_symop_operation_xyz
x,y,z
-x,-y,z
1/2+x,1/2-y,-z
1/2-x,1/2+y,-z
-x,-y,-z
x,y,-z
1/2-x,1/2+y,z
1/2+x,1/2-y,z
loop_
_atom_site_type_symbol
_atom_site_label
_atom_site_fract_x
_atom_site_fract_y
_atom_site_fract_z
Si Si1 0.292900 0.673067 0.915646
Si Si2 0.250746 0.415380 0.500000
Si Si3 0.811767 0.824494 0.219953
Si Si4 0.000000 0.500000 0.702126
Si Si5 0.500000 0.000000 0.000000
Si Si6 0.303624 0.319168 0.374763
O O1 0.092021 0.780187 0.929207
O O2 0.282445 0.649700 0.847706
O O3 0.182636 0.566842 0.950674
O O4 0.500000 0.500000 0.500000
O O5 0.262552 0.343130 0.442066
O O6 0.000000 0.500000 0.500000
O O7 0.617188 0.714935 0.231141
O O8 0.693721 0.925756 0.257155
O O9 0.815292 0.577388 0.661051
O O10 0.612355 0.289451 0.361903
#
# Coordination Sequence:
#
# PCOD9428828 Si02
#       6
#     8   4   8   4   2   8
#     4  10  23  41  62  91 130 169 218 271 324 393
#     4  12  24  48  74  97 131 182 218 264 326 401
#     4  10  23  44  65  92 129 175 219 269 329 388
#     4  12  25  43  70  99 135 170 226 272 328 398
#     4  12  22  38  64  96 126 170 216 268 340 380
#     4  12  27  45  69 101 136 173 215 273 332 389
#
# _framework density 25.198288000000002
#
# number of rings (size 3 to 8) (size 9 to 14) (size 15 to 20)
#    0.000    0.941    1.176    4.941    0.000    4.706 
#    0.000    7.059    0.000    0.000    0.000    0.000 
#    0.000    0.000    0.000    0.000    0.000    0.000 
#
# Total GULP energy -190507.445031 kJ/mol
# GULP energy per Si atom -5603.160148 kJ/mol
# Density = 2.514094 g / cm^3
# Si number density = 25.198288 Si / 1000 Ang^3
#
#
#
# Elastic Constant Matrix: (Units=GPa)
#
#
# Indices 1 2 3 4 5 6 
#
# 1 117.8903 14.2970 8.7463 0.0000 0.0000 0.0000
# 2 14.2970 74.5157 39.6439 0.0000 0.0000 0.0000
# 3 8.7463 39.6439 145.2721 0.0000 0.0000 0.0000
# 4 0.0000 0.0000 0.0000 48.9557 0.0000 0.0000
# 5 0.0000 0.0000 0.0000 0.0000 2.7806 0.0000
# 6 0.0000 0.0000 0.0000 0.0000 0.0000 29.3070
#
#
#
# Elastic Compliance Matrix: (Units=1/GPa)
#
#
# Indices 1 2 3 4 5 6 
#
# 1 0.008685 -0.001624 -0.000080 0.000000 0.000000 0.000000
# 2 -0.001624 0.016003 -0.004269 0.000000 0.000000 0.000000
# 3 -0.000080 -0.004269 0.008054 0.000000 0.000000 0.000000
# 4 0.000000 0.000000 0.000000 0.020427 0.000000 0.000000
# 5 0.000000 0.000000 0.000000 0.000000 0.359638 0.000000
# 6 0.000000 0.000000 0.000000 0.000000 0.000000 0.034121
#
#
# Mechanical properties :
#
#
# Convention : Reuss Voigt Hill
#
# Bulk Modulus (GPa) = 48.08694 51.45026 49.76860
# Shear Modulus (GPa) = 10.73408 34.54140 22.63774
#
# Velocity S-wave (km/s) = 2.06618 3.70643 3.00056
# Velocity P-wave (km/s) = 4.98166 6.22730 5.63898
#
# Compressibility (1/GPa) = 0.02079567
#
# Stress axis : x y z
#
# Youngs Moduli (GPa) = 115.13672 62.48843 124.16945
#
# Poissons Ratio (x) = 0.10148 0.00990
# Poissons Ratio (y) = 0.18698 0.53012
# Poissons Ratio (z) = 0.00918 0.26678
#
# Static dielectric constant tensor:
#      x y z
#    x 1.917080 0.000000 0.000000 
#    y 0.000000 1.985510 0.000000 
#    z 0.000000 0.000000 1.924500 
# 
# From -- ./inp_files/23247.got.cif
#   From: 2010.05.17/outbox.cif.g08.bks.cpg/sg55_12_cif.got.tgz:23247.got - 2010.06.03 13:27:54.
