data_PCOD9428042
_publ_section_title
;
Structure prediction by ZEFSAII (Michael W. Deem and Ramdas Pophale) SiO2 
 PCOD9428042
Probable space group: P B A M
;
_chemical_formula_sum "Si O2"
_cell_formula_units_Z 64
_cell_length_a 23.028648
_cell_length_b 16.911447
_cell_length_c 8.058139
_cell_angle_alpha 90.000000
_cell_angle_beta 90.000000
_cell_angle_gamma 90.000000
_cell_volume 3138.224184
_symmetry_space_group_name_H-M "P B A M"
_symmetry_group_IT_number 55
_symmetry_cell_setting 'orthorhombic'
loop_
_space_group_symop_operation_xyz
x,y,z
-x,-y,z
1/2+x,1/2-y,-z
1/2-x,1/2+y,-z
-x,-y,-z
x,y,-z
1/2-x,1/2+y,z
1/2+x,1/2-y,z
loop_
_atom_site_type_symbol
_atom_site_label
_atom_site_fract_x
_atom_site_fract_y
_atom_site_fract_z
Si Si1 0.488928 0.241116 0.299724
Si Si2 0.976170 0.916153 0.308661
Si Si3 0.459639 0.926835 0.804193
Si Si4 0.768317 0.379134 0.299727
Si Si5 0.649728 0.428997 0.189222
Si Si6 0.705011 0.592531 0.701256
Si Si7 0.641600 0.749868 0.297726
Si Si8 0.672497 0.046579 0.699153
O O1 0.490488 0.245620 0.500000
O O2 0.507434 0.329190 0.238289
O O3 0.523565 0.161339 0.256324
O O4 0.422719 0.229877 0.241839
O O5 0.997402 0.915772 0.500000
O O6 0.906642 0.919672 0.301090
O O7 0.000000 0.000000 0.235510
O O8 0.391331 0.941037 0.770458
O O9 0.500000 0.000000 0.735877
O O10 0.469195 0.926139 0.000000
O O11 0.763239 0.377912 0.500000
O O12 0.703767 0.372599 0.229469
O O13 0.810284 0.310818 0.240531
O O14 0.800947 0.460834 0.257262
O O15 0.678091 0.514339 0.220906
O O16 0.630947 0.420196 0.000000
O O17 0.703771 0.583310 0.500000
O O18 0.663662 0.663833 0.749349
O O19 0.773066 0.603060 0.746548
O O20 0.640927 0.752819 0.500000
O O21 0.666109 0.050537 0.500000
#
# Coordination Sequence:
#
# PCOD9428042 Si02
#       8
#     8   8   8   8   8   8   8   8
#     4  10  21  37  60  87 110 140 187 236 280 331
#     4  10  21  39  63  86 111 147 189 234 283 333
#     4  11  24  39  55  78 114 157 191 227 279 335
#     4   9  18  34  57  83 109 138 177 228 280 328
#     4  11  22  35  53  80 114 149 184 220 267 329
#     4   9  18  35  58  82 108 138 177 226 276 326
#     4   9  17  33  59  85 105 131 175 229 278 325
#     4   9  18  33  55  81 107 140 184 231 275 322
#
# _framework density 20.393699999999999
#
# number of rings (size 3 to 8) (size 9 to 14) (size 15 to 20)
#    0.000    2.250    0.000    3.750    0.000    7.750 
#    0.000    5.625    0.000    0.000    0.000    0.000 
#    0.000    0.000    0.000    0.000    0.000    0.000 
#
# Total GULP energy -356816.748936 kJ/mol
# GULP energy per Si atom -5575.261702 kJ/mol
# Density = 2.034728 g / cm^3
# Si number density = 20.393700 Si / 1000 Ang^3
#
#
#
# Elastic Constant Matrix: (Units=GPa)
#
#
# Indices 1 2 3 4 5 6 
#
# 1 70.1493 5.2001 -8.1261 0.0000 0.0000 0.0000
# 2 5.2001 59.3158 5.4900 0.0000 0.0000 0.0000
# 3 -8.1261 5.4900 18.6604 0.0000 0.0000 0.0000
# 4 0.0000 0.0000 0.0000 -210.8915 0.0000 0.0000
# 5 0.0000 0.0000 0.0000 0.0000 -34.2902 0.0000
# 6 0.0000 0.0000 0.0000 0.0000 0.0000 33.1980
#
#
#
# Elastic Compliance Matrix: (Units=1/GPa)
#
#
# Indices 1 2 3 4 5 6 
#
# 1 0.015241 -0.002005 0.007227 0.000000 0.000000 0.000000
# 2 -0.002005 0.017595 -0.006050 0.000000 0.000000 0.000000
# 3 0.007227 -0.006050 0.058517 0.000000 0.000000 0.000000
# 4 0.000000 0.000000 0.000000 -0.004742 0.000000 0.000000
# 5 0.000000 0.000000 0.000000 0.000000 -0.029163 0.000000
# 6 0.000000 0.000000 0.000000 0.000000 0.000000 0.030122
#
#
# Mechanical properties :
#
#
# Convention : Reuss Voigt Hill
#
# Bulk Modulus (GPa) = 11.14865 17.02818 14.08842
# Shear Modulus (GPa) = 41.97295 -32.69265 4.64015
#
# Velocity S-wave (km/s) = 4.54159 -4.00819 1.51004
# Velocity P-wave (km/s) = 5.74282 3.61288 3.15650
#
# Compressibility (1/GPa) = 0.08969693
#
# Stress axis : x y z
#
# Youngs Moduli (GPa) = 65.61198 56.83554 17.08919
#
# Poissons Ratio (x) = 0.11396 -0.12350
# Poissons Ratio (y) = 0.13156 0.10338
# Poissons Ratio (z) = -0.47418 0.34383
#
# Static dielectric constant tensor:
#      x y z
#    x 1.703640 0.000000 0.000000 
#    y 0.000000 1.752300 0.000000 
#    z 0.000000 0.000000 1.754670 
# 
# From -- ./inp_files/9049.got.cif
#   From: 2010.05.17/outbox.cif.g08.bks.cpg/sg55_5_cif.got.tgz:9049.got - 2010.06.03 13:27:54.
