data_PCOD9428013
_publ_section_title
;
Structure prediction by ZEFSAII (Michael W. Deem and Ramdas Pophale) SiO2 
 PCOD9428013
Probable space group: P B A M
;
_chemical_formula_sum "Si O2"
_cell_formula_units_Z 48
_cell_length_a 23.384154
_cell_length_b 11.934390
_cell_length_c 9.381206
_cell_angle_alpha 90.000000
_cell_angle_beta 90.000000
_cell_angle_gamma 90.000000
_cell_volume 2618.065821
_symmetry_space_group_name_H-M "P B A M"
_symmetry_group_IT_number 55
_symmetry_cell_setting 'orthorhombic'
loop_
_space_group_symop_operation_xyz
x,y,z
-x,-y,z
1/2+x,1/2-y,-z
1/2-x,1/2+y,-z
-x,-y,-z
x,y,-z
1/2-x,1/2+y,z
1/2+x,1/2-y,z
loop_
_atom_site_type_symbol
_atom_site_label
_atom_site_fract_x
_atom_site_fract_y
_atom_site_fract_z
Si Si1 0.618777 0.221705 0.666468
Si Si2 0.275099 0.615695 0.670301
Si Si3 0.339998 0.171928 0.832573
Si Si4 0.342873 0.436682 0.165284
Si Si5 0.933520 0.511346 0.828781
Si Si6 0.062820 0.049192 0.659492
O O1 0.624606 0.190021 0.500000
O O2 0.677389 0.287993 0.708306
O O3 0.599481 0.115597 0.757382
O O4 0.569934 0.317788 0.677345
O O5 0.272860 0.610596 0.500000
O O6 0.213853 0.639593 0.737069
O O7 0.296811 0.498833 0.736297
O O8 0.347806 0.304413 0.815249
O O9 0.396275 0.099788 0.797166
O O10 0.326940 0.150319 0.000000
O O11 0.401656 0.491251 0.217010
O O12 0.330685 0.460458 0.000000
O O13 0.000000 0.500000 0.782556
O O14 0.933930 0.527128 0.000000
O O15 0.087873 0.025661 0.500000
O O16 0.000000 0.000000 0.660564
#
# Coordination Sequence:
#
# PCOD9428013 Si02
#       6
#     8   8   8   8   8   8
#     4   9  20  38  58  85 116 148 191 240 289 346
#     4  10  22  40  62  88 118 151 193 243 300 356
#     4  10  23  40  59  86 119 154 194 243 294 349
#     4  10  21  37  58  86 117 147 192 242 291 352
#     4  10  23  41  60  84 119 160 198 239 292 350
#     4   9  19  36  58  84 116 151 190 239 291 342
#
# _framework density 18.334144999999999
#
# number of rings (size 3 to 8) (size 9 to 14) (size 15 to 20)
#    0.000    2.333    0.000    2.000    4.667    6.000 
#    0.000    0.000    0.000    0.000    0.000    0.000 
#    0.000    0.000    0.000    0.000    0.000    0.000 
#
# Total GULP energy -267679.104969 kJ/mol
# GULP energy per Si atom -5576.648020 kJ/mol
# Density = 1.829242 g / cm^3
# Si number density = 18.334145 Si / 1000 Ang^3
#
#
#
# Elastic Constant Matrix: (Units=GPa)
#
#
# Indices 1 2 3 4 5 6 
#
# 1 76.7585 52.2383 44.5115 0.0000 0.0000 0.0000
# 2 52.2383 99.1383 69.6173 0.0000 0.0000 0.0000
# 3 44.5115 69.6173 61.0314 0.0000 0.0000 0.0000
# 4 0.0000 0.0000 0.0000 26.4223 0.0000 0.0000
# 5 0.0000 0.0000 0.0000 0.0000 40.2546 0.0000
# 6 0.0000 0.0000 0.0000 0.0000 0.0000 10.6950
#
#
#
# Elastic Compliance Matrix: (Units=1/GPa)
#
#
# Indices 1 2 3 4 5 6 
#
# 1 0.022631 -0.001680 -0.014589 0.000000 0.000000 0.000000
# 2 -0.001680 0.050816 -0.056739 0.000000 0.000000 0.000000
# 3 -0.014589 -0.056739 0.091746 0.000000 0.000000 0.000000
# 4 0.000000 0.000000 0.000000 0.037847 0.000000 0.000000
# 5 0.000000 0.000000 0.000000 0.000000 0.024842 0.000000
# 6 0.000000 0.000000 0.000000 0.000000 0.000000 0.093501
#
#
# Mechanical properties :
#
#
# Convention : Reuss Voigt Hill
#
# Bulk Modulus (GPa) = 52.14626 63.29581 57.72104
# Shear Modulus (GPa) = 10.55312 20.17846 15.36579
#
# Velocity S-wave (km/s) = 2.40177 3.32112 2.89813
# Velocity P-wave (km/s) = 6.01625 7.02174 6.53835
#
# Compressibility (1/GPa) = 0.01917683
#
# Stress axis : x y z
#
# Youngs Moduli (GPa) = 44.18644 19.67878 10.89961
#
# Poissons Ratio (x) = 0.03307 0.15901
# Poissons Ratio (y) = 0.07425 0.61844
# Poissons Ratio (z) = 0.64462 1.11656
#
# Static dielectric constant tensor:
#      x y z
#    x 1.640410 0.000000 0.000000 
#    y 0.000000 1.628620 0.000000 
#    z 0.000000 0.000000 1.629120 
# 
# From -- ./inp_files/9450.got.cif
#   From: 2010.05.17/outbox.cif.g08.bks.cpg/sg55_5_cif.got.tgz:9450.got - 2010.06.03 13:27:54.
