data_PCOD9428848
_publ_section_title
;
Structure prediction by ZEFSAII (Michael W. Deem and Ramdas Pophale) SiO2 
 PCOD9428848
Probable space group: P B A M
;
_chemical_formula_sum "Si O2"
_cell_formula_units_Z 56
_cell_length_a 15.019952
_cell_length_b 21.372963
_cell_length_c 8.680057
_cell_angle_alpha 90.000000
_cell_angle_beta 90.000000
_cell_angle_gamma 90.000000
_cell_volume 2786.479522
_symmetry_space_group_name_H-M "P B A M"
_symmetry_group_IT_number 55
_symmetry_cell_setting 'orthorhombic'
loop_
_space_group_symop_operation_xyz
x,y,z
-x,-y,z
1/2+x,1/2-y,-z
1/2-x,1/2+y,-z
-x,-y,-z
x,y,-z
1/2-x,1/2+y,z
1/2+x,1/2-y,z
loop_
_atom_site_type_symbol
_atom_site_label
_atom_site_fract_x
_atom_site_fract_y
_atom_site_fract_z
Si Si1 0.694049 0.255781 0.184110
Si Si2 0.663528 0.656212 0.683453
Si Si3 0.492096 0.269093 0.180725
Si Si4 0.264084 0.103547 0.817095
Si Si5 0.237636 0.978033 0.314753
Si Si6 0.071501 0.443966 0.822902
Si Si7 0.939835 0.353839 0.322150
O O1 0.760297 0.203898 0.253804
O O2 0.591596 0.254980 0.240447
O O3 0.724784 0.327426 0.210645
O O4 0.694079 0.245071 0.000000
O O5 0.666793 0.660772 0.500000
O O6 0.566707 0.677757 0.740857
O O7 0.682832 0.584308 0.726999
O O8 0.437068 0.206017 0.212393
O O9 0.498714 0.282143 0.000000
O O10 0.356553 0.103593 0.723939
O O11 0.207965 0.044548 0.756087
O O12 0.280232 0.096260 0.000000
O O13 0.241815 0.982750 0.500000
O O14 0.334887 0.965283 0.243281
O O15 0.000000 0.500000 0.823293
O O16 0.029462 0.390734 0.716490
O O17 0.080647 0.421833 0.000000
O O18 0.935086 0.335296 0.500000
#
# Coordination Sequence:
#
# PCOD9428848 Si02
#       7
#     8   8   8   8   8   8   8
#     4  10  23  42  66  93 123 161 210 261 310 368
#     4  11  24  41  63  93 127 164 206 256 316 374
#     4  11  23  41  65  92 122 161 209 259 311 369
#     4  11  22  39  62  89 120 160 205 252 305 369
#     4  11  24  40  59  88 125 164 206 256 313 374
#     4  11  22  35  55  84 118 158 200 245 301 369
#     4  12  23  36  58  88 122 159 197 249 310 369
#
# _framework density 20.097044
#
# number of rings (size 3 to 8) (size 9 to 14) (size 15 to 20)
#    0.000    1.000    2.857    4.286    0.000    6.857 
#    0.000    0.714    0.000    4.286    0.000    0.000 
#    0.000    0.000    0.000    0.000    0.000    0.000 
#
# Total GULP energy -312898.356012 kJ/mol
# GULP energy per Si atom -5587.470643 kJ/mol
# Density = 2.005130 g / cm^3
# Si number density = 20.097044 Si / 1000 Ang^3
#
#
#
# Elastic Constant Matrix: (Units=GPa)
#
#
# Indices 1 2 3 4 5 6 
#
# 1 46.4898 3.0276 8.3643 0.0000 0.0000 0.0000
# 2 3.0276 73.5223 9.9598 0.0000 0.0000 0.0000
# 3 8.3643 9.9598 41.2807 0.0000 0.0000 0.0000
# 4 0.0000 0.0000 0.0000 29.5483 0.0000 0.0000
# 5 0.0000 0.0000 0.0000 0.0000 22.7913 0.0000
# 6 0.0000 0.0000 0.0000 0.0000 0.0000 25.5535
#
#
#
# Elastic Compliance Matrix: (Units=1/GPa)
#
#
# Indices 1 2 3 4 5 6 
#
# 1 0.022331 -0.000317 -0.004448 0.000000 0.000000 0.000000
# 2 -0.000317 0.014065 -0.003329 0.000000 0.000000 0.000000
# 3 -0.004448 -0.003329 0.025929 0.000000 0.000000 0.000000
# 4 0.000000 0.000000 0.000000 0.033843 0.000000 0.000000
# 5 0.000000 0.000000 0.000000 0.000000 0.043876 0.000000
# 6 0.000000 0.000000 0.000000 0.000000 0.000000 0.039134
#
#
# Mechanical properties :
#
#
# Convention : Reuss Voigt Hill
#
# Bulk Modulus (GPa) = 21.67490 22.66623 22.17057
# Shear Modulus (GPa) = 23.72524 24.90804 24.31664
#
# Velocity S-wave (km/s) = 3.43962 3.52431 3.48222
# Velocity P-wave (km/s) = 5.15589 5.27863 5.21762
#
# Compressibility (1/GPa) = 0.04613631
#
# Stress axis : x y z
#
# Youngs Moduli (GPa) = 44.78076 71.09650 38.56687
#
# Poissons Ratio (x) = 0.02254 0.17155
# Poissons Ratio (y) = 0.01419 0.12840
# Poissons Ratio (z) = 0.19919 0.23671
#
# Static dielectric constant tensor:
#      x y z
#    x 1.723570 0.000000 0.000000 
#    y 0.000000 1.765030 0.000000 
#    z 0.000000 0.000000 1.676510 
# 
# From -- ./inp_files/6031.got.cif
#   From: 2010.05.17/outbox.cif.g08.bks.cpg/sg55_4_cif.got.tgz:6031.got - 2010.06.03 13:27:54.
