data_PCOD9428338
_publ_section_title
;
Structure prediction by ZEFSAII (Michael W. Deem and Ramdas Pophale) SiO2 
 PCOD9428338
Probable space group: P B A M
;
_chemical_formula_sum "Si O2"
_cell_formula_units_Z 54
_cell_length_a 5.418012
_cell_length_b 15.281454
_cell_length_c 29.236266
_cell_angle_alpha 90.000000
_cell_angle_beta 90.000000
_cell_angle_gamma 90.000000
_cell_volume 2420.619601
_symmetry_space_group_name_H-M "P B A M"
_symmetry_group_IT_number 55
_symmetry_cell_setting 'orthorhombic'
loop_
_space_group_symop_operation_xyz
x,y,z
-x,-y,z
1/2+x,1/2-y,-z
1/2-x,1/2+y,-z
-x,-y,-z
x,y,-z
1/2-x,1/2+y,z
1/2+x,1/2-y,z
loop_
_atom_site_type_symbol
_atom_site_label
_atom_site_fract_x
_atom_site_fract_y
_atom_site_fract_z
Si Si1 0.500000 0.000000 0.500000
Si Si2 0.684496 0.848324 0.820086
Si Si3 0.817332 0.148430 0.856539
Si Si4 0.751432 0.557436 0.947649
Si Si5 0.804963 0.068605 0.576839
Si Si6 0.866817 0.908855 0.275031
Si Si7 0.905669 0.199037 0.354488
Si Si8 0.500000 0.000000 0.660720
O O1 0.587718 0.069468 0.540505
O O2 0.414741 0.889086 0.828038
O O3 0.659529 0.749416 0.839872
O O4 0.773090 0.853589 0.767934
O O5 0.913317 0.891376 0.846846
O O6 0.756746 0.132706 0.909413
O O7 0.500000 0.500000 0.943607
O O8 0.000000 0.500000 0.940244
O O9 0.761082 0.590181 0.000000
O O10 0.705471 0.032707 0.625284
O O11 0.938187 0.153741 0.595689
O O12 0.000000 0.000000 0.556339
O O13 0.047229 0.857713 0.308925
O O14 0.632881 0.932024 0.306439
O O15 0.000000 0.000000 0.261077
O O16 0.126848 0.268087 0.352898
#
# Coordination Sequence:
#
# PCOD9428338 Si02
#       8
#     2   8   8   8   8   8   8   4
#     4  10  26  40  88  98 148 184 248 292 354 436
#     4  10  25  40  64  91 138 180 232 279 358 415
#     4  10  22  45  60  92 137 184 216 296 349 439
#     4  10  21  39  69 100 129 174 235 293 355 428
#     4  11  22  47  72 110 135 190 246 298 359 428
#     4  12  26  43  69 101 133 195 250 301 342 430
#     4  12  27  43  73 104 149 189 230 305 371 421
#     4  11  20  43  72  98 142 170 253 310 335 410
#
# _framework density 22.308337999999999
#
# number of rings (size 3 to 8) (size 9 to 14) (size 15 to 20)
#    0.000    1.185    2.963    2.000    8.296    1.778 
#    0.000    3.704    0.000    0.000    0.000    0.000 
#    0.000    0.000    0.000    0.000    0.000    0.000 
#
# Total GULP energy -300882.353124 kJ/mol
# GULP energy per Si atom -5571.895428 kJ/mol
# Density = 2.225756 g / cm^3
# Si number density = 22.308338 Si / 1000 Ang^3
#
#
#
# Elastic Constant Matrix: (Units=GPa)
#
#
# Indices 1 2 3 4 5 6 
#
# 1 107.8308 0.5233 -6.1734 0.0000 0.0000 0.0000
# 2 0.5233 49.8474 28.4323 0.0000 0.0000 0.0000
# 3 -6.1734 28.4323 141.9846 0.0000 0.0000 0.0000
# 4 0.0000 0.0000 0.0000 -23.1552 0.0000 0.0000
# 5 0.0000 0.0000 0.0000 0.0000 -438.0416 0.0000
# 6 0.0000 0.0000 0.0000 0.0000 0.0000 27.1763
#
#
#
# Elastic Compliance Matrix: (Units=1/GPa)
#
#
# Indices 1 2 3 4 5 6 
#
# 1 0.009303 -0.000371 0.000479 0.000000 0.000000 0.000000
# 2 -0.000371 0.022663 -0.004554 0.000000 0.000000 0.000000
# 3 0.000479 -0.004554 0.007976 0.000000 0.000000 0.000000
# 4 0.000000 0.000000 0.000000 -0.043187 0.000000 0.000000
# 5 0.000000 0.000000 0.000000 0.000000 -0.002283 0.000000
# 6 0.000000 0.000000 0.000000 0.000000 0.000000 0.036797
#
#
# Mechanical properties :
#
#
# Convention : Reuss Voigt Hill
#
# Bulk Modulus (GPa) = 32.20713 38.35858 35.28285
# Shear Modulus (GPa) = 98.98815 -68.34540 15.32137
#
# Velocity S-wave (km/s) = 6.66851 -5.54105 2.62353
# Velocity P-wave (km/s) = 8.58840 4.86884 5.00275
#
# Compressibility (1/GPa) = 0.03104903
#
# Stress axis : x y z
#
# Youngs Moduli (GPa) = 107.49225 44.12501 125.37869
#
# Poissons Ratio (x) = 0.01636 -0.06002
# Poissons Ratio (y) = 0.03985 0.57102
# Poissons Ratio (z) = -0.05146 0.20096
#
# Static dielectric constant tensor:
#      x y z
#    x 1.961760 0.000000 0.000000 
#    y 0.000000 1.935260 0.000000 
#    z 0.000000 0.000000 1.791200 
# 
# From -- ./inp_files/24096.got.cif
#   From: 2010.05.17/outbox.cif.g08.bks.cpg/sg55_13_cif.got.tgz:24096.got - 2010.06.03 13:27:54.
