data_PCOD9428243
_publ_section_title
;
Structure prediction by ZEFSAII (Michael W. Deem and Ramdas Pophale) SiO2 
 PCOD9428243
Probable space group: P B A M
;
_chemical_formula_sum "Si O2"
_cell_formula_units_Z 64
_cell_length_a 13.644736
_cell_length_b 18.000346
_cell_length_c 14.268656
_cell_angle_alpha 90.000000
_cell_angle_beta 90.000000
_cell_angle_gamma 90.000000
_cell_volume 3504.524159
_symmetry_space_group_name_H-M "P B A M"
_symmetry_group_IT_number 55
_symmetry_cell_setting 'orthorhombic'
loop_
_space_group_symop_operation_xyz
x,y,z
-x,-y,z
1/2+x,1/2-y,-z
1/2-x,1/2+y,-z
-x,-y,-z
x,y,-z
1/2-x,1/2+y,z
1/2+x,1/2-y,z
loop_
_atom_site_type_symbol
_atom_site_label
_atom_site_fract_x
_atom_site_fract_y
_atom_site_fract_z
Si Si1 0.952731 0.199205 0.392738
Si Si2 0.883073 0.632776 0.785410
Si Si3 0.779230 0.384924 0.612556
Si Si4 0.000007 0.375364 0.394338
Si Si5 0.585758 0.828710 0.887125
Si Si6 0.881337 0.492330 0.108552
Si Si7 0.708285 0.740027 0.740889
Si Si8 0.420003 0.557819 0.612163
O O1 0.920693 0.186312 0.500000
O O2 0.986185 0.285297 0.387259
O O3 0.863584 0.189541 0.321927
O O4 0.038113 0.140747 0.372453
O O5 0.838441 0.560687 0.835245
O O6 0.804617 0.696649 0.769899
O O7 0.926042 0.604987 0.686672
O O8 0.975826 0.663567 0.845551
O O9 0.768406 0.368261 0.500000
O O10 0.892155 0.409024 0.623574
O O11 0.768530 0.310417 0.673921
O O12 0.693508 0.441412 0.641697
O O13 0.030941 0.393293 0.500000
O O14 0.646139 0.767712 0.830315
O O15 0.638290 0.907666 0.864288
O O16 0.582945 0.820150 0.000000
O O17 0.000000 0.500000 0.116556
O O18 0.856297 0.501079 0.000000
O O19 0.500000 0.500000 0.651131
O O20 0.417096 0.545240 0.500000
#
# Coordination Sequence:
#
# PCOD9428243 Si02
#       8
#     8   8   8   8   8   8   8   8
#     4   9  17  32  49  72 108 142 178 216 255 310
#     4  11  19  33  56  82 107 134 178 223 262 322
#     4   9  17  31  51  77 108 146 182 213 254 307
#     4   9  17  30  51  77 107 142 179 218 257 308
#     4  10  21  39  57  76 105 135 174 223 272 325
#     4   8  17  35  57  74  95 133 172 213 264 317
#     4  11  21  32  54  83 105 134 177 218 270 314
#     4   9  17  30  49  74 106 146 185 218 254 302
#
# _framework density 18.262108000000001
#
# number of rings (size 3 to 8) (size 9 to 14) (size 15 to 20)
#    0.000    2.500    2.500    3.000    0.000    3.000 
#    2.250    0.000    0.000    4.875    0.000    0.000 
#    0.000    4.000    0.000    0.000    0.000    0.000 
#
# Total GULP energy -356771.606650 kJ/mol
# GULP energy per Si atom -5574.556354 kJ/mol
# Density = 1.822054 g / cm^3
# Si number density = 18.262108 Si / 1000 Ang^3
#
#
#
# Elastic Constant Matrix: (Units=GPa)
#
#
# Indices 1 2 3 4 5 6 
#
# 1 51.5048 18.4065 34.1145 0.0000 0.0000 0.0000
# 2 18.4065 23.9825 22.6683 0.0000 0.0000 0.0000
# 3 34.1145 22.6683 82.6482 0.0000 0.0000 0.0000
# 4 0.0000 0.0000 0.0000 17.1190 0.0000 0.0000
# 5 0.0000 0.0000 0.0000 0.0000 7.6669 0.0000
# 6 0.0000 0.0000 0.0000 0.0000 0.0000 9.6703
#
#
#
# Elastic Compliance Matrix: (Units=1/GPa)
#
#
# Indices 1 2 3 4 5 6 
#
# 1 0.030475 -0.015524 -0.008321 0.000000 0.000000 0.000000
# 2 -0.015524 0.064198 -0.011200 0.000000 0.000000 0.000000
# 3 -0.008321 -0.011200 0.018606 0.000000 0.000000 0.000000
# 4 0.000000 0.000000 0.000000 0.058415 0.000000 0.000000
# 5 0.000000 0.000000 0.000000 0.000000 0.130431 0.000000
# 6 0.000000 0.000000 0.000000 0.000000 0.000000 0.103409
#
#
# Mechanical properties :
#
#
# Convention : Reuss Voigt Hill
#
# Bulk Modulus (GPa) = 23.15443 34.27934 28.71689
# Shear Modulus (GPa) = 10.20363 12.42099 11.31231
#
# Velocity S-wave (km/s) = 2.36632 2.61080 2.49156
# Velocity P-wave (km/s) = 4.49137 5.28203 4.90267
#
# Compressibility (1/GPa) = 0.04318827
#
# Stress axis : x y z
#
# Youngs Moduli (GPa) = 32.81337 15.57680 53.74579
#
# Poissons Ratio (x) = 0.24182 0.44724
# Poissons Ratio (y) = 0.50941 0.60195
# Poissons Ratio (z) = 0.27305 0.17446
#
# Static dielectric constant tensor:
#      x y z
#    x 1.647590 0.000000 0.000000 
#    y 0.000000 1.652660 0.000000 
#    z 0.000000 0.000000 1.633690 
# 
# From -- ./inp_files/19124.got.cif
#   From: 2010.05.17/outbox.cif.g08.bks.cpg/sg55_10_cif.got.tgz:19124.got - 2010.06.03 13:27:54.
