data_PCOD9428870
_publ_section_title
;
Structure prediction by ZEFSAII (Michael W. Deem and Ramdas Pophale) SiO2 
 PCOD9428870
Probable space group: P B A M
;
_chemical_formula_sum "Si O2"
_cell_formula_units_Z 40
_cell_length_a 5.155800
_cell_length_b 32.813369
_cell_length_c 10.046844
_cell_angle_alpha 90.000000
_cell_angle_beta 90.000000
_cell_angle_gamma 90.000000
_cell_volume 1699.716708
_symmetry_space_group_name_H-M "P B A M"
_symmetry_group_IT_number 55
_symmetry_cell_setting 'orthorhombic'
loop_
_space_group_symop_operation_xyz
x,y,z
-x,-y,z
1/2+x,1/2-y,-z
1/2-x,1/2+y,-z
-x,-y,-z
x,y,-z
1/2-x,1/2+y,z
1/2+x,1/2-y,z
loop_
_atom_site_type_symbol
_atom_site_label
_atom_site_fract_x
_atom_site_fract_y
_atom_site_fract_z
Si Si1 0.736388 0.658609 0.348735
Si Si2 0.240421 0.473666 0.805701
Si Si3 0.543718 0.396065 0.851096
Si Si4 0.064665 0.576325 0.639085
Si Si5 0.032925 0.277327 0.850096
O O1 0.649890 0.669942 0.500000
O O2 0.522831 0.642327 0.243156
O O3 0.915376 0.618942 0.364321
O O4 0.896159 0.692781 0.270032
O O5 0.500000 0.500000 0.812997
O O6 0.140573 0.459666 0.660571
O O7 0.309738 0.428892 0.862777
O O8 0.000000 0.500000 0.860435
O O9 0.753162 0.420981 0.766368
O O10 0.623221 0.384268 0.000000
O O11 0.211995 0.571628 0.500000
O O12 0.745467 0.258909 0.841364
O O13 0.064670 0.295635 0.000000
#
# Coordination Sequence:
#
# PCOD9428870 Si02
#       5
#     8   8   8   8   8
#     4  10  23  43  67  97 135 178 226 277 328 394
#     4  11  23  45  64 100 130 172 221 283 341 403
#     4  11  24  42  68  97 132 177 226 278 339 401
#     4  10  23  43  67  97 134 175 226 279 336 402
#     4  10  23  43  68 103 141 178 219 267 327 394
#
# _framework density 23.533332000000001
#
# number of rings (size 3 to 8) (size 9 to 14) (size 15 to 20)
#    0.000    1.600    2.000    1.200    2.800    7.200 
#    0.000    0.000    0.000    0.000    0.000    0.000 
#    0.000    0.000    0.000    0.000    0.000    0.000 
#
# Total GULP energy -223129.397644 kJ/mol
# GULP energy per Si atom -5578.234941 kJ/mol
# Density = 2.347977 g / cm^3
# Si number density = 23.533332 Si / 1000 Ang^3
#
#
#
# Elastic Constant Matrix: (Units=GPa)
#
#
# Indices 1 2 3 4 5 6 
#
# 1 82.8760 -1.5663 20.0367 0.0000 0.0000 0.0000
# 2 -1.5663 58.4757 31.5768 0.0000 0.0000 0.0000
# 3 20.0367 31.5768 205.9137 0.0000 0.0000 0.0000
# 4 0.0000 0.0000 0.0000 -39.7398 0.0000 0.0000
# 5 0.0000 0.0000 0.0000 0.0000 28.4452 0.0000
# 6 0.0000 0.0000 0.0000 0.0000 0.0000 33.0426
#
#
#
# Elastic Compliance Matrix: (Units=1/GPa)
#
#
# Indices 1 2 3 4 5 6 
#
# 1 0.012418 0.001074 -0.001373 0.000000 0.000000 0.000000
# 2 0.001074 0.018738 -0.002978 0.000000 0.000000 0.000000
# 3 -0.001373 -0.002978 0.005447 0.000000 0.000000 0.000000
# 4 0.000000 0.000000 0.000000 -0.025164 0.000000 0.000000
# 5 0.000000 0.000000 0.000000 0.000000 0.035155 0.000000
# 6 0.000000 0.000000 0.000000 0.000000 0.000000 0.030264
#
#
# Mechanical properties :
#
#
# Convention : Reuss Voigt Hill
#
# Bulk Modulus (GPa) = 33.27872 49.70664 41.49268
# Shear Modulus (GPa) = 53.51649 24.16415 38.84032
#
# Velocity S-wave (km/s) = 4.77390 3.20786 4.06697
# Velocity P-wave (km/s) = 6.67522 5.90662 6.30265
#
# Compressibility (1/GPa) = 0.03004923
#
# Stress axis : x y z
#
# Youngs Moduli (GPa) = 80.52505 53.36748 183.59778
#
# Poissons Ratio (x) = -0.05732 0.25210
# Poissons Ratio (y) = -0.08649 0.54675
# Poissons Ratio (z) = 0.11057 0.15893
#
# Static dielectric constant tensor:
#      x y z
#    x 1.954220 0.000000 0.000000 
#    y 0.000000 1.892810 0.000000 
#    z 0.000000 0.000000 1.980980 
# 
# From -- ./inp_files/11389.got.cif
#   From: 2010.05.17/outbox.cif.g08.bks.cpg/sg55_6_cif.got.tgz:11389.got - 2010.06.03 13:27:54.
