data_PCOD9428061
_publ_section_title
;
Structure prediction by ZEFSAII (Michael W. Deem and Ramdas Pophale) SiO2 
 PCOD9428061
Probable space group: P B A M
;
_chemical_formula_sum "Si O2"
_cell_formula_units_Z 64
_cell_length_a 14.951929
_cell_length_b 8.008513
_cell_length_c 23.731305
_cell_angle_alpha 90.000000
_cell_angle_beta 90.000000
_cell_angle_gamma 90.000000
_cell_volume 2841.650957
_symmetry_space_group_name_H-M "P B A M"
_symmetry_group_IT_number 55
_symmetry_cell_setting 'orthorhombic'
loop_
_space_group_symop_operation_xyz
x,y,z
-x,-y,z
1/2+x,1/2-y,-z
1/2-x,1/2+y,-z
-x,-y,-z
x,y,-z
1/2-x,1/2+y,z
1/2+x,1/2-y,z
loop_
_atom_site_type_symbol
_atom_site_label
_atom_site_fract_x
_atom_site_fract_y
_atom_site_fract_z
Si Si1 0.029770 0.696627 0.063981
Si Si2 0.855394 0.200746 0.604972
Si Si3 0.320421 0.666135 0.564374
Si Si4 0.376156 0.729047 0.859883
Si Si5 0.307199 0.292722 0.269098
Si Si6 0.675962 0.883328 0.848609
Si Si7 0.965681 0.683199 0.367028
Si Si8 0.613542 0.337542 0.261015
O O1 0.112998 0.711572 0.106640
O O2 0.000000 0.500000 0.063828
O O3 0.944086 0.792591 0.088990
O O4 0.051480 0.743273 0.000000
O O5 0.783954 0.292309 0.566383
O O6 0.836154 0.263774 0.668754
O O7 0.958354 0.236460 0.593906
O O8 0.838547 0.004502 0.597723
O O9 0.350124 0.651789 0.500000
O O10 0.373562 0.808528 0.598565
O O11 0.281222 0.635634 0.862552
O O12 0.424453 0.682850 0.801369
O O13 0.350692 0.923949 0.853628
O O14 0.337250 0.186624 0.214732
O O15 0.344995 0.478787 0.264451
O O16 0.199225 0.285380 0.267329
O O17 0.953509 0.791631 0.310553
O O18 0.000000 0.500000 0.352844
#
# Coordination Sequence:
#
# PCOD9428061 Si02
#       8
#     8   8   8   8   8   8   8   8
#     4   9  20  39  61  89 129 176 224 267 319 392
#     4  12  25  45  70 102 132 175 221 274 338 392
#     4  12  27  50  74  98 134 177 223 274 331 400
#     4  10  21  37  61  92 127 170 218 264 331 388
#     4  11  21  39  67  91 135 167 213 270 333 394
#     4  10  21  37  63  95 125 171 216 274 326 389
#     4  12  28  42  69 103 134 172 222 273 334 400
#     4  11  23  40  64  99 132 174 214 273 333 399
#
# _framework density 22.522117999999999
#
# number of rings (size 3 to 8) (size 9 to 14) (size 15 to 20)
#    0.000    1.125    2.500    4.500    5.250    2.750 
#    0.000    1.875    0.000    5.250    0.000    0.000 
#    0.000    0.000    0.000    0.000    0.000    0.000 
#
# Total GULP energy -358137.910464 kJ/mol
# GULP energy per Si atom -5595.904851 kJ/mol
# Density = 2.247086 g / cm^3
# Si number density = 22.522118 Si / 1000 Ang^3
#
#
#
# Elastic Constant Matrix: (Units=GPa)
#
#
# Indices 1 2 3 4 5 6 
#
# 1 71.7371 5.7023 26.3791 0.0000 0.0000 0.0000
# 2 5.7023 58.7611 -9.9341 0.0000 0.0000 0.0000
# 3 26.3791 -9.9341 130.0203 0.0000 0.0000 0.0000
# 4 0.0000 0.0000 0.0000 12.9388 0.0000 0.0000
# 5 0.0000 0.0000 0.0000 0.0000 28.4990 0.0000
# 6 0.0000 0.0000 0.0000 0.0000 0.0000 25.4662
#
#
#
# Elastic Compliance Matrix: (Units=1/GPa)
#
#
# Indices 1 2 3 4 5 6 
#
# 1 0.015300 -0.002036 -0.003260 0.000000 0.000000 0.000000
# 2 -0.002036 0.017512 0.001751 0.000000 0.000000 0.000000
# 3 -0.003260 0.001751 0.008486 0.000000 0.000000 0.000000
# 4 0.000000 0.000000 0.000000 0.077287 0.000000 0.000000
# 5 0.000000 0.000000 0.000000 0.000000 0.035089 0.000000
# 6 0.000000 0.000000 0.000000 0.000000 0.000000 0.039268
#
#
# Mechanical properties :
#
#
# Convention : Reuss Voigt Hill
#
# Bulk Modulus (GPa) = 29.23211 33.86814 31.55013
# Shear Modulus (GPa) = 23.64803 29.27221 26.46012
#
# Velocity S-wave (km/s) = 3.24387 3.60906 3.43133
# Velocity P-wave (km/s) = 5.19978 5.69539 5.45322
#
# Compressibility (1/GPa) = 0.03420896
#
# Stress axis : x y z
#
# Youngs Moduli (GPa) = 65.35831 57.10489 117.83783
#
# Poissons Ratio (x) = 0.11626 0.38412
# Poissons Ratio (y) = 0.13306 -0.20633
# Poissons Ratio (z) = 0.21305 -0.09999
#
# Static dielectric constant tensor:
#      x y z
#    x 1.847150 0.000000 0.000000 
#    y 0.000000 1.850310 0.000000 
#    z 0.000000 0.000000 1.802860 
# 
# From -- ./inp_files/23609.got.cif
#   From: 2010.05.17/outbox.cif.g08.bks.cpg/sg55_12_cif.got.tgz:23609.got - 2010.06.03 13:27:54.
