data_PCOD9428360
_publ_section_title
;
Structure prediction by ZEFSAII (Michael W. Deem and Ramdas Pophale) SiO2 
 PCOD9428360
Probable space group: P B A M
;
_chemical_formula_sum "Si O2"
_cell_formula_units_Z 48
_cell_length_a 7.438695
_cell_length_b 28.299500
_cell_length_c 9.410119
_cell_angle_alpha 90.000000
_cell_angle_beta 90.000000
_cell_angle_gamma 90.000000
_cell_volume 1980.936846
_symmetry_space_group_name_H-M "P B A M"
_symmetry_group_IT_number 55
_symmetry_cell_setting 'orthorhombic'
loop_
_space_group_symop_operation_xyz
x,y,z
-x,-y,z
1/2+x,1/2-y,-z
1/2-x,1/2+y,-z
-x,-y,-z
x,y,-z
1/2-x,1/2+y,z
1/2+x,1/2-y,z
loop_
_atom_site_type_symbol
_atom_site_label
_atom_site_fract_x
_atom_site_fract_y
_atom_site_fract_z
Si Si1 0.734479 0.274525 0.164570
Si Si2 0.159945 0.256949 0.500000
Si Si3 0.943583 0.147099 0.803206
Si Si4 0.447031 0.947106 0.332092
Si Si5 0.984056 0.642841 0.841193
Si Si6 0.604792 0.548099 0.154378
Si Si7 0.390764 0.326693 0.500000
O O1 0.715562 0.252692 0.326860
O O2 0.560715 0.308598 0.151975
O O3 0.907648 0.308855 0.181518
O O4 0.748111 0.253116 0.000000
O O5 0.179481 0.313941 0.500000
O O6 0.976551 0.226311 0.500000
O O7 0.731547 0.151763 0.837235
O O8 0.009511 0.096075 0.852539
O O9 0.956008 0.147015 0.635127
O O10 0.469702 0.944909 0.500000
O O11 0.532706 0.900488 0.261952
O O12 0.241522 0.944297 0.281573
O O13 0.500000 0.000000 0.283170
O O14 0.029023 0.627038 0.000000
O O15 0.500000 0.500000 0.173211
O O16 0.700588 0.545266 0.000000
#
# Coordination Sequence:
#
# PCOD9428360 Si02
#       7
#     8   4   8   8   8   8   4
#     4  10  22  41  65  95 129 163 207 266 319 379
#     4  10  24  44  66 100 124 162 215 252 318 405
#     4  10  21  40  63  93 127 164 209 263 312 384
#     4  10  22  37  52  85 121 159 208 260 311 365
#     4  10  22  37  63  92 118 168 211 251 323 380
#     4  10  22  38  60  88 121 167 212 257 312 372
#     4  10  24  42  69  96 124 169 203 256 339 376
#
# _framework density 24.230961000000001
#
# number of rings (size 3 to 8) (size 9 to 14) (size 15 to 20)
#    0.000    2.000    0.000    3.000   10.500    1.667 
#    0.000    5.000    0.000    0.000    0.000    0.000 
#    0.000    0.000    0.000    0.000    0.000    0.000 
#
# Total GULP energy -267395.667689 kJ/mol
# GULP energy per Si atom -5570.743077 kJ/mol
# Density = 2.417581 g / cm^3
# Si number density = 24.230961 Si / 1000 Ang^3
#
#
#
# Elastic Constant Matrix: (Units=GPa)
#
#
# Indices 1 2 3 4 5 6 
#
# 1 50.6290 13.7611 18.5228 0.0000 0.0000 0.0000
# 2 13.7611 93.6855 60.6229 0.0000 0.0000 0.0000
# 3 18.5228 60.6229 184.9505 0.0000 0.0000 0.0000
# 4 0.0000 0.0000 0.0000 29.0358 0.0000 0.0000
# 5 0.0000 0.0000 0.0000 0.0000 15.6105 0.0000
# 6 0.0000 0.0000 0.0000 0.0000 0.0000 35.7764
#
#
#
# Elastic Compliance Matrix: (Units=1/GPa)
#
#
# Indices 1 2 3 4 5 6 
#
# 1 0.020845 -0.002172 -0.001376 0.000000 0.000000 0.000000
# 2 -0.002172 0.013774 -0.004297 0.000000 0.000000 0.000000
# 3 -0.001376 -0.004297 0.006953 0.000000 0.000000 0.000000
# 4 0.000000 0.000000 0.000000 0.034440 0.000000 0.000000
# 5 0.000000 0.000000 0.000000 0.000000 0.064059 0.000000
# 6 0.000000 0.000000 0.000000 0.000000 0.000000 0.027951
#
#
# Mechanical properties :
#
#
# Convention : Reuss Voigt Hill
#
# Bulk Modulus (GPa) = 38.63585 57.23094 47.93339
# Shear Modulus (GPa) = 25.99565 31.84175 28.91870
#
# Velocity S-wave (km/s) = 3.27896 3.62898 3.45840
# Velocity P-wave (km/s) = 5.50589 6.42102 5.98098
#
# Compressibility (1/GPa) = 0.02588270
#
# Stress axis : x y z
#
# Youngs Moduli (GPa) = 47.97285 72.60221 143.81891
#
# Poissons Ratio (x) = 0.15766 0.19787
# Poissons Ratio (y) = 0.10418 0.61802
# Poissons Ratio (z) = 0.06600 0.31199
#
# Static dielectric constant tensor:
#      x y z
#    x 2.509620 0.000000 0.000000 
#    y 0.000000 1.954060 0.000000 
#    z 0.000000 0.000000 1.948790 
# 
# From -- ./inp_files/2996.got.cif
#   From: 2010.05.17/outbox.cif.g08.bks.cpg/sg55_2_cif.got.tgz:2996.got - 2010.06.03 13:27:54.
