data_PCOD9428174
_publ_section_title
;
Structure prediction by ZEFSAII (Michael W. Deem and Ramdas Pophale) SiO2 
 PCOD9428174
Probable space group: P B A M
;
_chemical_formula_sum "Si O2"
_cell_formula_units_Z 28
_cell_length_a 5.018197
_cell_length_b 24.274369
_cell_length_c 11.063380
_cell_angle_alpha 90.000000
_cell_angle_beta 90.000000
_cell_angle_gamma 90.000000
_cell_volume 1347.669766
_symmetry_space_group_name_H-M "P B A M"
_symmetry_group_IT_number 55
_symmetry_cell_setting 'orthorhombic'
loop_
_space_group_symop_operation_xyz
x,y,z
-x,-y,z
1/2+x,1/2-y,-z
1/2-x,1/2+y,-z
-x,-y,-z
x,y,-z
1/2-x,1/2+y,z
1/2+x,1/2-y,z
loop_
_atom_site_type_symbol
_atom_site_label
_atom_site_fract_x
_atom_site_fract_y
_atom_site_fract_z
Si Si1 0.329619 0.395177 0.747014
Si Si2 0.024814 0.212296 0.138774
Si Si3 0.653713 0.945332 0.857538
Si Si4 0.750089 0.541433 0.500000
O O1 0.451105 0.334684 0.765762
O O2 0.564201 0.434441 0.797360
O O3 0.257892 0.418405 0.615822
O O4 0.060821 0.398433 0.826298
O O5 0.316605 0.237739 0.151195
O O6 0.998808 0.190112 0.000000
O O7 0.500000 0.000000 0.814132
O O8 0.695552 0.949869 0.000000
O O9 0.500000 0.500000 0.500000
O O10 0.000000 0.500000 0.500000
#
# Coordination Sequence:
#
# PCOD9428174 Si02
#       4
#     8   8   8   4
#     4  12  23  40  62  88 123 167 208 252 310 370
#     4  10  21  38  61  90 122 156 200 256 316 375
#     4  11  22  36  59  91 123 155 199 259 321 380
#     4  12  26  44  64  88 124 170 214 252 295 362
#
# _framework density 20.776603000000001
#
# number of rings (size 3 to 8) (size 9 to 14) (size 15 to 20)
#    0.000    0.857    0.000    9.429    0.000    4.571 
#    0.000    1.429    0.000    0.000    0.000    0.000 
#    0.000    0.000    0.000    0.000    0.000    0.000 
#
# Total GULP energy -156655.499955 kJ/mol
# GULP energy per Si atom -5594.839284 kJ/mol
# Density = 2.072931 g / cm^3
# Si number density = 20.776603 Si / 1000 Ang^3
#
#
#
# Elastic Constant Matrix: (Units=GPa)
#
#
# Indices 1 2 3 4 5 6 
#
# 1 109.3789 1.2099 23.2378 0.0000 0.0000 0.0000
# 2 1.2099 85.2243 41.5351 0.0000 0.0000 0.0000
# 3 23.2378 41.5351 110.4708 0.0000 0.0000 0.0000
# 4 0.0000 0.0000 0.0000 43.0133 0.0000 0.0000
# 5 0.0000 0.0000 0.0000 0.0000 21.6803 0.0000
# 6 0.0000 0.0000 0.0000 0.0000 0.0000 32.3196
#
#
#
# Elastic Compliance Matrix: (Units=1/GPa)
#
#
# Indices 1 2 3 4 5 6 
#
# 1 0.009645 0.001043 -0.002421 0.000000 0.000000 0.000000
# 2 0.001043 0.014479 -0.005663 0.000000 0.000000 0.000000
# 3 -0.002421 -0.005663 0.011691 0.000000 0.000000 0.000000
# 4 0.000000 0.000000 0.000000 0.023249 0.000000 0.000000
# 5 0.000000 0.000000 0.000000 0.000000 0.046125 0.000000
# 6 0.000000 0.000000 0.000000 0.000000 0.000000 0.030941
#
#
# Mechanical properties :
#
#
# Convention : Reuss Voigt Hill
#
# Bulk Modulus (GPa) = 46.01416 48.55995 47.28706
# Shear Modulus (GPa) = 31.75485 35.34205 33.54845
#
# Velocity S-wave (km/s) = 3.91371 4.12885 4.02272
# Velocity P-wave (km/s) = 6.52825 6.79361 6.66225
#
# Compressibility (1/GPa) = 0.02173244
#
# Stress axis : x y z
#
# Youngs Moduli (GPa) = 103.67681 69.06562 85.53785
#
# Poissons Ratio (x) = -0.07204 0.20709
# Poissons Ratio (y) = -0.10814 0.48442
# Poissons Ratio (z) = 0.25101 0.39114
#
# Static dielectric constant tensor:
#      x y z
#    x 1.736640 0.000000 0.000000 
#    y 0.000000 1.804390 0.000000 
#    z 0.000000 0.000000 1.730580 
# 
# From -- ./inp_files/11116.got.cif
#   From: 2010.05.17/outbox.cif.g08.bks.cpg/sg55_6_cif.got.tgz:11116.got - 2010.06.03 13:27:54.
