data_PCOD9428958
_publ_section_title
;
Structure prediction by ZEFSAII (Michael W. Deem and Ramdas Pophale) SiO2 
 PCOD9428958
Probable space group: P B A M
;
_chemical_formula_sum "Si O2"
_cell_formula_units_Z 58
_cell_length_a 12.303461
_cell_length_b 24.504478
_cell_length_c 9.449888
_cell_angle_alpha 90.000000
_cell_angle_beta 90.000000
_cell_angle_gamma 90.000000
_cell_volume 2849.045688
_symmetry_space_group_name_H-M "P B A M"
_symmetry_group_IT_number 55
_symmetry_cell_setting 'orthorhombic'
loop_
_space_group_symop_operation_xyz
x,y,z
-x,-y,z
1/2+x,1/2-y,-z
1/2-x,1/2+y,-z
-x,-y,-z
x,y,-z
1/2-x,1/2+y,z
1/2+x,1/2-y,z
loop_
_atom_site_type_symbol
_atom_site_label
_atom_site_fract_x
_atom_site_fract_y
_atom_site_fract_z
Si Si1 0.072676 0.946714 0.337632
Si Si2 0.926697 0.589927 0.727424
Si Si3 0.500000 0.000000 0.500000
Si Si4 0.834019 0.399909 0.671202
Si Si5 0.252996 0.318522 0.661930
Si Si6 0.659542 0.302583 0.662903
Si Si7 0.967576 0.155034 0.831871
Si Si8 0.226931 0.490223 0.840244
O O1 0.094367 0.930407 0.500000
O O2 0.009333 0.901681 0.248450
O O3 0.181701 0.960419 0.253286
O O4 0.000000 0.000000 0.342465
O O5 0.843682 0.637759 0.684309
O O6 0.870584 0.553934 0.848687
O O7 0.946163 0.540455 0.618750
O O8 0.047607 0.615212 0.733714
O O9 0.845412 0.413298 0.500000
O O10 0.748025 0.350894 0.684443
O O11 0.799203 0.453891 0.756490
O O12 0.292371 0.324044 0.500000
O O13 0.212418 0.256718 0.676544
O O14 0.350018 0.328612 0.771334
O O15 0.619413 0.308616 0.500000
O O16 0.561660 0.306323 0.773159
O O17 0.967338 0.150210 0.000000
O O18 0.263745 0.502563 0.000000
#
# Coordination Sequence:
#
# PCOD9428958 Si02
#       8
#     8   8   2   8   8   8   8   8
#     4  11  24  41  66  95 127 173 225 280 336 401
#     4  12  22  38  67 100 137 175 221 283 350 413
#     4  12  20  40  66 100 134 176 222 280 344 408
#     4  11  22  41  67  98 133 173 225 284 340 401
#     4  11  24  43  73 101 131 176 234 287 343 405
#     4  10  25  45  71 102 132 175 234 291 340 406
#     4  12  26  45  67  97 139 180 225 278 342 418
#     4  12  25  39  61  97 138 176 219 271 343 421
#
# _framework density 20.357693000000001
#
# number of rings (size 3 to 8) (size 9 to 14) (size 15 to 20)
#    0.000    0.690    4.138    2.897    2.897    6.621 
#    0.000    0.000    0.000    0.000    0.000    0.000 
#    0.000    0.000    0.000    0.000    0.000    0.000 
#
# Total GULP energy -323365.639622 kJ/mol
# GULP energy per Si atom -5575.269649 kJ/mol
# Density = 2.031136 g / cm^3
# Si number density = 20.357693 Si / 1000 Ang^3
#
#
#
# Elastic Constant Matrix: (Units=GPa)
#
#
# Indices 1 2 3 4 5 6 
#
# 1 77.2593 31.2780 43.5614 0.0000 0.0000 0.0000
# 2 31.2780 111.9818 55.8081 0.0000 0.0000 0.0000
# 3 43.5614 55.8081 139.3972 0.0000 0.0000 0.0000
# 4 0.0000 0.0000 0.0000 -25.0906 0.0000 0.0000
# 5 0.0000 0.0000 0.0000 0.0000 47.1884 0.0000
# 6 0.0000 0.0000 0.0000 0.0000 0.0000 28.6795
#
#
#
# Elastic Compliance Matrix: (Units=1/GPa)
#
#
# Indices 1 2 3 4 5 6 
#
# 1 0.016257 -0.002510 -0.004076 0.000000 0.000000 0.000000
# 2 -0.002510 0.011543 -0.003837 0.000000 0.000000 0.000000
# 3 -0.004076 -0.003837 0.009984 0.000000 0.000000 0.000000
# 4 0.000000 0.000000 0.000000 -0.039856 0.000000 0.000000
# 5 0.000000 0.000000 0.000000 0.000000 0.021192 0.000000
# 6 0.000000 0.000000 0.000000 0.000000 0.000000 0.034868
#
#
# Mechanical properties :
#
#
# Convention : Reuss Voigt Hill
#
# Bulk Modulus (GPa) = 59.03416 65.54815 62.29116
# Shear Modulus (GPa) = 62.12727 23.35486 42.74107
#
# Velocity S-wave (km/s) = 5.53029 3.39075 4.58701
# Velocity P-wave (km/s) = 8.35704 6.89911 7.66283
#
# Compressibility (1/GPa) = 0.01693934
#
# Stress axis : x y z
#
# Youngs Moduli (GPa) = 61.51022 86.63023 100.16453
#
# Poissons Ratio (x) = 0.21742 0.40823
# Poissons Ratio (y) = 0.15438 0.38434
# Poissons Ratio (z) = 0.25069 0.33241
#
# Static dielectric constant tensor:
#      x y z
#    x 1.791440 0.000000 0.000000 
#    y 0.000000 1.760810 0.000000 
#    z 0.000000 0.000000 1.697470 
# 
# From -- ./inp_files/4325.got.cif
#   From: 2010.05.17/outbox.cif.g08.bks.cpg/sg55_3_cif.got.tgz:4325.got - 2010.06.03 13:27:54.
