data_PCOD9428962
_publ_section_title
;
Structure prediction by ZEFSAII (Michael W. Deem and Ramdas Pophale) SiO2 
 PCOD9428962
Probable space group: P B A M
;
_chemical_formula_sum "Si O2"
_cell_formula_units_Z 30
_cell_length_a 22.949922
_cell_length_b 5.105268
_cell_length_c 12.251172
_cell_angle_alpha 90.000000
_cell_angle_beta 90.000000
_cell_angle_gamma 90.000000
_cell_volume 1435.414722
_symmetry_space_group_name_H-M "P B A M"
_symmetry_group_IT_number 55
_symmetry_cell_setting 'orthorhombic'
loop_
_space_group_symop_operation_xyz
x,y,z
-x,-y,z
1/2+x,1/2-y,-z
1/2-x,1/2+y,-z
-x,-y,-z
x,y,-z
1/2-x,1/2+y,z
1/2+x,1/2-y,z
loop_
_atom_site_type_symbol
_atom_site_label
_atom_site_fract_x
_atom_site_fract_y
_atom_site_fract_z
Si Si1 0.890825 0.915965 0.168607
Si Si2 0.209753 0.497362 0.500000
Si Si3 0.208594 0.233388 0.000000
Si Si4 0.000000 0.000000 0.000000
Si Si5 0.039402 0.751064 0.500000
Si Si6 0.880188 0.417915 0.691287
O O1 0.948155 0.963230 0.094565
O O2 0.904244 0.684605 0.255267
O O3 0.870147 0.194300 0.218247
O O4 0.835688 0.803903 0.101075
O O5 0.251801 0.253949 0.500000
O O6 0.171903 0.499078 0.610664
O O7 0.242234 0.508037 0.000000
O O8 0.077233 0.730309 0.608206
O O9 0.000000 0.500000 0.500000
O O10 0.000000 0.000000 0.500000
#
# Coordination Sequence:
#
# PCOD9428962 Si02
#       6
#     8   4   4   2   4   8
#     4  11  25  44  68  97 134 179 230 281 342 404
#     4  11  24  43  68  99 141 175 217 276 336 410
#     4  11  24  43  66  97 131 170 226 289 338 395
#     4  10  28  46  68  96 136 184 232 294 336 394
#     4  11  24  41  64  96 132 171 211 270 320 389
#     4  11  25  42  66 100 131 172 227 268 332 406
#
# _framework density 20.899882000000002
#
# number of rings (size 3 to 8) (size 9 to 14) (size 15 to 20)
#    0.000    1.067    0.000    4.800    5.600   14.933 
#    0.000    0.000    0.000    0.000    0.000    0.000 
#    0.000    0.000    0.000    0.000    0.000    0.000 
#
# Total GULP energy -167094.164079 kJ/mol
# GULP energy per Si atom -5569.805469 kJ/mol
# Density = 2.085231 g / cm^3
# Si number density = 20.899882 Si / 1000 Ang^3
#
#
#
# Elastic Constant Matrix: (Units=GPa)
#
#
# Indices 1 2 3 4 5 6 
#
# 1 104.0714 17.5576 47.1726 0.0000 0.0000 0.0000
# 2 17.5576 119.9740 38.3017 0.0000 0.0000 0.0000
# 3 47.1726 38.3017 111.0531 0.0000 0.0000 0.0000
# 4 0.0000 0.0000 0.0000 25.3268 0.0000 0.0000
# 5 0.0000 0.0000 0.0000 0.0000 60.1985 0.0000
# 6 0.0000 0.0000 0.0000 0.0000 0.0000 39.0314
#
#
#
# Elastic Compliance Matrix: (Units=1/GPa)
#
#
# Indices 1 2 3 4 5 6 
#
# 1 0.011902 -0.000144 -0.005006 0.000000 0.000000 0.000000
# 2 -0.000144 0.009368 -0.003170 0.000000 0.000000 0.000000
# 3 -0.005006 -0.003170 0.012225 0.000000 0.000000 0.000000
# 4 0.000000 0.000000 0.000000 0.039484 0.000000 0.000000
# 5 0.000000 0.000000 0.000000 0.000000 0.016612 0.000000
# 6 0.000000 0.000000 0.000000 0.000000 0.000000 0.025620
#
#
# Mechanical properties :
#
#
# Convention : Reuss Voigt Hill
#
# Bulk Modulus (GPa) = 59.32889 60.12916 59.72902
# Shear Modulus (GPa) = 36.37182 40.38245 38.37713
#
# Velocity S-wave (km/s) = 4.17620 4.40043 4.28978
# Velocity P-wave (km/s) = 7.19048 7.39263 7.29226
#
# Compressibility (1/GPa) = 0.01685520
#
# Stress axis : x y z
#
# Youngs Moduli (GPa) = 84.01813 106.74412 81.80248
#
# Poissons Ratio (x) = 0.01533 0.40952
# Poissons Ratio (y) = 0.01206 0.25932
# Poissons Ratio (z) = 0.42061 0.33839
#
# Static dielectric constant tensor:
#      x y z
#    x 1.735240 0.000000 0.000000 
#    y 0.000000 1.700430 0.000000 
#    z 0.000000 0.000000 1.569580 
# 
# From -- ./inp_files/11170.got.cif
#   From: 2010.05.17/outbox.cif.g08.bks.cpg/sg55_6_cif.got.tgz:11170.got - 2010.06.03 13:27:54.
