data_PCOD9428139
_publ_section_title
;
Structure prediction by ZEFSAII (Michael W. Deem and Ramdas Pophale) SiO2 
 PCOD9428139
Probable space group: P B A M
;
_chemical_formula_sum "Si O2"
_cell_formula_units_Z 48
_cell_length_a 8.108902
_cell_length_b 22.466667
_cell_length_c 12.955005
_cell_angle_alpha 90.000000
_cell_angle_beta 90.000000
_cell_angle_gamma 90.000000
_cell_volume 2360.142823
_symmetry_space_group_name_H-M "P B A M"
_symmetry_group_IT_number 55
_symmetry_cell_setting 'orthorhombic'
loop_
_space_group_symop_operation_xyz
x,y,z
-x,-y,z
1/2+x,1/2-y,-z
1/2-x,1/2+y,-z
-x,-y,-z
x,y,-z
1/2-x,1/2+y,z
1/2+x,1/2-y,z
loop_
_atom_site_type_symbol
_atom_site_label
_atom_site_fract_x
_atom_site_fract_y
_atom_site_fract_z
Si Si1 0.786065 0.842219 0.500000
Si Si2 0.179890 0.970610 0.620731
Si Si3 0.068041 0.278501 0.500000
Si Si4 0.199089 0.161739 0.118893
Si Si5 0.813803 0.413795 0.697457
Si Si6 0.327508 0.853978 0.692096
Si Si7 0.171026 0.788153 0.119717
O O1 0.926757 0.792668 0.500000
O O2 0.616755 0.804022 0.500000
O O3 0.780093 0.883126 0.399267
O O4 0.226700 0.968435 0.500000
O O5 0.298884 0.016135 0.680226
O O6 0.193775 0.904253 0.663896
O O7 0.000000 0.000000 0.629599
O O8 0.155357 0.304982 0.398065
O O9 0.231950 0.109093 0.197734
O O10 0.316885 0.217964 0.143691
O O11 0.014408 0.187670 0.128593
O O12 0.225134 0.144227 0.000000
O O13 0.999062 0.388844 0.694832
O O14 0.282321 0.823220 0.799296
O O15 0.225262 0.794934 0.000000
#
# Coordination Sequence:
#
# PCOD9428139 Si02
#       7
#     4   8   4   8   8   8   8
#     4  10  22  35  52  81 115 148 182 230 285 338
#     4  11  23  39  60  85 114 155 197 237 287 346
#     4  10  22  35  52  81 115 148 182 230 285 338
#     4  10  21  38  60  87 119 154 194 240 290 345
#     4  11  22  38  59  84 116 153 194 239 288 344
#     4  11  22  38  59  84 116 153 194 239 288 344
#     4  10  21  38  60  87 119 154 194 240 290 345
#
# _framework density 20.337752999999999
#
# number of rings (size 3 to 8) (size 9 to 14) (size 15 to 20)
#    0.000    1.500    1.667    3.500    0.000    8.000 
#    0.000    0.833    0.000    5.000    0.000    0.000 
#    0.000    0.000    0.000    0.000    0.000    0.000 
#
# Total GULP energy -268566.574393 kJ/mol
# GULP energy per Si atom -5595.136967 kJ/mol
# Density = 2.029146 g / cm^3
# Si number density = 20.337753 Si / 1000 Ang^3
#
#
#
# Elastic Constant Matrix: (Units=GPa)
#
#
# Indices 1 2 3 4 5 6 
#
# 1 43.6747 2.2801 20.4154 0.0000 0.0000 0.0000
# 2 2.2801 56.8632 32.0820 0.0000 0.0000 0.0000
# 3 20.4154 32.0820 91.7636 0.0000 0.0000 0.0000
# 4 0.0000 0.0000 0.0000 19.4310 0.0000 0.0000
# 5 0.0000 0.0000 0.0000 0.0000 25.9799 0.0000
# 6 0.0000 0.0000 0.0000 0.0000 0.0000 35.3525
#
#
#
# Elastic Compliance Matrix: (Units=1/GPa)
#
#
# Indices 1 2 3 4 5 6 
#
# 1 0.025896 0.002756 -0.006725 0.000000 0.000000 0.000000
# 2 0.002756 0.022201 -0.008375 0.000000 0.000000 0.000000
# 3 -0.006725 -0.008375 0.015322 0.000000 0.000000 0.000000
# 4 0.000000 0.000000 0.000000 0.051464 0.000000 0.000000
# 5 0.000000 0.000000 0.000000 0.000000 0.038491 0.000000
# 6 0.000000 0.000000 0.000000 0.000000 0.000000 0.028287
#
#
# Mechanical properties :
#
#
# Convention : Reuss Voigt Hill
#
# Bulk Modulus (GPa) = 25.81931 33.53961 29.67946
# Shear Modulus (GPa) = 22.80417 25.32096 24.06256
#
# Velocity S-wave (km/s) = 3.35217 3.53232 3.44342
# Velocity P-wave (km/s) = 5.26361 5.75877 5.51675
#
# Compressibility (1/GPa) = 0.03873070
#
# Stress axis : x y z
#
# Youngs Moduli (GPa) = 38.61584 45.04387 65.26720
#
# Poissons Ratio (x) = -0.12413 0.43891
# Poissons Ratio (y) = -0.10641 0.54660
# Poissons Ratio (z) = 0.25968 0.37723
#
# Static dielectric constant tensor:
#      x y z
#    x 1.768130 0.000000 0.000000 
#    y 0.000000 1.680010 0.000000 
#    z 0.000000 0.000000 1.683860 
# 
# From -- ./inp_files/12280.got.cif
#   From: 2010.05.17/outbox.cif.g08.bks.cpg/sg55_7_cif.got.tgz:12280.got - 2010.06.03 13:27:54.
