data_PCOD9428141
_publ_section_title
;
Structure prediction by ZEFSAII (Michael W. Deem and Ramdas Pophale) SiO2 
 PCOD9428141
Probable space group: P B A M
;
_chemical_formula_sum "Si O2"
_cell_formula_units_Z 48
_cell_length_a 12.020218
_cell_length_b 21.978928
_cell_length_c 9.233717
_cell_angle_alpha 90.000000
_cell_angle_beta 90.000000
_cell_angle_gamma 90.000000
_cell_volume 2439.469600
_symmetry_space_group_name_H-M "P B A M"
_symmetry_group_IT_number 55
_symmetry_cell_setting 'orthorhombic'
loop_
_space_group_symop_operation_xyz
x,y,z
-x,-y,z
1/2+x,1/2-y,-z
1/2-x,1/2+y,-z
-x,-y,-z
x,y,-z
1/2-x,1/2+y,z
1/2+x,1/2-y,z
loop_
_atom_site_type_symbol
_atom_site_label
_atom_site_fract_x
_atom_site_fract_y
_atom_site_fract_z
Si Si1 0.968534 0.137482 0.671289
Si Si2 0.139025 0.225174 0.168774
Si Si3 0.342275 0.540985 0.664589
Si Si4 0.323652 0.155757 0.667149
Si Si5 0.227335 0.922552 0.172430
Si Si6 0.448360 0.861267 0.168111
O O1 0.959477 0.149237 0.500000
O O2 0.040597 0.189699 0.747977
O O3 0.041384 0.075555 0.689559
O O4 0.851326 0.125669 0.746424
O O5 0.254499 0.205454 0.242330
O O6 0.114145 0.296445 0.176606
O O7 0.139863 0.206826 0.000000
O O8 0.342750 0.515990 0.500000
O O9 0.251157 0.594720 0.672079
O O10 0.312313 0.488531 0.775625
O O11 0.332574 0.174868 0.500000
O O12 0.442924 0.142120 0.734602
O O13 0.356276 0.910992 0.210075
O O14 0.215822 0.915271 0.000000
O O15 0.480851 0.870896 0.000000
#
# Coordination Sequence:
#
# PCOD9428141 Si02
#       6
#     8   8   8   8   8   8
#     4  10  21  38  60  88 119 153 194 244 296 344
#     4  10  21  39  62  84 115 155 193 238 294 349
#     4   9  20  39  59  83 118 154 190 241 298 345
#     4  10  22  40  62  87 115 150 196 242 290 348
#     4  11  23  37  57  88 120 154 199 241 288 348
#     4  10  24  41  57  83 119 157 193 237 290 346
#
# _framework density 19.676409
#
# number of rings (size 3 to 8) (size 9 to 14) (size 15 to 20)
#    0.000    2.000    0.000    3.500    2.333    9.333 
#    0.000    3.333    0.000    0.000    0.000    0.000 
#    0.000    0.000    0.000    0.000    0.000    0.000 
#
# Total GULP energy -268283.780747 kJ/mol
# GULP energy per Si atom -5589.245432 kJ/mol
# Density = 1.963163 g / cm^3
# Si number density = 19.676409 Si / 1000 Ang^3
#
#
#
# Elastic Constant Matrix: (Units=GPa)
#
#
# Indices 1 2 3 4 5 6 
#
# 1 108.1942 -6.1381 54.7140 0.0000 0.0000 0.0000
# 2 -6.1381 17.5597 10.0825 0.0000 0.0000 0.0000
# 3 54.7140 10.0825 99.4361 0.0000 0.0000 0.0000
# 4 0.0000 0.0000 0.0000 50.6396 0.0000 0.0000
# 5 0.0000 0.0000 0.0000 0.0000 34.4551 0.0000
# 6 0.0000 0.0000 0.0000 0.0000 0.0000 8.0210
#
#
#
# Elastic Compliance Matrix: (Units=1/GPa)
#
#
# Indices 1 2 3 4 5 6 
#
# 1 0.014320 0.010119 -0.008906 0.000000 0.000000 0.000000
# 2 0.010119 0.067620 -0.012424 0.000000 0.000000 0.000000
# 3 -0.008906 -0.012424 0.016217 0.000000 0.000000 0.000000
# 4 0.000000 0.000000 0.000000 0.019747 0.000000 0.000000
# 5 0.000000 0.000000 0.000000 0.000000 0.029023 0.000000
# 6 0.000000 0.000000 0.000000 0.000000 0.000000 0.124673
#
#
# Mechanical properties :
#
#
# Convention : Reuss Voigt Hill
#
# Bulk Modulus (GPa) = 13.20394 38.05632 25.63013
# Shear Modulus (GPa) = 15.66085 29.72525 22.69305
#
# Velocity S-wave (km/s) = 2.82427 3.89100 3.39973
# Velocity P-wave (km/s) = 4.16658 6.29043 5.33526
#
# Compressibility (1/GPa) = 0.07573497
#
# Stress axis : x y z
#
# Youngs Moduli (GPa) = 69.83056 14.78861 61.66437
#
# Poissons Ratio (x) = -0.14965 0.54917
# Poissons Ratio (y) = -0.70663 0.76614
# Poissons Ratio (z) = 0.62189 0.18374
#
# Static dielectric constant tensor:
#      x y z
#    x 1.678240 0.000000 0.000000 
#    y 0.000000 1.688490 0.000000 
#    z 0.000000 0.000000 1.661830 
# 
# From -- ./inp_files/4076.got.cif
#   From: 2010.05.17/outbox.cif.g08.bks.cpg/sg55_3_cif.got.tgz:4076.got - 2010.06.03 13:27:54.
