data_PCOD9428576
_publ_section_title
;
Structure prediction by ZEFSAII (Michael W. Deem and Ramdas Pophale) SiO2 
 PCOD9428576
Probable space group: P B A M
;
_chemical_formula_sum "Si O2"
_cell_formula_units_Z 58
_cell_length_a 12.110683
_cell_length_b 29.447711
_cell_length_c 7.520088
_cell_angle_alpha 90.000000
_cell_angle_beta 90.000000
_cell_angle_gamma 90.000000
_cell_volume 2681.903219
_symmetry_space_group_name_H-M "P B A M"
_symmetry_group_IT_number 55
_symmetry_cell_setting 'orthorhombic'
loop_
_space_group_symop_operation_xyz
x,y,z
-x,-y,z
1/2+x,1/2-y,-z
1/2-x,1/2+y,-z
-x,-y,-z
x,y,-z
1/2-x,1/2+y,z
1/2+x,1/2-y,z
loop_
_atom_site_type_symbol
_atom_site_label
_atom_site_fract_x
_atom_site_fract_y
_atom_site_fract_z
Si Si1 0.675490 0.393757 0.300167
Si Si2 0.334489 0.181145 0.199182
Si Si3 0.655769 0.970539 0.283547
Si Si4 0.705985 0.714716 0.714803
Si Si5 0.064915 0.870873 0.717621
Si Si6 0.274135 0.927951 0.284793
Si Si7 0.000000 0.500000 0.000000
Si Si8 0.585185 0.157373 0.715004
O O1 0.649327 0.409966 0.500000
O O2 0.750016 0.348816 0.310816
O O3 0.753989 0.433309 0.229152
O O4 0.557399 0.382125 0.217338
O O5 0.319585 0.234639 0.226597
O O6 0.461239 0.167501 0.229260
O O7 0.303364 0.169206 0.000000
O O8 0.635090 0.967721 0.500000
O O9 0.700220 0.020796 0.232856
O O10 0.549690 0.966530 0.159379
O O11 0.705562 0.714723 0.500000
O O12 0.615137 0.677677 0.773836
O O13 0.825936 0.695683 0.771005
O O14 0.062975 0.869161 0.500000
O O15 0.154701 0.908823 0.769171
O O16 0.276079 0.927672 0.500000
O O17 0.363251 0.890553 0.224832
O O18 0.585056 0.156700 0.500000
#
# Coordination Sequence:
#
# PCOD9428576 Si02
#       8
#     8   8   8   8   8   8   2   8
#     4  10  22  39  60  91 123 159 205 249 302 370
#     4  12  26  37  54  81 122 160 196 247 308 364
#     4  10  23  40  64  95 126 169 213 256 313 365
#     4   9  19  38  62  86 109 149 202 249 302 363
#     4   8  16  35  65  92 117 151 200 258 309 363
#     4   8  16  35  63  93 118 149 200 255 303 360
#     4  12  26  40  64  84 136 168 214 256 298 370
#     4   9  19  37  61  84 110 147 197 250 294 354
#
# _framework density 21.626432000000001
#
# number of rings (size 3 to 8) (size 9 to 14) (size 15 to 20)
#    0.000    2.483    0.000    3.103    4.828    1.103 
#    0.000    2.759    3.034    0.828    0.000    0.000 
#    0.000    0.000    0.000    0.000    0.000    0.000 
#
# Total GULP energy -323275.174725 kJ/mol
# GULP energy per Si atom -5573.709909 kJ/mol
# Density = 2.157721 g / cm^3
# Si number density = 21.626432 Si / 1000 Ang^3
#
#
#
# Elastic Constant Matrix: (Units=GPa)
#
#
# Indices 1 2 3 4 5 6 
#
# 1 138.6378 58.7541 11.7088 0.0000 0.0000 0.0000
# 2 58.7541 121.7919 6.5307 0.0000 0.0000 0.0000
# 3 11.7088 6.5307 77.1709 0.0000 0.0000 0.0000
# 4 0.0000 0.0000 0.0000 -83.7847 0.0000 0.0000
# 5 0.0000 0.0000 0.0000 0.0000 67.6077 0.0000
# 6 0.0000 0.0000 0.0000 0.0000 0.0000 28.1710
#
#
#
# Elastic Compliance Matrix: (Units=1/GPa)
#
#
# Indices 1 2 3 4 5 6 
#
# 1 0.009146 -0.004357 -0.001019 0.000000 0.000000 0.000000
# 2 -0.004357 0.010324 -0.000213 0.000000 0.000000 0.000000
# 3 -0.001019 -0.000213 0.013131 0.000000 0.000000 0.000000
# 4 0.000000 0.000000 0.000000 -0.011935 0.000000 0.000000
# 5 0.000000 0.000000 0.000000 0.000000 0.014791 0.000000
# 6 0.000000 0.000000 0.000000 0.000000 0.000000 0.035497
#
#
# Mechanical properties :
#
#
# Convention : Reuss Voigt Hill
#
# Bulk Modulus (GPa) = 46.67871 54.62087 50.64979
# Shear Modulus (GPa) = 56.00806 19.77259 37.89032
#
# Velocity S-wave (km/s) = 5.09453 3.02698 4.19028
# Velocity P-wave (km/s) = 7.49910 6.12603 6.84707
#
# Compressibility (1/GPa) = 0.02142304
#
# Stress axis : x y z
#
# Youngs Moduli (GPa) = 109.34055 96.85980 76.15666
#
# Poissons Ratio (x) = 0.42206 0.07760
# Poissons Ratio (y) = 0.47644 0.01619
# Poissons Ratio (z) = 0.11141 0.02059
#
# Static dielectric constant tensor:
#      x y z
#    x 1.794880 0.000000 0.000000 
#    y 0.000000 1.762630 0.000000 
#    z 0.000000 0.000000 1.813740 
# 
# From -- ./inp_files/4316.got.cif
#   From: 2010.05.17/outbox.cif.g08.bks.cpg/sg55_3_cif.got.tgz:4316.got - 2010.06.03 13:27:54.
