data_PCOD9428629
_publ_section_title
;
Structure prediction by ZEFSAII (Michael W. Deem and Ramdas Pophale) SiO2 
 PCOD9428629
Probable space group: P B A M
;
_chemical_formula_sum "Si O2"
_cell_formula_units_Z 48
_cell_length_a 27.885241
_cell_length_b 9.811187
_cell_length_c 7.879874
_cell_angle_alpha 90.000000
_cell_angle_beta 90.000000
_cell_angle_gamma 90.000000
_cell_volume 2155.833562
_symmetry_space_group_name_H-M "P B A M"
_symmetry_group_IT_number 55
_symmetry_cell_setting 'orthorhombic'
loop_
_space_group_symop_operation_xyz
x,y,z
-x,-y,z
1/2+x,1/2-y,-z
1/2-x,1/2+y,-z
-x,-y,-z
x,y,-z
1/2-x,1/2+y,z
1/2+x,1/2-y,z
loop_
_atom_site_type_symbol
_atom_site_label
_atom_site_fract_x
_atom_site_fract_y
_atom_site_fract_z
Si Si1 0.602019 0.678443 0.701632
Si Si2 0.388919 0.816776 0.698178
Si Si3 0.212433 0.362408 0.801555
Si Si4 0.547889 0.426970 0.804318
Si Si5 0.701011 0.826120 0.793516
Si Si6 0.950266 0.437939 0.292543
O O1 0.597956 0.655969 0.500000
O O2 0.590738 0.536899 0.790664
O O3 0.652130 0.752425 0.737468
O O4 0.561191 0.785370 0.759301
O O5 0.378464 0.830460 0.500000
O O6 0.338526 0.786384 0.784640
O O7 0.431447 0.707971 0.718378
O O8 0.408527 0.960672 0.765190
O O9 0.254875 0.268085 0.732084
O O10 0.206650 0.516966 0.732217
O O11 0.223368 0.379479 0.000000
O O12 0.500000 0.500000 0.731982
O O13 0.537996 0.394045 0.000000
O O14 0.700673 0.829684 0.000000
O O15 0.950317 0.439842 0.500000
O O16 0.000000 0.500000 0.233636
#
# Coordination Sequence:
#
# PCOD9428629 Si02
#       6
#     8   8   8   8   8   8
#     4  11  22  39  63  92 125 161 203 255 311 365
#     4  11  22  39  63  92 125 161 203 255 311 365
#     4  10  22  40  62  89 123 165 207 250 305 368
#     4  11  25  43  62  89 126 167 210 255 306 369
#     4  10  22  40  62  89 123 165 207 250 305 368
#     4   9  18  34  58  87 120 155 192 239 298 363
#
# _framework density 22.265169
#
# number of rings (size 3 to 8) (size 9 to 14) (size 15 to 20)
#    0.000    1.667    1.667    2.500    2.333    3.333 
#    0.000    0.000    0.000    4.000    0.000    0.000 
#    0.000    0.000    0.000    0.000    0.000    0.000 
#
# Total GULP energy -268205.057974 kJ/mol
# GULP energy per Si atom -5587.605374 kJ/mol
# Density = 2.221449 g / cm^3
# Si number density = 22.265169 Si / 1000 Ang^3
#
#
#
# Elastic Constant Matrix: (Units=GPa)
#
#
# Indices 1 2 3 4 5 6 
#
# 1 87.4039 6.8942 -5.6426 0.0000 0.0000 0.0000
# 2 6.8942 77.9046 0.7297 0.0000 0.0000 0.0000
# 3 -5.6426 0.7297 33.5919 0.0000 0.0000 0.0000
# 4 0.0000 0.0000 0.0000 10.0731 0.0000 0.0000
# 5 0.0000 0.0000 0.0000 0.0000 41.4753 0.0000
# 6 0.0000 0.0000 0.0000 0.0000 0.0000 40.4866
#
#
#
# Elastic Compliance Matrix: (Units=1/GPa)
#
#
# Indices 1 2 3 4 5 6 
#
# 1 0.011652 -0.001050 0.001980 0.000000 0.000000 0.000000
# 2 -0.001050 0.012933 -0.000457 0.000000 0.000000 0.000000
# 3 0.001980 -0.000457 0.030112 0.000000 0.000000 0.000000
# 4 0.000000 0.000000 0.000000 0.099274 0.000000 0.000000
# 5 0.000000 0.000000 0.000000 0.000000 0.024111 0.000000
# 6 0.000000 0.000000 0.000000 0.000000 0.000000 0.024700
#
#
# Mechanical properties :
#
#
# Convention : Reuss Voigt Hill
#
# Bulk Modulus (GPa) = 17.97175 22.54033 20.25604
# Shear Modulus (GPa) = 22.68779 31.53494 27.11136
#
# Velocity S-wave (km/s) = 3.19561 3.76751 3.49328
# Velocity P-wave (km/s) = 4.65888 5.39176 5.03866
#
# Compressibility (1/GPa) = 0.05564289
#
# Stress axis : x y z
#
# Youngs Moduli (GPa) = 85.82403 77.31925 33.20976
#
# Poissons Ratio (x) = 0.08116 -0.06575
# Poissons Ratio (y) = 0.09009 0.01519
# Poissons Ratio (z) = -0.16993 0.03535
#
# Static dielectric constant tensor:
#      x y z
#    x 1.830820 0.000000 0.000000 
#    y 0.000000 1.804580 0.000000 
#    z 0.000000 0.000000 1.788930 
# 
# From -- ./inp_files/10524.got.cif
#   From: 2010.05.17/outbox.cif.g08.bks.cpg/sg55_6_cif.got.tgz:10524.got - 2010.06.03 13:27:54.
