data_PCOD9428095
_publ_section_title
;
Structure prediction by ZEFSAII (Michael W. Deem and Ramdas Pophale) SiO2 
 PCOD9428095
Probable space group: P B A M
;
_chemical_formula_sum "Si O2"
_cell_formula_units_Z 64
_cell_length_a 15.849691
_cell_length_b 24.476087
_cell_length_c 7.729617
_cell_angle_alpha 90.000000
_cell_angle_beta 90.000000
_cell_angle_gamma 90.000000
_cell_volume 2998.615374
_symmetry_space_group_name_H-M "P B A M"
_symmetry_group_IT_number 55
_symmetry_cell_setting 'orthorhombic'
loop_
_space_group_symop_operation_xyz
x,y,z
-x,-y,z
1/2+x,1/2-y,-z
1/2-x,1/2+y,-z
-x,-y,-z
x,y,-z
1/2-x,1/2+y,z
1/2+x,1/2-y,z
loop_
_atom_site_type_symbol
_atom_site_label
_atom_site_fract_x
_atom_site_fract_y
_atom_site_fract_z
Si Si1 0.827633 0.367351 0.212264
Si Si2 0.020031 0.940769 0.298865
Si Si3 0.140710 0.125689 0.198635
Si Si4 0.592092 0.255906 0.700014
Si Si5 0.640771 0.135804 0.709563
Si Si6 0.171739 0.866542 0.290539
Si Si7 0.516629 0.939767 0.205089
Si Si8 0.398917 0.249133 0.205037
O O1 0.734317 0.384156 0.270130
O O2 0.901492 0.407701 0.272905
O O3 0.851362 0.305550 0.264979
O O4 0.825714 0.367253 0.000000
O O5 0.042489 0.950240 0.500000
O O6 0.098085 0.906357 0.223569
O O7 0.936309 0.904003 0.291461
O O8 0.000000 0.000000 0.220628
O O9 0.124999 0.190651 0.204674
O O10 0.137791 0.107132 0.000000
O O11 0.618106 0.261306 0.500000
O O12 0.625347 0.198103 0.768465
O O13 0.490684 0.254212 0.709806
O O14 0.637513 0.136344 0.500000
O O15 0.734027 0.117549 0.764291
O O16 0.565534 0.097547 0.771227
O O17 0.169507 0.867204 0.500000
O O18 0.152025 0.804445 0.237813
O O19 0.500000 0.000000 0.278597
O O20 0.531789 0.945944 0.000000
O O21 0.413676 0.243556 0.000000
#
# Coordination Sequence:
#
# PCOD9428095 Si02
#       8
#     8   8   8   8   8   8   8   8
#     4   9  20  37  56  84 118 148 184 234 287 337
#     4  10  22  40  59  80 112 154 195 237 288 341
#     4  11  22  37  59  85 115 149 188 237 285 338
#     4  11  21  35  56  84 117 148 183 230 287 345
#     4  10  22  38  58  85 115 151 190 235 287 337
#     4  10  21  38  58  82 117 151 186 236 287 339
#     4  10  21  39  61  83 113 154 195 239 290 338
#     4  11  20  34  59  86 114 150 188 227 282 346
#
# _framework density 21.343183
#
# number of rings (size 3 to 8) (size 9 to 14) (size 15 to 20)
#    0.000    1.750    2.500    1.875    0.000    2.500 
#    0.000    3.125    0.000    0.000    0.000    0.000 
#    0.000    0.000    0.000    0.000    0.000    0.000 
#
# Total GULP energy -357675.431944 kJ/mol
# GULP energy per Si atom -5588.678624 kJ/mol
# Density = 2.129461 g / cm^3
# Si number density = 21.343183 Si / 1000 Ang^3
#
#
#
# Elastic Constant Matrix: (Units=GPa)
#
#
# Indices 1 2 3 4 5 6 
#
# 1 136.7720 38.8168 -16.0272 0.0000 0.0000 0.0000
# 2 38.8168 114.5287 -9.6940 0.0000 0.0000 0.0000
# 3 -16.0272 -9.6940 34.5672 0.0000 0.0000 0.0000
# 4 0.0000 0.0000 0.0000 55.2263 0.0000 0.0000
# 5 0.0000 0.0000 0.0000 0.0000 14.0674 0.0000
# 6 0.0000 0.0000 0.0000 0.0000 0.0000 -5.5571
#
#
#
# Elastic Compliance Matrix: (Units=1/GPa)
#
#
# Indices 1 2 3 4 5 6 
#
# 1 0.008417 -0.002584 0.003178 0.000000 0.000000 0.000000
# 2 -0.002584 0.009737 0.001533 0.000000 0.000000 0.000000
# 3 0.003178 0.001533 0.030832 0.000000 0.000000 0.000000
# 4 0.000000 0.000000 0.000000 0.018107 0.000000 0.000000
# 5 0.000000 0.000000 0.000000 0.000000 0.071086 0.000000
# 6 0.000000 0.000000 0.000000 0.000000 0.000000 -0.179949
#
#
# Mechanical properties :
#
#
# Convention : Reuss Voigt Hill
#
# Bulk Modulus (GPa) = 18.78283 34.67326 26.72804
# Shear Modulus (GPa) = -176.83246 30.93212 -72.95017
#
# Velocity S-wave (km/s) = -9.11218 3.81106 -5.85268
# Velocity P-wave (km/s) = 10.09404 5.97047 5.75513
#
# Compressibility (1/GPa) = 0.05324012
#
# Stress axis : x y z
#
# Youngs Moduli (GPa) = 118.80515 102.70231 32.43339
#
# Poissons Ratio (x) = 0.26536 -0.10307
# Poissons Ratio (y) = 0.30697 -0.04971
# Poissons Ratio (z) = -0.37757 -0.15740
#
# Static dielectric constant tensor:
#      x y z
#    x 1.752210 0.000000 0.000000 
#    y 0.000000 1.745190 0.000000 
#    z 0.000000 0.000000 1.804000 
# 
# From -- ./inp_files/6514.got.cif
#   From: 2010.05.17/outbox.cif.g08.bks.cpg/sg55_4_cif.got.tgz:6514.got - 2010.06.03 13:27:54.
