data_PCOD9428992
_publ_section_title
;
Structure prediction by ZEFSAII (Michael W. Deem and Ramdas Pophale) SiO2 
 PCOD9428992
Probable space group: P B A M
;
_chemical_formula_sum "Si O2"
_cell_formula_units_Z 56
_cell_length_a 14.132118
_cell_length_b 30.651373
_cell_length_c 7.664270
_cell_angle_alpha 90.000000
_cell_angle_beta 90.000000
_cell_angle_gamma 90.000000
_cell_volume 3319.922793
_symmetry_space_group_name_H-M "P B A M"
_symmetry_group_IT_number 55
_symmetry_cell_setting 'orthorhombic'
loop_
_space_group_symop_operation_xyz
x,y,z
-x,-y,z
1/2+x,1/2-y,-z
1/2-x,1/2+y,-z
-x,-y,-z
x,y,-z
1/2-x,1/2+y,z
1/2+x,1/2-y,z
loop_
_atom_site_type_symbol
_atom_site_label
_atom_site_fract_x
_atom_site_fract_y
_atom_site_fract_z
Si Si1 0.385128 0.498285 0.797258
Si Si2 0.780553 0.179341 0.201059
Si Si3 0.284592 0.680370 0.789942
Si Si4 0.115943 0.093483 0.785880
Si Si5 0.603743 0.597091 0.214664
Si Si6 0.392777 0.766390 0.210792
Si Si7 0.109678 0.736273 0.701860
O O1 0.500000 0.500000 0.795676
O O2 0.354899 0.545099 0.723086
O O3 0.361119 0.450632 0.724403
O O4 0.355186 0.497770 0.000000
O O5 0.832836 0.137293 0.277228
O O6 0.682436 0.197782 0.277455
O O7 0.851334 0.220795 0.201362
O O8 0.760365 0.167910 0.000000
O O9 0.318691 0.633294 0.727155
O O10 0.354889 0.719038 0.729109
O O11 0.179817 0.696379 0.743124
O O12 0.290231 0.679430 0.000000
O O13 0.006595 0.102204 0.736007
O O14 0.117061 0.092097 0.000000
O O15 0.603817 0.596743 0.000000
O O16 0.501052 0.773338 0.258173
O O17 0.386170 0.766236 0.000000
O O18 0.119406 0.746973 0.500000
#
# Coordination Sequence:
#
# PCOD9428992 Si02
#       7
#     8   8   8   8   8   8   8
#     4   7  10  16  29  55  88 111 125 150 192 237
#     4   9  17  29  45  62  80 107 140 168 197 238
#     4   9  17  29  45  62  81 108 140 168 196 238
#     4   8  12  19  35  60  87 111 131 155 192 237
#     4   8  12  20  36  59  86 110 131 157 192 236
#     4   9  17  29  43  58  78 105 137 170 201 236
#     4  11  21  30  41  58  82 108 134 170 209 241
#
# _framework density 16.867864000000001
#
# number of rings (size 3 to 8) (size 9 to 14) (size 15 to 20)
#    0.000    3.286    0.000    4.714    0.000    4.571 
#    0.000    0.000    0.000    0.000    0.000    2.000 
#    0.000   12.571    0.000    0.000    0.000    0.000 
#
# Total GULP energy -311778.831696 kJ/mol
# GULP energy per Si atom -5567.479137 kJ/mol
# Density = 1.682947 g / cm^3
# Si number density = 16.867864 Si / 1000 Ang^3
#
#
#
# Elastic Constant Matrix: (Units=GPa)
#
#
# Indices 1 2 3 4 5 6 
#
# 1 112.2922 79.7979 -1.8184 0.0000 0.0000 0.0000
# 2 79.7979 153.2251 3.5302 0.0000 0.0000 0.0000
# 3 -1.8184 3.5302 30.3178 0.0000 0.0000 0.0000
# 4 0.0000 0.0000 0.0000 -12.1257 0.0000 0.0000
# 5 0.0000 0.0000 0.0000 0.0000 -757.5208 0.0000
# 6 0.0000 0.0000 0.0000 0.0000 0.0000 25.3945
#
#
#
# Elastic Compliance Matrix: (Units=1/GPa)
#
#
# Indices 1 2 3 4 5 6 
#
# 1 0.014226 -0.007449 0.001721 0.000000 0.000000 0.000000
# 2 -0.007449 0.010444 -0.001663 0.000000 0.000000 0.000000
# 3 0.001721 -0.001663 0.033281 0.000000 0.000000 0.000000
# 4 0.000000 0.000000 0.000000 -0.082470 0.000000 0.000000
# 5 0.000000 0.000000 0.000000 0.000000 -0.001320 0.000000
# 6 0.000000 0.000000 0.000000 0.000000 0.000000 0.039379
#
#
# Mechanical properties :
#
#
# Convention : Reuss Voigt Hill
#
# Bulk Modulus (GPa) = 23.16464 50.98386 37.07425
# Shear Modulus (GPa) = 117.06526 -134.56206 -8.74840
#
# Velocity S-wave (km/s) = 8.33979 -8.94133 -2.27984
# Velocity P-wave (km/s) = 10.31983 8.73530 3.88545
#
# Compressibility (1/GPa) = 0.04316924
#
# Stress axis : x y z
#
# Youngs Moduli (GPa) = 70.29201 95.75067 30.04740
#
# Poissons Ratio (x) = 0.71321 -0.05170
# Poissons Ratio (y) = 0.52358 0.04996
# Poissons Ratio (z) = -0.12094 0.15922
#
# Static dielectric constant tensor:
#      x y z
#    x 1.544340 0.000000 0.000000 
#    y 0.000000 1.607830 0.000000 
#    z 0.000000 0.000000 1.612720 
# 
# From -- ./inp_files/6852.got.cif
#   From: 2010.05.17/outbox.cif.g08.bks.cpg/sg55_4_cif.got.tgz:6852.got - 2010.06.03 13:27:54.
