data_PCOD9428744
_publ_section_title
;
Structure prediction by ZEFSAII (Michael W. Deem and Ramdas Pophale) SiO2 
 PCOD9428744
Probable space group: P B A M
;
_chemical_formula_sum "Si O2"
_cell_formula_units_Z 64
_cell_length_a 15.344580
_cell_length_b 10.901804
_cell_length_c 18.706219
_cell_angle_alpha 90.000000
_cell_angle_beta 90.000000
_cell_angle_gamma 90.000000
_cell_volume 3129.243724
_symmetry_space_group_name_H-M "P B A M"
_symmetry_group_IT_number 55
_symmetry_cell_setting 'orthorhombic'
loop_
_space_group_symop_operation_xyz
x,y,z
-x,-y,z
1/2+x,1/2-y,-z
1/2-x,1/2+y,-z
-x,-y,-z
x,y,-z
1/2-x,1/2+y,z
1/2+x,1/2-y,z
loop_
_atom_site_type_symbol
_atom_site_label
_atom_site_fract_x
_atom_site_fract_y
_atom_site_fract_z
Si Si1 0.382597 0.373710 0.579458
Si Si2 0.313861 0.902055 0.080734
Si Si3 0.635828 0.227325 0.273493
Si Si4 0.123366 0.903470 0.131061
Si Si5 0.908160 0.842512 0.421259
Si Si6 0.664758 0.727581 0.268801
Si Si7 0.935064 0.820489 0.131376
Si Si8 0.901122 0.474161 0.793394
O O1 0.351325 0.335541 0.500000
O O2 0.370168 0.520139 0.586352
O O3 0.486966 0.353998 0.580517
O O4 0.344699 0.306651 0.648424
O O5 0.213478 0.865469 0.094343
O O6 0.378371 0.787538 0.096323
O O7 0.339377 0.005790 0.138347
O O8 0.324877 0.943960 0.000000
O O9 0.619237 0.263205 0.354307
O O10 0.734822 0.258541 0.253551
O O11 0.574505 0.296687 0.216669
O O12 0.623473 0.083100 0.260746
O O13 0.137393 0.882668 0.216120
O O14 0.036947 0.826513 0.110966
O O15 0.103749 0.045540 0.115244
O O16 0.883570 0.795161 0.500000
O O17 0.609694 0.845049 0.244745
O O18 0.000000 0.500000 0.816493
#
# Coordination Sequence:
#
# PCOD9428744 Si02
#       8
#     8   8   8   8   8   8   8   8
#     4   9  19  35  59  90 120 161 211 262 316 370
#     4  11  25  44  65  94 129 164 206 260 322 382
#     4  11  22  36  60  90 123 165 212 258 311 370
#     4  11  22  41  68  96 122 164 210 265 312 372
#     4   9  18  35  58  86 122 161 209 262 317 373
#     4  12  22  36  65  88 128 164 210 262 310 370
#     4  10  22  42  67  93 124 159 216 260 315 375
#     4  11  24  43  62  92 127 166 213 255 309 385
#
# _framework density 20.452226
#
# number of rings (size 3 to 8) (size 9 to 14) (size 15 to 20)
#    0.000    1.500    2.500    5.250    1.750    3.750 
#    0.000    1.875    0.000    2.250    0.000    0.000 
#    0.000    0.000    0.000    0.000    0.000    0.000 
#
# Total GULP energy -357602.694110 kJ/mol
# GULP energy per Si atom -5587.542095 kJ/mol
# Density = 2.040568 g / cm^3
# Si number density = 20.452226 Si / 1000 Ang^3
#
#
#
# Elastic Constant Matrix: (Units=GPa)
#
#
# Indices 1 2 3 4 5 6 
#
# 1 92.3273 1.9065 23.6151 0.0000 0.0000 0.0000
# 2 1.9065 40.3320 35.0813 0.0000 0.0000 0.0000
# 3 23.6151 35.0813 113.6758 0.0000 0.0000 0.0000
# 4 0.0000 0.0000 0.0000 11.5428 0.0000 0.0000
# 5 0.0000 0.0000 0.0000 0.0000 -9.9414 0.0000
# 6 0.0000 0.0000 0.0000 0.0000 0.0000 20.2695
#
#
#
# Elastic Compliance Matrix: (Units=1/GPa)
#
#
# Indices 1 2 3 4 5 6 
#
# 1 0.011569 0.002110 -0.003054 0.000000 0.000000 0.000000
# 2 0.002110 0.034277 -0.011016 0.000000 0.000000 0.000000
# 3 -0.003054 -0.011016 0.012831 0.000000 0.000000 0.000000
# 4 0.000000 0.000000 0.000000 0.086634 0.000000 0.000000
# 5 0.000000 0.000000 0.000000 0.000000 -0.100590 0.000000
# 6 0.000000 0.000000 0.000000 0.000000 0.000000 0.049335
#
#
# Mechanical properties :
#
#
# Convention : Reuss Voigt Hill
#
# Bulk Modulus (GPa) = 28.77298 40.83787 34.80543
# Shear Modulus (GPa) = 38.59125 16.75632 27.67378
#
# Velocity S-wave (km/s) = 4.34856 2.86543 3.68243
# Velocity P-wave (km/s) = 6.26994 5.56403 5.92750
#
# Compressibility (1/GPa) = 0.03475483
#
# Stress axis : x y z
#
# Youngs Moduli (GPa) = 86.43997 29.17440 77.93485
#
# Poissons Ratio (x) = -0.06156 0.23805
# Poissons Ratio (y) = -0.18238 0.85856
# Poissons Ratio (z) = 0.26403 0.32140
#
# Static dielectric constant tensor:
#      x y z
#    x 1.760060 0.000000 0.000000 
#    y 0.000000 1.722930 0.000000 
#    z 0.000000 0.000000 1.720820 
# 
# From -- ./inp_files/21658.got.cif
#   From: 2010.05.17/outbox.cif.g08.bks.cpg/sg55_11_cif.got.tgz:21658.got - 2010.06.03 13:27:54.
