data_PCOD9428418
_publ_section_title
;
Structure prediction by ZEFSAII (Michael W. Deem and Ramdas Pophale) SiO2 
 PCOD9428418
Probable space group: P B A M
;
_chemical_formula_sum "Si O2"
_cell_formula_units_Z 56
_cell_length_a 21.849026
_cell_length_b 14.932039
_cell_length_c 8.820877
_cell_angle_alpha 90.000000
_cell_angle_beta 90.000000
_cell_angle_gamma 90.000000
_cell_volume 2877.815605
_symmetry_space_group_name_H-M "P B A M"
_symmetry_group_IT_number 55
_symmetry_cell_setting 'orthorhombic'
loop_
_space_group_symop_operation_xyz
x,y,z
-x,-y,z
1/2+x,1/2-y,-z
1/2-x,1/2+y,-z
-x,-y,-z
x,y,-z
1/2-x,1/2+y,z
1/2+x,1/2-y,z
loop_
_atom_site_type_symbol
_atom_site_label
_atom_site_fract_x
_atom_site_fract_y
_atom_site_fract_z
Si Si1 0.617113 0.910653 0.318184
Si Si2 0.595092 0.099936 0.180502
Si Si3 0.821033 0.067380 0.818694
Si Si4 0.239895 0.107125 0.318027
Si Si5 0.988868 0.277924 0.681036
Si Si6 0.536483 0.588773 0.817506
Si Si7 0.716349 0.187309 0.681369
O O1 0.614055 0.923815 0.500000
O O2 0.688234 0.899389 0.277152
O O3 0.576120 0.824554 0.280809
O O4 0.590285 0.998278 0.238554
O O5 0.541591 0.160823 0.248485
O O6 0.659521 0.138211 0.240855
O O7 0.593488 0.102370 0.000000
O O8 0.891986 0.079705 0.777691
O O9 0.778273 0.140865 0.739092
O O10 0.797082 0.970463 0.765389
O O11 0.814849 0.075001 0.000000
O O12 0.235217 0.093591 0.500000
O O13 0.216972 0.207087 0.283467
O O14 0.995537 0.277160 0.500000
O O15 0.990366 0.178044 0.744339
O O16 0.500000 0.500000 0.770391
O O17 0.531997 0.596107 0.000000
O O18 0.711986 0.176373 0.500000
#
# Coordination Sequence:
#
# PCOD9428418 Si02
#       7
#     8   8   8   8   8   8   8
#     4  10  21  41  65  93 127 164 206 259 314 375
#     4  12  25  40  62  94 129 167 210 260 322 379
#     4  11  23  40  64  95 128 166 208 257 317 374
#     4  10  22  39  64  92 123 164 207 257 312 371
#     4  11  24  42  66  94 124 166 216 263 315 374
#     4  10  24  45  65  91 129 170 212 262 316 373
#     4  11  23  41  64  93 128 168 215 263 316 374
#
# _framework density 19.459202999999999
#
# number of rings (size 3 to 8) (size 9 to 14) (size 15 to 20)
#    0.000    1.286    1.429    3.857    2.000    6.571 
#    0.000    0.000    0.000    0.000    0.000    0.000 
#    0.000    0.000    0.000    0.000    0.000    0.000 
#
# Total GULP energy -313299.496758 kJ/mol
# GULP energy per Si atom -5594.633871 kJ/mol
# Density = 1.941491 g / cm^3
# Si number density = 19.459203 Si / 1000 Ang^3
#
#
#
# Elastic Constant Matrix: (Units=GPa)
#
#
# Indices 1 2 3 4 5 6 
#
# 1 34.6014 -6.6604 4.8411 0.0000 0.0000 0.0000
# 2 -6.6604 100.8411 19.9612 0.0000 0.0000 0.0000
# 3 4.8411 19.9612 22.1243 0.0000 0.0000 0.0000
# 4 0.0000 0.0000 0.0000 47.7798 0.0000 0.0000
# 5 0.0000 0.0000 0.0000 0.0000 24.0716 0.0000
# 6 0.0000 0.0000 0.0000 0.0000 0.0000 24.9216
#
#
#
# Elastic Compliance Matrix: (Units=1/GPa)
#
#
# Indices 1 2 3 4 5 6 
#
# 1 0.031178 0.004151 -0.010567 0.000000 0.000000 0.000000
# 2 0.004151 0.012625 -0.012299 0.000000 0.000000 0.000000
# 3 -0.010567 -0.012299 0.058608 0.000000 0.000000 0.000000
# 4 0.000000 0.000000 0.000000 0.020929 0.000000 0.000000
# 5 0.000000 0.000000 0.000000 0.000000 0.041543 0.000000
# 6 0.000000 0.000000 0.000000 0.000000 0.000000 0.040126
#
#
# Mechanical properties :
#
#
# Convention : Reuss Voigt Hill
#
# Bulk Modulus (GPa) = 15.38928 21.53899 18.46413
# Shear Modulus (GPa) = 18.93214 28.64958 23.79086
#
# Velocity S-wave (km/s) = 3.12254 3.84120 3.50037
# Velocity P-wave (km/s) = 4.57450 5.54671 5.08389
#
# Compressibility (1/GPa) = 0.06498030
#
# Stress axis : x y z
#
# Youngs Moduli (GPa) = 32.07382 79.20558 17.06245
#
# Poissons Ratio (x) = -0.32879 0.18031
# Poissons Ratio (y) = -0.13314 0.20986
# Poissons Ratio (z) = 0.33894 0.97417
#
# Static dielectric constant tensor:
#      x y z
#    x 1.664400 0.000000 0.000000 
#    y 0.000000 1.648170 0.000000 
#    z 0.000000 0.000000 1.650920 
# 
# From -- ./inp_files/6045.got.cif
#   From: 2010.05.17/outbox.cif.g08.bks.cpg/sg55_4_cif.got.tgz:6045.got - 2010.06.03 13:27:54.
