data_PCOD9428723
_publ_section_title
;
Structure prediction by ZEFSAII (Michael W. Deem and Ramdas Pophale) SiO2 
 PCOD9428723
Probable space group: P B A M
;
_chemical_formula_sum "Si O2"
_cell_formula_units_Z 64
_cell_length_a 15.812327
_cell_length_b 10.998004
_cell_length_c 17.027173
_cell_angle_alpha 90.000000
_cell_angle_beta 90.000000
_cell_angle_gamma 90.000000
_cell_volume 2961.094099
_symmetry_space_group_name_H-M "P B A M"
_symmetry_group_IT_number 55
_symmetry_cell_setting 'orthorhombic'
loop_
_space_group_symop_operation_xyz
x,y,z
-x,-y,z
1/2+x,1/2-y,-z
1/2-x,1/2+y,-z
-x,-y,-z
x,y,-z
1/2-x,1/2+y,z
1/2+x,1/2-y,z
loop_
_atom_site_type_symbol
_atom_site_label
_atom_site_fract_x
_atom_site_fract_y
_atom_site_fract_z
Si Si1 0.286354 0.175019 0.328086
Si Si2 0.595095 0.992061 0.763582
Si Si3 0.717270 0.175419 0.182502
Si Si4 0.568284 0.810337 0.089219
Si Si5 0.882607 0.063048 0.828020
Si Si6 0.604696 0.319319 0.913331
Si Si7 0.892874 0.874717 0.409145
Si Si8 0.572066 0.639303 0.650997
O O1 0.339509 0.058836 0.300405
O O2 0.259059 0.240749 0.247647
O O3 0.199456 0.153677 0.374048
O O4 0.356332 0.261879 0.367334
O O5 0.591172 0.905965 0.842076
O O6 0.500000 0.000000 0.733265
O O7 0.629866 0.123263 0.785686
O O8 0.780306 0.062481 0.172541
O O9 0.692791 0.255308 0.107958
O O10 0.601019 0.676324 0.113995
O O11 0.467962 0.782732 0.087679
O O12 0.593815 0.844931 0.000000
O O13 0.916833 0.099719 0.742301
O O14 0.913232 0.930914 0.854635
O O15 0.606354 0.373914 0.000000
O O16 0.896061 0.840085 0.500000
O O17 0.975622 0.820588 0.365082
O O18 0.907385 0.019202 0.398709
#
# Coordination Sequence:
#
# PCOD9428723 Si02
#       8
#     8   8   8   8   8   8   8   8
#     4  11  24  44  69 105 131 177 226 280 332 405
#     4  12  24  43  69  94 131 177 229 285 334 408
#     4  11  23  40  63  94 127 170 232 277 339 400
#     4  11  24  42  61  91 129 175 230 285 348 398
#     4  11  23  40  64  94 126 170 232 290 324 401
#     4  11  24  39  59  87 127 175 225 285 352 401
#     4  11  25  43  70 106 141 173 215 277 344 412
#     4  10  22  41  72  99 133 178 227 268 337 408
#
# _framework density 21.613631999999999
#
# number of rings (size 3 to 8) (size 9 to 14) (size 15 to 20)
#    0.000    1.000    3.750    4.500    7.000    3.750 
#    0.000    0.000    0.000    0.375    0.000    0.000 
#    0.000    0.000    0.000    0.000    0.000    0.000 
#
# Total GULP energy -357473.694336 kJ/mol
# GULP energy per Si atom -5585.526474 kJ/mol
# Density = 2.156444 g / cm^3
# Si number density = 21.613632 Si / 1000 Ang^3
#
#
#
# Elastic Constant Matrix: (Units=GPa)
#
#
# Indices 1 2 3 4 5 6 
#
# 1 154.5519 17.6315 53.1248 0.0000 0.0000 0.0000
# 2 17.6315 25.7803 3.5388 0.0000 0.0000 0.0000
# 3 53.1248 3.5388 81.4623 0.0000 0.0000 0.0000
# 4 0.0000 0.0000 0.0000 -0.5924 0.0000 0.0000
# 5 0.0000 0.0000 0.0000 0.0000 12.0393 0.0000
# 6 0.0000 0.0000 0.0000 0.0000 0.0000 44.4794
#
#
#
# Elastic Compliance Matrix: (Units=1/GPa)
#
#
# Indices 1 2 3 4 5 6 
#
# 1 0.009030 -0.005399 -0.005654 0.000000 0.000000 0.000000
# 2 -0.005399 0.042251 0.001686 0.000000 0.000000 0.000000
# 3 -0.005654 0.001686 0.015890 0.000000 0.000000 0.000000
# 4 0.000000 0.000000 0.000000 -1.687910 0.000000 0.000000
# 5 0.000000 0.000000 0.000000 0.000000 0.083061 0.000000
# 6 0.000000 0.000000 0.000000 0.000000 0.000000 0.022482
#
#
# Mechanical properties :
#
#
# Convention : Reuss Voigt Hill
#
# Bulk Modulus (GPa) = 20.64643 45.59829 33.12236
# Shear Modulus (GPa) = -3.37766 23.68522 10.15378
#
# Velocity S-wave (km/s) = -1.25145 3.31395 2.16981
# Velocity P-wave (km/s) = 2.73588 5.98212 4.65139
#
# Compressibility (1/GPa) = 0.04843451
#
# Stress axis : x y z
#
# Youngs Moduli (GPa) = 110.74411 23.66830 62.93395
#
# Poissons Ratio (x) = 0.12780 0.35584
# Poissons Ratio (y) = 0.59796 -0.10610
# Poissons Ratio (z) = 0.62616 -0.03990
#
# Static dielectric constant tensor:
#      x y z
#    x 1.883540 0.000000 0.000000 
#    y 0.000000 1.789680 0.000000 
#    z 0.000000 0.000000 1.781580 
# 
# From -- ./inp_files/21673.got.cif
#   From: 2010.05.17/outbox.cif.g08.bks.cpg/sg55_11_cif.got.tgz:21673.got - 2010.06.03 13:27:54.
