data_PCOD9428535
_publ_section_title
;
Structure prediction by ZEFSAII (Michael W. Deem and Ramdas Pophale) SiO2 
 PCOD9428535
Probable space group: P B A M
;
_chemical_formula_sum "Si O2"
_cell_formula_units_Z 32
_cell_length_a 5.120739
_cell_length_b 17.790779
_cell_length_c 13.105941
_cell_angle_alpha 90.000000
_cell_angle_beta 90.000000
_cell_angle_gamma 90.000000
_cell_volume 1193.976596
_symmetry_space_group_name_H-M "P B A M"
_symmetry_group_IT_number 55
_symmetry_cell_setting 'orthorhombic'
loop_
_space_group_symop_operation_xyz
x,y,z
-x,-y,z
1/2+x,1/2-y,-z
1/2-x,1/2+y,-z
-x,-y,-z
x,y,-z
1/2-x,1/2+y,z
1/2+x,1/2-y,z
loop_
_atom_site_type_symbol
_atom_site_label
_atom_site_fract_x
_atom_site_fract_y
_atom_site_fract_z
Si Si1 0.321607 0.300652 0.378182
Si Si2 0.220771 0.802145 0.000000
Si Si3 0.910601 0.915499 0.885471
Si Si4 0.543236 0.911448 0.707458
Si Si5 0.251613 0.553264 0.500000
O O1 0.318321 0.317515 0.500000
O O2 0.079933 0.244981 0.354705
O O3 0.233769 0.374186 0.317342
O O4 0.147099 0.857334 0.905824
O O5 0.000455 0.736562 0.000000
O O6 0.706123 0.885132 0.804323
O O7 0.790043 0.922771 0.000000
O O8 0.000000 0.000000 0.857504
O O9 0.715817 0.901166 0.604052
O O10 0.500000 0.000000 0.721690
O O11 0.500000 0.500000 0.500000
O O12 0.000000 0.500000 0.500000
#
# Coordination Sequence:
#
# PCOD9428535 Si02
#       5
#     8   4   8   8   4
#     4  10  23  43  65  95 137 181 221 274 339 399
#     4  10  23  44  71 100 132 176 224 276 333 396
#     4   9  22  44  66 100 138 176 223 278 340 401
#     4  11  23  41  69 101 132 180 227 280 336 399
#     4  10  22  38  60  96 134 164 217 272 321 384
#
# _framework density 26.801195
#
# number of rings (size 3 to 8) (size 9 to 14) (size 15 to 20)
#    0.750    1.250    1.250    0.750    0.000   10.500 
#    0.000    0.000    0.000    0.000    0.000    0.000 
#    0.000    0.000    0.000    0.000    0.000    0.000 
#
# Total GULP energy -179502.615408 kJ/mol
# GULP energy per Si atom -5609.456731 kJ/mol
# Density = 2.674019 g / cm^3
# Si number density = 26.801195 Si / 1000 Ang^3
#
#
#
# Elastic Constant Matrix: (Units=GPa)
#
#
# Indices 1 2 3 4 5 6 
#
# 1 113.5510 24.4450 32.5591 0.0000 0.0000 0.0000
# 2 24.4450 136.8536 -10.2483 0.0000 0.0000 0.0000
# 3 32.5591 -10.2483 128.5537 0.0000 0.0000 0.0000
# 4 0.0000 0.0000 0.0000 2.8512 0.0000 0.0000
# 5 0.0000 0.0000 0.0000 0.0000 40.1345 0.0000
# 6 0.0000 0.0000 0.0000 0.0000 0.0000 49.0472
#
#
#
# Elastic Compliance Matrix: (Units=1/GPa)
#
#
# Indices 1 2 3 4 5 6 
#
# 1 0.010007 -0.001989 -0.002693 0.000000 0.000000 0.000000
# 2 -0.001989 0.007746 0.001121 0.000000 0.000000 0.000000
# 3 -0.002693 0.001121 0.008550 0.000000 0.000000 0.000000
# 4 0.000000 0.000000 0.000000 0.350726 0.000000 0.000000
# 5 0.000000 0.000000 0.000000 0.000000 0.024916 0.000000
# 6 0.000000 0.000000 0.000000 0.000000 0.000000 0.020389
#
#
# Mechanical properties :
#
#
# Convention : Reuss Voigt Hill
#
# Bulk Modulus (GPa) = 52.13238 52.49666 52.31452
# Shear Modulus (GPa) = 11.47182 40.55342 26.01262
#
# Velocity S-wave (km/s) = 2.07114 3.89410 3.11879
# Velocity P-wave (km/s) = 5.02128 6.31258 5.70359
#
# Compressibility (1/GPa) = 0.01918194
#
# Stress axis : x y z
#
# Youngs Moduli (GPa) = 99.92973 129.09296 116.95461
#
# Poissons Ratio (x) = 0.25678 0.31497
# Poissons Ratio (y) = 0.19877 -0.13115
# Poissons Ratio (z) = 0.26912 -0.14476
#
# Static dielectric constant tensor:
#      x y z
#    x 1.803890 0.000000 0.000000 
#    y 0.000000 1.811690 0.000000 
#    z 0.000000 0.000000 2.117810 
# 
# From -- ./inp_files/16451.got.cif
#   From: 2010.05.17/outbox.cif.g08.bks.cpg/sg55_9_cif.got.tgz:16451.got - 2010.06.03 13:27:54.
