data_PCOD9428686
_publ_section_title
;
Structure prediction by ZEFSAII (Michael W. Deem and Ramdas Pophale) SiO2 
 PCOD9428686
Probable space group: P B A M
;
_chemical_formula_sum "Si O2"
_cell_formula_units_Z 56
_cell_length_a 14.761761
_cell_length_b 12.274091
_cell_length_c 14.420639
_cell_angle_alpha 90.000000
_cell_angle_beta 90.000000
_cell_angle_gamma 90.000000
_cell_volume 2612.835171
_symmetry_space_group_name_H-M "P B A M"
_symmetry_group_IT_number 55
_symmetry_cell_setting 'orthorhombic'
loop_
_space_group_symop_operation_xyz
x,y,z
-x,-y,z
1/2+x,1/2-y,-z
1/2-x,1/2+y,-z
-x,-y,-z
x,y,-z
1/2-x,1/2+y,z
1/2+x,1/2-y,z
loop_
_atom_site_type_symbol
_atom_site_label
_atom_site_fract_x
_atom_site_fract_y
_atom_site_fract_z
Si Si1 0.438697 0.606942 0.894473
Si Si2 0.982964 0.348244 0.390078
Si Si3 0.503301 0.845955 0.110419
Si Si4 0.884910 0.482408 0.227546
Si Si5 0.315353 0.556316 0.269865
Si Si6 0.181416 0.268922 0.394455
Si Si7 0.621100 0.623195 0.604803
O O1 0.500000 0.500000 0.886717
O O2 0.491377 0.718362 0.872862
O O3 0.356712 0.594137 0.825775
O O4 0.407231 0.615981 0.000000
O O5 0.969728 0.375723 0.500000
O O6 0.930515 0.429228 0.320606
O O7 0.941055 0.227796 0.375645
O O8 0.090577 0.336823 0.370549
O O9 0.598612 0.888142 0.150195
O O10 0.432434 0.915344 0.174308
O O11 0.492593 0.867298 0.000000
O O12 0.780978 0.498933 0.250583
O O13 0.305100 0.663335 0.332239
O O14 0.382425 0.473302 0.321941
O O15 0.165758 0.231459 0.500000
O O16 0.274408 0.336068 0.393848
O O17 0.600931 0.585472 0.500000
#
# Coordination Sequence:
#
# PCOD9428686 Si02
#       7
#     8   8   8   8   8   8   8
#     4  10  25  48  70  94 127 168 216 273 333 395
#     4  10  22  41  65  93 133 179 221 266 320 386
#     4  10  24  47  69  93 129 166 211 272 335 400
#     4  11  23  38  69  98 133 165 219 262 333 390
#     4  12  25  36  68  96 129 169 219 271 326 388
#     4  10  22  41  63  92 132 177 221 267 322 380
#     4  10  23  41  60  94 136 175 218 265 318 384
#
# _framework density 21.432656000000001
#
# number of rings (size 3 to 8) (size 9 to 14) (size 15 to 20)
#    0.000    1.571    1.429    2.143   10.000    1.714 
#    0.000    3.571    0.000    0.000    0.000    0.000 
#    0.000    0.000    0.000    0.000    0.000    0.000 
#
# Total GULP energy -312964.132960 kJ/mol
# GULP energy per Si atom -5588.645231 kJ/mol
# Density = 2.138387 g / cm^3
# Si number density = 21.432656 Si / 1000 Ang^3
#
#
#
# Elastic Constant Matrix: (Units=GPa)
#
#
# Indices 1 2 3 4 5 6 
#
# 1 42.0661 -6.2756 8.3041 0.0000 0.0000 0.0000
# 2 -6.2756 100.7081 34.8891 0.0000 0.0000 0.0000
# 3 8.3041 34.8891 109.3025 0.0000 0.0000 0.0000
# 4 0.0000 0.0000 0.0000 33.3186 0.0000 0.0000
# 5 0.0000 0.0000 0.0000 0.0000 0.9679 0.0000
# 6 0.0000 0.0000 0.0000 0.0000 0.0000 20.3717
#
#
#
# Elastic Compliance Matrix: (Units=1/GPa)
#
#
# Indices 1 2 3 4 5 6 
#
# 1 0.024664 0.002458 -0.002658 0.000000 0.000000 0.000000
# 2 0.002458 0.011409 -0.003829 0.000000 0.000000 0.000000
# 3 -0.002658 -0.003829 0.010573 0.000000 0.000000 0.000000
# 4 0.000000 0.000000 0.000000 0.030013 0.000000 0.000000
# 5 0.000000 0.000000 0.000000 0.000000 1.033138 0.000000
# 6 0.000000 0.000000 0.000000 0.000000 0.000000 0.049088
#
#
# Mechanical properties :
#
#
# Convention : Reuss Voigt Hill
#
# Bulk Modulus (GPa) = 25.91501 36.21244 31.06373
# Shear Modulus (GPa) = 4.23799 25.27559 14.75679
#
# Velocity S-wave (km/s) = 1.40771 3.43782 2.62681
# Velocity P-wave (km/s) = 3.84185 5.71758 4.87086
#
# Compressibility (1/GPa) = 0.03858767
#
# Stress axis : x y z
#
# Youngs Moduli (GPa) = 40.54569 87.64869 94.58109
#
# Poissons Ratio (x) = -0.21543 0.25143
# Poissons Ratio (y) = -0.09965 0.36210
# Poissons Ratio (z) = 0.10778 0.33556
#
# Static dielectric constant tensor:
#      x y z
#    x 1.784840 0.000000 0.000000 
#    y 0.000000 1.818150 0.000000 
#    z 0.000000 0.000000 1.786980 
# 
# From -- ./inp_files/18934.got.cif
#   From: 2010.05.17/outbox.cif.g08.bks.cpg/sg55_10_cif.got.tgz:18934.got - 2010.06.03 13:27:54.
