data_PCOD9428651
_publ_section_title
;
Structure prediction by ZEFSAII (Michael W. Deem and Ramdas Pophale) SiO2 
 PCOD9428651
Probable space group: P B A M
;
_chemical_formula_sum "Si O2"
_cell_formula_units_Z 56
_cell_length_a 13.258003
_cell_length_b 12.581995
_cell_length_c 13.965001
_cell_angle_alpha 90.000000
_cell_angle_beta 90.000000
_cell_angle_gamma 90.000000
_cell_volume 2329.531527
_symmetry_space_group_name_H-M "P B A M"
_symmetry_group_IT_number 55
_symmetry_cell_setting 'orthorhombic'
loop_
_space_group_symop_operation_xyz
x,y,z
-x,-y,z
1/2+x,1/2-y,-z
1/2-x,1/2+y,-z
-x,-y,-z
x,y,-z
1/2-x,1/2+y,z
1/2+x,1/2-y,z
loop_
_atom_site_type_symbol
_atom_site_label
_atom_site_fract_x
_atom_site_fract_y
_atom_site_fract_z
Si Si1 0.925517 0.723098 0.809957
Si Si2 0.614832 0.495864 0.607877
Si Si3 0.033218 0.377683 0.607115
Si Si4 0.930799 0.105111 0.114248
Si Si5 0.240766 0.133462 0.238214
Si Si6 0.168516 0.759917 0.600534
Si Si7 0.697204 0.038490 0.890157
O O1 0.917531 0.676206 0.701002
O O2 0.841470 0.813518 0.829272
O O3 0.890051 0.624699 0.874047
O O4 0.026815 0.790007 0.831546
O O5 0.500000 0.500000 0.641896
O O6 0.613856 0.449891 0.500000
O O7 0.683899 0.434840 0.681196
O O8 0.651151 0.615779 0.601420
O O9 0.083677 0.378041 0.500000
O O10 0.000000 0.500000 0.625666
O O11 0.934565 0.305722 0.596848
O O12 0.811629 0.081623 0.132662
O O13 0.940725 0.124179 0.000000
O O14 0.000000 0.000000 0.135768
O O15 0.285706 0.226751 0.300228
O O16 0.317059 0.060252 0.180957
O O17 0.222948 0.732432 0.500000
O O18 0.801048 0.504231 0.000000
#
# Coordination Sequence:
#
# PCOD9428651 Si02
#       7
#     8   8   8   8   8   8   8
#     4  12  25  40  74 102 137 181 235 287 348 421
#     4  10  22  40  64  97 137 177 225 283 336 403
#     4  10  23  43  66  94 138 188 230 278 341 420
#     4  10  22  45  74 102 135 179 231 289 358 422
#     4  12  24  38  67  97 135 180 223 288 337 413
#     4  10  22  40  63  95 136 178 227 277 338 408
#     4  11  26  46  68 102 137 175 233 296 358 426
#
# _framework density 24.039166000000002
#
# number of rings (size 3 to 8) (size 9 to 14) (size 15 to 20)
#    0.000    1.286    1.429    3.429    6.000    2.857 
#    0.000    3.571    0.000    2.143    0.000    0.000 
#    0.000    0.000    0.000    0.000    0.000    0.000 
#
# Total GULP energy -313115.644420 kJ/mol
# GULP energy per Si atom -5591.350793 kJ/mol
# Density = 2.398445 g / cm^3
# Si number density = 24.039166 Si / 1000 Ang^3
#
#
#
# Elastic Constant Matrix: (Units=GPa)
#
#
# Indices 1 2 3 4 5 6 
#
# 1 38.6232 10.2268 16.5133 0.0000 0.0000 0.0000
# 2 10.2268 76.8361 27.6234 0.0000 0.0000 0.0000
# 3 16.5133 27.6234 111.9239 0.0000 0.0000 0.0000
# 4 0.0000 0.0000 0.0000 28.4959 0.0000 0.0000
# 5 0.0000 0.0000 0.0000 0.0000 32.9997 0.0000
# 6 0.0000 0.0000 0.0000 0.0000 0.0000 34.7512
#
#
#
# Elastic Compliance Matrix: (Units=1/GPa)
#
#
# Indices 1 2 3 4 5 6 
#
# 1 0.028053 -0.002465 -0.003531 0.000000 0.000000 0.000000
# 2 -0.002465 0.014498 -0.003215 0.000000 0.000000 0.000000
# 3 -0.003531 -0.003215 0.010249 0.000000 0.000000 0.000000
# 4 0.000000 0.000000 0.000000 0.035093 0.000000 0.000000
# 5 0.000000 0.000000 0.000000 0.000000 0.030303 0.000000
# 6 0.000000 0.000000 0.000000 0.000000 0.000000 0.028776
#
#
# Mechanical properties :
#
#
# Convention : Reuss Voigt Hill
#
# Bulk Modulus (GPa) = 29.08594 37.34556 33.21575
# Shear Modulus (GPa) = 28.27207 30.78400 29.52803
#
# Velocity S-wave (km/s) = 3.43313 3.58240 3.50856
# Velocity P-wave (km/s) = 5.27644 5.71668 5.50097
#
# Compressibility (1/GPa) = 0.03438087
#
# Stress axis : x y z
#
# Youngs Moduli (GPa) = 35.64640 68.97283 97.57078
#
# Poissons Ratio (x) = 0.16999 0.34450
# Poissons Ratio (y) = 0.08785 0.31366
# Poissons Ratio (z) = 0.12586 0.22173
#
# Static dielectric constant tensor:
#      x y z
#    x 1.918950 0.000000 0.000000 
#    y 0.000000 1.880000 0.000000 
#    z 0.000000 0.000000 1.949280 
# 
# From -- ./inp_files/18933.got.cif
#   From: 2010.05.17/outbox.cif.g08.bks.cpg/sg55_10_cif.got.tgz:18933.got - 2010.06.03 13:27:54.
