data_PCOD9428151
_publ_section_title
;
Structure prediction by ZEFSAII (Michael W. Deem and Ramdas Pophale) SiO2 
 PCOD9428151
Probable space group: P B A M
;
_chemical_formula_sum "Si O2"
_cell_formula_units_Z 48
_cell_length_a 22.279224
_cell_length_b 11.957514
_cell_length_c 9.368821
_cell_angle_alpha 90.000000
_cell_angle_beta 90.000000
_cell_angle_gamma 90.000000
_cell_volume 2495.892635
_symmetry_space_group_name_H-M "P B A M"
_symmetry_group_IT_number 55
_symmetry_cell_setting 'orthorhombic'
loop_
_space_group_symop_operation_xyz
x,y,z
-x,-y,z
1/2+x,1/2-y,-z
1/2-x,1/2+y,-z
-x,-y,-z
x,y,-z
1/2-x,1/2+y,z
1/2+x,1/2-y,z
loop_
_atom_site_type_symbol
_atom_site_label
_atom_site_fract_x
_atom_site_fract_y
_atom_site_fract_z
Si Si1 0.570573 0.519776 0.169732
Si Si2 0.229363 0.370845 0.169248
Si Si3 0.889404 0.774756 0.169867
Si Si4 0.649405 0.693604 0.330569
Si Si5 0.544538 0.093322 0.338176
Si Si6 0.165666 0.549279 0.659342
O O1 0.500000 0.500000 0.194693
O O2 0.605455 0.404937 0.208202
O O3 0.597171 0.622029 0.258095
O O4 0.578860 0.539672 0.000000
O O5 0.175186 0.282580 0.199705
O O6 0.288239 0.339899 0.256399
O O7 0.207896 0.492307 0.224055
O O8 0.240187 0.371169 0.000000
O O9 0.940988 0.703523 0.248839
O O10 0.899121 0.765906 0.000000
O O11 0.651134 0.673157 0.500000
O O12 0.643998 0.826391 0.307450
O O13 0.523676 0.120422 0.500000
O O14 0.500000 0.000000 0.275471
O O15 0.607762 0.029593 0.347651
O O16 0.193828 0.550367 0.500000
#
# Coordination Sequence:
#
# PCOD9428151 Si02
#       6
#     8   8   8   8   8   8
#     4  10  23  42  61  86 122 162 204 246 295 356
#     4  10  21  38  61  87 115 150 195 243 298 357
#     4   9  20  38  58  84 115 150 193 241 291 348
#     4  11  24  39  60  88 119 153 195 244 297 359
#     4   9  18  33  57  84 112 148 187 233 287 340
#     4   9  20  38  56  83 118 148 190 241 291 349
#
# _framework density 19.231597000000001
#
# number of rings (size 3 to 8) (size 9 to 14) (size 15 to 20)
#    0.000    2.333    0.000    1.000    4.667    3.333 
#    0.000    0.000    0.000    0.000    0.000    0.000 
#    0.000    0.000    0.000    0.000    0.000    0.000 
#
# Total GULP energy -267848.124423 kJ/mol
# GULP energy per Si atom -5580.169259 kJ/mol
# Density = 1.918783 g / cm^3
# Si number density = 19.231597 Si / 1000 Ang^3
#
#
#
# Elastic Constant Matrix: (Units=GPa)
#
#
# Indices 1 2 3 4 5 6 
#
# 1 32.1581 18.9775 30.9652 0.0000 0.0000 0.0000
# 2 18.9775 108.1697 55.1939 0.0000 0.0000 0.0000
# 3 30.9652 55.1939 59.3070 0.0000 0.0000 0.0000
# 4 0.0000 0.0000 0.0000 28.1036 0.0000 0.0000
# 5 0.0000 0.0000 0.0000 0.0000 28.0379 0.0000
# 6 0.0000 0.0000 0.0000 0.0000 0.0000 8.1674
#
#
#
# Elastic Compliance Matrix: (Units=1/GPa)
#
#
# Indices 1 2 3 4 5 6 
#
# 1 0.069999 0.012126 -0.047833 0.000000 0.000000 0.000000
# 2 0.012126 0.019705 -0.024670 0.000000 0.000000 0.000000
# 3 -0.047833 -0.024670 0.064795 0.000000 0.000000 0.000000
# 4 0.000000 0.000000 0.000000 0.035583 0.000000 0.000000
# 5 0.000000 0.000000 0.000000 0.000000 0.035666 0.000000
# 6 0.000000 0.000000 0.000000 0.000000 0.000000 0.122437
#
#
# Mechanical properties :
#
#
# Convention : Reuss Voigt Hill
#
# Bulk Modulus (GPa) = 29.63343 45.54534 37.58938
# Shear Modulus (GPa) = 10.41263 19.16166 14.78715
#
# Velocity S-wave (km/s) = 2.32940 3.15995 2.77591
# Velocity P-wave (km/s) = 4.76203 6.08668 5.46464
#
# Compressibility (1/GPa) = 0.03374568
#
# Stress axis : x y z
#
# Youngs Moduli (GPa) = 14.28595 50.74828 15.43339
#
# Poissons Ratio (x) = -0.61537 0.73822
# Poissons Ratio (y) = -0.17323 0.38074
# Poissons Ratio (z) = 0.68334 1.25195
#
# Static dielectric constant tensor:
#      x y z
#    x 1.669950 0.000000 0.000000 
#    y 0.000000 1.670800 0.000000 
#    z 0.000000 0.000000 1.661880 
# 
# From -- ./inp_files/4071.got.cif
#   From: 2010.05.17/outbox.cif.g08.bks.cpg/sg55_3_cif.got.tgz:4071.got - 2010.06.03 13:27:54.
