data_PCOD9428931
_publ_section_title
;
Structure prediction by ZEFSAII (Michael W. Deem and Ramdas Pophale) SiO2 
 PCOD9428931
Probable space group: P B A M
;
_chemical_formula_sum "Si O2"
_cell_formula_units_Z 34
_cell_length_a 11.785518
_cell_length_b 4.950340
_cell_length_c 23.433192
_cell_angle_alpha 90.000000
_cell_angle_beta 90.000000
_cell_angle_gamma 90.000000
_cell_volume 1367.146814
_symmetry_space_group_name_H-M "P B A M"
_symmetry_group_IT_number 55
_symmetry_cell_setting 'orthorhombic'
loop_
_space_group_symop_operation_xyz
x,y,z
-x,-y,z
1/2+x,1/2-y,-z
1/2-x,1/2+y,-z
-x,-y,-z
x,y,-z
1/2-x,1/2+y,z
1/2+x,1/2-y,z
loop_
_atom_site_type_symbol
_atom_site_label
_atom_site_fract_x
_atom_site_fract_y
_atom_site_fract_z
Si Si1 0.819364 0.802246 0.124464
Si Si2 0.415947 0.749250 0.000000
Si Si3 0.500000 0.000000 0.200480
Si Si4 0.000000 0.000000 0.500000
Si Si5 0.824664 0.197815 0.720782
Si Si6 0.326504 0.231783 0.586979
O O1 0.711965 0.609669 0.137252
O O2 0.922965 0.685956 0.159968
O O3 0.843837 0.762244 0.057541
O O4 0.500000 0.500000 0.000000
O O5 0.500000 0.000000 0.000000
O O6 0.575525 0.810107 0.240878
O O7 0.070125 0.828461 0.450810
O O8 0.715520 0.392691 0.731073
O O9 0.853087 0.235660 0.653960
O O10 0.219317 0.431549 0.574893
#
# Coordination Sequence:
#
# PCOD9428931 Si02
#       6
#     8   4   4   2   8   8
#     4  12  27  46  72 108 146 189 239 308 372 435
#     4  12  24  48  76 103 141 196 238 296 374 451
#     4  12  26  45  76 105 146 192 256 302 360 446
#     4  12  24  42  76 108 136 190 232 292 364 412
#     4  10  24  46  68  98 140 190 237 294 360 422
#     4  10  24  44  67 100 141 179 231 288 345 420
#
# _framework density 24.869309000000001
#
# number of rings (size 3 to 8) (size 9 to 14) (size 15 to 20)
#    0.000    0.941    1.176    4.235    0.000   10.353 
#    0.000    0.000    0.000    0.000    0.000    0.000 
#    0.000    0.000    0.000    0.000    0.000    0.000 
#
# Total GULP energy -190508.460711 kJ/mol
# GULP energy per Si atom -5603.190021 kJ/mol
# Density = 2.481271 g / cm^3
# Si number density = 24.869309 Si / 1000 Ang^3
#
#
#
# Elastic Constant Matrix: (Units=GPa)
#
#
# Indices 1 2 3 4 5 6 
#
# 1 87.5333 19.2187 71.0534 0.0000 0.0000 0.0000
# 2 19.2187 112.0770 20.7988 0.0000 0.0000 0.0000
# 3 71.0534 20.7988 178.0665 0.0000 0.0000 0.0000
# 4 0.0000 0.0000 0.0000 4.2221 0.0000 0.0000
# 5 0.0000 0.0000 0.0000 0.0000 41.6473 0.0000
# 6 0.0000 0.0000 0.0000 0.0000 0.0000 39.3321
#
#
#
# Elastic Compliance Matrix: (Units=1/GPa)
#
#
# Indices 1 2 3 4 5 6 
#
# 1 0.017214 -0.001714 -0.006668 0.000000 0.000000 0.000000
# 2 -0.001714 0.009291 -0.000401 0.000000 0.000000 0.000000
# 3 -0.006668 -0.000401 0.008324 0.000000 0.000000 0.000000
# 4 0.000000 0.000000 0.000000 0.236850 0.000000 0.000000
# 5 0.000000 0.000000 0.000000 0.000000 0.024011 0.000000
# 6 0.000000 0.000000 0.000000 0.000000 0.000000 0.025425
#
#
# Mechanical properties :
#
#
# Convention : Reuss Voigt Hill
#
# Bulk Modulus (GPa) = 57.93636 66.64649 62.29142
# Shear Modulus (GPa) = 14.51653 34.81404 24.66529
#
# Velocity S-wave (km/s) = 2.41864 3.74556 3.15270
# Velocity P-wave (km/s) = 5.58092 6.75000 6.19310
#
# Compressibility (1/GPa) = 0.01726032
#
# Stress axis : x y z
#
# Youngs Moduli (GPa) = 58.09366 107.63293 120.13982
#
# Poissons Ratio (x) = 0.18451 0.80115
# Poissons Ratio (y) = 0.09959 0.04820
# Poissons Ratio (z) = 0.38740 0.04318
#
# Static dielectric constant tensor:
#      x y z
#    x 1.949170 0.000000 0.000000 
#    y 0.000000 1.903400 0.000000 
#    z 0.000000 0.000000 1.913140 
# 
# From -- ./inp_files/23534.got.cif
#   From: 2010.05.17/outbox.cif.g08.bks.cpg/sg55_12_cif.got.tgz:23534.got - 2010.06.03 13:27:54.
