data_PCOD9428730
_publ_section_title
;
Structure prediction by ZEFSAII (Michael W. Deem and Ramdas Pophale) SiO2 
 PCOD9428730
Probable space group: P B A M
;
_chemical_formula_sum "Si O2"
_cell_formula_units_Z 64
_cell_length_a 11.088437
_cell_length_b 31.700822
_cell_length_c 9.008387
_cell_angle_alpha 90.000000
_cell_angle_beta 90.000000
_cell_angle_gamma 90.000000
_cell_volume 3166.561244
_symmetry_space_group_name_H-M "P B A M"
_symmetry_group_IT_number 55
_symmetry_cell_setting 'orthorhombic'
loop_
_space_group_symop_operation_xyz
x,y,z
-x,-y,z
1/2+x,1/2-y,-z
1/2-x,1/2+y,-z
-x,-y,-z
x,y,-z
1/2-x,1/2+y,z
1/2+x,1/2-y,z
loop_
_atom_site_type_symbol
_atom_site_label
_atom_site_fract_x
_atom_site_fract_y
_atom_site_fract_z
Si Si1 0.373714 0.024405 0.322485
Si Si2 0.122939 0.328361 0.326371
Si Si3 0.929089 0.253224 0.669583
Si Si4 0.125040 0.828101 0.173756
Si Si5 0.951359 0.887257 0.328807
Si Si6 0.554682 0.888245 0.826008
Si Si7 0.623467 0.474171 0.177995
Si Si8 0.272600 0.172083 0.669312
O O1 0.357714 0.027319 0.500000
O O2 0.395922 0.069899 0.250000
O O3 0.247488 0.008265 0.251328
O O4 0.500000 0.000000 0.293992
O O5 0.151073 0.333252 0.500000
O O6 0.241283 0.320475 0.232717
O O7 0.029697 0.289388 0.312632
O O8 0.060281 0.370110 0.260811
O O9 0.934570 0.237038 0.500000
O O10 0.943100 0.214774 0.779943
O O11 0.802093 0.278632 0.687054
O O12 0.070714 0.868791 0.255267
O O13 0.119806 0.834733 0.000000
O O14 0.968731 0.899424 0.500000
O O15 0.897690 0.927041 0.241376
O O16 0.858938 0.847677 0.325947
O O17 0.654279 0.852521 0.794592
O O18 0.532576 0.894006 0.000000
O O19 0.500000 0.500000 0.211052
O O20 0.638771 0.473091 0.000000
O O21 0.319765 0.162127 0.500000
#
# Coordination Sequence:
#
# PCOD9428730 Si02
#       8
#     8   8   8   8   8   8   8   8
#     4  11  24  42  66  97 131 171 222 271 321 398
#     4  10  22  42  64  85 118 163 213 259 310 381
#     4   9  20  39  62  88 119 162 211 259 314 376
#     4  12  26  40  58  91 132 166 210 268 328 385
#     4  11  23  41  67  94 125 170 221 263 315 390
#     4  11  21  36  63  93 124 157 196 254 319 374
#     4  11  25  45  69 100 138 175 218 281 351 410
#     4   9  19  37  63  90 118 159 209 255 300 370
#
# _framework density 20.211200000000002
#
# number of rings (size 3 to 8) (size 9 to 14) (size 15 to 20)
#    0.000    1.500    1.250    4.500    1.750    6.000 
#    0.000    2.500    0.000    0.000    0.000    0.000 
#    0.000    0.000    0.000    0.000    0.000    0.000 
#
# Total GULP energy -357369.591941 kJ/mol
# GULP energy per Si atom -5583.899874 kJ/mol
# Density = 2.016520 g / cm^3
# Si number density = 20.211200 Si / 1000 Ang^3
#
#
#
# Elastic Constant Matrix: (Units=GPa)
#
#
# Indices 1 2 3 4 5 6 
#
# 1 54.3610 22.5283 19.1718 0.0000 0.0000 0.0000
# 2 22.5283 43.5141 24.1162 0.0000 0.0000 0.0000
# 3 19.1718 24.1162 73.8671 0.0000 0.0000 0.0000
# 4 0.0000 0.0000 0.0000 10.6503 0.0000 0.0000
# 5 0.0000 0.0000 0.0000 0.0000 27.9392 0.0000
# 6 0.0000 0.0000 0.0000 0.0000 0.0000 24.4328
#
#
#
# Elastic Compliance Matrix: (Units=1/GPa)
#
#
# Indices 1 2 3 4 5 6 
#
# 1 0.023833 -0.010879 -0.002634 0.000000 0.000000 0.000000
# 2 -0.010879 0.033024 -0.007958 0.000000 0.000000 0.000000
# 3 -0.002634 -0.007958 0.016820 0.000000 0.000000 0.000000
# 4 0.000000 0.000000 0.000000 0.093894 0.000000 0.000000
# 5 0.000000 0.000000 0.000000 0.000000 0.035792 0.000000
# 6 0.000000 0.000000 0.000000 0.000000 0.000000 0.040929
#
#
# Mechanical properties :
#
#
# Convention : Reuss Voigt Hill
#
# Bulk Modulus (GPa) = 32.53693 33.70830 33.12262
# Shear Modulus (GPa) = 16.80799 19.66620 18.23709
#
# Velocity S-wave (km/s) = 2.88691 3.12273 3.00713
# Velocity P-wave (km/s) = 5.21974 5.45126 5.33676
#
# Compressibility (1/GPa) = 0.03073431
#
# Stress axis : x y z
#
# Youngs Moduli (GPa) = 41.95869 30.28111 59.45456
#
# Poissons Ratio (x) = 0.32943 0.15660
# Poissons Ratio (y) = 0.45648 0.47314
# Poissons Ratio (z) = 0.11051 0.24098
#
# Static dielectric constant tensor:
#      x y z
#    x 1.791780 0.000000 0.000000 
#    y 0.000000 1.712490 0.000000 
#    z 0.000000 0.000000 1.678670 
# 
# From -- ./inp_files/4582.got.cif
#   From: 2010.05.17/outbox.cif.g08.bks.cpg/sg55_3_cif.got.tgz:4582.got - 2010.06.03 13:27:54.
