data_PCOD9428315
_publ_section_title
;
Structure prediction by ZEFSAII (Michael W. Deem and Ramdas Pophale) SiO2 
 PCOD9428315
Probable space group: P B A M
;
_chemical_formula_sum "Si O2"
_cell_formula_units_Z 48
_cell_length_a 15.489936
_cell_length_b 18.736599
_cell_length_c 7.510980
_cell_angle_alpha 90.000000
_cell_angle_beta 90.000000
_cell_angle_gamma 90.000000
_cell_volume 2179.902107
_symmetry_space_group_name_H-M "P B A M"
_symmetry_group_IT_number 55
_symmetry_cell_setting 'orthorhombic'
loop_
_space_group_symop_operation_xyz
x,y,z
-x,-y,z
1/2+x,1/2-y,-z
1/2-x,1/2+y,-z
-x,-y,-z
x,y,-z
1/2-x,1/2+y,z
1/2+x,1/2-y,z
loop_
_atom_site_type_symbol
_atom_site_label
_atom_site_fract_x
_atom_site_fract_y
_atom_site_fract_z
Si Si1 0.131490 0.343747 0.785233
Si Si2 0.096132 0.503342 0.295363
Si Si3 0.725875 0.768575 0.783341
Si Si4 0.527321 0.741105 0.785761
Si Si5 0.238525 0.075725 0.800708
Si Si6 0.138695 0.001193 0.500000
Si Si7 0.491011 0.378673 0.500000
O O1 0.131326 0.422936 0.710355
O O2 0.212562 0.295852 0.725938
O O3 0.042467 0.302376 0.742557
O O4 0.135816 0.349715 0.000000
O O5 0.090921 0.528071 0.500000
O O6 0.160688 0.555436 0.195928
O O7 0.000000 0.500000 0.219838
O O8 0.625615 0.761008 0.734175
O O9 0.766036 0.844146 0.726331
O O10 0.727542 0.770495 0.000000
O O11 0.503200 0.671273 0.673206
O O12 0.524015 0.729184 0.000000
O O13 0.194556 0.018752 0.673223
O O14 0.202477 0.073239 0.000000
O O15 0.064017 0.061111 0.500000
O O16 0.097993 0.923195 0.500000
#
# Coordination Sequence:
#
# PCOD9428315 Si02
#       7
#     8   8   8   8   8   4   4
#     4  10  21  39  64  93 124 164 215 264 318 389
#     4  11  24  40  61  95 137 173 214 264 325 398
#     4   9  20  38  63  93 123 162 213 264 320 384
#     4  10  22  41  65  94 128 163 215 269 322 392
#     4  11  23  43  69  92 130 176 212 267 330 382
#     4  11  26  45  60  95 127 162 231 270 312 403
#     4  11  26  43  65  89 128 172 212 276 335 376
#
# _framework density 22.019338000000001
#
# number of rings (size 3 to 8) (size 9 to 14) (size 15 to 20)
#    0.000    1.667    0.833    2.500    3.500    6.000 
#    1.500    1.667    0.000    0.000    0.000    0.000 
#    0.000    0.000    0.000    0.000    0.000    0.000 
#
# Total GULP energy -268529.689136 kJ/mol
# GULP energy per Si atom -5594.368524 kJ/mol
# Density = 2.196922 g / cm^3
# Si number density = 22.019338 Si / 1000 Ang^3
#
#
#
# Elastic Constant Matrix: (Units=GPa)
#
#
# Indices 1 2 3 4 5 6 
#
# 1 78.9118 0.9922 0.0182 0.0000 0.0000 0.0000
# 2 0.9922 78.5275 2.2213 0.0000 0.0000 0.0000
# 3 0.0182 2.2213 77.1619 0.0000 0.0000 0.0000
# 4 0.0000 0.0000 0.0000 26.6640 0.0000 0.0000
# 5 0.0000 0.0000 0.0000 0.0000 -50.9308 0.0000
# 6 0.0000 0.0000 0.0000 0.0000 0.0000 41.1414
#
#
#
# Elastic Compliance Matrix: (Units=1/GPa)
#
#
# Indices 1 2 3 4 5 6 
#
# 1 0.012674 -0.000160 0.000002 0.000000 0.000000 0.000000
# 2 -0.000160 0.012747 -0.000367 0.000000 0.000000 0.000000
# 3 0.000002 -0.000367 0.012970 0.000000 0.000000 0.000000
# 4 0.000000 0.000000 0.000000 0.037504 0.000000 0.000000
# 5 0.000000 0.000000 0.000000 0.000000 -0.019634 0.000000
# 6 0.000000 0.000000 0.000000 0.000000 0.000000 0.024306
#
#
# Mechanical properties :
#
#
# Convention : Reuss Voigt Hill
#
# Bulk Modulus (GPa) = 26.78056 26.78498 26.78277
# Shear Modulus (GPa) = 53.15471 18.79955 35.97713
#
# Velocity S-wave (km/s) = 4.91858 2.92511 4.04652
# Velocity P-wave (km/s) = 6.66673 4.85789 5.83285
#
# Compressibility (1/GPa) = 0.03734052
#
# Stress axis : x y z
#
# Youngs Moduli (GPa) = 78.89928 78.45113 77.09908
#
# Poissons Ratio (x) = 0.01257 -0.00012
# Poissons Ratio (y) = 0.01264 0.02829
# Poissons Ratio (z) = -0.00013 0.02879
#
# Static dielectric constant tensor:
#      x y z
#    x 1.836650 0.000000 0.000000 
#    y 0.000000 1.750630 0.000000 
#    z 0.000000 0.000000 1.634060 
# 
# From -- ./inp_files/5722.got.cif
#   From: 2010.05.17/outbox.cif.g08.bks.cpg/sg55_3_cif.got.tgz:5722.got - 2010.06.03 13:27:54.
