data_PCOD9428036
_publ_section_title
;
Structure prediction by ZEFSAII (Michael W. Deem and Ramdas Pophale) SiO2 
 PCOD9428036
Probable space group: P B A M
;
_chemical_formula_sum "Si O2"
_cell_formula_units_Z 34
_cell_length_a 9.629270
_cell_length_b 20.313373
_cell_length_c 7.237200
_cell_angle_alpha 90.000000
_cell_angle_beta 90.000000
_cell_angle_gamma 90.000000
_cell_volume 1415.617693
_symmetry_space_group_name_H-M "P B A M"
_symmetry_group_IT_number 55
_symmetry_cell_setting 'orthorhombic'
loop_
_space_group_symop_operation_xyz
x,y,z
-x,-y,z
1/2+x,1/2-y,-z
1/2-x,1/2+y,-z
-x,-y,-z
x,y,-z
1/2-x,1/2+y,z
1/2+x,1/2-y,z
loop_
_atom_site_type_symbol
_atom_site_label
_atom_site_fract_x
_atom_site_fract_y
_atom_site_fract_z
Si Si1 0.786568 0.334862 0.726331
Si Si2 0.500000 0.500000 0.000000
Si Si3 0.844216 0.483810 0.724084
Si Si4 0.612101 0.587368 0.280944
Si Si5 0.507780 0.725019 0.721983
O O1 0.783443 0.335533 0.500000
O O2 0.804076 0.410483 0.783346
O O3 0.644003 0.298740 0.785308
O O4 0.919789 0.291793 0.785142
O O5 0.490319 0.556309 0.162336
O O6 0.839777 0.484670 0.500000
O O7 0.741384 0.542621 0.782733
O O8 0.000000 0.500000 0.781048
O O9 0.590126 0.579157 0.500000
O O10 0.614548 0.664682 0.243130
O O11 0.495323 0.730981 0.500000
#
# Coordination Sequence:
#
# PCOD9428036 Si02
#       5
#     8   2   8   8   8
#     4   9  17  28  47  80 115 154 197 241 296 355
#     4  12  22  36  62  86 116 156 200 248 302 358
#     4   9  18  32  55  87 122 155 198 249 300 356
#     4  10  21  37  59  88 120 155 199 251 298 353
#     4   9  18  31  52  81 118 155 197 247 297 354
#
# _framework density 24.017783999999999
#
# number of rings (size 3 to 8) (size 9 to 14) (size 15 to 20)
#    0.000    2.588    0.000    1.765    3.294    3.765 
#    0.000    0.588    0.000    5.647    0.000    0.000 
#    0.000    0.000    0.000    0.000    0.000    0.000 
#
# Total GULP energy -189452.031798 kJ/mol
# GULP energy per Si atom -5572.118582 kJ/mol
# Density = 2.396312 g / cm^3
# Si number density = 24.017784 Si / 1000 Ang^3
#
#
#
# Elastic Constant Matrix: (Units=GPa)
#
#
# Indices 1 2 3 4 5 6 
#
# 1 156.9476 70.0133 -7.0039 0.0000 0.0000 0.0000
# 2 70.0133 98.8031 10.7131 0.0000 0.0000 0.0000
# 3 -7.0039 10.7131 111.0551 0.0000 0.0000 0.0000
# 4 0.0000 0.0000 0.0000 2.5764 0.0000 0.0000
# 5 0.0000 0.0000 0.0000 0.0000 -22.0922 0.0000
# 6 0.0000 0.0000 0.0000 0.0000 0.0000 43.1805
#
#
#
# Elastic Compliance Matrix: (Units=1/GPa)
#
#
# Indices 1 2 3 4 5 6 
#
# 1 0.009488 -0.006860 0.001260 0.000000 0.000000 0.000000
# 2 -0.006860 0.015188 -0.001898 0.000000 0.000000 0.000000
# 3 0.001260 -0.001898 0.009267 0.000000 0.000000 0.000000
# 4 0.000000 0.000000 0.000000 0.388139 0.000000 0.000000
# 5 0.000000 0.000000 0.000000 0.000000 -0.045265 0.000000
# 6 0.000000 0.000000 0.000000 0.000000 0.000000 0.023159
#
#
# Mechanical properties :
#
#
# Convention : Reuss Voigt Hill
#
# Bulk Modulus (GPa) = 52.77640 57.13897 54.95768
# Shear Modulus (GPa) = 11.86839 24.27182 18.07011
#
# Velocity S-wave (km/s) = 2.22536 3.18241 2.74590
# Velocity P-wave (km/s) = 5.35019 6.11110 5.74326
#
# Compressibility (1/GPa) = 0.01894786
#
# Stress axis : x y z
#
# Youngs Moduli (GPa) = 105.39674 65.84159 107.90881
#
# Poissons Ratio (x) = 0.45167 -0.13598
# Poissons Ratio (y) = 0.72302 0.20479
# Poissons Ratio (z) = -0.13281 0.12495
#
# Static dielectric constant tensor:
#      x y z
#    x 2.014720 0.000000 0.000000 
#    y 0.000000 1.907770 0.000000 
#    z 0.000000 0.000000 1.913450 
# 
# From -- ./inp_files/2159.got.cif
#   From: 2010.05.17/outbox.cif.g08.bks.cpg/sg55_2_cif.got.tgz:2159.got - 2010.06.03 13:27:54.
