data_PCOD9428349
_publ_section_title
;
Structure prediction by ZEFSAII (Michael W. Deem and Ramdas Pophale) SiO2 
 PCOD9428349
Probable space group: P B A M
;
_chemical_formula_sum "Si O2"
_cell_formula_units_Z 46
_cell_length_a 5.075170
_cell_length_b 17.719569
_cell_length_c 24.343896
_cell_angle_alpha 90.000000
_cell_angle_beta 90.000000
_cell_angle_gamma 90.000000
_cell_volume 2189.242307
_symmetry_space_group_name_H-M "P B A M"
_symmetry_group_IT_number 55
_symmetry_cell_setting 'orthorhombic'
loop_
_space_group_symop_operation_xyz
x,y,z
-x,-y,z
1/2+x,1/2-y,-z
1/2-x,1/2+y,-z
-x,-y,-z
x,y,-z
1/2-x,1/2+y,z
1/2+x,1/2-y,z
loop_
_atom_site_type_symbol
_atom_site_label
_atom_site_fract_x
_atom_site_fract_y
_atom_site_fract_z
Si Si1 0.500000 0.500000 0.500000
Si Si2 0.751373 0.556667 0.000000
Si Si3 0.671943 0.200869 0.788677
Si Si4 0.692746 0.071347 0.596222
Si Si5 0.289884 0.802460 0.919343
Si Si6 0.170886 0.709063 0.566256
Si Si7 0.738129 0.550644 0.720257
O O1 0.402587 0.440229 0.451968
O O2 0.500000 0.500000 0.000000
O O3 0.761467 0.617076 0.050433
O O4 0.000000 0.500000 0.000000
O O5 0.385655 0.234475 0.776257
O O6 0.701052 0.184830 0.853721
O O7 0.725690 0.126185 0.754542
O O8 0.488077 0.139105 0.589215
O O9 0.814297 0.070969 0.656593
O O10 0.500000 0.000000 0.588993
O O11 0.551280 0.754560 0.933180
O O12 0.164800 0.703640 0.500000
O O13 0.972050 0.777438 0.582696
O O14 0.500000 0.500000 0.741813
O O15 0.000000 0.500000 0.721629
#
# Coordination Sequence:
#
# PCOD9428349 Si02
#       7
#     2   4   8   8   8   8   8
#     4  12  22  40  64  82 116 152 204 236 286 374
#     4  12  24  36  58  96 136 172 218 268 320 360
#     4  10  22  41  67  93 121 164 214 259 312 374
#     4  11  25  39  63  87 116 155 199 238 295 367
#     4  10  21  40  63  88 124 174 220 259 309 375
#     4  10  23  37  55  80 110 139 175 224 278 330
#     4  11  24  41  61  91 122 153 197 252 315 368
#
# _framework density 21.011834
#
# number of rings (size 3 to 8) (size 9 to 14) (size 15 to 20)
#    0.000    1.391    1.739    2.870    2.435    2.783 
#    0.000    0.000    0.000    0.000    0.000    0.000 
#    0.000    0.000    0.000    0.000    0.000    0.000 
#
# Total GULP energy -256673.247913 kJ/mol
# GULP energy per Si atom -5579.853215 kJ/mol
# Density = 2.096401 g / cm^3
# Si number density = 21.011834 Si / 1000 Ang^3
#
#
#
# Elastic Constant Matrix: (Units=GPa)
#
#
# Indices 1 2 3 4 5 6 
#
# 1 76.8343 13.2494 12.6427 0.0000 0.0000 0.0000
# 2 13.2494 123.1582 49.6877 0.0000 0.0000 0.0000
# 3 12.6427 49.6877 87.8166 0.0000 0.0000 0.0000
# 4 0.0000 0.0000 0.0000 111.8298 0.0000 0.0000
# 5 0.0000 0.0000 0.0000 0.0000 55.5262 0.0000
# 6 0.0000 0.0000 0.0000 0.0000 0.0000 37.9593
#
#
#
# Elastic Compliance Matrix: (Units=1/GPa)
#
#
# Indices 1 2 3 4 5 6 
#
# 1 0.013401 -0.000860 -0.001443 0.000000 0.000000 0.000000
# 2 -0.000860 0.010577 -0.005861 0.000000 0.000000 0.000000
# 3 -0.001443 -0.005861 0.014911 0.000000 0.000000 0.000000
# 4 0.000000 0.000000 0.000000 0.008942 0.000000 0.000000
# 5 0.000000 0.000000 0.000000 0.000000 0.018010 0.000000
# 6 0.000000 0.000000 0.000000 0.000000 0.000000 0.026344
#
#
# Mechanical properties :
#
#
# Convention : Reuss Voigt Hill
#
# Bulk Modulus (GPa) = 44.32186 48.77431 46.54809
# Shear Modulus (GPa) = 43.09200 55.21167 49.15184
#
# Velocity S-wave (km/s) = 4.53354 5.13162 4.84182
# Velocity P-wave (km/s) = 6.96732 7.64032 7.31157
#
# Compressibility (1/GPa) = 0.02256223
#
# Stress axis : x y z
#
# Youngs Moduli (GPa) = 74.62315 94.54886 67.06414
#
# Poissons Ratio (x) = 0.08126 0.09677
# Poissons Ratio (y) = 0.06414 0.39304
# Poissons Ratio (z) = 0.10768 0.55411
#
# Static dielectric constant tensor:
#      x y z
#    x 1.824270 0.000000 0.000000 
#    y 0.000000 1.751100 0.000000 
#    z 0.000000 0.000000 1.733410 
# 
# From -- ./inp_files/23314.got.cif
#   From: 2010.05.17/outbox.cif.g08.bks.cpg/sg55_12_cif.got.tgz:23314.got - 2010.06.03 13:27:54.
