data_PCOD9428525
_publ_section_title
;
Structure prediction by ZEFSAII (Michael W. Deem and Ramdas Pophale) SiO2 
 PCOD9428525
Probable space group: P B A M
;
_chemical_formula_sum "Si O2"
_cell_formula_units_Z 34
_cell_length_a 4.889622
_cell_length_b 17.053911
_cell_length_c 18.013957
_cell_angle_alpha 90.000000
_cell_angle_beta 90.000000
_cell_angle_gamma 90.000000
_cell_volume 1502.133046
_symmetry_space_group_name_H-M "P B A M"
_symmetry_group_IT_number 55
_symmetry_cell_setting 'orthorhombic'
loop_
_space_group_symop_operation_xyz
x,y,z
-x,-y,z
1/2+x,1/2-y,-z
1/2-x,1/2+y,-z
-x,-y,-z
x,y,-z
1/2-x,1/2+y,z
1/2+x,1/2-y,z
loop_
_atom_site_type_symbol
_atom_site_label
_atom_site_fract_x
_atom_site_fract_y
_atom_site_fract_z
Si Si1 0.251602 0.697249 0.584828
Si Si2 0.197223 0.304224 0.919522
Si Si3 0.000000 0.500000 0.500000
Si Si4 0.090790 0.310002 0.242944
Si Si5 0.336312 0.427276 0.356254
O O1 0.266311 0.669549 0.500000
O O2 0.442730 0.774090 0.593726
O O3 0.413761 0.631275 0.626542
O O4 0.508502 0.274269 0.918161
O O5 0.124061 0.342042 0.841089
O O6 0.145383 0.342678 0.000000
O O7 0.183510 0.455603 0.432251
O O8 0.312178 0.239149 0.252440
O O9 0.143854 0.382027 0.298129
O O10 0.500000 0.500000 0.322255
#
# Coordination Sequence:
#
# PCOD9428525 Si02
#       5
#     8   8   2   8   8
#     4  10  22  38  60  81 104 138 187 245 301 351
#     4   8  14  28  55  91 124 153 191 242 297 356
#     4  12  30  44  60  78 114 160 208 258 318 370
#     4  10  22  41  65  93 125 161 204 254 307 362
#     4  12  27  42  61  84 120 158 208 255 314 370
#
# _framework density 22.634481000000001
#
# number of rings (size 3 to 8) (size 9 to 14) (size 15 to 20)
#    0.000    1.882    1.176    1.765    6.588    0.000 
#    0.000    0.000    0.000    0.706    0.000    0.824 
#    0.000    0.000    0.000    0.000    0.000    0.000 
#
# Total GULP energy -189378.228781 kJ/mol
# GULP energy per Si atom -5569.947905 kJ/mol
# Density = 2.258296 g / cm^3
# Si number density = 22.634481 Si / 1000 Ang^3
#
#
#
# Elastic Constant Matrix: (Units=GPa)
#
#
# Indices 1 2 3 4 5 6 
#
# 1 120.9266 20.1924 33.1737 0.0000 0.0000 0.0000
# 2 20.1924 56.9744 31.6335 0.0000 0.0000 0.0000
# 3 33.1737 31.6335 178.9849 0.0000 0.0000 0.0000
# 4 0.0000 0.0000 0.0000 17.1220 0.0000 0.0000
# 5 0.0000 0.0000 0.0000 0.0000 32.1408 0.0000
# 6 0.0000 0.0000 0.0000 0.0000 0.0000 29.4931
#
#
#
# Elastic Compliance Matrix: (Units=1/GPa)
#
#
# Indices 1 2 3 4 5 6 
#
# 1 0.009027 -0.002517 -0.001228 0.000000 0.000000 0.000000
# 2 -0.002517 0.020163 -0.003097 0.000000 0.000000 0.000000
# 3 -0.001228 -0.003097 0.006362 0.000000 0.000000 0.000000
# 4 0.000000 0.000000 0.000000 0.058404 0.000000 0.000000
# 5 0.000000 0.000000 0.000000 0.000000 0.031113 0.000000
# 6 0.000000 0.000000 0.000000 0.000000 0.000000 0.033906
#
#
# Mechanical properties :
#
#
# Convention : Reuss Voigt Hill
#
# Bulk Modulus (GPa) = 45.73056 58.54280 52.13668
# Shear Modulus (GPa) = 27.78547 33.87692 30.83120
#
# Velocity S-wave (km/s) = 3.50747 3.87291 3.69471
# Velocity P-wave (km/s) = 6.05400 6.77642 6.42537
#
# Compressibility (1/GPa) = 0.02186721
#
# Stress axis : x y z
#
# Youngs Moduli (GPa) = 110.78198 49.59460 157.18152
#
# Poissons Ratio (x) = 0.12484 0.19304
# Poissons Ratio (y) = 0.27887 0.48681
# Poissons Ratio (z) = 0.13606 0.15360
#
# Static dielectric constant tensor:
#      x y z
#    x 1.885700 0.000000 0.000000 
#    y 0.000000 1.935810 0.000000 
#    z 0.000000 0.000000 2.000490 
# 
# From -- ./inp_files/22256.got.cif
#   From: 2010.05.17/outbox.cif.g08.bks.cpg/sg55_12_cif.got.tgz:22256.got - 2010.06.03 13:27:54.
