data_PCOD9428544
_publ_section_title
;
Structure prediction by ZEFSAII (Michael W. Deem and Ramdas Pophale) SiO2 
 PCOD9428544
Probable space group: P B A M
;
_chemical_formula_sum "Si O2"
_cell_formula_units_Z 40
_cell_length_a 11.976323
_cell_length_b 8.599875
_cell_length_c 17.939466
_cell_angle_alpha 90.000000
_cell_angle_beta 90.000000
_cell_angle_gamma 90.000000
_cell_volume 1847.673162
_symmetry_space_group_name_H-M "P B A M"
_symmetry_group_IT_number 55
_symmetry_cell_setting 'orthorhombic'
loop_
_space_group_symop_operation_xyz
x,y,z
-x,-y,z
1/2+x,1/2-y,-z
1/2-x,1/2+y,-z
-x,-y,-z
x,y,-z
1/2-x,1/2+y,z
1/2+x,1/2-y,z
loop_
_atom_site_type_symbol
_atom_site_label
_atom_site_fract_x
_atom_site_fract_y
_atom_site_fract_z
Si Si1 0.211631 0.330665 0.320402
Si Si2 0.354237 0.098822 0.780065
Si Si3 0.627961 0.450637 0.585751
Si Si4 0.801904 0.975898 0.916276
Si Si5 0.007635 0.834772 0.854160
O O1 0.141028 0.465528 0.281294
O O2 0.277695 0.234061 0.257044
O O3 0.143303 0.207702 0.368372
O O4 0.299426 0.418172 0.373337
O O5 0.289585 0.034008 0.852436
O O6 0.465492 0.185084 0.807212
O O7 0.500000 0.500000 0.586277
O O8 0.664766 0.431009 0.500000
O O9 0.893570 0.838598 0.900513
O O10 0.883557 0.125826 0.904552
O O11 0.759603 0.969863 0.000000
O O12 0.000000 0.000000 0.808176
#
# Coordination Sequence:
#
# PCOD9428544 Si02
#       5
#     8   8   8   8   8
#     4  10  22  38  64  98 130 165 207 259 316 388
#     4  11  19  38  60  90 126 165 209 258 323 378
#     4  10  22  43  71  98 131 170 207 255 318 383
#     4   9  19  34  57  84 117 165 219 267 317 370
#     4   8  18  36  58  80 115 160 212 260 320 370
#
# _framework density 21.648852000000002
#
# number of rings (size 3 to 8) (size 9 to 14) (size 15 to 20)
#    1.200    1.000    2.000    1.800    0.000    5.600 
#    0.000    9.000    0.000   12.000    0.000    0.000 
#    0.000    0.000    0.000    0.000    0.000    0.000 
#
# Total GULP energy -223349.635043 kJ/mol
# GULP energy per Si atom -5583.740876 kJ/mol
# Density = 2.159958 g / cm^3
# Si number density = 21.648852 Si / 1000 Ang^3
#
#
#
# Elastic Constant Matrix: (Units=GPa)
#
#
# Indices 1 2 3 4 5 6 
#
# 1 41.4371 14.3810 28.3266 0.0000 0.0000 0.0000
# 2 14.3810 101.9769 44.0976 0.0000 0.0000 0.0000
# 3 28.3266 44.0976 128.0527 0.0000 0.0000 0.0000
# 4 0.0000 0.0000 0.0000 -37.0499 0.0000 0.0000
# 5 0.0000 0.0000 0.0000 0.0000 2843.5935 0.0000
# 6 0.0000 0.0000 0.0000 0.0000 0.0000 23.8565
#
#
#
# Elastic Compliance Matrix: (Units=1/GPa)
#
#
# Indices 1 2 3 4 5 6 
#
# 1 0.028633 -0.001526 -0.005808 0.000000 0.000000 0.000000
# 2 -0.001526 0.011603 -0.003658 0.000000 0.000000 0.000000
# 3 -0.005808 -0.003658 0.010354 0.000000 0.000000 0.000000
# 4 0.000000 0.000000 0.000000 -0.026991 0.000000 0.000000
# 5 0.000000 0.000000 0.000000 0.000000 0.000352 0.000000
# 6 0.000000 0.000000 0.000000 0.000000 0.000000 0.041917
#
#
# Mechanical properties :
#
#
# Convention : Reuss Voigt Hill
#
# Bulk Modulus (GPa) = 34.95911 49.45301 42.20606
# Shear Modulus (GPa) = 51.34029 578.39081 314.86555
#
# Velocity S-wave (km/s) = 4.87509 16.36305 12.07302
# Velocity P-wave (km/s) = 6.91896 19.49082 14.62470
#
# Compressibility (1/GPa) = 0.02860484
#
# Stress axis : x y z
#
# Youngs Moduli (GPa) = 34.92443 86.18249 96.58161
#
# Poissons Ratio (x) = 0.13153 0.56098
# Poissons Ratio (y) = 0.05330 0.35332
# Poissons Ratio (z) = 0.20285 0.31527
#
# Static dielectric constant tensor:
#      x y z
#    x 1.826600 0.000000 0.000000 
#    y 0.000000 1.829760 0.000000 
#    z 0.000000 0.000000 1.757710 
# 
# From -- ./inp_files/21179.got.cif
#   From: 2010.05.17/outbox.cif.g08.bks.cpg/sg55_11_cif.got.tgz:21179.got - 2010.06.03 13:27:54.
