data_PCOD9428124
_publ_section_title
;
Structure prediction by ZEFSAII (Michael W. Deem and Ramdas Pophale) SiO2 
 PCOD9428124
Probable space group: P B A M
;
_chemical_formula_sum "Si O2"
_cell_formula_units_Z 32
_cell_length_a 23.910111
_cell_length_b 10.860521
_cell_length_c 5.535596
_cell_angle_alpha 90.000000
_cell_angle_beta 90.000000
_cell_angle_gamma 90.000000
_cell_volume 1437.462881
_symmetry_space_group_name_H-M "P B A M"
_symmetry_group_IT_number 55
_symmetry_cell_setting 'orthorhombic'
loop_
_space_group_symop_operation_xyz
x,y,z
-x,-y,z
1/2+x,1/2-y,-z
1/2-x,1/2+y,-z
-x,-y,-z
x,y,-z
1/2-x,1/2+y,z
1/2+x,1/2-y,z
loop_
_atom_site_type_symbol
_atom_site_label
_atom_site_fract_x
_atom_site_fract_y
_atom_site_fract_z
Si Si1 0.740311 0.533479 0.500000
Si Si2 0.160840 0.728067 0.500000
Si Si3 0.550486 0.879427 0.500000
Si Si4 0.851303 0.261192 0.000000
Si Si5 0.808350 0.980549 0.000000
Si Si6 0.396076 0.735369 0.000000
Si Si7 0.130830 0.382343 0.500000
Si Si8 0.982333 0.297901 0.000000
O O1 0.698481 0.651241 0.500000
O O2 0.724520 0.463635 0.747780
O O3 0.803799 0.580382 0.500000
O O4 0.093083 0.738916 0.500000
O O5 0.168977 0.670047 0.238807
O O6 0.515931 0.870823 0.746201
O O7 0.591042 0.997147 0.500000
O O8 0.918417 0.250952 0.000000
O O9 0.827789 0.123330 0.000000
O O10 0.860447 0.888788 0.000000
O O11 0.381197 0.809020 0.751414
O O12 0.462973 0.713588 0.000000
#
# Coordination Sequence:
#
# PCOD9428124 Si02
#       8
#     4   4   4   4   4   4   4   4
#     4  10  21  41  63  86 118 151 192 247 302 350
#     4   8  16  32  57  84 108 142 192 246 284 335
#     4  10  21  38  60  83 114 161 209 240 285 351
#     4   8  16  33  58  86 112 144 193 234 287 358
#     4  10  21  40  64  90 120 155 192 244 308 359
#     4  12  26  40  59  91 125 153 196 247 298 353
#     4  12  26  41  58  89 122 161 209 239 281 359
#     4  10  21  39  61  87 119 157 197 250 299 338
#
# _framework density 22.261443
#
# number of rings (size 3 to 8) (size 9 to 14) (size 15 to 20)
#    0.000    2.000    0.000    3.000    0.000    5.500 
#    0.000    5.000    0.000   10.500    0.000    0.000 
#    0.000    0.000    0.000    0.000    0.000    0.000 
#
# Total GULP energy -178282.616483 kJ/mol
# GULP energy per Si atom -5571.331765 kJ/mol
# Density = 2.221078 g / cm^3
# Si number density = 22.261443 Si / 1000 Ang^3
#
#
#
# Elastic Constant Matrix: (Units=GPa)
#
#
# Indices 1 2 3 4 5 6 
#
# 1 141.6916 35.7270 38.0917 0.0000 0.0000 0.0000
# 2 35.7270 33.6114 17.3572 0.0000 0.0000 0.0000
# 3 38.0917 17.3572 255.2555 0.0000 0.0000 0.0000
# 4 0.0000 0.0000 0.0000 19.1208 0.0000 0.0000
# 5 0.0000 0.0000 0.0000 0.0000 5.2997 0.0000
# 6 0.0000 0.0000 0.0000 0.0000 0.0000 4.4922
#
#
#
# Elastic Compliance Matrix: (Units=1/GPa)
#
#
# Indices 1 2 3 4 5 6 
#
# 1 0.009790 -0.010003 -0.000781 0.000000 0.000000 0.000000
# 2 -0.010003 0.041055 -0.001299 0.000000 0.000000 0.000000
# 3 -0.000781 -0.001299 0.004122 0.000000 0.000000 0.000000
# 4 0.000000 0.000000 0.000000 0.052299 0.000000 0.000000
# 5 0.000000 0.000000 0.000000 0.000000 0.188690 0.000000
# 6 0.000000 0.000000 0.000000 0.000000 0.000000 0.222607
#
#
# Mechanical properties :
#
#
# Convention : Reuss Voigt Hill
#
# Bulk Modulus (GPa) = 32.46522 68.10116 50.28319
# Shear Modulus (GPa) = 9.04167 28.40804 18.72486
#
# Velocity S-wave (km/s) = 2.01752 3.57614 2.90338
# Velocity P-wave (km/s) = 4.47688 6.90722 5.82032
#
# Compressibility (1/GPa) = 0.03080219
#
# Stress axis : x y z
#
# Youngs Moduli (GPa) = 102.14929 24.35768 242.57221
#
# Poissons Ratio (x) = 0.24364 0.18938
# Poissons Ratio (y) = 1.02176 0.31510
# Poissons Ratio (z) = 0.07975 0.03164
#
# Static dielectric constant tensor:
#      x y z
#    x 1.807220 0.000000 0.000000 
#    y 0.000000 1.798020 0.000000 
#    z 0.000000 0.000000 1.908130 
# 
# From -- ./inp_files/836.got.cif
#   From: 2010.05.17/outbox.cif.g08.bks.cpg/sg55_1_cif.got.tgz:836.got - 2010.06.03 13:27:54.
