data_PCOD9428749
_publ_section_title
;
Structure prediction by ZEFSAII (Michael W. Deem and Ramdas Pophale) SiO2 
 PCOD9428749
Probable space group: P B A M
;
_chemical_formula_sum "Si O2"
_cell_formula_units_Z 36
_cell_length_a 8.175892
_cell_length_b 25.011944
_cell_length_c 7.617717
_cell_angle_alpha 90.000000
_cell_angle_beta 90.000000
_cell_angle_gamma 90.000000
_cell_volume 1557.784679
_symmetry_space_group_name_H-M "P B A M"
_symmetry_group_IT_number 55
_symmetry_cell_setting 'orthorhombic'
loop_
_space_group_symop_operation_xyz
x,y,z
-x,-y,z
1/2+x,1/2-y,-z
1/2-x,1/2+y,-z
-x,-y,-z
x,y,-z
1/2-x,1/2+y,z
1/2+x,1/2-y,z
loop_
_atom_site_type_symbol
_atom_site_label
_atom_site_fract_x
_atom_site_fract_y
_atom_site_fract_z
Si Si1 0.442584 0.672321 0.693568
Si Si2 0.045986 0.941925 0.201955
Si Si3 0.079848 0.444521 0.711620
Si Si4 0.943337 0.329646 0.705027
Si Si5 0.004369 0.752777 0.000000
O O1 0.489962 0.691171 0.500000
O O2 0.469687 0.608899 0.703287
O O3 0.249864 0.682656 0.724993
O O4 0.536118 0.702095 0.846701
O O5 0.240803 0.937224 0.210984
O O6 0.988739 0.940360 0.000000
O O7 0.000000 0.000000 0.276385
O O8 0.097236 0.447777 0.500000
O O9 0.000000 0.500000 0.772220
O O10 0.974180 0.391779 0.748696
O O11 0.989601 0.321962 0.500000
O O12 0.029968 0.291710 0.844259
#
# Coordination Sequence:
#
# PCOD9428749 Si02
#       5
#     8   8   8   8   4
#     4  11  24  45  71  98 133 176 223 274 332 395
#     4  11  24  41  65 100 137 172 219 272 331 398
#     4  10  22  42  67  98 135 175 220 270 330 398
#     4  10  24  44  69 100 134 175 223 275 332 394
#     4  12  24  42  68  96 132 174 222 278 330 390
#
# _framework density 23.109739999999999
#
# number of rings (size 3 to 8) (size 9 to 14) (size 15 to 20)
#    0.000    1.333    1.111    3.333    1.556    7.556 
#    0.000    2.222    0.000    0.000    0.000    0.000 
#    0.000    0.000    0.000    0.000    0.000    0.000 
#
# Total GULP energy -200409.257404 kJ/mol
# GULP energy per Si atom -5566.923817 kJ/mol
# Density = 2.305714 g / cm^3
# Si number density = 23.109740 Si / 1000 Ang^3
#
#
#
# Elastic Constant Matrix: (Units=GPa)
#
#
# Indices 1 2 3 4 5 6 
#
# 1 44.2553 -0.4860 22.3674 0.0000 0.0000 0.0000
# 2 -0.4860 148.9122 45.6284 0.0000 0.0000 0.0000
# 3 22.3674 45.6284 120.3112 0.0000 0.0000 0.0000
# 4 0.0000 0.0000 0.0000 28.5601 0.0000 0.0000
# 5 0.0000 0.0000 0.0000 0.0000 3.7120 0.0000
# 6 0.0000 0.0000 0.0000 0.0000 0.0000 -13.4845
#
#
#
# Elastic Compliance Matrix: (Units=1/GPa)
#
#
# Indices 1 2 3 4 5 6 
#
# 1 0.025326 0.001726 -0.005363 0.000000 0.000000 0.000000
# 2 0.001726 0.007716 -0.003247 0.000000 0.000000 0.000000
# 3 -0.005363 -0.003247 0.010540 0.000000 0.000000 0.000000
# 4 0.000000 0.000000 0.000000 0.035014 0.000000 0.000000
# 5 0.000000 0.000000 0.000000 0.000000 0.269396 0.000000
# 6 0.000000 0.000000 0.000000 0.000000 0.000000 -0.074159
#
#
# Mechanical properties :
#
#
# Convention : Reuss Voigt Hill
#
# Bulk Modulus (GPa) = 33.54181 49.83315 41.68748
# Shear Modulus (GPa) = 16.80454 20.15544 18.47999
#
# Velocity S-wave (km/s) = 2.69952 2.95644 2.83090
# Velocity P-wave (km/s) = 4.92567 5.76755 5.36315
#
# Compressibility (1/GPa) = 0.02981354
#
# Stress axis : x y z
#
# Youngs Moduli (GPa) = 39.48572 129.60128 94.87378
#
# Poissons Ratio (x) = -0.22368 0.50880
# Poissons Ratio (y) = -0.06815 0.30807
# Poissons Ratio (z) = 0.21176 0.42084
#
# Static dielectric constant tensor:
#      x y z
#    x 1.867100 0.000000 0.000000 
#    y 0.000000 1.850620 0.000000 
#    z 0.000000 0.000000 1.864160 
# 
# From -- ./inp_files/2346.got.cif
#   From: 2010.05.17/outbox.cif.g08.bks.cpg/sg55_2_cif.got.tgz:2346.got - 2010.06.03 13:27:54.
