data_PCOD9428737
_publ_section_title
;
Structure prediction by ZEFSAII (Michael W. Deem and Ramdas Pophale) SiO2 
 PCOD9428737
Probable space group: P B A M
;
_chemical_formula_sum "Si O2"
_cell_formula_units_Z 56
_cell_length_a 13.931377
_cell_length_b 8.977765
_cell_length_c 21.441838
_cell_angle_alpha 90.000000
_cell_angle_beta 90.000000
_cell_angle_gamma 90.000000
_cell_volume 2681.787046
_symmetry_space_group_name_H-M "P B A M"
_symmetry_group_IT_number 55
_symmetry_cell_setting 'orthorhombic'
loop_
_space_group_symop_operation_xyz
x,y,z
-x,-y,z
1/2+x,1/2-y,-z
1/2-x,1/2+y,-z
-x,-y,-z
x,y,-z
1/2-x,1/2+y,z
1/2+x,1/2-y,z
loop_
_atom_site_type_symbol
_atom_site_label
_atom_site_fract_x
_atom_site_fract_y
_atom_site_fract_z
Si Si1 0.642289 0.443067 0.271831
Si Si2 0.015556 0.796274 0.335473
Si Si3 0.184942 0.572293 0.637387
Si Si4 0.188254 0.812962 0.931194
Si Si5 0.146705 0.254427 0.573658
Si Si6 0.017329 0.334613 0.928943
Si Si7 0.831504 0.880377 0.868647
O O1 0.573729 0.299927 0.286520
O O2 0.587197 0.576462 0.308268
O O3 0.747821 0.435500 0.301293
O O4 0.649776 0.453537 0.198075
O O5 0.086585 0.659139 0.347742
O O6 0.951245 0.818100 0.398203
O O7 0.160541 0.412849 0.607986
O O8 0.258190 0.659168 0.590832
O O9 0.082591 0.748811 0.933121
O O10 0.240719 0.727167 0.875497
O O11 0.184466 0.987058 0.917313
O O12 0.231842 0.785702 0.000000
O O13 0.138772 0.272703 0.500000
O O14 0.000000 0.500000 0.903257
O O15 0.083970 0.229258 0.888670
O O16 0.055169 0.353201 0.000000
#
# Coordination Sequence:
#
# PCOD9428737 Si02
#       7
#     8   8   8   8   8   8   8
#     4  10  25  43  66  97 136 182 230 278 345 408
#     4  10  23  44  67  93 140 178 221 291 338 389
#     4  11  22  45  68 100 141 181 223 289 342 397
#     4  11  24  41  64  98 133 171 223 288 353 403
#     4  11  24  42  71 107 137 182 232 279 346 419
#     4  10  22  42  65  94 134 173 220 287 355 408
#     4  12  25  40  70  97 132 183 232 278 339 430
#
# _framework density 20.881599000000001
#
# number of rings (size 3 to 8) (size 9 to 14) (size 15 to 20)
#    0.000    1.286    1.429    3.429    6.000    4.000 
#    0.000    5.000    0.000    0.000    0.000    0.000 
#    0.000    0.000    0.000    0.000    0.000    0.000 
#
# Total GULP energy -312412.984801 kJ/mol
# GULP energy per Si atom -5578.803300 kJ/mol
# Density = 2.083407 g / cm^3
# Si number density = 20.881599 Si / 1000 Ang^3
#
#
#
# Elastic Constant Matrix: (Units=GPa)
#
#
# Indices 1 2 3 4 5 6 
#
# 1 107.8284 33.8267 32.1181 0.0000 0.0000 0.0000
# 2 33.8267 123.6871 38.1594 0.0000 0.0000 0.0000
# 3 32.1181 38.1594 95.3114 0.0000 0.0000 0.0000
# 4 0.0000 0.0000 0.0000 19.7297 0.0000 0.0000
# 5 0.0000 0.0000 0.0000 0.0000 14.7533 0.0000
# 6 0.0000 0.0000 0.0000 0.0000 0.0000 38.0050
#
#
#
# Elastic Compliance Matrix: (Units=1/GPa)
#
#
# Indices 1 2 3 4 5 6 
#
# 1 0.010758 -0.002081 -0.002792 0.000000 0.000000 0.000000
# 2 -0.002081 0.009627 -0.003153 0.000000 0.000000 0.000000
# 3 -0.002792 -0.003153 0.012695 0.000000 0.000000 0.000000
# 4 0.000000 0.000000 0.000000 0.050685 0.000000 0.000000
# 5 0.000000 0.000000 0.000000 0.000000 0.067781 0.000000
# 6 0.000000 0.000000 0.000000 0.000000 0.000000 0.026312
#
#
# Mechanical properties :
#
#
# Convention : Reuss Voigt Hill
#
# Bulk Modulus (GPa) = 58.72623 59.44836 59.08729
# Shear Modulus (GPa) = 25.05168 29.34579 27.19874
#
# Velocity S-wave (km/s) = 3.46743 3.75286 3.61296
# Velocity P-wave (km/s) = 6.64945 6.87820 6.76479
#
# Compressibility (1/GPa) = 0.01702817
#
# Stress axis : x y z
#
# Youngs Moduli (GPa) = 92.94981 103.87720 78.76973
#
# Poissons Ratio (x) = 0.21615 0.21995
# Poissons Ratio (y) = 0.19341 0.24836
# Poissons Ratio (z) = 0.25954 0.32753
#
# Static dielectric constant tensor:
#      x y z
#    x 1.752540 0.000000 0.000000 
#    y 0.000000 1.869850 0.000000 
#    z 0.000000 0.000000 1.740400 
# 
# From -- ./inp_files/22972.got.cif
#   From: 2010.05.17/outbox.cif.g08.bks.cpg/sg55_12_cif.got.tgz:22972.got - 2010.06.03 13:27:54.
