data_PCOD9428569
_publ_section_title
;
Structure prediction by ZEFSAII (Michael W. Deem and Ramdas Pophale) SiO2 
 PCOD9428569
Probable space group: P B A M
;
_chemical_formula_sum "Si O2"
_cell_formula_units_Z 32
_cell_length_a 4.663348
_cell_length_b 10.750043
_cell_length_c 24.282082
_cell_angle_alpha 90.000000
_cell_angle_beta 90.000000
_cell_angle_gamma 90.000000
_cell_volume 1217.289703
_symmetry_space_group_name_H-M "P B A M"
_symmetry_group_IT_number 55
_symmetry_cell_setting 'orthorhombic'
loop_
_space_group_symop_operation_xyz
x,y,z
-x,-y,z
1/2+x,1/2-y,-z
1/2-x,1/2+y,-z
-x,-y,-z
x,y,-z
1/2-x,1/2+y,z
1/2+x,1/2-y,z
loop_
_atom_site_type_symbol
_atom_site_label
_atom_site_fract_x
_atom_site_fract_y
_atom_site_fract_z
Si Si1 0.301146 0.832769 0.938735
Si Si2 0.218868 0.832208 0.682347
Si Si3 0.701140 0.335803 0.500000
Si Si4 0.500000 0.500000 0.849436
Si Si5 0.500000 0.000000 0.409146
Si Si6 0.500000 0.000000 0.225612
O O1 0.634304 0.799258 0.935822
O O2 0.182345 0.911105 0.888927
O O3 0.244171 0.884837 0.000000
O O4 0.385416 0.700218 0.681405
O O5 0.312152 0.911337 0.629847
O O6 0.329531 0.903514 0.736046
O O7 0.371873 0.295714 0.500000
O O8 0.800583 0.414197 0.447502
O O9 0.747586 0.439587 0.811285
#
# Coordination Sequence:
#
# PCOD9428569 Si02
#       6
#     8   8   4   4   4   4
#     4  10  22  39  60  87 118 154 195 240 296 360
#     4  11  24  43  64  87 122 162 202 252 302 349
#     4  11  24  41  64  96 132 163 198 251 304 350
#     4  12  23  40  62  88 120 155 196 248 300 354
#     4  10  24  41  66  96 123 162 212 244 294 368
#     4  11  26  39  59  91 117 154 205 246 298 364
#
# _framework density 26.28791
#
# number of rings (size 3 to 8) (size 9 to 14) (size 15 to 20)
#    0.000    1.250    0.000    4.875    0.000   13.000 
#    0.000    5.000    0.000    0.000    0.000    0.000 
#    0.000    0.000    0.000    0.000    0.000    0.000 
#
# Total GULP energy -179673.659928 kJ/mol
# GULP energy per Si atom -5614.801873 kJ/mol
# Density = 2.622808 g / cm^3
# Si number density = 26.287910 Si / 1000 Ang^3
#
#
#
# Elastic Constant Matrix: (Units=GPa)
#
#
# Indices 1 2 3 4 5 6 
#
# 1 111.6934 10.7063 30.3225 0.0000 0.0000 0.0000
# 2 10.7063 66.7363 37.5775 0.0000 0.0000 0.0000
# 3 30.3225 37.5775 153.3987 0.0000 0.0000 0.0000
# 4 0.0000 0.0000 0.0000 36.0792 0.0000 0.0000
# 5 0.0000 0.0000 0.0000 0.0000 0.9065 0.0000
# 6 0.0000 0.0000 0.0000 0.0000 0.0000 45.7435
#
#
#
# Elastic Compliance Matrix: (Units=1/GPa)
#
#
# Indices 1 2 3 4 5 6 
#
# 1 0.009478 -0.000540 -0.001741 0.000000 0.000000 0.000000
# 2 -0.000540 0.017413 -0.004159 0.000000 0.000000 0.000000
# 3 -0.001741 -0.004159 0.007882 0.000000 0.000000 0.000000
# 4 0.000000 0.000000 0.000000 0.027717 0.000000 0.000000
# 5 0.000000 0.000000 0.000000 0.000000 1.103191 0.000000
# 6 0.000000 0.000000 0.000000 0.000000 0.000000 0.021861
#
#
# Mechanical properties :
#
#
# Convention : Reuss Voigt Hill
#
# Bulk Modulus (GPa) = 45.67842 54.33788 50.00815
# Shear Modulus (GPa) = 4.14004 33.42731 18.78368
#
# Velocity S-wave (km/s) = 1.25630 3.56980 2.67598
# Velocity P-wave (km/s) = 4.41796 6.14056 5.34905
#
# Compressibility (1/GPa) = 0.02189218
#
# Stress axis : x y z
#
# Youngs Moduli (GPa) = 105.51271 57.42946 126.87315
#
# Poissons Ratio (x) = 0.03102 0.22090
# Poissons Ratio (y) = 0.05698 0.52764
# Poissons Ratio (z) = 0.18371 0.23884
#
# Static dielectric constant tensor:
#      x y z
#    x 1.955990 0.000000 0.000000 
#    y 0.000000 2.056330 0.000000 
#    z 0.000000 0.000000 2.032730 
# 
# From -- ./inp_files/22233.got.cif
#   From: 2010.05.17/outbox.cif.g08.bks.cpg/sg55_12_cif.got.tgz:22233.got - 2010.06.03 13:27:54.
