data_PCOD9428030
_publ_section_title
;
Structure prediction by ZEFSAII (Michael W. Deem and Ramdas Pophale) SiO2 
 PCOD9428030
Probable space group: P B A M
;
_chemical_formula_sum "Si O2"
_cell_formula_units_Z 56
_cell_length_a 20.281897
_cell_length_b 16.523345
_cell_length_c 8.119413
_cell_angle_alpha 90.000000
_cell_angle_beta 90.000000
_cell_angle_gamma 90.000000
_cell_volume 2721.016507
_symmetry_space_group_name_H-M "P B A M"
_symmetry_group_IT_number 55
_symmetry_cell_setting 'orthorhombic'
loop_
_space_group_symop_operation_xyz
x,y,z
-x,-y,z
1/2+x,1/2-y,-z
1/2-x,1/2+y,-z
-x,-y,-z
x,y,-z
1/2-x,1/2+y,z
1/2+x,1/2-y,z
loop_
_atom_site_type_symbol
_atom_site_label
_atom_site_fract_x
_atom_site_fract_y
_atom_site_fract_z
Si Si1 0.171023 0.506378 0.805718
Si Si2 0.180632 0.000016 0.802785
Si Si3 0.845447 0.670832 0.692746
Si Si4 0.106073 0.667588 0.693041
Si Si5 0.194538 0.818339 0.300751
Si Si6 0.477657 0.752521 0.807507
Si Si7 0.546503 0.426060 0.201641
O O1 0.245983 0.522699 0.744673
O O2 0.146572 0.425580 0.716529
O O3 0.126931 0.584735 0.778463
O O4 0.174149 0.487479 0.000000
O O5 0.120571 0.054353 0.740249
O O6 0.170021 0.905512 0.761458
O O7 0.180543 0.007963 0.000000
O O8 0.850111 0.691050 0.500000
O O9 0.771078 0.690827 0.751060
O O10 0.903410 0.716217 0.786172
O O11 0.120072 0.657863 0.500000
O O12 0.149700 0.743680 0.754973
O O13 0.030206 0.690987 0.718129
O O14 0.193587 0.821120 0.500000
O O15 0.479737 0.660641 0.742716
O O16 0.495189 0.752552 0.000000
O O17 0.500000 0.500000 0.250993
O O18 0.547135 0.423674 0.000000
#
# Coordination Sequence:
#
# PCOD9428030 Si02
#       7
#     8   8   8   8   8   8   8
#     4  10  21  37  59  87 114 146 196 246 290 342
#     4   9  18  34  57  85 114 148 189 237 287 339
#     4  10  21  40  61  84 117 154 192 239 295 348
#     4  11  23  39  58  83 117 155 195 237 290 348
#     4   9  20  37  58  84 116 154 193 235 284 344
#     4  11  23  38  59  87 117 153 196 241 290 346
#     4   9  18  33  55  84 119 153 186 229 286 344
#
# _framework density 20.580544
#
# number of rings (size 3 to 8) (size 9 to 14) (size 15 to 20)
#    0.000    2.143    0.000    2.571    2.000    4.000 
#    0.000    4.286    0.000    3.857    0.000    0.000 
#    0.000    0.000    0.000    0.000    0.000    0.000 
#
# Total GULP energy -312848.334878 kJ/mol
# GULP energy per Si atom -5586.577409 kJ/mol
# Density = 2.053370 g / cm^3
# Si number density = 20.580544 Si / 1000 Ang^3
#
#
#
# Elastic Constant Matrix: (Units=GPa)
#
#
# Indices 1 2 3 4 5 6 
#
# 1 41.7271 5.7785 -2.6511 0.0000 0.0000 0.0000
# 2 5.7785 19.2344 -2.8260 0.0000 0.0000 0.0000
# 3 -2.6511 -2.8260 16.7116 0.0000 0.0000 0.0000
# 4 0.0000 0.0000 0.0000 19.7564 0.0000 0.0000
# 5 0.0000 0.0000 0.0000 0.0000 11.9037 0.0000
# 6 0.0000 0.0000 0.0000 0.0000 0.0000 33.9102
#
#
#
# Elastic Compliance Matrix: (Units=1/GPa)
#
#
# Indices 1 2 3 4 5 6 
#
# 1 0.025131 -0.007142 0.002779 0.000000 0.000000 0.000000
# 2 -0.007142 0.055344 0.008226 0.000000 0.000000 0.000000
# 3 0.002779 0.008226 0.061671 0.000000 0.000000 0.000000
# 4 0.000000 0.000000 0.000000 0.050617 0.000000 0.000000
# 5 0.000000 0.000000 0.000000 0.000000 0.084007 0.000000
# 6 0.000000 0.000000 0.000000 0.000000 0.000000 0.029490
#
#
# Mechanical properties :
#
#
# Convention : Reuss Voigt Hill
#
# Bulk Modulus (GPa) = 6.67233 8.69733 7.68483
# Shear Modulus (GPa) = 14.34761 18.27218 16.30990
#
# Velocity S-wave (km/s) = 2.64321 2.98289 2.81818
# Velocity P-wave (km/s) = 3.54465 4.01232 3.78571
#
# Compressibility (1/GPa) = 0.14987262
#
# Stress axis : x y z
#
# Youngs Moduli (GPa) = 39.79183 18.06866 16.21518
#
# Poissons Ratio (x) = 0.12904 -0.04506
# Poissons Ratio (y) = 0.28418 -0.13339
# Poissons Ratio (z) = -0.11058 -0.14863
#
# Static dielectric constant tensor:
#      x y z
#    x 1.735370 0.000000 0.000000 
#    y 0.000000 1.698330 0.000000 
#    z 0.000000 0.000000 1.709040 
# 
# From -- ./inp_files/8672.got.cif
#   From: 2010.05.17/outbox.cif.g08.bks.cpg/sg55_5_cif.got.tgz:8672.got - 2010.06.03 13:27:54.
