data_PCOD9428813
_publ_section_title
;
Structure prediction by ZEFSAII (Michael W. Deem and Ramdas Pophale) SiO2 
 PCOD9428813
Probable space group: P B A M
;
_chemical_formula_sum "Si O2"
_cell_formula_units_Z 40
_cell_length_a 10.689005
_cell_length_b 8.918310
_cell_length_c 18.050026
_cell_angle_alpha 90.000000
_cell_angle_beta 90.000000
_cell_angle_gamma 90.000000
_cell_volume 1720.670355
_symmetry_space_group_name_H-M "P B A M"
_symmetry_group_IT_number 55
_symmetry_cell_setting 'orthorhombic'
loop_
_space_group_symop_operation_xyz
x,y,z
-x,-y,z
1/2+x,1/2-y,-z
1/2-x,1/2+y,-z
-x,-y,-z
x,y,-z
1/2-x,1/2+y,z
1/2+x,1/2-y,z
loop_
_atom_site_type_symbol
_atom_site_label
_atom_site_fract_x
_atom_site_fract_y
_atom_site_fract_z
Si Si1 0.416984 0.188402 0.418837
Si Si2 0.864268 0.556043 0.085977
Si Si3 0.752935 0.571117 0.638138
Si Si4 0.611354 0.396485 0.126814
Si Si5 0.402678 0.693731 0.292297
O O1 0.477085 0.195610 0.500000
O O2 0.304514 0.309030 0.417563
O O3 0.494062 0.242249 0.347703
O O4 0.359678 0.026509 0.401151
O O5 0.742865 0.486348 0.126263
O O6 0.865725 0.736356 0.088633
O O7 0.000000 0.500000 0.115165
O O8 0.854966 0.506824 0.000000
O O9 0.802484 0.671077 0.706262
O O10 0.654689 0.451459 0.668102
O O11 0.500000 0.500000 0.094631
O O12 0.566627 0.350277 0.209423
#
# Coordination Sequence:
#
# PCOD9428813 Si02
#       5
#     8   8   8   8   8
#     4  11  23  40  62  90 127 173 229 292 353 412
#     4  11  26  47  73 106 143 186 234 286 351 429
#     4  10  23  40  61  88 125 169 226 286 344 411
#     4  12  25  44  73 107 146 188 235 292 358 431
#     4  11  24  42  63  92 128 172 223 277 345 417
#
# _framework density 23.246753999999999
#
# number of rings (size 3 to 8) (size 9 to 14) (size 15 to 20)
#    0.000    1.000    0.000    6.000    0.000   16.000 
#    0.000    0.000    0.000    0.000    0.000    0.000 
#    0.000    0.000    0.000    0.000    0.000    0.000 
#
# Total GULP energy -223694.048994 kJ/mol
# GULP energy per Si atom -5592.351225 kJ/mol
# Density = 2.319384 g / cm^3
# Si number density = 23.246754 Si / 1000 Ang^3
#
#
#
# Elastic Constant Matrix: (Units=GPa)
#
#
# Indices 1 2 3 4 5 6 
#
# 1 109.4924 59.1261 10.2636 0.0000 0.0000 0.0000
# 2 59.1261 162.6244 9.2355 0.0000 0.0000 0.0000
# 3 10.2636 9.2355 90.3002 0.0000 0.0000 0.0000
# 4 0.0000 0.0000 0.0000 0.4555 0.0000 0.0000
# 5 0.0000 0.0000 0.0000 0.0000 23.2663 0.0000
# 6 0.0000 0.0000 0.0000 0.0000 0.0000 57.5420
#
#
#
# Elastic Compliance Matrix: (Units=1/GPa)
#
#
# Indices 1 2 3 4 5 6 
#
# 1 0.011433 -0.004107 -0.000879 0.000000 0.000000 0.000000
# 2 -0.004107 0.007660 -0.000317 0.000000 0.000000 0.000000
# 3 -0.000879 -0.000317 0.011207 0.000000 0.000000 0.000000
# 4 0.000000 0.000000 0.000000 2.195511 0.000000 0.000000
# 5 0.000000 0.000000 0.000000 0.000000 0.042981 0.000000
# 6 0.000000 0.000000 0.000000 0.000000 0.000000 0.017379
#
#
# Mechanical properties :
#
#
# Convention : Reuss Voigt Hill
#
# Bulk Modulus (GPa) = 50.77698 57.74084 54.25891
# Shear Modulus (GPa) = 2.17076 35.17221 18.67148
#
# Velocity S-wave (km/s) = 0.96738 3.89394 2.83713
# Velocity P-wave (km/s) = 4.81018 6.71634 5.84153
#
# Compressibility (1/GPa) = 0.01969397
#
# Stress axis : x y z
#
# Youngs Moduli (GPa) = 87.46446 130.54350 89.23372
#
# Poissons Ratio (x) = 0.53613 0.07848
# Poissons Ratio (y) = 0.35921 0.02826
# Poissons Ratio (z) = 0.07692 0.04134
#
# Static dielectric constant tensor:
#      x y z
#    x 2.005170 0.000000 0.000000 
#    y 0.000000 1.832580 0.000000 
#    z 0.000000 0.000000 1.886880 
# 
# From -- ./inp_files/21177.got.cif
#   From: 2010.05.17/outbox.cif.g08.bks.cpg/sg55_11_cif.got.tgz:21177.got - 2010.06.03 13:27:54.
