data_PCOD9428110
_publ_section_title
;
Structure prediction by ZEFSAII (Michael W. Deem and Ramdas Pophale) SiO2 
 PCOD9428110
Probable space group: P B A M
;
_chemical_formula_sum "Si O2"
_cell_formula_units_Z 48
_cell_length_a 15.892982
_cell_length_b 18.361874
_cell_length_c 8.542149
_cell_angle_alpha 90.000000
_cell_angle_beta 90.000000
_cell_angle_gamma 90.000000
_cell_volume 2492.812059
_symmetry_space_group_name_H-M "P B A M"
_symmetry_group_IT_number 55
_symmetry_cell_setting 'orthorhombic'
loop_
_space_group_symop_operation_xyz
x,y,z
-x,-y,z
1/2+x,1/2-y,-z
1/2-x,1/2+y,-z
-x,-y,-z
x,y,-z
1/2-x,1/2+y,z
1/2+x,1/2-y,z
loop_
_atom_site_type_symbol
_atom_site_label
_atom_site_fract_x
_atom_site_fract_y
_atom_site_fract_z
Si Si1 0.912713 0.792206 0.687754
Si Si2 0.248022 0.458551 0.810899
Si Si3 0.415577 0.041606 0.310744
Si Si4 0.083624 0.043601 0.810565
Si Si5 0.751365 0.209676 0.187799
Si Si6 0.082991 0.710097 0.689313
O O1 0.909481 0.790557 0.500000
O O2 0.915684 0.875197 0.744539
O O3 0.830334 0.752290 0.752545
O O4 0.997202 0.750039 0.739301
O O5 0.166628 0.500478 0.749428
O O6 0.333019 0.499828 0.761119
O O7 0.248590 0.374488 0.759069
O O8 0.246210 0.459104 0.000000
O O9 0.414312 0.040686 0.500000
O O10 0.416585 0.125801 0.259872
O O11 0.500000 0.000000 0.259016
O O12 0.083640 0.047766 0.000000
O O13 0.000000 0.000000 0.762426
O O14 0.835602 0.248353 0.247908
O O15 0.751845 0.210673 0.000000
O O16 0.085582 0.711191 0.500000
#
# Coordination Sequence:
#
# PCOD9428110 Si02
#       6
#     8   8   8   8   8   8
#     4  11  23  39  60  87 119 153 192 238 288 345
#     4  10  22  38  57  84 114 147 188 233 282 335
#     4  10  21  38  59  82 111 148 186 228 282 337
#     4  10  21  39  61  85 117 154 192 236 286 341
#     4  11  23  39  60  85 115 152 193 237 287 341
#     4  10  22  39  59  85 116 151 191 234 283 341
#
# _framework density 19.255362999999999
#
# number of rings (size 3 to 8) (size 9 to 14) (size 15 to 20)
#    0.000    1.667    0.000    4.000    0.000   10.000 
#    0.000    0.000    0.000    0.000    0.000    0.000 
#    0.000    0.000    0.000    0.000    0.000    0.000 
#
# Total GULP energy -268391.433641 kJ/mol
# GULP energy per Si atom -5591.488201 kJ/mol
# Density = 1.921154 g / cm^3
# Si number density = 19.255363 Si / 1000 Ang^3
#
#
#
# Elastic Constant Matrix: (Units=GPa)
#
#
# Indices 1 2 3 4 5 6 
#
# 1 213.0240 119.0540 34.1593 0.0000 0.0000 0.0000
# 2 119.0540 212.7933 35.2760 0.0000 0.0000 0.0000
# 3 34.1593 35.2760 14.9468 0.0000 0.0000 0.0000
# 4 0.0000 0.0000 0.0000 3.5292 0.0000 0.0000
# 5 0.0000 0.0000 0.0000 0.0000 -28.5085 0.0000
# 6 0.0000 0.0000 0.0000 0.0000 0.0000 46.5443
#
#
#
# Elastic Compliance Matrix: (Units=1/GPa)
#
#
# Indices 1 2 3 4 5 6 
#
# 1 0.008094 -0.002401 -0.012830 0.000000 0.000000 0.000000
# 2 -0.002401 0.008432 -0.014413 0.000000 0.000000 0.000000
# 3 -0.012830 -0.014413 0.130241 0.000000 0.000000 0.000000
# 4 0.000000 0.000000 0.000000 0.283347 0.000000 0.000000
# 5 0.000000 0.000000 0.000000 0.000000 -0.035077 0.000000
# 6 0.000000 0.000000 0.000000 0.000000 0.000000 0.021485
#
#
# Mechanical properties :
#
#
# Convention : Reuss Voigt Hill
#
# Bulk Modulus (GPa) = 11.43134 90.86029 51.14582
# Shear Modulus (GPa) = 9.90161 21.13131 15.51646
#
# Velocity S-wave (km/s) = 2.27011 3.31633 2.84179
# Velocity P-wave (km/s) = 3.58062 7.87106 6.11451
#
# Compressibility (1/GPa) = 0.08747882
#
# Stress axis : x y z
#
# Youngs Moduli (GPa) = 123.55288 118.59232 7.67809
#
# Poissons Ratio (x) = 0.28479 0.09851
# Poissons Ratio (y) = 0.29670 0.11066
# Poissons Ratio (z) = 1.58514 1.70925
#
# Static dielectric constant tensor:
#      x y z
#    x 1.628860 0.000000 0.000000 
#    y 0.000000 1.642140 0.000000 
#    z 0.000000 0.000000 1.662980 
# 
# From -- ./inp_files/5574.got.cif
#   From: 2010.05.17/outbox.cif.g08.bks.cpg/sg55_3_cif.got.tgz:5574.got - 2010.06.03 13:27:54.
