data_PCOD9428700
_publ_section_title
;
Structure prediction by ZEFSAII (Michael W. Deem and Ramdas Pophale) SiO2 
 PCOD9428700
Probable space group: P B A M
;
_chemical_formula_sum "Si O2"
_cell_formula_units_Z 56
_cell_length_a 17.204962
_cell_length_b 18.990656
_cell_length_c 8.867836
_cell_angle_alpha 90.000000
_cell_angle_beta 90.000000
_cell_angle_gamma 90.000000
_cell_volume 2897.419225
_symmetry_space_group_name_H-M "P B A M"
_symmetry_group_IT_number 55
_symmetry_cell_setting 'orthorhombic'
loop_
_space_group_symop_operation_xyz
x,y,z
-x,-y,z
1/2+x,1/2-y,-z
1/2-x,1/2+y,-z
-x,-y,-z
x,y,-z
1/2-x,1/2+y,z
1/2+x,1/2-y,z
loop_
_atom_site_type_symbol
_atom_site_label
_atom_site_fract_x
_atom_site_fract_y
_atom_site_fract_z
Si Si1 0.917804 0.201613 0.818780
Si Si2 0.654902 0.848596 0.180010
Si Si3 0.087675 0.204838 0.679945
Si Si4 0.997648 0.415752 0.323949
Si Si5 0.192963 0.923122 0.181720
Si Si6 0.148183 0.343205 0.818878
Si Si7 0.694685 0.422313 0.320044
O O1 0.859826 0.266356 0.784527
O O2 0.877484 0.128491 0.774402
O O3 0.000412 0.213041 0.740763
O O4 0.929405 0.202081 0.000000
O O5 0.577812 0.887778 0.237877
O O6 0.729072 0.883080 0.257756
O O7 0.662213 0.855843 0.000000
O O8 0.088881 0.213729 0.500000
O O9 0.141431 0.264512 0.754731
O O10 0.122042 0.128152 0.717578
O O11 0.994378 0.394491 0.500000
O O12 0.074310 0.384186 0.247843
O O13 0.000000 0.500000 0.316678
O O14 0.273219 0.883917 0.224163
O O15 0.188198 0.000175 0.251491
O O16 0.192632 0.929091 0.000000
O O17 0.143796 0.340809 0.000000
O O18 0.700522 0.427619 0.500000
#
# Coordination Sequence:
#
# PCOD9428700 Si02
#       7
#     8   8   8   8   8   8   8
#     4  10  22  41  65  93 122 158 206 258 310 365
#     4  11  22  39  64  92 121 159 206 253 305 365
#     4  11  24  41  63  91 124 164 207 253 309 369
#     4  11  23  37  57  89 128 165 200 245 303 367
#     4  10  23  42  64  91 123 161 206 256 310 366
#     4  11  22  39  63  91 122 159 206 255 304 365
#     4  11  25  42  61  90 126 164 206 254 311 369
#
# _framework density 19.327546000000002
#
# number of rings (size 3 to 8) (size 9 to 14) (size 15 to 20)
#    0.000    1.286    1.429    3.857    0.000    9.714 
#    0.000    2.857    0.000    0.000    0.000    0.000 
#    0.000    0.000    0.000    0.000    0.000    0.000 
#
# Total GULP energy -313198.205801 kJ/mol
# GULP energy per Si atom -5592.825104 kJ/mol
# Density = 1.928356 g / cm^3
# Si number density = 19.327546 Si / 1000 Ang^3
#
#
#
# Elastic Constant Matrix: (Units=GPa)
#
#
# Indices 1 2 3 4 5 6 
#
# 1 27.2741 26.8839 8.8946 0.0000 0.0000 0.0000
# 2 26.8839 145.8436 42.8539 0.0000 0.0000 0.0000
# 3 8.8946 42.8539 34.2359 0.0000 0.0000 0.0000
# 4 0.0000 0.0000 0.0000 30.1903 0.0000 0.0000
# 5 0.0000 0.0000 0.0000 0.0000 34.5315 0.0000
# 6 0.0000 0.0000 0.0000 0.0000 0.0000 18.9085
#
#
#
# Elastic Compliance Matrix: (Units=1/GPa)
#
#
# Indices 1 2 3 4 5 6 
#
# 1 0.044898 -0.007670 -0.002064 0.000000 0.000000 0.000000
# 2 -0.007670 0.012156 -0.013223 0.000000 0.000000 0.000000
# 3 -0.002064 -0.013223 0.046297 0.000000 0.000000 0.000000
# 4 0.000000 0.000000 0.000000 0.033123 0.000000 0.000000
# 5 0.000000 0.000000 0.000000 0.000000 0.028959 0.000000
# 6 0.000000 0.000000 0.000000 0.000000 0.000000 0.052886
#
#
# Mechanical properties :
#
#
# Convention : Reuss Voigt Hill
#
# Bulk Modulus (GPa) = 17.41049 40.51315 28.96182
# Shear Modulus (GPa) = 17.64420 25.30748 21.47584
#
# Velocity S-wave (km/s) = 3.02471 3.62249 3.33701
# Velocity P-wave (km/s) = 4.60719 6.20511 5.46487
#
# Compressibility (1/GPa) = 0.05743664
#
# Stress axis : x y z
#
# Youngs Moduli (GPa) = 22.27274 82.26497 21.59962
#
# Poissons Ratio (x) = 0.63094 0.04459
# Poissons Ratio (y) = 0.17082 0.28562
# Poissons Ratio (z) = 0.04598 1.08780
#
# Static dielectric constant tensor:
#      x y z
#    x 1.638560 0.000000 0.000000 
#    y 0.000000 1.670530 0.000000 
#    z 0.000000 0.000000 1.646870 
# 
# From -- ./inp_files/6067.got.cif
#   From: 2010.05.17/outbox.cif.g08.bks.cpg/sg55_4_cif.got.tgz:6067.got - 2010.06.03 13:27:54.
