data_PCOD9428132
_publ_section_title
;
Structure prediction by ZEFSAII (Michael W. Deem and Ramdas Pophale) SiO2 
 PCOD9428132
Probable space group: P B A M
;
_chemical_formula_sum "Si O2"
_cell_formula_units_Z 64
_cell_length_a 12.380953
_cell_length_b 28.859783
_cell_length_c 9.219924
_cell_angle_alpha 90.000000
_cell_angle_beta 90.000000
_cell_angle_gamma 90.000000
_cell_volume 3294.385952
_symmetry_space_group_name_H-M "P B A M"
_symmetry_group_IT_number 55
_symmetry_cell_setting 'orthorhombic'
loop_
_space_group_symop_operation_xyz
x,y,z
-x,-y,z
1/2+x,1/2-y,-z
1/2-x,1/2+y,-z
-x,-y,-z
x,y,-z
1/2-x,1/2+y,z
1/2+x,1/2-y,z
loop_
_atom_site_type_symbol
_atom_site_label
_atom_site_fract_x
_atom_site_fract_y
_atom_site_fract_z
Si Si1 0.358045 0.330047 0.338107
Si Si2 0.760333 0.028708 0.325997
Si Si3 0.088057 0.213188 0.668987
Si Si4 0.148840 0.306944 0.829235
Si Si5 0.089368 0.407869 0.173563
Si Si6 0.977265 0.070523 0.332659
Si Si7 0.161617 0.121227 0.169608
Si Si8 0.145020 0.555648 0.829749
O O1 0.310186 0.324250 0.500000
O O2 0.459817 0.296138 0.322175
O O3 0.269801 0.320696 0.217575
O O4 0.409195 0.381278 0.332187
O O5 0.756893 0.030759 0.500000
O O6 0.689550 0.070289 0.258679
O O7 0.887215 0.033356 0.284763
O O8 0.702350 0.983276 0.265307
O O9 0.118467 0.212928 0.500000
O O10 0.116272 0.261445 0.742608
O O11 0.143201 0.169336 0.747620
O O12 0.080233 0.353187 0.795297
O O13 0.141873 0.297936 0.000000
O O14 0.978594 0.434274 0.210214
O O15 0.107387 0.412612 0.000000
O O16 0.010161 0.061330 0.500000
O O17 0.080385 0.082702 0.236281
O O18 0.282390 0.101678 0.183343
O O19 0.136509 0.127365 0.000000
O O20 0.147372 0.541497 0.000000
#
# Coordination Sequence:
#
# PCOD9428132 Si02
#       8
#     8   8   8   8   8   8   8   8
#     4   9  18  36  57  78 110 150 187 234 291 342
#     4  11  22  37  60  89 116 150 198 245 291 349
#     4  10  22  39  59  84 117 154 191 236 296 354
#     4  11  22  35  58  89 114 147 195 242 289 348
#     4  10  22  40  59  82 117 156 194 241 296 347
#     4   9  19  36  58  83 115 150 188 240 293 343
#     4  10  21  38  60  85 115 154 199 244 291 349
#     4  10  23  41  58  82 121 160 192 237 296 351
#
# _framework density 19.42699
#
# number of rings (size 3 to 8) (size 9 to 14) (size 15 to 20)
#    0.000    2.000    1.250    2.625    0.000    8.500 
#    0.000    3.750    0.000    0.000    0.000    0.000 
#    0.000    0.000    0.000    0.000    0.000    0.000 
#
# Total GULP energy -357443.754389 kJ/mol
# GULP energy per Si atom -5585.058662 kJ/mol
# Density = 1.938277 g / cm^3
# Si number density = 19.426990 Si / 1000 Ang^3
#
#
#
# Elastic Constant Matrix: (Units=GPa)
#
#
# Indices 1 2 3 4 5 6 
#
# 1 49.9779 1.2948 18.4944 0.0000 0.0000 0.0000
# 2 1.2948 76.6873 30.8728 0.0000 0.0000 0.0000
# 3 18.4944 30.8728 64.6299 0.0000 0.0000 0.0000
# 4 0.0000 0.0000 0.0000 -26.5963 0.0000 0.0000
# 5 0.0000 0.0000 0.0000 0.0000 27.6472 0.0000
# 6 0.0000 0.0000 0.0000 0.0000 0.0000 25.9270
#
#
#
# Elastic Compliance Matrix: (Units=1/GPa)
#
#
# Indices 1 2 3 4 5 6 
#
# 1 0.022848 0.002781 -0.007867 0.000000 0.000000 0.000000
# 2 0.002781 0.016483 -0.008670 0.000000 0.000000 0.000000
# 3 -0.007867 -0.008670 0.021865 0.000000 0.000000 0.000000
# 4 0.000000 0.000000 0.000000 -0.037599 0.000000 0.000000
# 5 0.000000 0.000000 0.000000 0.000000 0.036170 0.000000
# 6 0.000000 0.000000 0.000000 0.000000 0.000000 0.038570
#
#
# Mechanical properties :
#
#
# Convention : Reuss Voigt Hill
#
# Bulk Modulus (GPa) = 29.68590 32.51324 31.09957
# Shear Modulus (GPa) = 36.47616 14.77112 25.62364
#
# Velocity S-wave (km/s) = 4.33783 2.76042 3.63570
# Velocity P-wave (km/s) = 6.35633 5.18964 5.80238
#
# Compressibility (1/GPa) = 0.03368603
#
# Stress axis : x y z
#
# Youngs Moduli (GPa) = 43.76784 60.66770 45.73481
#
# Poissons Ratio (x) = -0.16873 0.35978
# Poissons Ratio (y) = -0.12173 0.39651
# Poissons Ratio (z) = 0.34430 0.52597
#
# Static dielectric constant tensor:
#      x y z
#    x 1.662380 0.000000 0.000000 
#    y 0.000000 1.700910 0.000000 
#    z 0.000000 0.000000 1.652140 
# 
# From -- ./inp_files/4579.got.cif
#   From: 2010.05.17/outbox.cif.g08.bks.cpg/sg55_3_cif.got.tgz:4579.got - 2010.06.03 13:27:54.
