data_PCOD9428005
_publ_section_title
;
Structure prediction by ZEFSAII (Michael W. Deem and Ramdas Pophale) SiO2 
 PCOD9428005
Probable space group: P B A M
;
_chemical_formula_sum "Si O2"
_cell_formula_units_Z 64
_cell_length_a 15.798336
_cell_length_b 24.091794
_cell_length_c 7.771982
_cell_angle_alpha 90.000000
_cell_angle_beta 90.000000
_cell_angle_gamma 90.000000
_cell_volume 2958.096062
_symmetry_space_group_name_H-M "P B A M"
_symmetry_group_IT_number 55
_symmetry_cell_setting 'orthorhombic'
loop_
_space_group_symop_operation_xyz
x,y,z
-x,-y,z
1/2+x,1/2-y,-z
1/2-x,1/2+y,-z
-x,-y,-z
x,y,-z
1/2-x,1/2+y,z
1/2+x,1/2-y,z
loop_
_atom_site_type_symbol
_atom_site_label
_atom_site_fract_x
_atom_site_fract_y
_atom_site_fract_z
Si Si1 0.931429 0.956126 0.298921
Si Si2 0.996647 0.162033 0.794329
Si Si3 0.903104 0.504687 0.289332
Si Si4 0.318529 0.190535 0.207733
Si Si5 0.799380 0.184800 0.205231
Si Si6 0.994438 0.716437 0.200948
Si Si7 0.747539 0.927616 0.294753
Si Si8 0.362762 0.873429 0.696279
O O1 0.922131 0.971470 0.500000
O O2 0.835963 0.952234 0.224517
O O3 0.967026 0.893513 0.287398
O O4 0.000000 0.000000 0.224475
O O5 0.895944 0.167339 0.765001
O O6 0.029197 0.222366 0.729959
O O7 0.012531 0.156809 0.000000
O O8 0.903271 0.502064 0.500000
O O9 0.836677 0.458522 0.228266
O O10 0.872071 0.565090 0.233156
O O11 0.000000 0.500000 0.232910
O O12 0.285706 0.251317 0.259629
O O13 0.417005 0.191102 0.269309
O O14 0.265212 0.137911 0.266703
O O15 0.317776 0.188483 0.000000
O O16 0.733513 0.145245 0.295225
O O17 0.784816 0.182139 0.000000
O O18 0.920190 0.672592 0.214683
O O19 0.012544 0.727324 0.000000
O O20 0.749951 0.936221 0.500000
O O21 0.393261 0.874797 0.500000
#
# Coordination Sequence:
#
# PCOD9428005 Si02
#       8
#     8   8   8   8   8   8   8   8
#     4  10  23  39  57  81 113 152 190 237 294 341
#     4   9  20  39  61  81 107 149 194 232 280 339
#     4   9  19  36  56  80 112 150 187 227 277 332
#     4   9  19  37  59  82 110 147 188 226 278 340
#     4   9  20  38  57  80 113 149 181 226 286 339
#     4   9  19  37  58  82 115 150 181 227 287 339
#     4  10  21  37  58  83 115 151 189 235 286 337
#     4  11  22  33  56  88 113 144 190 230 273 339
#
# _framework density 21.635538
#
# number of rings (size 3 to 8) (size 9 to 14) (size 15 to 20)
#    0.000    2.500    0.000    2.625    3.500    3.750 
#    0.000    3.750    0.000    3.375    0.000    0.000 
#    0.000    0.000    0.000    0.000    0.000    0.000 
#
# Total GULP energy -357170.576745 kJ/mol
# GULP energy per Si atom -5580.790262 kJ/mol
# Density = 2.158629 g / cm^3
# Si number density = 21.635538 Si / 1000 Ang^3
#
#
#
# Elastic Constant Matrix: (Units=GPa)
#
#
# Indices 1 2 3 4 5 6 
#
# 1 80.6082 52.4263 9.6647 0.0000 0.0000 0.0000
# 2 52.4263 96.7982 -2.3320 0.0000 0.0000 0.0000
# 3 9.6647 -2.3320 22.0811 0.0000 0.0000 0.0000
# 4 0.0000 0.0000 0.0000 20.7469 0.0000 0.0000
# 5 0.0000 0.0000 0.0000 0.0000 48.8554 0.0000
# 6 0.0000 0.0000 0.0000 0.0000 0.0000 32.2479
#
#
#
# Elastic Compliance Matrix: (Units=1/GPa)
#
#
# Indices 1 2 3 4 5 6 
#
# 1 0.021371 -0.011830 -0.010603 0.000000 0.000000 0.000000
# 2 -0.011830 0.016906 0.006963 0.000000 0.000000 0.000000
# 3 -0.010603 0.006963 0.050664 0.000000 0.000000 0.000000
# 4 0.000000 0.000000 0.000000 0.048200 0.000000 0.000000
# 5 0.000000 0.000000 0.000000 0.000000 0.020469 0.000000
# 6 0.000000 0.000000 0.000000 0.000000 0.000000 0.031010
#
#
# Mechanical properties :
#
#
# Convention : Reuss Voigt Hill
#
# Bulk Modulus (GPa) = 17.24118 35.44505 26.34312
# Shear Modulus (GPa) = 20.92988 29.68528 25.30758
#
# Velocity S-wave (km/s) = 3.11365 3.70815 3.42383
# Velocity P-wave (km/s) = 4.57304 5.89510 5.27565
#
# Compressibility (1/GPa) = 0.05800066
#
# Stress axis : x y z
#
# Youngs Moduli (GPa) = 46.79205 59.15134 19.73791
#
# Poissons Ratio (x) = 0.69977 0.20929
# Poissons Ratio (y) = 0.55356 -0.13744
# Poissons Ratio (z) = 0.49615 -0.41189
#
# Static dielectric constant tensor:
#      x y z
#    x 1.768590 0.000000 0.000000 
#    y 0.000000 1.766120 0.000000 
#    z 0.000000 0.000000 1.812600 
# 
# From -- ./inp_files/8035.got.cif
#   From: 2010.05.17/outbox.cif.g08.bks.cpg/sg55_5_cif.got.tgz:8035.got - 2010.06.03 13:27:54.
