data_PCOD9428385
_publ_section_title
;
Structure prediction by ZEFSAII (Michael W. Deem and Ramdas Pophale) SiO2 
 PCOD9428385
Probable space group: P B A M
;
_chemical_formula_sum "Si O2"
_cell_formula_units_Z 48
_cell_length_a 19.057938
_cell_length_b 15.163418
_cell_length_c 8.516377
_cell_angle_alpha 90.000000
_cell_angle_beta 90.000000
_cell_angle_gamma 90.000000
_cell_volume 2461.092263
_symmetry_space_group_name_H-M "P B A M"
_symmetry_group_IT_number 55
_symmetry_cell_setting 'orthorhombic'
loop_
_space_group_symop_operation_xyz
x,y,z
-x,-y,z
1/2+x,1/2-y,-z
1/2-x,1/2+y,-z
-x,-y,-z
x,y,-z
1/2-x,1/2+y,z
1/2+x,1/2-y,z
loop_
_atom_site_type_symbol
_atom_site_label
_atom_site_fract_x
_atom_site_fract_y
_atom_site_fract_z
Si Si1 0.786931 0.997542 0.186883
Si Si2 0.909026 0.745748 0.811928
Si Si3 0.676611 0.845026 0.189953
Si Si4 0.021103 0.597748 0.808630
Si Si5 0.759602 0.683685 0.685545
Si Si6 0.064801 0.060984 0.312750
O O1 0.753200 0.090969 0.229628
O O2 0.733613 0.919442 0.232923
O O3 0.861380 0.984171 0.269884
O O4 0.797634 0.991675 0.000000
O O5 0.833918 0.724958 0.736384
O O6 0.934867 0.842646 0.764790
O O7 0.964575 0.671162 0.761705
O O8 0.901009 0.741837 0.000000
O O9 0.599314 0.875362 0.239981
O O10 0.700278 0.753123 0.263320
O O11 0.677171 0.836813 0.000000
O O12 0.000000 0.500000 0.754632
O O13 0.021199 0.595904 0.000000
O O14 0.758141 0.670233 0.500000
O O15 0.060031 0.071869 0.500000
O O16 0.000000 0.000000 0.260180
#
# Coordination Sequence:
#
# PCOD9428385 Si02
#       6
#     8   8   8   8   8   8
#     4  11  23  41  68  94 123 163 215 265 312 379
#     4  11  22  40  66  95 125 167 216 260 312 378
#     4  10  21  40  65  95 124 158 206 261 314 376
#     4   9  19  37  63  94 125 156 199 258 315 366
#     4  12  25  40  62  91 128 168 207 260 323 379
#     4  11  25  43  62  90 131 171 209 261 327 387
#
# _framework density 19.503536
#
# number of rings (size 3 to 8) (size 9 to 14) (size 15 to 20)
#    0.000    1.333    1.667    4.000    2.333    4.667 
#    0.000    0.833    0.000    3.500    0.000    0.000 
#    0.000    0.000    0.000    0.000    0.000    0.000 
#
# Total GULP energy -268451.643963 kJ/mol
# GULP energy per Si atom -5592.742583 kJ/mol
# Density = 1.945915 g / cm^3
# Si number density = 19.503536 Si / 1000 Ang^3
#
#
#
# Elastic Constant Matrix: (Units=GPa)
#
#
# Indices 1 2 3 4 5 6 
#
# 1 88.7480 3.9696 -1.1752 0.0000 0.0000 0.0000
# 2 3.9696 82.7731 -9.9192 0.0000 0.0000 0.0000
# 3 -1.1752 -9.9192 12.7106 0.0000 0.0000 0.0000
# 4 0.0000 0.0000 0.0000 137.9496 0.0000 0.0000
# 5 0.0000 0.0000 0.0000 0.0000 8.4680 0.0000
# 6 0.0000 0.0000 0.0000 0.0000 0.0000 40.3164
#
#
#
# Elastic Compliance Matrix: (Units=1/GPa)
#
#
# Indices 1 2 3 4 5 6 
#
# 1 0.011298 -0.000460 0.000686 0.000000 0.000000 0.000000
# 2 -0.000460 0.013346 0.010373 0.000000 0.000000 0.000000
# 3 0.000686 0.010373 0.086833 0.000000 0.000000 0.000000
# 4 0.000000 0.000000 0.000000 0.007249 0.000000 0.000000
# 5 0.000000 0.000000 0.000000 0.000000 0.118092 0.000000
# 6 0.000000 0.000000 0.000000 0.000000 0.000000 0.024804
#
#
# Mechanical properties :
#
#
# Convention : Reuss Voigt Hill
#
# Bulk Modulus (GPa) = 7.53724 18.88690 13.21207
# Shear Modulus (GPa) = 17.56556 50.10390 33.83473
#
# Velocity S-wave (km/s) = 3.00431 5.07399 4.16961
# Velocity P-wave (km/s) = 3.98842 6.63567 5.47447
#
# Compressibility (1/GPa) = 0.13267452
#
# Stress axis : x y z
#
# Youngs Moduli (GPa) = 88.51512 74.92715 11.51641
#
# Poissons Ratio (x) = 0.03444 -0.00790
# Poissons Ratio (y) = 0.04068 -0.11946
# Poissons Ratio (z) = -0.06071 -0.77720
#
# Static dielectric constant tensor:
#      x y z
#    x 1.657340 0.000000 0.000000 
#    y 0.000000 1.638800 0.000000 
#    z 0.000000 0.000000 1.666220 
# 
# From -- ./inp_files/7434.got.cif
#   From: 2010.05.17/outbox.cif.g08.bks.cpg/sg55_4_cif.got.tgz:7434.got - 2010.06.03 13:27:54.
