data_PCOD9428856
_publ_section_title
;
Structure prediction by ZEFSAII (Michael W. Deem and Ramdas Pophale) SiO2 
 PCOD9428856
Probable space group: P B A M
;
_chemical_formula_sum "Si O2"
_cell_formula_units_Z 34
_cell_length_a 8.800198
_cell_length_b 9.585873
_cell_length_c 19.324319
_cell_angle_alpha 90.000000
_cell_angle_beta 90.000000
_cell_angle_gamma 90.000000
_cell_volume 1630.152794
_symmetry_space_group_name_H-M "P B A M"
_symmetry_group_IT_number 55
_symmetry_cell_setting 'orthorhombic'
loop_
_space_group_symop_operation_xyz
x,y,z
-x,-y,z
1/2+x,1/2-y,-z
1/2-x,1/2+y,-z
-x,-y,-z
x,y,-z
1/2-x,1/2+y,z
1/2+x,1/2-y,z
loop_
_atom_site_type_symbol
_atom_site_label
_atom_site_fract_x
_atom_site_fract_y
_atom_site_fract_z
Si Si1 0.000000 0.000000 0.500000
Si Si2 0.105076 0.211546 0.308885
Si Si3 0.915993 0.642253 0.163493
Si Si4 0.608352 0.634423 0.919154
Si Si5 0.804752 0.070201 0.635969
O O1 0.874154 0.037250 0.561174
O O2 0.118425 0.268436 0.231890
O O3 0.156308 0.334775 0.360517
O O4 0.935414 0.158681 0.324421
O O5 0.208704 0.076145 0.324084
O O6 0.761380 0.609613 0.123291
O O7 0.000000 0.500000 0.183095
O O8 0.022339 0.734090 0.113682
O O9 0.500000 0.500000 0.913318
O O10 0.641957 0.658524 0.000000
#
# Coordination Sequence:
#
# PCOD9428856 Si02
#       5
#     2   8   8   8   8
#     4   8  20  44  64  98 132 190 206 276 326 396
#     4  10  24  40  64 102 131 176 221 286 327 401
#     4  12  26  42  70  96 134 181 231 283 356 408
#     4  11  26  45  67  98 135 176 226 287 345 421
#     4  10  23  42  69  97 144 169 230 272 337 400
#
# _framework density 20.856940000000002
#
# number of rings (size 3 to 8) (size 9 to 14) (size 15 to 20)
#    0.000    1.647    0.000    3.529   13.176    7.529 
#    0.000    0.000    0.000   11.294    0.000    0.000 
#    0.000    0.000    0.000    0.000    0.000    0.000 
#
# Total GULP energy -189676.281880 kJ/mol
# GULP energy per Si atom -5578.714173 kJ/mol
# Density = 2.080947 g / cm^3
# Si number density = 20.856940 Si / 1000 Ang^3
#
#
#
# Elastic Constant Matrix: (Units=GPa)
#
#
# Indices 1 2 3 4 5 6 
#
# 1 61.4447 32.6709 47.3687 0.0000 0.0000 0.0000
# 2 32.6709 130.7161 69.5358 0.0000 0.0000 0.0000
# 3 47.3687 69.5358 177.3629 0.0000 0.0000 0.0000
# 4 0.0000 0.0000 0.0000 28.2643 0.0000 0.0000
# 5 0.0000 0.0000 0.0000 0.0000 14.6803 0.0000
# 6 0.0000 0.0000 0.0000 0.0000 0.0000 46.5215
#
#
#
# Elastic Compliance Matrix: (Units=1/GPa)
#
#
# Indices 1 2 3 4 5 6 
#
# 1 0.021335 -0.002908 -0.004558 0.000000 0.000000 0.000000
# 2 -0.002908 0.010062 -0.003168 0.000000 0.000000 0.000000
# 3 -0.004558 -0.003168 0.008098 0.000000 0.000000 0.000000
# 4 0.000000 0.000000 0.000000 0.035380 0.000000 0.000000
# 5 0.000000 0.000000 0.000000 0.000000 0.068119 0.000000
# 6 0.000000 0.000000 0.000000 0.000000 0.000000 0.021495
#
#
# Mechanical properties :
#
#
# Convention : Reuss Voigt Hill
#
# Bulk Modulus (GPa) = 54.86492 74.29714 64.58103
# Shear Modulus (GPa) = 26.06440 32.55645 29.31042
#
# Velocity S-wave (km/s) = 3.53891 3.95516 3.75281
# Velocity P-wave (km/s) = 6.56209 7.52046 7.05756
#
# Compressibility (1/GPa) = 0.01822658
#
# Stress axis : x y z
#
# Youngs Moduli (GPa) = 46.87215 99.37991 123.49269
#
# Poissons Ratio (x) = 0.28897 0.56287
# Poissons Ratio (y) = 0.13629 0.39128
# Poissons Ratio (z) = 0.21364 0.31488
#
# Static dielectric constant tensor:
#      x y z
#    x 1.750090 0.000000 0.000000 
#    y 0.000000 1.780250 0.000000 
#    z 0.000000 0.000000 1.705910 
# 
# From -- ./inp_files/22489.got.cif
#   From: 2010.05.17/outbox.cif.g08.bks.cpg/sg55_12_cif.got.tgz:22489.got - 2010.06.03 13:27:54.
