data_PCOD9428844
_publ_section_title
;
Structure prediction by ZEFSAII (Michael W. Deem and Ramdas Pophale) SiO2 
 PCOD9428844
Probable space group: P B A M
;
_chemical_formula_sum "Si O2"
_cell_formula_units_Z 56
_cell_length_a 21.689066
_cell_length_b 13.970277
_cell_length_c 8.684316
_cell_angle_alpha 90.000000
_cell_angle_beta 90.000000
_cell_angle_gamma 90.000000
_cell_volume 2631.367374
_symmetry_space_group_name_H-M "P B A M"
_symmetry_group_IT_number 55
_symmetry_cell_setting 'orthorhombic'
loop_
_space_group_symop_operation_xyz
x,y,z
-x,-y,z
1/2+x,1/2-y,-z
1/2-x,1/2+y,-z
-x,-y,-z
x,y,-z
1/2-x,1/2+y,z
1/2+x,1/2-y,z
loop_
_atom_site_type_symbol
_atom_site_label
_atom_site_fract_x
_atom_site_fract_y
_atom_site_fract_z
Si Si1 0.562132 0.560238 0.816673
Si Si2 0.215921 0.642933 0.823213
Si Si3 0.479527 0.228841 0.185416
Si Si4 0.109055 0.348314 0.817741
Si Si5 0.684833 0.476046 0.676652
Si Si6 0.257195 0.825719 0.676650
Si Si7 0.597370 0.946443 0.319463
O O1 0.500000 0.500000 0.793097
O O2 0.549856 0.669951 0.767841
O O3 0.618194 0.510379 0.730127
O O4 0.575384 0.560773 0.000000
O O5 0.283501 0.602517 0.784221
O O6 0.218606 0.754499 0.783747
O O7 0.166426 0.589885 0.717048
O O8 0.199534 0.625730 0.000000
O O9 0.552506 0.222347 0.218927
O O10 0.446281 0.139394 0.264273
O O11 0.472792 0.219491 0.000000
O O12 0.171842 0.327974 0.727582
O O13 0.087545 0.455448 0.772993
O O14 0.121688 0.343853 0.000000
O O15 0.683803 0.442809 0.500000
O O16 0.728766 0.569020 0.687011
O O17 0.251859 0.792895 0.500000
O O18 0.589603 0.965072 0.500000
#
# Coordination Sequence:
#
# PCOD9428844 Si02
#       7
#     8   8   8   8   8   8   8
#     4  10  23  43  67  94 128 170 217 268 320 381
#     4  12  25  41  67  95 127 170 217 266 322 388
#     4  10  23  42  64  93 129 171 220 268 319 388
#     4  11  23  40  65  96 130 171 218 266 321 387
#     4  11  24  43  66  96 131 168 211 265 325 386
#     4  11  24  42  65  96 135 171 212 269 329 387
#     4  12  24  41  64  95 131 169 215 270 331 388
#
# _framework density 21.281711000000001
#
# number of rings (size 3 to 8) (size 9 to 14) (size 15 to 20)
#    0.000    1.000    1.429    5.143    2.000    7.714 
#    0.000    0.000    0.000    0.000    0.000    0.000 
#    0.000    0.000    0.000    0.000    0.000    0.000 
#
# Total GULP energy -313500.515120 kJ/mol
# GULP energy per Si atom -5598.223484 kJ/mol
# Density = 2.123327 g / cm^3
# Si number density = 21.281711 Si / 1000 Ang^3
#
#
#
# Elastic Constant Matrix: (Units=GPa)
#
#
# Indices 1 2 3 4 5 6 
#
# 1 61.2655 -14.9702 10.8873 0.0000 0.0000 0.0000
# 2 -14.9702 34.9674 -5.9134 0.0000 0.0000 0.0000
# 3 10.8873 -5.9134 43.8360 0.0000 0.0000 0.0000
# 4 0.0000 0.0000 0.0000 2.1941 0.0000 0.0000
# 5 0.0000 0.0000 0.0000 0.0000 41.8753 0.0000
# 6 0.0000 0.0000 0.0000 0.0000 0.0000 26.5277
#
#
#
# Elastic Compliance Matrix: (Units=1/GPa)
#
#
# Indices 1 2 3 4 5 6 
#
# 1 0.018788 0.007424 -0.003665 0.000000 0.000000 0.000000
# 2 0.007424 0.032199 0.002500 0.000000 0.000000 0.000000
# 3 -0.003665 0.002500 0.024060 0.000000 0.000000 0.000000
# 4 0.000000 0.000000 0.000000 0.455777 0.000000 0.000000
# 5 0.000000 0.000000 0.000000 0.000000 0.023880 0.000000
# 6 0.000000 0.000000 0.000000 0.000000 0.000000 0.037696
#
#
# Mechanical properties :
#
#
# Convention : Reuss Voigt Hill
#
# Bulk Modulus (GPa) = 11.42027 13.34182 12.38104
# Shear Modulus (GPa) = 8.20923 24.12377 16.16650
#
# Velocity S-wave (km/s) = 1.96616 3.37047 2.75915
# Velocity P-wave (km/s) = 3.24535 4.62920 3.99761
#
# Compressibility (1/GPa) = 0.08756361
#
# Stress axis : x y z
#
# Youngs Moduli (GPa) = 53.22661 31.05690 41.56321
#
# Poissons Ratio (x) = -0.23055 0.15232
# Poissons Ratio (y) = -0.39513 -0.10390
# Poissons Ratio (z) = 0.19506 -0.07764
#
# Static dielectric constant tensor:
#      x y z
#    x 1.763060 0.000000 0.000000 
#    y 0.000000 1.759470 0.000000 
#    z 0.000000 0.000000 1.718430 
# 
# From -- ./inp_files/8703.got.cif
#   From: 2010.05.17/outbox.cif.g08.bks.cpg/sg55_5_cif.got.tgz:8703.got - 2010.06.03 13:27:54.
