data_PCOD9428974
_publ_section_title
;
Structure prediction by ZEFSAII (Michael W. Deem and Ramdas Pophale) SiO2 
 PCOD9428974
Probable space group: P B A M
;
_chemical_formula_sum "Si O2"
_cell_formula_units_Z 48
_cell_length_a 7.982365
_cell_length_b 20.316935
_cell_length_c 13.913395
_cell_angle_alpha 90.000000
_cell_angle_beta 90.000000
_cell_angle_gamma 90.000000
_cell_volume 2256.435316
_symmetry_space_group_name_H-M "P B A M"
_symmetry_group_IT_number 55
_symmetry_cell_setting 'orthorhombic'
loop_
_space_group_symop_operation_xyz
x,y,z
-x,-y,z
1/2+x,1/2-y,-z
1/2-x,1/2+y,-z
-x,-y,-z
x,y,-z
1/2-x,1/2+y,z
1/2+x,1/2-y,z
loop_
_atom_site_type_symbol
_atom_site_label
_atom_site_fract_x
_atom_site_fract_y
_atom_site_fract_z
Si Si1 0.810657 0.778753 0.614086
Si Si2 0.169600 0.562622 0.780123
Si Si3 0.254637 0.468383 0.607000
Si Si4 0.537003 0.150057 0.669008
Si Si5 0.986720 0.118353 0.272417
Si Si6 0.168958 0.953917 0.891098
O O1 0.835090 0.768721 0.500000
O O2 0.635531 0.817609 0.629182
O O3 0.828742 0.708863 0.668103
O O4 0.961403 0.820861 0.660987
O O5 0.187591 0.523485 0.679118
O O6 0.018798 0.613421 0.767366
O O7 0.338991 0.604562 0.782123
O O8 0.187383 0.505166 0.857914
O O9 0.276947 0.493524 0.500000
O O10 0.421795 0.436489 0.652383
O O11 0.123115 0.407845 0.608302
O O12 0.855588 0.105074 0.185584
O O13 0.190515 0.931739 0.000000
O O14 0.000000 0.000000 0.886024
#
# Coordination Sequence:
#
# PCOD9428974 Si02
#       6
#     8   8   8   8   8   8
#     4  11  21  34  50  70 103 145 186 222 257 310
#     4   9  20  34  51  80 110 135 172 220 269 320
#     4  11  20  31  49  73 105 141 173 212 262 313
#     4  11  23  36  50  71 103 142 186 224 261 311
#     4   9  19  33  51  79 107 136 175 215 260 319
#     4   8  14  30  57  84 108 134 166 209 265 322
#
# _framework density 21.272492
#
# number of rings (size 3 to 8) (size 9 to 14) (size 15 to 20)
#    0.000    2.167    0.000    5.000    0.000    6.000 
#    0.000    0.000    0.000    9.000    0.000   11.667 
#    0.000    0.000    0.000    0.000    0.000    0.000 
#
# Total GULP energy -267458.813628 kJ/mol
# GULP energy per Si atom -5572.058617 kJ/mol
# Density = 2.122407 g / cm^3
# Si number density = 21.272492 Si / 1000 Ang^3
#
#
#
# Elastic Constant Matrix: (Units=GPa)
#
#
# Indices 1 2 3 4 5 6 
#
# 1 108.7073 11.9110 2.2948 0.0000 0.0000 0.0000
# 2 11.9110 56.8397 0.7198 0.0000 0.0000 0.0000
# 3 2.2948 0.7198 75.2621 0.0000 0.0000 0.0000
# 4 0.0000 0.0000 0.0000 14.4131 0.0000 0.0000
# 5 0.0000 0.0000 0.0000 0.0000 7.7142 0.0000
# 6 0.0000 0.0000 0.0000 0.0000 0.0000 35.4249
#
#
#
# Elastic Compliance Matrix: (Units=1/GPa)
#
#
# Indices 1 2 3 4 5 6 
#
# 1 0.009421 -0.001971 -0.000268 0.000000 0.000000 0.000000
# 2 -0.001971 0.018008 -0.000112 0.000000 0.000000 0.000000
# 3 -0.000268 -0.000112 0.013296 0.000000 0.000000 0.000000
# 4 0.000000 0.000000 0.000000 0.069381 0.000000 0.000000
# 5 0.000000 0.000000 0.000000 0.000000 0.129631 0.000000
# 6 0.000000 0.000000 0.000000 0.000000 0.000000 0.028229
#
#
# Mechanical properties :
#
#
# Convention : Reuss Voigt Hill
#
# Bulk Modulus (GPa) = 27.76084 30.07338 28.91711
# Shear Modulus (GPa) = 17.56388 26.56935 22.06662
#
# Velocity S-wave (km/s) = 2.87655 3.53795 3.22426
# Velocity P-wave (km/s) = 4.91031 5.55494 5.24255
#
# Compressibility (1/GPa) = 0.03602196
#
# Stress axis : x y z
#
# Youngs Moduli (GPa) = 106.15019 55.53174 75.20972
#
# Poissons Ratio (x) = 0.10944 0.02019
# Poissons Ratio (y) = 0.20919 0.00843
# Poissons Ratio (z) = 0.02849 0.00623
#
# Static dielectric constant tensor:
#      x y z
#    x 1.923590 0.000000 0.000000 
#    y 0.000000 1.816640 0.000000 
#    z 0.000000 0.000000 1.725590 
# 
# From -- ./inp_files/17503.got.cif
#   From: 2010.05.17/outbox.cif.g08.bks.cpg/sg55_9_cif.got.tgz:17503.got - 2010.06.03 13:27:54.
