data_PCOD9428248
_publ_section_title
;
Structure prediction by ZEFSAII (Michael W. Deem and Ramdas Pophale) SiO2 
 PCOD9428248
Probable space group: P B A M
;
_chemical_formula_sum "Si O2"
_cell_formula_units_Z 56
_cell_length_a 14.072825
_cell_length_b 14.788530
_cell_length_c 13.670008
_cell_angle_alpha 90.000000
_cell_angle_beta 90.000000
_cell_angle_gamma 90.000000
_cell_volume 2844.952780
_symmetry_space_group_name_H-M "P B A M"
_symmetry_group_IT_number 55
_symmetry_cell_setting 'orthorhombic'
loop_
_space_group_symop_operation_xyz
x,y,z
-x,-y,z
1/2+x,1/2-y,-z
1/2-x,1/2+y,-z
-x,-y,-z
x,y,-z
1/2-x,1/2+y,z
1/2+x,1/2-y,z
loop_
_atom_site_type_symbol
_atom_site_label
_atom_site_fract_x
_atom_site_fract_y
_atom_site_fract_z
Si Si1 0.647691 0.014283 0.293652
Si Si2 0.395628 0.309022 0.195778
Si Si3 0.213747 0.852255 0.390560
Si Si4 0.114358 0.209558 0.389946
Si Si5 0.471952 0.150086 0.298533
Si Si6 0.932227 0.923695 0.223190
Si Si7 0.778326 0.038824 0.112546
O O1 0.725164 0.058716 0.365105
O O2 0.560345 0.083696 0.278701
O O3 0.696126 0.011429 0.187584
O O4 0.608370 0.919604 0.334715
O O5 0.361833 0.337914 0.305149
O O6 0.422127 0.204119 0.209060
O O7 0.495021 0.356280 0.170005
O O8 0.314461 0.357307 0.131311
O O9 0.174697 0.855028 0.500000
O O10 0.291490 0.771630 0.384091
O O11 0.106024 0.174319 0.500000
O O12 0.118747 0.133173 0.307284
O O13 0.023374 0.274455 0.366042
O O14 0.864468 0.974720 0.148177
O O15 0.000000 0.000000 0.269786
O O16 0.755007 0.026392 0.000000
#
# Coordination Sequence:
#
# PCOD9428248 Si02
#       7
#     8   8   8   8   8   8   8
#     4   9  19  36  59  84 114 148 182 234 281 335
#     4   9  19  34  56  79 111 147 184 231 275 330
#     4   9  18  33  53  81 116 151 188 227 268 323
#     4   9  18  32  53  83 117 153 190 225 269 332
#     4   9  18  35  58  81 113 152 184 222 284 333
#     4   9  19  34  54  78 107 147 184 234 281 329
#     4  10  21  39  60  81 107 144 188 236 290 340
#
# _framework density 19.683983000000001
#
# number of rings (size 3 to 8) (size 9 to 14) (size 15 to 20)
#    0.000    2.857    0.000    0.000    2.000    5.714 
#    0.000   11.429    0.000    0.857    0.000    0.000 
#    0.000    0.000    0.000    0.000    0.000    0.000 
#
# Total GULP energy -311783.315764 kJ/mol
# GULP energy per Si atom -5567.559210 kJ/mol
# Density = 1.963918 g / cm^3
# Si number density = 19.683983 Si / 1000 Ang^3
#
#
#
# Elastic Constant Matrix: (Units=GPa)
#
#
# Indices 1 2 3 4 5 6 
#
# 1 33.4404 -14.6297 -13.7508 0.0000 0.0000 0.0000
# 2 -14.6297 46.4744 -22.1771 0.0000 0.0000 0.0000
# 3 -13.7508 -22.1771 64.7235 0.0000 0.0000 0.0000
# 4 0.0000 0.0000 0.0000 14.3710 0.0000 0.0000
# 5 0.0000 0.0000 0.0000 0.0000 6.5408 0.0000
# 6 0.0000 0.0000 0.0000 0.0000 0.0000 16.1495
#
#
#
# Elastic Compliance Matrix: (Units=1/GPa)
#
#
# Indices 1 2 3 4 5 6 
#
# 1 0.047855 0.023809 0.018325 0.000000 0.000000 0.000000
# 2 0.023809 0.037568 0.017931 0.000000 0.000000 0.000000
# 3 0.018325 0.017931 0.025487 0.000000 0.000000 0.000000
# 4 0.000000 0.000000 0.000000 0.069584 0.000000 0.000000
# 5 0.000000 0.000000 0.000000 0.000000 0.152887 0.000000
# 6 0.000000 0.000000 0.000000 0.000000 0.000000 0.061921
#
#
# Mechanical properties :
#
#
# Convention : Reuss Voigt Hill
#
# Bulk Modulus (GPa) = 4.32824 4.83590 4.58207
# Shear Modulus (GPa) = 14.19696 20.42532 17.31114
#
# Velocity S-wave (km/s) = 2.68851 3.22477 2.96878
# Velocity P-wave (km/s) = 3.44109 4.04075 3.75291
#
# Compressibility (1/GPa) = 0.23104097
#
# Stress axis : x y z
#
# Youngs Moduli (GPa) = 20.89632 26.61807 39.23493
#
# Poissons Ratio (x) = -0.63375 -0.71898
# Poissons Ratio (y) = -0.49752 -0.70352
# Poissons Ratio (z) = -0.38293 -0.47729
#
# Static dielectric constant tensor:
#      x y z
#    x 1.719720 0.000000 0.000000 
#    y 0.000000 1.757020 0.000000 
#    z 0.000000 0.000000 1.646240 
# 
# From -- ./inp_files/19024.got.cif
#   From: 2010.05.17/outbox.cif.g08.bks.cpg/sg55_10_cif.got.tgz:19024.got - 2010.06.03 13:27:54.
