data_PCOD9428894
_publ_section_title
;
Structure prediction by ZEFSAII (Michael W. Deem and Ramdas Pophale) SiO2 
 PCOD9428894
Probable space group: P B A M
;
_chemical_formula_sum "Si O2"
_cell_formula_units_Z 40
_cell_length_a 11.592632
_cell_length_b 4.781476
_cell_length_c 26.598798
_cell_angle_alpha 90.000000
_cell_angle_beta 90.000000
_cell_angle_gamma 90.000000
_cell_volume 1474.368492
_symmetry_space_group_name_H-M "P B A M"
_symmetry_group_IT_number 55
_symmetry_cell_setting 'orthorhombic'
loop_
_space_group_symop_operation_xyz
x,y,z
-x,-y,z
1/2+x,1/2-y,-z
1/2-x,1/2+y,-z
-x,-y,-z
x,y,-z
1/2-x,1/2+y,z
1/2+x,1/2-y,z
loop_
_atom_site_type_symbol
_atom_site_label
_atom_site_fract_x
_atom_site_fract_y
_atom_site_fract_z
Si Si1 0.831889 0.228655 0.500000
Si Si2 0.587088 0.251875 0.000000
Si Si3 0.166934 0.427834 0.641387
Si Si4 0.500000 0.500000 0.813815
Si Si5 0.321451 0.635745 0.890761
Si Si6 0.667786 0.932183 0.241314
Si Si7 0.000000 0.000000 0.414920
O O1 0.785364 0.544091 0.500000
O O2 0.910840 0.151934 0.452716
O O3 0.500000 0.500000 0.000000
O O4 0.654978 0.280373 0.051716
O O5 0.500000 0.000000 0.000000
O O6 0.276777 0.227746 0.629048
O O7 0.143020 0.495751 0.700147
O O8 0.063078 0.243855 0.617619
O O9 0.425754 0.686224 0.853578
O O10 0.434163 0.265397 0.780193
O O11 0.292871 0.313011 0.881130
O O12 0.780016 0.737628 0.228263
#
# Coordination Sequence:
#
# PCOD9428894 Si02
#       7
#     4   4   8   4   8   8   4
#     4  11  26  45  72 118 174 209 256 330 396 477
#     4  12  24  48  76 111 157 202 258 316 396 481
#     4  10  23  46  74 108 153 201 267 332 389 465
#     4  12  26  47  81 112 157 210 272 319 408 490
#     4  12  27  46  75 114 156 205 255 325 393 473
#     4  10  24  49  74 106 150 201 262 337 397 460
#     4  11  24  44  81 118 155 219 270 320 406 472
#
# _framework density 27.13026
#
# number of rings (size 3 to 8) (size 9 to 14) (size 15 to 20)
#    0.000    1.000    1.000    4.200    0.000    6.400 
#    0.000   19.000    0.000   12.000    0.000    0.000 
#    0.000    0.000    0.000    0.000    0.000    0.000 
#
# Total GULP energy -223562.172125 kJ/mol
# GULP energy per Si atom -5589.054303 kJ/mol
# Density = 2.706851 g / cm^3
# Si number density = 27.130260 Si / 1000 Ang^3
#
#
#
# Elastic Constant Matrix: (Units=GPa)
#
#
# Indices 1 2 3 4 5 6 
#
# 1 112.6467 36.7758 95.2392 0.0000 0.0000 0.0000
# 2 36.7758 179.4525 52.7426 0.0000 0.0000 0.0000
# 3 95.2392 52.7426 228.0496 0.0000 0.0000 0.0000
# 4 0.0000 0.0000 0.0000 22.4009 0.0000 0.0000
# 5 0.0000 0.0000 0.0000 0.0000 14.0929 0.0000
# 6 0.0000 0.0000 0.0000 0.0000 0.0000 37.7048
#
#
#
# Elastic Compliance Matrix: (Units=1/GPa)
#
#
# Indices 1 2 3 4 5 6 
#
# 1 0.013972 -0.001232 -0.005550 0.000000 0.000000 0.000000
# 2 -0.001232 0.006088 -0.000893 0.000000 0.000000 0.000000
# 3 -0.005550 -0.000893 0.006909 0.000000 0.000000 0.000000
# 4 0.000000 0.000000 0.000000 0.044641 0.000000 0.000000
# 5 0.000000 0.000000 0.000000 0.000000 0.070958 0.000000
# 6 0.000000 0.000000 0.000000 0.000000 0.000000 0.026522
#
#
# Mechanical properties :
#
#
# Convention : Reuss Voigt Hill
#
# Bulk Modulus (GPa) = 86.07388 98.85154 92.46271
# Shear Modulus (GPa) = 26.55147 37.19914 31.87531
#
# Velocity S-wave (km/s) = 3.13176 3.70690 3.43140
# Velocity P-wave (km/s) = 6.69867 7.40516 7.06076
#
# Compressibility (1/GPa) = 0.01161793
#
# Stress axis : x y z
#
# Youngs Moduli (GPa) = 71.57186 164.26923 144.72877
#
# Poissons Ratio (x) = 0.20240 0.80326
# Poissons Ratio (y) = 0.08818 0.12929
# Poissons Ratio (z) = 0.39723 0.14675
#
# Static dielectric constant tensor:
#      x y z
#    x 2.239770 0.000000 0.000000 
#    y 0.000000 2.040370 0.000000 
#    z 0.000000 0.000000 2.186240 
# 
# From -- ./inp_files/23929.got.cif
#   From: 2010.05.17/outbox.cif.g08.bks.cpg/sg55_12_cif.got.tgz:23929.got - 2010.06.03 13:27:54.
