data_PCOD9428652
_publ_section_title
;
Structure prediction by ZEFSAII (Michael W. Deem and Ramdas Pophale) SiO2 
 PCOD9428652
Probable space group: P B A M
;
_chemical_formula_sum "Si O2"
_cell_formula_units_Z 52
_cell_length_a 12.720918
_cell_length_b 24.526274
_cell_length_c 8.318342
_cell_angle_alpha 90.000000
_cell_angle_beta 90.000000
_cell_angle_gamma 90.000000
_cell_volume 2595.295423
_symmetry_space_group_name_H-M "P B A M"
_symmetry_group_IT_number 55
_symmetry_cell_setting 'orthorhombic'
loop_
_space_group_symop_operation_xyz
x,y,z
-x,-y,z
1/2+x,1/2-y,-z
1/2-x,1/2+y,-z
-x,-y,-z
x,y,-z
1/2-x,1/2+y,z
1/2+x,1/2-y,z
loop_
_atom_site_type_symbol
_atom_site_label
_atom_site_fract_x
_atom_site_fract_y
_atom_site_fract_z
Si Si1 0.215650 0.584128 0.325901
Si Si2 0.058867 0.856206 0.000000
Si Si3 0.206208 0.958736 0.000000
Si Si4 0.344967 0.303297 0.689346
Si Si5 0.608958 0.152148 0.318399
Si Si6 0.391389 0.974814 0.247762
Si Si7 0.351219 0.574098 0.000000
Si Si8 0.600267 0.813276 0.189294
O O1 0.269092 0.592483 0.500000
O O2 0.149895 0.528192 0.339545
O O3 0.139677 0.634009 0.285232
O O4 0.287417 0.581906 0.166354
O O5 0.078893 0.824977 0.831870
O O6 0.144991 0.903526 0.000000
O O7 0.946897 0.884908 0.000000
O O8 0.288669 0.963534 0.142711
O O9 0.126886 0.009405 0.000000
O O10 0.372805 0.313419 0.500000
O O11 0.229707 0.330565 0.715443
O O12 0.348372 0.238876 0.725285
O O13 0.586667 0.170570 0.500000
O O14 0.590800 0.086360 0.313424
O O15 0.526163 0.182696 0.204771
O O16 0.500000 0.000000 0.177022
O O17 0.628732 0.814923 0.000000
#
# Coordination Sequence:
#
# PCOD9428652 Si02
#       8
#     8   4   4   8   8   8   4   8
#     4  11  23  42  65  97 141 177 218 277 334 398
#     4  12  23  46  71  93 128 178 227 285 329 388
#     4  10  22  40  63  97 142 173 218 272 333 393
#     4  11  26  47  69  97 131 174 227 278 334 398
#     4  11  24  41  67 102 137 173 219 274 332 397
#     4  11  21  35  67 104 138 175 215 266 336 406
#     4  10  25  42  64  98 130 176 231 268 332 399
#     4  12  25  42  68  97 135 178 223 270 333 405
#
# _framework density 20.036254
#
# number of rings (size 3 to 8) (size 9 to 14) (size 15 to 20)
#    0.000    0.923    4.615    2.308    2.154    2.462 
#    0.000    0.000    0.000    2.769    0.000    0.000 
#    0.000    0.000    0.000    0.000    0.000    0.000 
#
# Total GULP energy -289490.449671 kJ/mol
# GULP energy per Si atom -5567.124032 kJ/mol
# Density = 1.999065 g / cm^3
# Si number density = 20.036254 Si / 1000 Ang^3
#
#
#
# Elastic Constant Matrix: (Units=GPa)
#
#
# Indices 1 2 3 4 5 6 
#
# 1 65.5405 36.9338 36.6727 0.0000 0.0000 0.0000
# 2 36.9338 119.1805 41.0780 0.0000 0.0000 0.0000
# 3 36.6727 41.0780 140.7187 0.0000 0.0000 0.0000
# 4 0.0000 0.0000 0.0000 98.5692 0.0000 0.0000
# 5 0.0000 0.0000 0.0000 0.0000 43.8586 0.0000
# 6 0.0000 0.0000 0.0000 0.0000 0.0000 33.8447
#
#
#
# Elastic Compliance Matrix: (Units=1/GPa)
#
#
# Indices 1 2 3 4 5 6 
#
# 1 0.020175 -0.004937 -0.003817 0.000000 0.000000 0.000000
# 2 -0.004937 0.010537 -0.001789 0.000000 0.000000 0.000000
# 3 -0.003817 -0.001789 0.008623 0.000000 0.000000 0.000000
# 4 0.000000 0.000000 0.000000 0.010145 0.000000 0.000000
# 5 0.000000 0.000000 0.000000 0.000000 0.022801 0.000000
# 6 0.000000 0.000000 0.000000 0.000000 0.000000 0.029547
#
#
# Mechanical properties :
#
#
# Convention : Reuss Voigt Hill
#
# Bulk Modulus (GPa) = 54.79409 61.64540 58.21975
# Shear Modulus (GPa) = 38.76030 49.30483 44.03257
#
# Velocity S-wave (km/s) = 4.40308 4.96601 4.69299
# Velocity P-wave (km/s) = 7.29769 7.98219 7.64760
#
# Compressibility (1/GPa) = 0.01825014
#
# Stress axis : x y z
#
# Youngs Moduli (GPa) = 49.56529 94.90105 115.96318
#
# Poissons Ratio (x) = 0.46851 0.44261
# Poissons Ratio (y) = 0.24469 0.20751
# Poissons Ratio (z) = 0.18918 0.16982
#
# Static dielectric constant tensor:
#      x y z
#    x 1.692510 0.000000 0.000000 
#    y 0.000000 1.713880 0.000000 
#    z 0.000000 0.000000 1.729470 
# 
# From -- ./inp_files/4278.got.cif
#   From: 2010.05.17/outbox.cif.g08.bks.cpg/sg55_3_cif.got.tgz:4278.got - 2010.06.03 13:27:54.
