data_PCOD9428591
_publ_section_title
;
Structure prediction by ZEFSAII (Michael W. Deem and Ramdas Pophale) SiO2 
 PCOD9428591
Probable space group: P B A M
;
_chemical_formula_sum "Si O2"
_cell_formula_units_Z 56
_cell_length_a 14.110080
_cell_length_b 8.532829
_cell_length_c 21.107913
_cell_angle_alpha 90.000000
_cell_angle_beta 90.000000
_cell_angle_gamma 90.000000
_cell_volume 2541.369503
_symmetry_space_group_name_H-M "P B A M"
_symmetry_group_IT_number 55
_symmetry_cell_setting 'orthorhombic'
loop_
_space_group_symop_operation_xyz
x,y,z
-x,-y,z
1/2+x,1/2-y,-z
1/2-x,1/2+y,-z
-x,-y,-z
x,y,-z
1/2-x,1/2+y,z
1/2+x,1/2-y,z
loop_
_atom_site_type_symbol
_atom_site_label
_atom_site_fract_x
_atom_site_fract_y
_atom_site_fract_z
Si Si1 0.137661 0.591046 0.866550
Si Si2 0.627650 0.391886 0.000000
Si Si3 0.861557 0.740881 0.667945
Si Si4 0.002281 0.238506 0.222185
Si Si5 0.650163 0.615727 0.679915
Si Si6 0.832630 0.778784 0.863087
Si Si7 0.915538 0.250961 0.000000
Si Si8 0.986818 0.190372 0.428274
O O1 0.155077 0.406858 0.865843
O O2 0.231195 0.671953 0.836953
O O3 0.052343 0.644504 0.822937
O O4 0.111741 0.653692 0.937007
O O5 0.672109 0.340036 0.934517
O O6 0.525359 0.304541 0.000000
O O7 0.632024 0.579940 0.000000
O O8 0.930126 0.686647 0.724619
O O9 0.759143 0.667201 0.678814
O O10 0.921295 0.725344 0.602713
O O11 0.851947 0.928716 0.673315
O O12 0.077940 0.152515 0.175472
O O13 0.920163 0.150125 0.261238
O O14 0.599680 0.704429 0.620867
O O15 0.969170 0.242396 0.500000
O O16 0.000000 0.000000 0.429894
#
# Coordination Sequence:
#
# PCOD9428591 Si02
#       8
#     8   4   8   8   8   8   4   8
#     4  12  26  44  66  93 123 159 204 256 313 375
#     4  11  24  43  68  94 122 160 200 251 315 375
#     4  10  22  39  62  91 125 165 208 257 309 365
#     4  11  24  40  62  87 117 162 208 255 302 362
#     4  10  22  39  62  91 125 165 208 257 309 365
#     4  12  26  44  66  93 123 159 204 256 313 375
#     4  11  24  43  68  94 122 160 200 251 315 375
#     4   8  16  35  62  91 125 167 210 250 300 364
#
# _framework density 22.035361999999999
#
# number of rings (size 3 to 8) (size 9 to 14) (size 15 to 20)
#    0.000    1.429    1.429    4.286    0.000   10.286 
#    0.000    2.143    0.000    0.857    0.000    0.000 
#    0.000    0.000    0.000    0.000    0.000    0.000 
#
# Total GULP energy -312970.781825 kJ/mol
# GULP energy per Si atom -5588.763961 kJ/mol
# Density = 2.198521 g / cm^3
# Si number density = 22.035362 Si / 1000 Ang^3
#
#
#
# Elastic Constant Matrix: (Units=GPa)
#
#
# Indices 1 2 3 4 5 6 
#
# 1 153.7203 44.2436 62.1003 0.0000 0.0000 0.0000
# 2 44.2436 58.4577 33.8819 0.0000 0.0000 0.0000
# 3 62.1003 33.8819 126.8181 0.0000 0.0000 0.0000
# 4 0.0000 0.0000 0.0000 -18.0380 0.0000 0.0000
# 5 0.0000 0.0000 0.0000 0.0000 24.8408 0.0000
# 6 0.0000 0.0000 0.0000 0.0000 0.0000 28.5052
#
#
#
# Elastic Compliance Matrix: (Units=1/GPa)
#
#
# Indices 1 2 3 4 5 6 
#
# 1 0.009274 -0.005190 -0.003154 0.000000 0.000000 0.000000
# 2 -0.005190 0.023146 -0.003642 0.000000 0.000000 0.000000
# 3 -0.003154 -0.003642 0.010403 0.000000 0.000000 0.000000
# 4 0.000000 0.000000 0.000000 -0.055438 0.000000 0.000000
# 5 0.000000 0.000000 0.000000 0.000000 0.040256 0.000000
# 6 0.000000 0.000000 0.000000 0.000000 0.000000 0.035081
#
#
# Mechanical properties :
#
#
# Convention : Reuss Voigt Hill
#
# Bulk Modulus (GPa) = 53.05492 68.82754 60.94123
# Shear Modulus (GPa) = 53.77608 20.31295 37.04451
#
# Velocity S-wave (km/s) = 4.94544 3.03947 4.10462
# Velocity P-wave (km/s) = 7.53255 6.60459 7.08378
#
# Compressibility (1/GPa) = 0.01884839
#
# Stress axis : x y z
#
# Youngs Moduli (GPa) = 107.83402 43.20448 96.12600
#
# Poissons Ratio (x) = 0.22425 0.30321
# Poissons Ratio (y) = 0.55970 0.35011
# Poissons Ratio (z) = 0.34015 0.15736
#
# Static dielectric constant tensor:
#      x y z
#    x 1.840560 0.000000 0.000000 
#    y 0.000000 1.798350 0.000000 
#    z 0.000000 0.000000 1.820210 
# 
# From -- ./inp_files/23011.got.cif
#   From: 2010.05.17/outbox.cif.g08.bks.cpg/sg55_12_cif.got.tgz:23011.got - 2010.06.03 13:27:54.
