data_PCOD9428529
_publ_section_title
;
Structure prediction by ZEFSAII (Michael W. Deem and Ramdas Pophale) SiO2 
 PCOD9428529
Probable space group: P B A M
;
_chemical_formula_sum "Si O2"
_cell_formula_units_Z 40
_cell_length_a 4.928931
_cell_length_b 12.385632
_cell_length_c 25.818074
_cell_angle_alpha 90.000000
_cell_angle_beta 90.000000
_cell_angle_gamma 90.000000
_cell_volume 1576.139859
_symmetry_space_group_name_H-M "P B A M"
_symmetry_group_IT_number 55
_symmetry_cell_setting 'orthorhombic'
loop_
_space_group_symop_operation_xyz
x,y,z
-x,-y,z
1/2+x,1/2-y,-z
1/2-x,1/2+y,-z
-x,-y,-z
x,y,-z
1/2-x,1/2+y,z
1/2+x,1/2-y,z
loop_
_atom_site_type_symbol
_atom_site_label
_atom_site_fract_x
_atom_site_fract_y
_atom_site_fract_z
Si Si1 0.324858 0.320970 0.000000
Si Si2 0.000000 0.000000 0.815835
Si Si3 0.498729 0.870146 0.623258
Si Si4 0.258175 0.573375 0.718929
Si Si5 0.785030 0.669966 0.885977
Si Si6 0.496034 0.628994 0.557377
O O1 0.249555 0.372097 0.945186
O O2 0.640154 0.288346 0.000000
O O3 0.118470 0.091375 0.775742
O O4 0.210033 0.931042 0.849701
O O5 0.643347 0.839982 0.677853
O O6 0.689074 0.848167 0.574012
O O7 0.196057 0.843592 0.605198
O O8 0.500000 0.000000 0.628376
O O9 0.500000 0.500000 0.693998
O O10 0.000000 0.500000 0.731432
O O11 0.570869 0.769479 0.879299
O O12 0.500000 0.500000 0.554337
O O13 0.570319 0.667534 0.500000
#
# Coordination Sequence:
#
# PCOD9428529 Si02
#       6
#     4   4   8   8   8   8
#     4   8  16  35  56  81 116 150 180 225 284 337
#     4  10  24  35  60  82 113 148 200 234 278 330
#     4   9  14  23  34  49  77 116 163 207 256 318
#     4   9  18  29  45  65  94 132 180 223 265 329
#     4  10  22  38  60  87 118 150 188 235 283 334
#     4   9  15  20  30  48  74 111 163 208 250 318
#
# _framework density 25.37846
#
# number of rings (size 3 to 8) (size 9 to 14) (size 15 to 20)
#    0.600    2.200    0.000    3.600    2.800    2.800 
#    0.000    0.000    0.000    7.200    0.000    0.000 
#    0.000    0.000    0.000    0.000    0.000   80.000 
#
# Total GULP energy -222913.466237 kJ/mol
# GULP energy per Si atom -5572.836656 kJ/mol
# Density = 2.532070 g / cm^3
# Si number density = 25.378460 Si / 1000 Ang^3
#
#
#
# Elastic Constant Matrix: (Units=GPa)
#
#
# Indices 1 2 3 4 5 6 
#
# 1 116.4233 -27.0607 22.7910 0.0000 0.0000 0.0000
# 2 -27.0607 65.1143 21.5539 0.0000 0.0000 0.0000
# 3 22.7910 21.5539 198.9739 0.0000 0.0000 0.0000
# 4 0.0000 0.0000 0.0000 26.7036 0.0000 0.0000
# 5 0.0000 0.0000 0.0000 0.0000 24.3098 0.0000
# 6 0.0000 0.0000 0.0000 0.0000 0.0000 -13.4599
#
#
#
# Elastic Compliance Matrix: (Units=1/GPa)
#
#
# Indices 1 2 3 4 5 6 
#
# 1 0.010008 0.004707 -0.001656 0.000000 0.000000 0.000000
# 2 0.004707 0.018143 -0.002505 0.000000 0.000000 0.000000
# 3 -0.001656 -0.002505 0.005487 0.000000 0.000000 0.000000
# 4 0.000000 0.000000 0.000000 0.037448 0.000000 0.000000
# 5 0.000000 0.000000 0.000000 0.000000 0.041136 0.000000
# 6 0.000000 0.000000 0.000000 0.000000 0.000000 -0.074295
#
#
# Mechanical properties :
#
#
# Convention : Reuss Voigt Hill
#
# Bulk Modulus (GPa) = 28.79305 46.11997 37.45651
# Shear Modulus (GPa) = 103.28353 31.72585 67.50469
#
# Velocity S-wave (km/s) = 6.38637 3.53952 5.16304
# Velocity P-wave (km/s) = 8.10870 5.90903 7.09463
#
# Compressibility (1/GPa) = 0.03473061
#
# Stress axis : x y z
#
# Youngs Moduli (GPa) = 99.92294 55.11780 182.25572
#
# Poissons Ratio (x) = -0.25946 0.30186
# Poissons Ratio (y) = -0.47037 0.45646
# Poissons Ratio (z) = 0.16550 0.13804
#
# Static dielectric constant tensor:
#      x y z
#    x 2.023730 0.000000 0.000000 
#    y 0.000000 2.095480 0.000000 
#    z 0.000000 0.000000 2.054720 
# 
# From -- ./inp_files/23283.got.cif
#   From: 2010.05.17/outbox.cif.g08.bks.cpg/sg55_12_cif.got.tgz:23283.got - 2010.06.03 13:27:54.
