data_PCOD9428115
_publ_section_title
;
Structure prediction by ZEFSAII (Michael W. Deem and Ramdas Pophale) SiO2 
 PCOD9428115
Probable space group: P B A M
;
_chemical_formula_sum "Si O2"
_cell_formula_units_Z 56
_cell_length_a 20.436648
_cell_length_b 15.308941
_cell_length_c 9.096298
_cell_angle_alpha 90.000000
_cell_angle_beta 90.000000
_cell_angle_gamma 90.000000
_cell_volume 2845.899070
_symmetry_space_group_name_H-M "P B A M"
_symmetry_group_IT_number 55
_symmetry_cell_setting 'orthorhombic'
loop_
_space_group_symop_operation_xyz
x,y,z
-x,-y,z
1/2+x,1/2-y,-z
1/2-x,1/2+y,-z
-x,-y,-z
x,y,-z
1/2-x,1/2+y,z
1/2+x,1/2-y,z
loop_
_atom_site_type_symbol
_atom_site_label
_atom_site_fract_x
_atom_site_fract_y
_atom_site_fract_z
Si Si1 0.821365 0.317599 0.328061
Si Si2 0.813049 0.810905 0.824111
Si Si3 0.087317 0.341781 0.176261
Si Si4 0.540627 0.588020 0.826477
Si Si5 0.682749 0.514348 0.175468
Si Si6 0.816883 0.527433 0.671671
Si Si7 0.965994 0.265137 0.324361
O O1 0.813593 0.295699 0.500000
O O2 0.757279 0.286687 0.242492
O O3 0.824001 0.422842 0.315156
O O4 0.891067 0.281694 0.276536
O O5 0.869194 0.743249 0.780383
O O6 0.827518 0.911914 0.784153
O O7 0.808428 0.807559 0.000000
O O8 0.127154 0.423635 0.238461
O O9 0.016533 0.330659 0.248356
O O10 0.082576 0.344889 0.000000
O O11 0.500000 0.500000 0.801020
O O12 0.616425 0.566473 0.795727
O O13 0.516865 0.668001 0.729219
O O14 0.533394 0.610284 0.000000
O O15 0.745655 0.548766 0.261693
O O16 0.695699 0.517559 0.000000
O O17 0.820356 0.550966 0.500000
O O18 0.969409 0.273762 0.500000
#
# Coordination Sequence:
#
# PCOD9428115 Si02
#       7
#     8   8   8   8   8   8   8
#     4   9  21  40  59  83 117 153 192 239 293 348
#     4   9  19  36  60  85 113 149 191 238 287 343
#     4  11  23  39  59  86 117 151 195 243 294 350
#     4  10  21  38  60  85 119 158 195 239 293 349
#     4   9  18  35  58  84 113 147 190 236 286 345
#     4  10  21  38  59  83 113 151 192 239 293 346
#     4  11  24  40  58  85 118 155 197 242 295 353
#
# _framework density 19.677437000000001
#
# number of rings (size 3 to 8) (size 9 to 14) (size 15 to 20)
#    0.000    2.143    0.000    2.143    2.000    6.571 
#    0.000    5.714    0.000    0.000    0.000    0.000 
#    0.000    0.000    0.000    0.000    0.000    0.000 
#
# Total GULP energy -312907.561978 kJ/mol
# GULP energy per Si atom -5587.635035 kJ/mol
# Density = 1.963265 g / cm^3
# Si number density = 19.677437 Si / 1000 Ang^3
#
#
#
# Elastic Constant Matrix: (Units=GPa)
#
#
# Indices 1 2 3 4 5 6 
#
# 1 76.1222 2.1152 23.9869 0.0000 0.0000 0.0000
# 2 2.1152 13.9185 11.9232 0.0000 0.0000 0.0000
# 3 23.9869 11.9232 31.3943 0.0000 0.0000 0.0000
# 4 0.0000 0.0000 0.0000 25.2492 0.0000 0.0000
# 5 0.0000 0.0000 0.0000 0.0000 72.7791 0.0000
# 6 0.0000 0.0000 0.0000 0.0000 0.0000 28.8814
#
#
#
# Elastic Compliance Matrix: (Units=1/GPa)
#
#
# Indices 1 2 3 4 5 6 
#
# 1 0.019017 0.014166 -0.019910 0.000000 0.000000 0.000000
# 2 0.014166 0.117047 -0.055276 0.000000 0.000000 0.000000
# 3 -0.019910 -0.055276 0.068059 0.000000 0.000000 0.000000
# 4 0.000000 0.000000 0.000000 0.039605 0.000000 0.000000
# 5 0.000000 0.000000 0.000000 0.000000 0.013740 0.000000
# 6 0.000000 0.000000 0.000000 0.000000 0.000000 0.034624
#
#
# Mechanical properties :
#
#
# Convention : Reuss Voigt Hill
#
# Bulk Modulus (GPa) = 12.18309 21.94282 17.06296
# Shear Modulus (GPa) = 11.32519 30.94258 21.13388
#
# Velocity S-wave (km/s) = 2.40165 3.96977 3.28077
# Velocity P-wave (km/s) = 3.72765 5.67340 4.80015
#
# Compressibility (1/GPa) = 0.08208098
#
# Stress axis : x y z
#
# Youngs Moduli (GPa) = 52.58451 8.54361 14.69321
#
# Poissons Ratio (x) = -0.12103 0.29254
# Poissons Ratio (y) = -0.74490 0.81219
# Poissons Ratio (z) = 1.04696 0.47226
#
# Static dielectric constant tensor:
#      x y z
#    x 1.674630 0.000000 0.000000 
#    y 0.000000 1.702040 0.000000 
#    z 0.000000 0.000000 1.657510 
# 
# From -- ./inp_files/8678.got.cif
#   From: 2010.05.17/outbox.cif.g08.bks.cpg/sg55_5_cif.got.tgz:8678.got - 2010.06.03 13:27:54.
