data_PCOD9428160
_publ_section_title
;
Structure prediction by ZEFSAII (Michael W. Deem and Ramdas Pophale) SiO2 
 PCOD9428160
Probable space group: P B A M
;
_chemical_formula_sum "Si O2"
_cell_formula_units_Z 48
_cell_length_a 9.061758
_cell_length_b 14.128086
_cell_length_c 16.676009
_cell_angle_alpha 90.000000
_cell_angle_beta 90.000000
_cell_angle_gamma 90.000000
_cell_volume 2134.950994
_symmetry_space_group_name_H-M "P B A M"
_symmetry_group_IT_number 55
_symmetry_cell_setting 'orthorhombic'
loop_
_space_group_symop_operation_xyz
x,y,z
-x,-y,z
1/2+x,1/2-y,-z
1/2-x,1/2+y,-z
-x,-y,-z
x,y,-z
1/2-x,1/2+y,z
1/2+x,1/2-y,z
loop_
_atom_site_type_symbol
_atom_site_label
_atom_site_fract_x
_atom_site_fract_y
_atom_site_fract_z
Si Si1 0.539039 0.111035 0.413951
Si Si2 0.299690 0.170245 0.687566
Si Si3 0.984742 0.155347 0.742909
Si Si4 0.514327 0.691400 0.914144
Si Si5 0.652098 0.118586 0.912698
Si Si6 0.203100 0.456194 0.261793
O O1 0.605389 0.139912 0.500000
O O2 0.389421 0.168376 0.395586
O O3 0.634718 0.109602 0.332393
O O4 0.500000 0.000000 0.421017
O O5 0.374921 0.253801 0.738461
O O6 0.122798 0.173500 0.685340
O O7 0.329889 0.065457 0.722232
O O8 0.049576 0.147647 0.832936
O O9 0.876368 0.067525 0.730475
O O10 0.472984 0.801369 0.911568
O O11 0.688669 0.671453 0.912291
O O12 0.457517 0.653731 0.000000
O O13 0.651084 0.065779 0.828190
O O14 0.644304 0.068306 0.000000
#
# Coordination Sequence:
#
# PCOD9428160 Si02
#       6
#     8   8   8   8   8   8
#     4   9  19  38  63  87 114 150 189 233 290 349
#     4  11  22  38  60  84 116 155 196 243 293 348
#     4  11  21  37  59  86 117 156 200 241 293 349
#     4   9  17  30  50  76 110 150 191 235 282 336
#     4   9  17  31  53  83 116 151 193 237 286 345
#     4  10  21  38  61  88 119 154 195 243 294 346
#
# _framework density 22.482952000000001
#
# number of rings (size 3 to 8) (size 9 to 14) (size 15 to 20)
#    0.000    2.167    0.000    4.500    0.000    0.000 
#    0.000    5.833    0.000   14.500    0.000    0.000 
#    0.000    0.000    0.000    0.000    0.000    0.000 
#
# Total GULP energy -267619.996992 kJ/mol
# GULP energy per Si atom -5575.416604 kJ/mol
# Density = 2.243178 g / cm^3
# Si number density = 22.482952 Si / 1000 Ang^3
#
#
#
# Elastic Constant Matrix: (Units=GPa)
#
#
# Indices 1 2 3 4 5 6 
#
# 1 90.0766 15.3289 40.8291 0.0000 0.0000 0.0000
# 2 15.3289 20.5341 26.1151 0.0000 0.0000 0.0000
# 3 40.8291 26.1151 144.5290 0.0000 0.0000 0.0000
# 4 0.0000 0.0000 0.0000 -66.0804 0.0000 0.0000
# 5 0.0000 0.0000 0.0000 0.0000 14.4464 0.0000
# 6 0.0000 0.0000 0.0000 0.0000 0.0000 33.8985
#
#
#
# Elastic Compliance Matrix: (Units=1/GPa)
#
#
# Indices 1 2 3 4 5 6 
#
# 1 0.013415 -0.006745 -0.002571 0.000000 0.000000 0.000000
# 2 -0.006745 0.066621 -0.010132 0.000000 0.000000 0.000000
# 3 -0.002571 -0.010132 0.009476 0.000000 0.000000 0.000000
# 4 0.000000 0.000000 0.000000 -0.015133 0.000000 0.000000
# 5 0.000000 0.000000 0.000000 0.000000 0.069221 0.000000
# 6 0.000000 0.000000 0.000000 0.000000 0.000000 0.029500
#
#
# Mechanical properties :
#
#
# Convention : Reuss Voigt Hill
#
# Bulk Modulus (GPa) = 19.75668 46.63176 33.19422
# Shear Modulus (GPa) = 21.84670 7.97735 14.91202
#
# Velocity S-wave (km/s) = 3.12059 1.88570 2.57818
# Velocity P-wave (km/s) = 4.66804 5.05244 4.86404
#
# Compressibility (1/GPa) = 0.05061580
#
# Stress axis : x y z
#
# Youngs Moduli (GPa) = 74.54477 15.01034 105.52793
#
# Poissons Ratio (x) = 0.10124 0.27131
# Poissons Ratio (y) = 0.50277 1.06926
# Poissons Ratio (z) = 0.19165 0.15209
#
# Static dielectric constant tensor:
#      x y z
#    x 1.884520 0.000000 0.000000 
#    y 0.000000 1.848670 0.000000 
#    z 0.000000 0.000000 1.896300 
# 
# From -- ./inp_files/20777.got.cif
#   From: 2010.05.17/outbox.cif.g08.bks.cpg/sg55_11_cif.got.tgz:20777.got - 2010.06.03 13:27:54.
