data_PCOD9428674
_publ_section_title
;
Structure prediction by ZEFSAII (Michael W. Deem and Ramdas Pophale) SiO2 
 PCOD9428674
Probable space group: P B A M
;
_chemical_formula_sum "Si O2"
_cell_formula_units_Z 48
_cell_length_a 19.119870
_cell_length_b 15.660224
_cell_length_c 7.803797
_cell_angle_alpha 90.000000
_cell_angle_beta 90.000000
_cell_angle_gamma 90.000000
_cell_volume 2336.624190
_symmetry_space_group_name_H-M "P B A M"
_symmetry_group_IT_number 55
_symmetry_cell_setting 'orthorhombic'
loop_
_space_group_symop_operation_xyz
x,y,z
-x,-y,z
1/2+x,1/2-y,-z
1/2-x,1/2+y,-z
-x,-y,-z
x,y,-z
1/2-x,1/2+y,z
1/2+x,1/2-y,z
loop_
_atom_site_type_symbol
_atom_site_label
_atom_site_fract_x
_atom_site_fract_y
_atom_site_fract_z
Si Si1 0.616978 0.525449 0.500000
Si Si2 0.174743 0.639711 0.206342
Si Si3 0.979129 0.407647 0.206998
Si Si4 0.723461 0.209502 0.700970
Si Si5 0.070708 0.246981 0.803205
Si Si6 0.013109 0.134638 0.500000
Si Si7 0.271775 0.476294 0.802420
O O1 0.563799 0.446947 0.500000
O O2 0.567673 0.608219 0.500000
O O3 0.665421 0.521743 0.667239
O O4 0.095474 0.627131 0.269653
O O5 0.213712 0.723144 0.276394
O O6 0.218347 0.553042 0.242313
O O7 0.173360 0.649348 0.000000
O O8 0.000000 0.500000 0.275446
O O9 0.040932 0.341004 0.235737
O O10 0.971307 0.415692 0.000000
O O11 0.712073 0.194575 0.500000
O O12 0.653774 0.252039 0.777317
O O13 0.737792 0.117752 0.785901
O O14 0.033250 0.186093 0.669394
O O15 0.053777 0.225920 0.000000
O O16 0.293935 0.489086 0.000000
#
# Coordination Sequence:
#
# PCOD9428674 Si02
#       7
#     4   8   8   8   8   4   8
#     4  11  26  45  65  93 130 172 218 284 335 388
#     4  10  22  40  66  98 128 170 224 271 324 398
#     4   9  19  38  64  94 131 170 210 264 331 396
#     4  12  24  40  66  96 134 174 219 273 333 395
#     4  11  23  42  69  95 132 178 219 270 333 398
#     4  11  26  45  64  93 131 168 229 276 328 399
#     4  11  24  43  69  97 132 172 221 275 334 397
#
# _framework density 20.542458
#
# number of rings (size 3 to 8) (size 9 to 14) (size 15 to 20)
#    0.000    1.333    1.667    3.500    3.500    5.333 
#    0.000    2.083    0.000    0.000    0.000    0.000 
#    0.000    0.000    0.000    0.000    0.000    0.000 
#
# Total GULP energy -268424.080736 kJ/mol
# GULP energy per Si atom -5592.168349 kJ/mol
# Density = 2.049570 g / cm^3
# Si number density = 20.542458 Si / 1000 Ang^3
#
#
#
# Elastic Constant Matrix: (Units=GPa)
#
#
# Indices 1 2 3 4 5 6 
#
# 1 68.1483 -9.0428 8.9006 0.0000 0.0000 0.0000
# 2 -9.0428 58.5340 11.0941 0.0000 0.0000 0.0000
# 3 8.9006 11.0941 75.0216 0.0000 0.0000 0.0000
# 4 0.0000 0.0000 0.0000 513.2093 0.0000 0.0000
# 5 0.0000 0.0000 0.0000 0.0000 25.0819 0.0000
# 6 0.0000 0.0000 0.0000 0.0000 0.0000 24.6896
#
#
#
# Elastic Compliance Matrix: (Units=1/GPa)
#
#
# Indices 1 2 3 4 5 6 
#
# 1 0.015336 0.002792 -0.002232 0.000000 0.000000 0.000000
# 2 0.002792 0.018085 -0.003006 0.000000 0.000000 0.000000
# 3 -0.002232 -0.003006 0.014039 0.000000 0.000000 0.000000
# 4 0.000000 0.000000 0.000000 0.001949 0.000000 0.000000
# 5 0.000000 0.000000 0.000000 0.000000 0.039869 0.000000
# 6 0.000000 0.000000 0.000000 0.000000 0.000000 0.040503
#
#
# Mechanical properties :
#
#
# Convention : Reuss Voigt Hill
#
# Bulk Modulus (GPa) = 23.49158 24.84529 24.16843
# Shear Modulus (GPa) = 33.58822 125.31295 79.45059
#
# Velocity S-wave (km/s) = 4.04798 7.81885 6.22577
# Velocity P-wave (km/s) = 5.77136 9.67643 7.96687
#
# Compressibility (1/GPa) = 0.04256845
#
# Stress axis : x y z
#
# Youngs Moduli (GPa) = 65.20622 55.29398 71.23106
#
# Poissons Ratio (x) = -0.15440 0.15901
# Poissons Ratio (y) = -0.18208 0.21410
# Poissons Ratio (z) = 0.14557 0.16620
#
# Static dielectric constant tensor:
#      x y z
#    x 1.706020 0.000000 0.000000 
#    y 0.000000 1.751490 0.000000 
#    z 0.000000 0.000000 1.721570 
# 
# From -- ./inp_files/7473.got.cif
#   From: 2010.05.17/outbox.cif.g08.bks.cpg/sg55_4_cif.got.tgz:7473.got - 2010.06.03 13:27:54.
