data_PCOD9428089
_publ_section_title
;
Structure prediction by ZEFSAII (Michael W. Deem and Ramdas Pophale) SiO2 
 PCOD9428089
Probable space group: P B A M
;
_chemical_formula_sum "Si O2"
_cell_formula_units_Z 64
_cell_length_a 23.537274
_cell_length_b 14.592196
_cell_length_c 9.409155
_cell_angle_alpha 90.000000
_cell_angle_beta 90.000000
_cell_angle_gamma 90.000000
_cell_volume 3231.673227
_symmetry_space_group_name_H-M "P B A M"
_symmetry_group_IT_number 55
_symmetry_cell_setting 'orthorhombic'
loop_
_space_group_symop_operation_xyz
x,y,z
-x,-y,z
1/2+x,1/2-y,-z
1/2-x,1/2+y,-z
-x,-y,-z
x,y,-z
1/2-x,1/2+y,z
1/2+x,1/2-y,z
loop_
_atom_site_type_symbol
_atom_site_label
_atom_site_fract_x
_atom_site_fract_y
_atom_site_fract_z
Si Si1 0.453995 0.080853 0.338559
Si Si2 0.957856 0.085855 0.842419
Si Si3 0.523824 0.223808 0.162581
Si Si4 0.760437 0.269600 0.332017
Si Si5 0.175667 0.537405 0.669574
Si Si6 0.125677 0.209026 0.663510
Si Si7 0.864540 0.002998 0.334782
Si Si8 0.237447 0.916524 0.829925
O O1 0.449365 0.117121 0.500000
O O2 0.479898 0.156759 0.237481
O O3 0.391128 0.047015 0.298969
O O4 0.500000 0.000000 0.338521
O O5 0.912261 0.072816 0.718951
O O6 0.994709 0.176655 0.830895
O O7 0.929806 0.085245 0.000000
O O8 0.000000 0.000000 0.837135
O O9 0.584355 0.231813 0.239704
O O10 0.532251 0.197204 0.000000
O O11 0.769707 0.248603 0.500000
O O12 0.793592 0.364424 0.302013
O O13 0.692832 0.282325 0.310484
O O14 0.776507 0.183659 0.234338
O O15 0.182704 0.518399 0.500000
O O16 0.205289 0.457714 0.760236
O O17 0.114982 0.234855 0.500000
O O18 0.112943 0.100738 0.680125
O O19 0.848687 0.016033 0.500000
O O20 0.811205 0.017313 0.232608
O O21 0.239622 0.915638 0.000000
#
# Coordination Sequence:
#
# PCOD9428089 Si02
#       8
#     8   8   8   8   8   8   8   8
#     4  10  24  45  68  93 123 166 220 273 320 366
#     4  10  21  38  57  87 131 171 202 245 311 373
#     4  11  24  40  62  91 129 169 207 255 313 378
#     4  10  22  42  66  92 123 165 213 263 313 375
#     4  10  22  45  70  94 127 168 218 269 318 375
#     4  10  21  39  64  91 122 159 210 262 309 370
#     4  11  22  39  63  91 123 165 215 259 305 368
#     4  12  26  41  63  95 130 165 203 255 326 394
#
# _framework density 19.803982000000001
#
# number of rings (size 3 to 8) (size 9 to 14) (size 15 to 20)
#    0.000    1.500    2.500    1.875    3.500    3.500 
#    0.000    0.000    0.000    0.000    0.000    0.000 
#    0.000    0.000    0.000    0.000    0.000    0.000 
#
# Total GULP energy -357583.908497 kJ/mol
# GULP energy per Si atom -5587.248570 kJ/mol
# Density = 1.975891 g / cm^3
# Si number density = 19.803982 Si / 1000 Ang^3
#
#
#
# Elastic Constant Matrix: (Units=GPa)
#
#
# Indices 1 2 3 4 5 6 
#
# 1 85.3232 -2.8413 34.4291 0.0000 0.0000 0.0000
# 2 -2.8413 42.0258 25.5531 0.0000 0.0000 0.0000
# 3 34.4291 25.5531 79.3652 0.0000 0.0000 0.0000
# 4 0.0000 0.0000 0.0000 29.3148 0.0000 0.0000
# 5 0.0000 0.0000 0.0000 0.0000 25.1825 0.0000
# 6 0.0000 0.0000 0.0000 0.0000 0.0000 22.1987
#
#
#
# Elastic Compliance Matrix: (Units=1/GPa)
#
#
# Indices 1 2 3 4 5 6 
#
# 1 0.015468 0.006373 -0.008762 0.000000 0.000000 0.000000
# 2 0.006373 0.032213 -0.013137 0.000000 0.000000 0.000000
# 3 -0.008762 -0.013137 0.020631 0.000000 0.000000 0.000000
# 4 0.000000 0.000000 0.000000 0.034112 0.000000 0.000000
# 5 0.000000 0.000000 0.000000 0.000000 0.039710 0.000000
# 6 0.000000 0.000000 0.000000 0.000000 0.000000 0.045048
#
#
# Mechanical properties :
#
#
# Convention : Reuss Voigt Hill
#
# Bulk Modulus (GPa) = 26.83736 35.66622 31.25179
# Shear Modulus (GPa) = 21.67758 25.31076 23.49417
#
# Velocity S-wave (km/s) = 3.31207 3.57888 3.44806
# Velocity P-wave (km/s) = 5.31106 5.92677 5.62734
#
# Compressibility (1/GPa) = 0.03726149
#
# Stress axis : x y z
#
# Youngs Moduli (GPa) = 64.64938 31.04310 48.47164
#
# Poissons Ratio (x) = -0.19785 0.42472
# Poissons Ratio (y) = -0.41204 0.63675
# Poissons Ratio (z) = 0.56647 0.40780
#
# Static dielectric constant tensor:
#      x y z
#    x 1.711750 0.000000 0.000000 
#    y 0.000000 1.747290 0.000000 
#    z 0.000000 0.000000 1.681220 
# 
# From -- ./inp_files/9785.got.cif
#   From: 2010.05.17/outbox.cif.g08.bks.cpg/sg55_5_cif.got.tgz:9785.got - 2010.06.03 13:27:54.
