data_PCOD9428618
_publ_section_title
;
Structure prediction by ZEFSAII (Michael W. Deem and Ramdas Pophale) SiO2 
 PCOD9428618
Probable space group: P B A M
;
_chemical_formula_sum "Si O2"
_cell_formula_units_Z 48
_cell_length_a 15.173108
_cell_length_b 19.160630
_cell_length_c 8.618795
_cell_angle_alpha 90.000000
_cell_angle_beta 90.000000
_cell_angle_gamma 90.000000
_cell_volume 2505.710453
_symmetry_space_group_name_H-M "P B A M"
_symmetry_group_IT_number 55
_symmetry_cell_setting 'orthorhombic'
loop_
_space_group_symop_operation_xyz
x,y,z
-x,-y,z
1/2+x,1/2-y,-z
1/2-x,1/2+y,-z
-x,-y,-z
x,y,-z
1/2-x,1/2+y,z
1/2+x,1/2-y,z
loop_
_atom_site_type_symbol
_atom_site_label
_atom_site_fract_x
_atom_site_fract_y
_atom_site_fract_z
Si Si1 0.597456 0.474685 0.687309
Si Si2 0.241470 0.918735 0.186017
Si Si3 0.944060 0.567115 0.189126
Si Si4 0.040188 0.709687 0.814401
Si Si5 0.898032 0.813283 0.312771
Si Si6 0.718386 0.735288 0.685615
O O1 0.500000 0.500000 0.734653
O O2 0.601980 0.478773 0.500000
O O3 0.673019 0.523866 0.754823
O O4 0.608820 0.394020 0.732971
O O5 0.342047 0.933877 0.238996
O O6 0.214529 0.842382 0.246081
O O7 0.240992 0.918035 0.000000
O O8 0.000000 0.500000 0.240489
O O9 0.991487 0.638763 0.238142
O O10 0.943719 0.566745 0.000000
O O11 0.136625 0.719392 0.744442
O O12 0.981010 0.774776 0.761366
O O13 0.046081 0.708219 0.000000
O O14 0.906934 0.810582 0.500000
O O15 0.810200 0.771308 0.267936
O O16 0.715485 0.731009 0.500000
#
# Coordination Sequence:
#
# PCOD9428618 Si02
#       6
#     8   8   8   8   8   8
#     4  10  22  40  61  86 120 160 197 244 304 360
#     4  11  22  39  64  92 121 157 203 250 301 359
#     4   9  20  38  58  86 124 161 195 243 306 360
#     4  11  22  38  64  91 120 155 203 256 301 357
#     4  10  22  40  61  87 123 163 201 244 301 364
#     4  11  23  39  60  86 122 162 202 247 300 364
#
# _framework density 19.156244000000001
#
# number of rings (size 3 to 8) (size 9 to 14) (size 15 to 20)
#    0.000    1.667    1.667    2.500    2.333    3.000 
#    0.000    0.000    0.000    4.000    0.000    0.000 
#    0.000    0.000    0.000    0.000    0.000    0.000 
#
# Total GULP energy -268291.722862 kJ/mol
# GULP energy per Si atom -5589.410893 kJ/mol
# Density = 1.911264 g / cm^3
# Si number density = 19.156244 Si / 1000 Ang^3
#
#
#
# Elastic Constant Matrix: (Units=GPa)
#
#
# Indices 1 2 3 4 5 6 
#
# 1 69.3820 -0.1114 9.7848 0.0000 0.0000 0.0000
# 2 -0.1114 96.4211 10.8628 0.0000 0.0000 0.0000
# 3 9.7848 10.8628 15.4061 0.0000 0.0000 0.0000
# 4 0.0000 0.0000 0.0000 16.8331 0.0000 0.0000
# 5 0.0000 0.0000 0.0000 0.0000 48.9784 0.0000
# 6 0.0000 0.0000 0.0000 0.0000 0.0000 41.6514
#
#
#
# Elastic Compliance Matrix: (Units=1/GPa)
#
#
# Indices 1 2 3 4 5 6 
#
# 1 0.015971 0.001261 -0.011033 0.000000 0.000000 0.000000
# 2 0.001261 0.011366 -0.008815 0.000000 0.000000 0.000000
# 3 -0.011033 -0.008815 0.078132 0.000000 0.000000 0.000000
# 4 0.000000 0.000000 0.000000 0.059407 0.000000 0.000000
# 5 0.000000 0.000000 0.000000 0.000000 0.020417 0.000000
# 6 0.000000 0.000000 0.000000 0.000000 0.000000 0.024009
#
#
# Mechanical properties :
#
#
# Convention : Reuss Voigt Hill
#
# Bulk Modulus (GPa) = 14.64222 24.69794 19.67008
# Shear Modulus (GPa) = 18.57075 32.20412 25.38744
#
# Velocity S-wave (km/s) = 3.11695 4.10461 3.64439
# Velocity P-wave (km/s) = 4.54027 5.94850 5.29144
#
# Compressibility (1/GPa) = 0.06829565
#
# Stress axis : x y z
#
# Youngs Moduli (GPa) = 62.61364 87.98366 12.79878
#
# Poissons Ratio (x) = -0.11099 0.14121
# Poissons Ratio (y) = -0.07898 0.11282
# Poissons Ratio (z) = 0.69082 0.77559
#
# Static dielectric constant tensor:
#      x y z
#    x 1.641180 0.000000 0.000000 
#    y 0.000000 1.638310 0.000000 
#    z 0.000000 0.000000 1.648970 
# 
# From -- ./inp_files/5652.got.cif
#   From: 2010.05.17/outbox.cif.g08.bks.cpg/sg55_3_cif.got.tgz:5652.got - 2010.06.03 13:27:54.
