data_PCOD9428803
_publ_section_title
;
Structure prediction by ZEFSAII (Michael W. Deem and Ramdas Pophale) SiO2 
 PCOD9428803
Probable space group: P B A M
;
_chemical_formula_sum "Si O2"
_cell_formula_units_Z 56
_cell_length_a 18.767414
_cell_length_b 10.015599
_cell_length_c 14.999306
_cell_angle_alpha 90.000000
_cell_angle_beta 90.000000
_cell_angle_gamma 90.000000
_cell_volume 2819.372944
_symmetry_space_group_name_H-M "P B A M"
_symmetry_group_IT_number 55
_symmetry_cell_setting 'orthorhombic'
loop_
_space_group_symop_operation_xyz
x,y,z
-x,-y,z
1/2+x,1/2-y,-z
1/2-x,1/2+y,-z
-x,-y,-z
x,y,-z
1/2-x,1/2+y,z
1/2+x,1/2-y,z
loop_
_atom_site_type_symbol
_atom_site_label
_atom_site_fract_x
_atom_site_fract_y
_atom_site_fract_z
Si Si1 0.812763 0.751733 0.106290
Si Si2 0.315482 0.055009 0.891618
Si Si3 0.065652 0.898663 0.274778
Si Si4 0.062795 0.599480 0.756077
Si Si5 0.698813 0.641383 0.394605
Si Si6 0.674235 0.948549 0.606413
Si Si7 0.085075 0.020747 0.901940
O O1 0.807523 0.599992 0.137936
O O2 0.751371 0.853615 0.136604
O O3 0.887862 0.829431 0.118912
O O4 0.803687 0.741104 0.000000
O O5 0.384262 0.107881 0.840030
O O6 0.322418 0.060099 0.000000
O O7 0.037690 0.747995 0.268437
O O8 0.126319 0.906246 0.348737
O O9 0.105415 0.931718 0.181551
O O10 0.000000 0.000000 0.287014
O O11 0.106269 0.544828 0.670459
O O12 0.000000 0.500000 0.778240
O O13 0.691890 0.621212 0.500000
O O14 0.767616 0.557951 0.366612
O O15 0.705625 0.799726 0.378622
O O16 0.658327 0.961435 0.500000
O O17 0.115352 0.985190 0.000000
O O18 0.000000 0.000000 0.907304
#
# Coordination Sequence:
#
# PCOD9428803 Si02
#       7
#     8   8   8   8   8   8   8
#     4   9  20  38  58  83 113 153 198 238 289 343
#     4  10  23  40  60  87 120 154 194 245 293 346
#     4  10  23  39  58  87 118 156 198 242 289 345
#     4  11  26  40  56  87 118 157 199 240 294 349
#     4   9  19  38  63  91 118 148 189 236 292 352
#     4   9  20  40  63  87 116 148 190 241 291 348
#     4   9  19  35  58  83 112 153 200 240 280 338
#
# _framework density 19.862573999999999
#
# number of rings (size 3 to 8) (size 9 to 14) (size 15 to 20)
#    0.000    2.429    0.000    0.000    8.000    3.714 
#    0.000    0.000    0.000    0.000    0.000    0.000 
#    0.000    0.000    0.000    0.000    0.000    0.000 
#
# Total GULP energy -312404.529106 kJ/mol
# GULP energy per Si atom -5578.652305 kJ/mol
# Density = 1.981737 g / cm^3
# Si number density = 19.862574 Si / 1000 Ang^3
#
#
#
# Elastic Constant Matrix: (Units=GPa)
#
#
# Indices 1 2 3 4 5 6 
#
# 1 64.0153 36.7159 4.7265 0.0000 0.0000 0.0000
# 2 36.7159 73.4734 -1.5630 0.0000 0.0000 0.0000
# 3 4.7265 -1.5630 36.0336 0.0000 0.0000 0.0000
# 4 0.0000 0.0000 0.0000 13.8999 0.0000 0.0000
# 5 0.0000 0.0000 0.0000 0.0000 24.4859 0.0000
# 6 0.0000 0.0000 0.0000 0.0000 0.0000 31.7790
#
#
#
# Elastic Compliance Matrix: (Units=1/GPa)
#
#
# Indices 1 2 3 4 5 6 
#
# 1 0.022309 -0.011221 -0.003413 0.000000 0.000000 0.000000
# 2 -0.011221 0.019267 0.002308 0.000000 0.000000 0.000000
# 3 -0.003413 0.002308 0.028300 0.000000 0.000000 0.000000
# 4 0.000000 0.000000 0.000000 0.071943 0.000000 0.000000
# 5 0.000000 0.000000 0.000000 0.000000 0.040840 0.000000
# 6 0.000000 0.000000 0.000000 0.000000 0.000000 0.031467
#
#
# Mechanical properties :
#
#
# Convention : Reuss Voigt Hill
#
# Bulk Modulus (GPa) = 22.11270 28.14235 25.12753
# Shear Modulus (GPa) = 19.69651 22.94247 21.31949
#
# Velocity S-wave (km/s) = 3.15245 3.40230 3.27976
# Velocity P-wave (km/s) = 4.94040 5.44367 5.19813
#
# Compressibility (1/GPa) = 0.04522288
#
# Stress axis : x y z
#
# Youngs Moduli (GPa) = 44.82515 51.90314 35.33610
#
# Poissons Ratio (x) = 0.58239 0.12060
# Poissons Ratio (y) = 0.50297 -0.08154
# Poissons Ratio (z) = 0.15299 -0.11977
#
# Static dielectric constant tensor:
#      x y z
#    x 1.694840 0.000000 0.000000 
#    y 0.000000 1.712730 0.000000 
#    z 0.000000 0.000000 1.714690 
# 
# From -- ./inp_files/17657.got.cif
#   From: 2010.05.17/outbox.cif.g08.bks.cpg/sg55_9_cif.got.tgz:17657.got - 2010.06.03 13:27:54.
