data_PCOD9428637
_publ_section_title
;
Structure prediction by ZEFSAII (Michael W. Deem and Ramdas Pophale) SiO2 
 PCOD9428637
Probable space group: P B A M
;
_chemical_formula_sum "Si O2"
_cell_formula_units_Z 40
_cell_length_a 9.672963
_cell_length_b 13.908061
_cell_length_c 14.275754
_cell_angle_alpha 90.000000
_cell_angle_beta 90.000000
_cell_angle_gamma 90.000000
_cell_volume 1920.548013
_symmetry_space_group_name_H-M "P B A M"
_symmetry_group_IT_number 55
_symmetry_cell_setting 'orthorhombic'
loop_
_space_group_symop_operation_xyz
x,y,z
-x,-y,z
1/2+x,1/2-y,-z
1/2-x,1/2+y,-z
-x,-y,-z
x,y,-z
1/2-x,1/2+y,z
1/2+x,1/2-y,z
loop_
_atom_site_type_symbol
_atom_site_label
_atom_site_fract_x
_atom_site_fract_y
_atom_site_fract_z
Si Si1 0.017767 0.241940 0.845929
Si Si2 0.127081 0.943190 0.604762
Si Si3 0.938611 0.395653 0.000000
Si Si4 0.394185 0.591393 0.000000
Si Si5 0.888107 0.420762 0.393607
Si Si6 0.223474 0.761822 0.720165
O O1 0.119683 0.252124 0.756308
O O2 0.864773 0.216981 0.812355
O O3 0.072331 0.156005 0.909561
O O4 0.995525 0.335852 0.910367
O O5 0.079601 0.914209 0.500000
O O6 0.192759 0.851023 0.653200
O O7 0.247664 0.020118 0.597774
O O8 0.000000 0.000000 0.652421
O O9 0.000000 0.500000 0.000000
O O10 0.772993 0.414208 0.000000
O O11 0.500000 0.500000 0.000000
O O12 0.931780 0.390150 0.500000
O O13 0.845885 0.331791 0.328066
O O14 0.000000 0.500000 0.359100
#
# Coordination Sequence:
#
# PCOD9428637 Si02
#       6
#     8   8   4   4   8   8
#     4  11  26  44  66  98 135 161 223 277 326 409
#     4  10  22  40  63  93 132 177 225 273 330 400
#     4  11  26  48  71  95 129 177 213 269 342 412
#     4  11  26  48  73  97 129 177 213 265 344 408
#     4  10  22  40  62  93 134 180 227 271 328 403
#     4  12  23  41  66  98 134 177 217 288 339 385
#
# _framework density 20.827389
#
# number of rings (size 3 to 8) (size 9 to 14) (size 15 to 20)
#    0.000    1.200    2.000    3.000    2.800    4.800 
#    0.000    8.000    0.000    0.000    0.000    0.000 
#    0.000    0.000    0.000    0.000    0.000    0.000 
#
# Total GULP energy -223139.475087 kJ/mol
# GULP energy per Si atom -5578.486877 kJ/mol
# Density = 2.077999 g / cm^3
# Si number density = 20.827389 Si / 1000 Ang^3
#
#
#
# Elastic Constant Matrix: (Units=GPa)
#
#
# Indices 1 2 3 4 5 6 
#
# 1 111.3646 53.2517 3.8177 0.0000 0.0000 0.0000
# 2 53.2517 126.7539 46.1504 0.0000 0.0000 0.0000
# 3 3.8177 46.1504 54.3860 0.0000 0.0000 0.0000
# 4 0.0000 0.0000 0.0000 -89.6334 0.0000 0.0000
# 5 0.0000 0.0000 0.0000 0.0000 444.8376 0.0000
# 6 0.0000 0.0000 0.0000 0.0000 0.0000 35.7475
#
#
#
# Elastic Compliance Matrix: (Units=1/GPa)
#
#
# Indices 1 2 3 4 5 6 
#
# 1 0.012115 -0.006917 0.005019 0.000000 0.000000 0.000000
# 2 -0.006917 0.015366 -0.012554 0.000000 0.000000 0.000000
# 3 0.005019 -0.012554 0.028687 0.000000 0.000000 0.000000
# 4 0.000000 0.000000 0.000000 -0.011157 0.000000 0.000000
# 5 0.000000 0.000000 0.000000 0.000000 0.002248 0.000000
# 6 0.000000 0.000000 0.000000 0.000000 0.000000 0.027974
#
#
# Mechanical properties :
#
#
# Convention : Reuss Voigt Hill
#
# Bulk Modulus (GPa) = 36.67636 55.43820 46.05728
# Shear Modulus (GPa) = 44.15953 90.80933 67.48443
#
# Velocity S-wave (km/s) = 4.60963 6.61026 5.69843
# Velocity P-wave (km/s) = 6.78081 9.21610 8.09061
#
# Compressibility (1/GPa) = 0.02726552
#
# Stress axis : x y z
#
# Youngs Moduli (GPa) = 82.54137 65.07821 34.85845
#
# Poissons Ratio (x) = 0.45017 -0.17497
# Poissons Ratio (y) = 0.57097 0.43760
# Poissons Ratio (z) = -0.41431 0.81697
#
# Static dielectric constant tensor:
#      x y z
#    x 1.768640 0.000000 0.000000 
#    y 0.000000 1.743770 0.000000 
#    z 0.000000 0.000000 1.736090 
# 
# From -- ./inp_files/17109.got.cif
#   From: 2010.05.17/outbox.cif.g08.bks.cpg/sg55_9_cif.got.tgz:17109.got - 2010.06.03 13:27:54.
