data_PCOD9428367
_publ_section_title
;
Structure prediction by ZEFSAII (Michael W. Deem and Ramdas Pophale) SiO2 
 PCOD9428367
Probable space group: P B A M
;
_chemical_formula_sum "Si O2"
_cell_formula_units_Z 64
_cell_length_a 31.231852
_cell_length_b 12.137576
_cell_length_c 8.947072
_cell_angle_alpha 90.000000
_cell_angle_beta 90.000000
_cell_angle_gamma 90.000000
_cell_volume 3391.646903
_symmetry_space_group_name_H-M "P B A M"
_symmetry_group_IT_number 55
_symmetry_cell_setting 'orthorhombic'
loop_
_space_group_symop_operation_xyz
x,y,z
-x,-y,z
1/2+x,1/2-y,-z
1/2-x,1/2+y,-z
-x,-y,-z
x,y,-z
1/2-x,1/2+y,z
1/2+x,1/2-y,z
loop_
_atom_site_type_symbol
_atom_site_label
_atom_site_fract_x
_atom_site_fract_y
_atom_site_fract_z
Si Si1 0.699738 0.748984 0.179833
Si Si2 0.953060 0.793660 0.321373
Si Si3 0.669298 0.504627 0.825316
Si Si4 0.620104 0.903063 0.179603
Si Si5 0.452837 0.245762 0.322336
Si Si6 0.932963 0.020810 0.825616
Si Si7 0.291606 0.708208 0.678061
Si Si8 0.628238 0.143572 0.319474
O O1 0.685031 0.625676 0.219922
O O2 0.662587 0.834385 0.225051
O O3 0.745536 0.773566 0.249689
O O4 0.702933 0.754016 0.000000
O O5 0.950973 0.814485 0.500000
O O6 0.954288 0.910731 0.238697
O O7 0.911048 0.724519 0.278342
O O8 0.996779 0.727432 0.291666
O O9 0.618080 0.502249 0.814116
O O10 0.690063 0.409378 0.728154
O O11 0.680701 0.487277 0.000000
O O12 0.578948 0.837579 0.240484
O O13 0.622548 0.025293 0.245118
O O14 0.618583 0.905720 0.000000
O O15 0.445914 0.238675 0.500000
O O16 0.443558 0.369513 0.265837
O O17 0.943781 0.036994 0.000000
O O18 0.287951 0.712729 0.500000
O O19 0.327001 0.799076 0.724530
O O20 0.627605 0.132259 0.500000
#
# Coordination Sequence:
#
# PCOD9428367 Si02
#       8
#     8   8   8   8   8   8   8   8
#     4  10  23  43  63  87 122 162 200 244 301 364
#     4  10  22  41  62  88 123 163 203 243 302 369
#     4  10  21  40  64  89 121 161 199 240 300 360
#     4  11  24  43  64  88 120 159 205 252 301 358
#     4  11  23  39  63  90 121 162 202 246 303 364
#     4  11  21  37  62  93 126 157 200 252 299 354
#     4  11  24  40  63  94 123 155 201 253 297 350
#     4  10  23  43  62  86 122 160 201 248 300 358
#
# _framework density 18.869889000000001
#
# number of rings (size 3 to 8) (size 9 to 14) (size 15 to 20)
#    0.000    1.500    2.500    1.875    1.750    6.500 
#    0.000    2.500    0.000    0.000    0.000    0.000 
#    0.000    0.000    0.000    0.000    0.000    0.000 
#
# Total GULP energy -357734.643152 kJ/mol
# GULP energy per Si atom -5589.603799 kJ/mol
# Density = 1.882694 g / cm^3
# Si number density = 18.869889 Si / 1000 Ang^3
#
#
#
# Elastic Constant Matrix: (Units=GPa)
#
#
# Indices 1 2 3 4 5 6 
#
# 1 70.1216 8.1123 18.6184 0.0000 0.0000 0.0000
# 2 8.1123 84.9022 19.6249 0.0000 0.0000 0.0000
# 3 18.6184 19.6249 24.0843 0.0000 0.0000 0.0000
# 4 0.0000 0.0000 0.0000 37.9024 0.0000 0.0000
# 5 0.0000 0.0000 0.0000 0.0000 30.0365 0.0000
# 6 0.0000 0.0000 0.0000 0.0000 0.0000 1.8664
#
#
#
# Elastic Compliance Matrix: (Units=1/GPa)
#
#
# Indices 1 2 3 4 5 6 
#
# 1 0.018180 0.001862 -0.015571 0.000000 0.000000 0.000000
# 2 0.001862 0.014702 -0.013420 0.000000 0.000000 0.000000
# 3 -0.015571 -0.013420 0.064493 0.000000 0.000000 0.000000
# 4 0.000000 0.000000 0.000000 0.026384 0.000000 0.000000
# 5 0.000000 0.000000 0.000000 0.000000 0.033293 0.000000
# 6 0.000000 0.000000 0.000000 0.000000 0.000000 0.535783
#
#
# Mechanical properties :
#
#
# Convention : Reuss Voigt Hill
#
# Bulk Modulus (GPa) = 23.19234 30.20216 26.69725
# Shear Modulus (GPa) = 6.56629 22.81125 14.68877
#
# Velocity S-wave (km/s) = 1.86744 3.48065 2.79305
# Velocity P-wave (km/s) = 4.11911 5.67393 4.95785
#
# Compressibility (1/GPa) = 0.04311768
#
# Stress axis : x y z
#
# Youngs Moduli (GPa) = 55.00553 68.01692 15.50552
#
# Poissons Ratio (x) = -0.12666 0.24144
# Poissons Ratio (y) = -0.10243 0.20808
# Poissons Ratio (z) = 0.85652 0.91276
#
# Static dielectric constant tensor:
#      x y z
#    x 1.654190 0.000000 0.000000 
#    y 0.000000 1.611750 0.000000 
#    z 0.000000 0.000000 1.632400 
# 
# From -- ./inp_files/4610.got.cif
#   From: 2010.05.17/outbox.cif.g08.bks.cpg/sg55_3_cif.got.tgz:4610.got - 2010.06.03 13:27:54.
