data_PCOD9428944
_publ_section_title
;
Structure prediction by ZEFSAII (Michael W. Deem and Ramdas Pophale) SiO2 
 PCOD9428944
Probable space group: P B A M
;
_chemical_formula_sum "Si O2"
_cell_formula_units_Z 36
_cell_length_a 9.470102
_cell_length_b 13.835198
_cell_length_c 12.872654
_cell_angle_alpha 90.000000
_cell_angle_beta 90.000000
_cell_angle_gamma 90.000000
_cell_volume 1686.584605
_symmetry_space_group_name_H-M "P B A M"
_symmetry_group_IT_number 55
_symmetry_cell_setting 'orthorhombic'
loop_
_space_group_symop_operation_xyz
x,y,z
-x,-y,z
1/2+x,1/2-y,-z
1/2-x,1/2+y,-z
-x,-y,-z
x,y,-z
1/2-x,1/2+y,z
1/2+x,1/2-y,z
loop_
_atom_site_type_symbol
_atom_site_label
_atom_site_fract_x
_atom_site_fract_y
_atom_site_fract_z
Si Si1 0.416035 0.259859 0.337832
Si Si2 0.611566 0.870375 0.000000
Si Si3 0.281468 0.824640 0.000000
Si Si4 0.167417 0.286811 0.500000
Si Si5 0.639234 0.942474 0.229888
Si Si6 0.118198 0.927765 0.813642
O O1 0.289834 0.296727 0.409864
O O2 0.547003 0.231486 0.409363
O O3 0.364135 0.163126 0.279302
O O4 0.450585 0.343124 0.254644
O O5 0.450761 0.830778 0.000000
O O6 0.632834 0.929959 0.105177
O O7 0.724381 0.784250 0.000000
O O8 0.214329 0.876524 0.100103
O O9 0.500000 0.000000 0.264541
O O10 0.777002 0.005254 0.254245
O O11 0.000000 0.000000 0.857852
#
# Coordination Sequence:
#
# PCOD9428944 Si02
#       6
#     8   4   4   4   8   8
#     4  11  24  47  69 100 135 175 235 284 355 401
#     4  12  26  43  70 104 145 184 224 279 336 413
#     4  12  26  44  68 106 145 185 226 274 340 409
#     4  10  24  46  72  94 136 176 220 312 344 394
#     4  12  24  44  72  99 140 185 226 276 343 414
#     4  12  26  43  70 105 141 185 229 279 341 413
#
# _framework density 21.344912000000001
#
# number of rings (size 3 to 8) (size 9 to 14) (size 15 to 20)
#    0.000    0.444    4.444    4.000    3.111    0.000 
#    0.000   22.222    0.000    0.000    0.000    0.000 
#    0.000    0.000    0.000    0.000    0.000    0.000 
#
# Total GULP energy -200404.504265 kJ/mol
# GULP energy per Si atom -5566.791785 kJ/mol
# Density = 2.129633 g / cm^3
# Si number density = 21.344912 Si / 1000 Ang^3
#
#
#
# Elastic Constant Matrix: (Units=GPa)
#
#
# Indices 1 2 3 4 5 6 
#
# 1 46.7394 -21.4172 -30.2493 0.0000 0.0000 0.0000
# 2 -21.4172 93.1288 7.6904 0.0000 0.0000 0.0000
# 3 -30.2493 7.6904 73.0894 0.0000 0.0000 0.0000
# 4 0.0000 0.0000 0.0000 -13.2305 0.0000 0.0000
# 5 0.0000 0.0000 0.0000 0.0000 -210.1133 0.0000
# 6 0.0000 0.0000 0.0000 0.0000 0.0000 24.4858
#
#
#
# Elastic Compliance Matrix: (Units=1/GPa)
#
#
# Indices 1 2 3 4 5 6 
#
# 1 0.032660 0.006451 0.012838 0.000000 0.000000 0.000000
# 2 0.006451 0.012106 0.001396 0.000000 0.000000 0.000000
# 3 0.012838 0.001396 0.018848 0.000000 0.000000 0.000000
# 4 0.000000 0.000000 0.000000 -0.075583 0.000000 0.000000
# 5 0.000000 0.000000 0.000000 0.000000 -0.004759 0.000000
# 6 0.000000 0.000000 0.000000 0.000000 0.000000 0.040840
#
#
# Mechanical properties :
#
#
# Convention : Reuss Voigt Hill
#
# Bulk Modulus (GPa) = 9.52530 13.88949 11.70739
# Shear Modulus (GPa) = 281.90106 -22.64267 129.62920
#
# Velocity S-wave (km/s) = 11.50461 -3.26052 7.80145
# Velocity P-wave (km/s) = 13.45166 2.76648 9.30843
#
# Compressibility (1/GPa) = 0.10498359
#
# Stress axis : x y z
#
# Youngs Moduli (GPa) = 30.61872 82.60335 53.05538
#
# Poissons Ratio (x) = -0.53285 -0.68113
# Poissons Ratio (y) = -0.19751 -0.07406
# Poissons Ratio (z) = -0.39308 -0.11531
#
# Static dielectric constant tensor:
#      x y z
#    x 1.753040 0.000000 0.000000 
#    y 0.000000 1.769330 0.000000 
#    z 0.000000 0.000000 1.771150 
# 
# From -- ./inp_files/17018.got.cif
#   From: 2010.05.17/outbox.cif.g08.bks.cpg/sg55_9_cif.got.tgz:17018.got - 2010.06.03 13:27:54.
