data_PCOD9428078
_publ_section_title
;
Structure prediction by ZEFSAII (Michael W. Deem and Ramdas Pophale) SiO2 
 PCOD9428078
Probable space group: P B A M
;
_chemical_formula_sum "Si O2"
_cell_formula_units_Z 64
_cell_length_a 20.036792
_cell_length_b 8.786029
_cell_length_c 18.616452
_cell_angle_alpha 90.000000
_cell_angle_beta 90.000000
_cell_angle_gamma 90.000000
_cell_volume 3277.311615
_symmetry_space_group_name_H-M "P B A M"
_symmetry_group_IT_number 55
_symmetry_cell_setting 'orthorhombic'
loop_
_space_group_symop_operation_xyz
x,y,z
-x,-y,z
1/2+x,1/2-y,-z
1/2-x,1/2+y,-z
-x,-y,-z
x,y,-z
1/2-x,1/2+y,z
1/2+x,1/2-y,z
loop_
_atom_site_type_symbol
_atom_site_label
_atom_site_fract_x
_atom_site_fract_y
_atom_site_fract_z
Si Si1 0.329719 0.609087 0.582212
Si Si2 0.431163 0.079053 0.828675
Si Si3 0.194220 0.444402 0.369287
Si Si4 0.938233 0.389817 0.655233
Si Si5 0.937316 0.106850 0.915729
Si Si6 0.691228 0.129745 0.199691
Si Si7 0.332130 0.512738 0.178728
Si Si8 0.927125 0.050238 0.687105
O O1 0.341736 0.566399 0.500000
O O2 0.315045 0.787543 0.589056
O O3 0.263711 0.522922 0.610804
O O4 0.392078 0.565552 0.632153
O O5 0.434617 0.101210 0.742419
O O6 0.429974 0.237765 0.870674
O O7 0.500000 0.000000 0.850779
O O8 0.367279 0.968999 0.837513
O O9 0.129719 0.549951 0.380148
O O10 0.192630 0.406625 0.284623
O O11 0.939844 0.208674 0.645537
O O12 0.000000 0.500000 0.633968
O O13 0.873287 0.009337 0.893654
O O14 0.941441 0.140509 0.000000
O O15 0.000000 0.000000 0.895743
O O16 0.679946 0.309205 0.192254
O O17 0.763233 0.077066 0.173037
O O18 0.376258 0.446528 0.245326
O O19 0.000000 0.000000 0.713338
#
# Coordination Sequence:
#
# PCOD9428078 Si02
#       8
#     8   8   8   8   8   8   8   8
#     4  12  25  41  63  92 130 170 213 262 325 394
#     4  10  21  37  64  96 126 166 210 264 316 377
#     4  11  21  40  62  93 127 166 209 263 322 382
#     4  10  22  37  64  96 126 158 212 269 320 368
#     4  11  24  42  64  94 136 177 213 260 321 384
#     4  11  22  38  66  96 126 160 214 273 319 370
#     4  12  23  40  65  97 126 168 215 266 318 378
#     4  12  24  39  66  93 124 167 214 270 317 377
#
# _framework density 19.528200999999999
#
# number of rings (size 3 to 8) (size 9 to 14) (size 15 to 20)
#    0.000    0.875    3.750    3.750    5.250    0.500 
#    0.000    3.750    0.000    2.625    0.000    0.000 
#    0.000    0.000    0.000    0.000    0.000    0.000 
#
# Total GULP energy -357508.811164 kJ/mol
# GULP energy per Si atom -5586.075174 kJ/mol
# Density = 1.948375 g / cm^3
# Si number density = 19.528201 Si / 1000 Ang^3
#
#
#
# Elastic Constant Matrix: (Units=GPa)
#
#
# Indices 1 2 3 4 5 6 
#
# 1 142.1743 35.2714 27.3420 0.0000 0.0000 0.0000
# 2 35.2714 91.5853 17.2471 0.0000 0.0000 0.0000
# 3 27.3420 17.2471 51.9812 0.0000 0.0000 0.0000
# 4 0.0000 0.0000 0.0000 1827.3395 0.0000 0.0000
# 5 0.0000 0.0000 0.0000 0.0000 17.4957 0.0000
# 6 0.0000 0.0000 0.0000 0.0000 0.0000 36.5366
#
#
#
# Elastic Compliance Matrix: (Units=1/GPa)
#
#
# Indices 1 2 3 4 5 6 
#
# 1 0.008347 -0.002547 -0.003546 0.000000 0.000000 0.000000
# 2 -0.002547 0.012424 -0.002782 0.000000 0.000000 0.000000
# 3 -0.003546 -0.002782 0.022026 0.000000 0.000000 0.000000
# 4 0.000000 0.000000 0.000000 0.000547 0.000000 0.000000
# 5 0.000000 0.000000 0.000000 0.000000 0.057157 0.000000
# 6 0.000000 0.000000 0.000000 0.000000 0.000000 0.027370
#
#
# Mechanical properties :
#
#
# Convention : Reuss Voigt Hill
#
# Bulk Modulus (GPa) = 39.92512 49.49575 44.71044
# Shear Modulus (GPa) = 32.47389 389.99972 211.23680
#
# Velocity S-wave (km/s) = 4.08232 14.14725 10.41177
# Velocity P-wave (km/s) = 6.53526 17.09562 12.94160
#
# Compressibility (1/GPa) = 0.02504689
#
# Stress axis : x y z
#
# Youngs Moduli (GPa) = 119.79823 80.49146 45.40116
#
# Poissons Ratio (x) = 0.20502 0.16097
# Poissons Ratio (y) = 0.30513 0.12632
# Poissons Ratio (z) = 0.42476 0.22396
#
# Static dielectric constant tensor:
#      x y z
#    x 1.701850 0.000000 0.000000 
#    y 0.000000 1.697160 0.000000 
#    z 0.000000 0.000000 1.669250 
# 
# From -- ./inp_files/23146.got.cif
#   From: 2010.05.17/outbox.cif.g08.bks.cpg/sg55_12_cif.got.tgz:23146.got - 2010.06.03 13:27:54.
