data_PCOD9428306
_publ_section_title
;
Structure prediction by ZEFSAII (Michael W. Deem and Ramdas Pophale) SiO2 
 PCOD9428306
Probable space group: P B A M
;
_chemical_formula_sum "Si O2"
_cell_formula_units_Z 38
_cell_length_a 35.480281
_cell_length_b 5.137304
_cell_length_c 10.172455
_cell_angle_alpha 90.000000
_cell_angle_beta 90.000000
_cell_angle_gamma 90.000000
_cell_volume 1854.163783
_symmetry_space_group_name_H-M "P B A M"
_symmetry_group_IT_number 55
_symmetry_cell_setting 'orthorhombic'
loop_
_space_group_symop_operation_xyz
x,y,z
-x,-y,z
1/2+x,1/2-y,-z
1/2-x,1/2+y,-z
-x,-y,-z
x,y,-z
1/2-x,1/2+y,z
1/2+x,1/2-y,z
loop_
_atom_site_type_symbol
_atom_site_label
_atom_site_fract_x
_atom_site_fract_y
_atom_site_fract_z
Si Si1 0.775595 0.019388 0.848747
Si Si2 0.112526 0.338045 0.344136
Si Si3 0.843793 0.160288 0.660259
Si Si4 0.500000 0.500000 0.500000
Si Si5 0.460876 0.160424 0.716959
Si Si6 0.473393 0.254060 0.000000
O O1 0.743043 0.236562 0.833764
O O2 0.807089 0.074555 0.739868
O O3 0.790037 0.042426 0.000000
O O4 0.116412 0.333161 0.500000
O O5 0.123487 0.048037 0.302559
O O6 0.071628 0.458199 0.319628
O O7 0.142663 0.553327 0.297370
O O8 0.838568 0.156808 0.500000
O O9 0.470569 0.387026 0.614109
O O10 0.451804 0.256956 0.863004
O O11 0.500000 0.000000 0.716743
O O12 0.500000 0.500000 0.000000
O O13 0.500000 0.000000 0.000000
#
# Coordination Sequence:
#
# PCOD9428306 Si02
#       6
#     8   8   8   2   8   4
#     4  10  21  39  64  90 119 151 190 239 282 341
#     4  10  22  37  58  84 122 153 195 247 297 347
#     4  10  22  39  58  87 122 157 188 237 293 351
#     4  12  22  34  68  86 112 154 218 264 306 358
#     4  11  24  38  60  87 116 159 212 259 309 360
#     4  10  22  40  56  78 116 146 188 256 308 354
#
# _framework density 20.494415
#
# number of rings (size 3 to 8) (size 9 to 14) (size 15 to 20)
#    0.000    1.684    2.105    1.579    2.947    0.842 
#    3.789    0.000    0.000    0.000    0.000    0.000 
#    0.000    0.000    0.000    0.000    0.000    0.000 
#
# Total GULP energy -211563.030223 kJ/mol
# GULP energy per Si atom -5567.448164 kJ/mol
# Density = 2.044777 g / cm^3
# Si number density = 20.494415 Si / 1000 Ang^3
#
#
#
# Elastic Constant Matrix: (Units=GPa)
#
#
# Indices 1 2 3 4 5 6 
#
# 1 51.6590 -14.3981 12.8112 0.0000 0.0000 0.0000
# 2 -14.3981 56.3160 19.9414 0.0000 0.0000 0.0000
# 3 12.8112 19.9414 81.3254 0.0000 0.0000 0.0000
# 4 0.0000 0.0000 0.0000 -15.1078 0.0000 0.0000
# 5 0.0000 0.0000 0.0000 0.0000 -39.6354 0.0000
# 6 0.0000 0.0000 0.0000 0.0000 0.0000 29.4582
#
#
#
# Elastic Compliance Matrix: (Units=1/GPa)
#
#
# Indices 1 2 3 4 5 6 
#
# 1 0.022905 0.007812 -0.005524 0.000000 0.000000 0.000000
# 2 0.007812 0.022110 -0.006652 0.000000 0.000000 0.000000
# 3 -0.005524 -0.006652 0.014798 0.000000 0.000000 0.000000
# 4 0.000000 0.000000 0.000000 -0.066191 0.000000 0.000000
# 5 0.000000 0.000000 0.000000 0.000000 -0.025230 0.000000
# 6 0.000000 0.000000 0.000000 0.000000 0.000000 0.033946
#
#
# Mechanical properties :
#
#
# Convention : Reuss Voigt Hill
#
# Bulk Modulus (GPa) = 19.57544 25.11216 22.34380
# Shear Modulus (GPa) = 177.97907 6.33940 92.15923
#
# Velocity S-wave (km/s) = 9.32905 1.76067 6.71309
# Velocity P-wave (km/s) = 11.20776 4.05130 8.42695
#
# Compressibility (1/GPa) = 0.05108442
#
# Stress axis : x y z
#
# Youngs Moduli (GPa) = 43.65887 45.22912 67.57873
#
# Poissons Ratio (x) = -0.35333 0.37329
# Poissons Ratio (y) = -0.34106 0.44954
# Poissons Ratio (z) = 0.24116 0.30087
#
# Static dielectric constant tensor:
#      x y z
#    x 1.717160 0.000000 0.000000 
#    y 0.000000 1.824190 0.000000 
#    z 0.000000 0.000000 1.820740 
# 
# From -- ./inp_files/11401.got.cif
#   From: 2010.05.17/outbox.cif.g08.bks.cpg/sg55_6_cif.got.tgz:11401.got - 2010.06.03 13:27:54.
