data_PCOD9428107
_publ_section_title
;
Structure prediction by ZEFSAII (Michael W. Deem and Ramdas Pophale) SiO2 
 PCOD9428107
Probable space group: P B A M
;
_chemical_formula_sum "Si O2"
_cell_formula_units_Z 54
_cell_length_a 16.719682
_cell_length_b 5.437109
_cell_length_c 23.632558
_cell_angle_alpha 90.000000
_cell_angle_beta 90.000000
_cell_angle_gamma 90.000000
_cell_volume 2148.358652
_symmetry_space_group_name_H-M "P B A M"
_symmetry_group_IT_number 55
_symmetry_cell_setting 'orthorhombic'
loop_
_space_group_symop_operation_xyz
x,y,z
-x,-y,z
1/2+x,1/2-y,-z
1/2-x,1/2+y,-z
-x,-y,-z
x,y,-z
1/2-x,1/2+y,z
1/2+x,1/2-y,z
loop_
_atom_site_type_symbol
_atom_site_label
_atom_site_fract_x
_atom_site_fract_y
_atom_site_fract_z
Si Si1 0.530434 0.750944 0.095337
Si Si2 0.210849 0.834085 0.665958
Si Si3 0.775668 0.692880 0.791189
Si Si4 0.464245 0.751864 0.775699
Si Si5 0.802850 0.550578 0.500000
Si Si6 0.078960 0.646949 0.408705
Si Si7 0.705472 0.864417 0.932670
Si Si8 0.500000 0.500000 0.500000
O O1 0.500000 0.500000 0.068257
O O2 0.492901 0.750232 0.158710
O O3 0.625286 0.771725 0.098121
O O4 0.500000 0.000000 0.067209
O O5 0.266637 0.606609 0.645458
O O6 0.223904 0.830365 0.733225
O O7 0.125103 0.756385 0.644268
O O8 0.757661 0.434903 0.820571
O O9 0.868451 0.726950 0.776377
O O10 0.500000 0.500000 0.750668
O O11 0.500000 0.000000 0.749616
O O12 0.753801 0.806335 0.500000
O O13 0.861677 0.526795 0.445894
O O14 0.000000 0.500000 0.393433
O O15 0.053075 0.860780 0.451171
O O16 0.772935 0.652723 0.923905
O O17 0.686884 0.845248 0.000000
#
# Coordination Sequence:
#
# PCOD9428107 Si02
#       8
#     8   8   8   8   4   8   8   2
#     4  10  21  38  58  91 129 165 218 269 333 387
#     4  10  23  44  68  94 129 168 213 253 310 377
#     4  10  21  42  69  94 128 166 214 261 324 392
#     4  10  21  40  64  95 131 165 212 271 332 390
#     4  11  24  39  64  90 124 167 202 243 291 357
#     4  11  25  41  66  95 134 164 213 255 311 359
#     4  10  21  38  60  87 125 174 224 272 326 391
#     4  10  24  40  64  90 132 162 204 248 310 356
#
# _framework density 25.135466999999998
#
# number of rings (size 3 to 8) (size 9 to 14) (size 15 to 20)
#    0.000    1.778    0.000    3.556    6.222    0.593 
#    0.000   26.667    0.000    0.000    0.000    0.000 
#    0.000    0.000    0.000    0.000    0.000    0.000 
#
# Total GULP energy -301807.366180 kJ/mol
# GULP energy per Si atom -5589.025300 kJ/mol
# Density = 2.507826 g / cm^3
# Si number density = 25.135467 Si / 1000 Ang^3
#
#
#
# Elastic Constant Matrix: (Units=GPa)
#
#
# Indices 1 2 3 4 5 6 
#
# 1 130.4099 66.1945 28.7734 0.0000 0.0000 0.0000
# 2 66.1945 227.2566 11.2249 0.0000 0.0000 0.0000
# 3 28.7734 11.2249 81.5995 0.0000 0.0000 0.0000
# 4 0.0000 0.0000 0.0000 42.2772 0.0000 0.0000
# 5 0.0000 0.0000 0.0000 0.0000 -43.6586 0.0000
# 6 0.0000 0.0000 0.0000 0.0000 0.0000 55.2356
#
#
#
# Elastic Compliance Matrix: (Units=1/GPa)
#
#
# Indices 1 2 3 4 5 6 
#
# 1 0.009699 -0.002674 -0.003052 0.000000 0.000000 0.000000
# 2 -0.002674 0.005168 0.000232 0.000000 0.000000 0.000000
# 3 -0.003052 0.000232 0.013299 0.000000 0.000000 0.000000
# 4 0.000000 0.000000 0.000000 0.023653 0.000000 0.000000
# 5 0.000000 0.000000 0.000000 0.000000 -0.022905 0.000000
# 6 0.000000 0.000000 0.000000 0.000000 0.000000 0.018104
#
#
# Mechanical properties :
#
#
# Convention : Reuss Voigt Hill
#
# Bulk Modulus (GPa) = 58.21608 72.40574 65.31091
# Shear Modulus (GPa) = 78.45186 32.97572 55.71379
#
# Velocity S-wave (km/s) = 5.59280 3.62597 4.71312
# Velocity P-wave (km/s) = 8.05711 6.81168 7.46043
#
# Compressibility (1/GPa) = 0.01717738
#
# Stress axis : x y z
#
# Youngs Moduli (GPa) = 103.10321 193.50515 75.19199
#
# Poissons Ratio (x) = 0.51750 0.22950
# Poissons Ratio (y) = 0.27573 -0.01745
# Poissons Ratio (z) = 0.31469 -0.04492
#
# Static dielectric constant tensor:
#      x y z
#    x 1.937850 0.000000 0.000000 
#    y 0.000000 2.102180 0.000000 
#    z 0.000000 0.000000 2.347890 
# 
# From -- ./inp_files/24188.got.cif
#   From: 2010.05.17/outbox.cif.g08.bks.cpg/sg55_13_cif.got.tgz:24188.got - 2010.06.03 13:27:54.
