data_PCOD9428439
_publ_section_title
;
Structure prediction by ZEFSAII (Michael W. Deem and Ramdas Pophale) SiO2 
 PCOD9428439
Probable space group: P B A M
;
_chemical_formula_sum "Si O2"
_cell_formula_units_Z 64
_cell_length_a 9.286485
_cell_length_b 17.454686
_cell_length_c 20.389592
_cell_angle_alpha 90.000000
_cell_angle_beta 90.000000
_cell_angle_gamma 90.000000
_cell_volume 3305.003606
_symmetry_space_group_name_H-M "P B A M"
_symmetry_group_IT_number 55
_symmetry_cell_setting 'orthorhombic'
loop_
_space_group_symop_operation_xyz
x,y,z
-x,-y,z
1/2+x,1/2-y,-z
1/2-x,1/2+y,-z
-x,-y,-z
x,y,-z
1/2-x,1/2+y,z
1/2+x,1/2-y,z
loop_
_atom_site_type_symbol
_atom_site_label
_atom_site_fract_x
_atom_site_fract_y
_atom_site_fract_z
Si Si1 0.473269 0.249128 0.647382
Si Si2 0.516741 0.663030 0.926692
Si Si3 0.773175 0.853265 0.294306
Si Si4 0.616460 0.446185 0.822285
Si Si5 0.862434 0.553295 0.183789
Si Si6 0.776296 0.654819 0.577993
Si Si7 0.643150 0.177052 0.924825
Si Si8 0.169426 0.482676 0.668471
O O1 0.586063 0.306263 0.682833
O O2 0.369778 0.198226 0.694739
O O3 0.359904 0.295969 0.603241
O O4 0.577183 0.194686 0.604637
O O5 0.470221 0.598810 0.876492
O O6 0.428174 0.740584 0.916186
O O7 0.684592 0.682506 0.921771
O O8 0.486597 0.635326 0.000000
O O9 0.802865 0.883343 0.221447
O O10 0.746881 0.934772 0.330377
O O11 0.500000 0.500000 0.784700
O O12 0.736075 0.503811 0.849040
O O13 0.897010 0.623857 0.136865
O O14 0.816118 0.561351 0.260604
O O15 0.000000 0.500000 0.188269
O O16 0.777583 0.650591 0.500000
O O17 0.772232 0.572384 0.612533
O O18 0.605911 0.150184 0.000000
O O19 0.000000 0.500000 0.659243
#
# Coordination Sequence:
#
# PCOD9428439 Si02
#       8
#     8   8   8   8   8   8   8   8
#     4  10  23  42  63  92 126 165 203 260 304 369
#     4  10  23  40  59  85 121 160 206 255 305 367
#     4  10  23  41  64  94 125 162 207 254 316 369
#     4  11  23  40  62  91 120 162 204 255 315 371
#     4  10  23  40  62  88 123 159 201 255 306 364
#     4  11  23  41  65  92 125 167 209 254 309 370
#     4  10  22  41  61  87 120 161 207 254 304 367
#     4  10  21  42  63  90 127 160 205 258 312 371
#
# _framework density 19.364578000000002
#
# number of rings (size 3 to 8) (size 9 to 14) (size 15 to 20)
#    0.000    1.750    2.500    0.375    5.250    4.250 
#    0.000    1.875    0.000    0.000    0.000    0.000 
#    0.000    0.000    0.000    0.000    0.000    0.000 
#
# Total GULP energy -357056.262278 kJ/mol
# GULP energy per Si atom -5579.004098 kJ/mol
# Density = 1.932050 g / cm^3
# Si number density = 19.364578 Si / 1000 Ang^3
#
#
#
# Elastic Constant Matrix: (Units=GPa)
#
#
# Indices 1 2 3 4 5 6 
#
# 1 83.1686 25.2211 20.8055 0.0000 0.0000 0.0000
# 2 25.2211 65.0629 38.6590 0.0000 0.0000 0.0000
# 3 20.8055 38.6590 52.9719 0.0000 0.0000 0.0000
# 4 0.0000 0.0000 0.0000 24.0809 0.0000 0.0000
# 5 0.0000 0.0000 0.0000 0.0000 9.4966 0.0000
# 6 0.0000 0.0000 0.0000 0.0000 0.0000 36.1508
#
#
#
# Elastic Compliance Matrix: (Units=1/GPa)
#
#
# Indices 1 2 3 4 5 6 
#
# 1 0.013838 -0.003769 -0.002684 0.000000 0.000000 0.000000
# 2 -0.003769 0.028164 -0.019074 0.000000 0.000000 0.000000
# 3 -0.002684 -0.019074 0.033852 0.000000 0.000000 0.000000
# 4 0.000000 0.000000 0.000000 0.041527 0.000000 0.000000
# 5 0.000000 0.000000 0.000000 0.000000 0.105301 0.000000
# 6 0.000000 0.000000 0.000000 0.000000 0.000000 0.027662
#
#
# Mechanical properties :
#
#
# Convention : Reuss Voigt Hill
#
# Bulk Modulus (GPa) = 40.32277 41.17496 40.74886
# Shear Modulus (GPa) = 16.14641 21.71350 18.92996
#
# Velocity S-wave (km/s) = 2.89071 3.35221 3.12998
# Velocity P-wave (km/s) = 5.65772 6.02431 5.84389
#
# Compressibility (1/GPa) = 0.02479989
#
# Stress axis : x y z
#
# Youngs Moduli (GPa) = 72.26290 35.50612 29.54006
#
# Poissons Ratio (x) = 0.13384 0.07930
# Poissons Ratio (y) = 0.27239 0.56344
# Poissons Ratio (z) = 0.19398 0.67724
#
# Static dielectric constant tensor:
#      x y z
#    x 1.609090 0.000000 0.000000 
#    y 0.000000 1.298700 0.000000 
#    z 0.000000 0.000000 1.681110 
# 
# From -- ./inp_files/22711.got.cif
#   From: 2010.05.17/outbox.cif.g08.bks.cpg/sg55_12_cif.got.tgz:22711.got - 2010.06.03 13:27:54.
