data_PCOD9428188
_publ_section_title
;
Structure prediction by ZEFSAII (Michael W. Deem and Ramdas Pophale) SiO2 
 PCOD9428188
Probable space group: P B A M
;
_chemical_formula_sum "Si O2"
_cell_formula_units_Z 58
_cell_length_a 12.005808
_cell_length_b 29.073229
_cell_length_c 7.739813
_cell_angle_alpha 90.000000
_cell_angle_beta 90.000000
_cell_angle_gamma 90.000000
_cell_volume 2701.563193
_symmetry_space_group_name_H-M "P B A M"
_symmetry_group_IT_number 55
_symmetry_cell_setting 'orthorhombic'
loop_
_space_group_symop_operation_xyz
x,y,z
-x,-y,z
1/2+x,1/2-y,-z
1/2-x,1/2+y,-z
-x,-y,-z
x,y,-z
1/2-x,1/2+y,z
1/2+x,1/2-y,z
loop_
_atom_site_type_symbol
_atom_site_label
_atom_site_fract_x
_atom_site_fract_y
_atom_site_fract_z
Si Si1 0.541755 0.887374 0.299477
Si Si2 0.113058 0.805855 0.201372
Si Si3 0.139336 0.966084 0.294393
Si Si4 0.757864 0.935788 0.710229
Si Si5 0.121740 0.155810 0.297632
Si Si6 0.000000 0.000000 0.000000
Si Si7 0.835994 0.295519 0.202120
Si Si8 0.705460 0.122262 0.294266
O O1 0.527424 0.900879 0.500000
O O2 0.634474 0.922166 0.226245
O O3 0.599068 0.837358 0.290914
O O4 0.418745 0.884534 0.222438
O O5 0.131920 0.754507 0.272496
O O6 0.224559 0.835485 0.221085
O O7 0.007254 0.832436 0.277777
O O8 0.087921 0.801011 0.000000
O O9 0.107232 0.967410 0.500000
O O10 0.222347 0.923700 0.271713
O O11 0.201104 0.013736 0.242547
O O12 0.041408 0.964359 0.155522
O O13 0.756359 0.935583 0.500000
O O14 0.839002 0.894341 0.767727
O O15 0.147737 0.156128 0.500000
O O16 0.204536 0.193560 0.217359
O O17 0.865121 0.297622 0.000000
O O18 0.696356 0.130799 0.500000
#
# Coordination Sequence:
#
# PCOD9428188 Si02
#       8
#     8   8   8   8   8   2   8   8
#     4   9  19  39  65  91 121 159 208 257 308 370
#     4  11  25  39  58  83 123 162 200 251 312 376
#     4  10  23  42  64  94 130 169 214 263 316 374
#     4   8  17  37  63  89 119 157 201 254 307 361
#     4  10  21  38  62  88 114 150 203 256 300 361
#     4  12  26  40  64  92 128 172 218 252 310 378
#     4  10  22  40  58  86 118 160 201 248 315 372
#     4  10  23  40  61  93 126 162 205 254 313 370
#
# _framework density 21.469051
#
# number of rings (size 3 to 8) (size 9 to 14) (size 15 to 20)
#    0.000    2.207    0.000    2.276    4.828    3.310 
#    4.966    2.759    0.000    0.828    0.000    0.000 
#    0.000    0.000    0.000    0.000    0.000    0.000 
#
# Total GULP energy -323309.792325 kJ/mol
# GULP energy per Si atom -5574.306764 kJ/mol
# Density = 2.142019 g / cm^3
# Si number density = 21.469051 Si / 1000 Ang^3
#
#
#
# Elastic Constant Matrix: (Units=GPa)
#
#
# Indices 1 2 3 4 5 6 
#
# 1 89.8539 6.0951 7.6939 0.0000 0.0000 0.0000
# 2 6.0951 60.5163 3.8825 0.0000 0.0000 0.0000
# 3 7.6939 3.8825 61.0692 0.0000 0.0000 0.0000
# 4 0.0000 0.0000 0.0000 0.3067 0.0000 0.0000
# 5 0.0000 0.0000 0.0000 0.0000 26.7127 0.0000
# 6 0.0000 0.0000 0.0000 0.0000 0.0000 19.9157
#
#
#
# Elastic Compliance Matrix: (Units=1/GPa)
#
#
# Indices 1 2 3 4 5 6 
#
# 1 0.011317 -0.001053 -0.001359 0.000000 0.000000 0.000000
# 2 -0.001053 0.016690 -0.000928 0.000000 0.000000 0.000000
# 3 -0.001359 -0.000928 0.016605 0.000000 0.000000 0.000000
# 4 0.000000 0.000000 0.000000 3.260213 0.000000 0.000000
# 5 0.000000 0.000000 0.000000 0.000000 0.037435 0.000000
# 6 0.000000 0.000000 0.000000 0.000000 0.000000 0.050212
#
#
# Mechanical properties :
#
#
# Convention : Reuss Voigt Hill
#
# Bulk Modulus (GPa) = 26.36284 27.42026 26.89155
# Shear Modulus (GPa) = 1.46550 22.30489 11.88520
#
# Velocity S-wave (km/s) = 0.82710 3.22674 2.35542
# Velocity P-wave (km/s) = 3.63569 5.16548 4.46657
#
# Compressibility (1/GPa) = 0.03793217
#
# Stress axis : x y z
#
# Youngs Moduli (GPa) = 88.36310 59.91594 60.22245
#
# Poissons Ratio (x) = 0.06307 0.08183
# Poissons Ratio (y) = 0.09302 0.05591
# Poissons Ratio (z) = 0.12007 0.05563
#
# Static dielectric constant tensor:
#      x y z
#    x 1.808240 0.000000 0.000000 
#    y 0.000000 1.772430 0.000000 
#    z 0.000000 0.000000 1.943530 
# 
# From -- ./inp_files/4329.got.cif
#   From: 2010.05.17/outbox.cif.g08.bks.cpg/sg55_3_cif.got.tgz:4329.got - 2010.06.03 13:27:54.
