data_PCOD9428865
_publ_section_title
;
Structure prediction by ZEFSAII (Michael W. Deem and Ramdas Pophale) SiO2 
 PCOD9428865
Probable space group: P B A M
;
_chemical_formula_sum "Si O2"
_cell_formula_units_Z 36
_cell_length_a 24.949036
_cell_length_b 5.216930
_cell_length_c 10.964810
_cell_angle_alpha 90.000000
_cell_angle_beta 90.000000
_cell_angle_gamma 90.000000
_cell_volume 1427.150880
_symmetry_space_group_name_H-M "P B A M"
_symmetry_group_IT_number 55
_symmetry_cell_setting 'orthorhombic'
loop_
_space_group_symop_operation_xyz
x,y,z
-x,-y,z
1/2+x,1/2-y,-z
1/2-x,1/2+y,-z
-x,-y,-z
x,y,-z
1/2-x,1/2+y,z
1/2+x,1/2-y,z
loop_
_atom_site_type_symbol
_atom_site_label
_atom_site_fract_x
_atom_site_fract_y
_atom_site_fract_z
Si Si1 0.784108 0.470942 0.862296
Si Si2 0.438706 0.390690 0.137638
Si Si3 0.286840 0.459012 0.500000
Si Si4 0.642522 0.318143 0.286835
Si Si5 0.062233 0.553724 0.626338
O O1 0.764576 0.178550 0.852676
O O2 0.822983 0.575970 0.759255
O O3 0.805813 0.502500 0.000000
O O4 0.500000 0.500000 0.149297
O O5 0.388313 0.574676 0.167436
O O6 0.430606 0.194464 0.246805
O O7 0.434761 0.290239 0.000000
O O8 0.258946 0.181655 0.500000
O O9 0.321543 0.509700 0.376957
O O10 0.594170 0.208590 0.366128
O O11 0.078528 0.689673 0.500000
O O12 0.000000 0.500000 0.620640
#
# Coordination Sequence:
#
# PCOD9428865 Si02
#       5
#     8   8   4   8   8
#     4  10  23  43  66  96 137 187 248 310 369 446
#     4  11  26  45  70 109 156 203 255 317 382 470
#     4  12  30  50  76 114 154 198 264 338 394 466
#     4  12  25  44  72 104 142 200 244 314 390 464
#     4  11  25  45  71 107 148 196 253 313 382 467
#
# _framework density 25.225082
#
# number of rings (size 3 to 8) (size 9 to 14) (size 15 to 20)
#    0.000    0.889    3.333    2.000    7.778    2.667 
#    0.000    0.000    0.000    0.000    0.000    0.000 
#    0.000    0.000    0.000    0.000    0.000    0.000 
#
# Total GULP energy -201345.101176 kJ/mol
# GULP energy per Si atom -5592.919477 kJ/mol
# Density = 2.516767 g / cm^3
# Si number density = 25.225082 Si / 1000 Ang^3
#
#
#
# Elastic Constant Matrix: (Units=GPa)
#
#
# Indices 1 2 3 4 5 6 
#
# 1 89.6947 5.5295 14.6792 0.0000 0.0000 0.0000
# 2 5.5295 50.8496 26.1567 0.0000 0.0000 0.0000
# 3 14.6792 26.1567 179.8930 0.0000 0.0000 0.0000
# 4 0.0000 0.0000 0.0000 55.0346 0.0000 0.0000
# 5 0.0000 0.0000 0.0000 0.0000 64.1663 0.0000
# 6 0.0000 0.0000 0.0000 0.0000 0.0000 38.2778
#
#
#
# Elastic Compliance Matrix: (Units=1/GPa)
#
#
# Indices 1 2 3 4 5 6 
#
# 1 0.011331 -0.000818 -0.000806 0.000000 0.000000 0.000000
# 2 -0.000818 0.021315 -0.003032 0.000000 0.000000 0.000000
# 3 -0.000806 -0.003032 0.006066 0.000000 0.000000 0.000000
# 4 0.000000 0.000000 0.000000 0.018170 0.000000 0.000000
# 5 0.000000 0.000000 0.000000 0.000000 0.015584 0.000000
# 6 0.000000 0.000000 0.000000 0.000000 0.000000 0.026125
#
#
# Mechanical properties :
#
#
# Convention : Reuss Voigt Hill
#
# Bulk Modulus (GPa) = 34.01410 45.90756 39.96083
# Shear Modulus (GPa) = 42.47990 49.76721 46.12356
#
# Velocity S-wave (km/s) = 4.10815 4.44658 4.28071
# Velocity P-wave (km/s) = 6.00134 6.67843 6.34892
#
# Compressibility (1/GPa) = 0.02939957
#
# Stress axis : x y z
#
# Youngs Moduli (GPa) = 88.25190 46.91608 164.86606
#
# Poissons Ratio (x) = 0.03836 0.13284
# Poissons Ratio (y) = 0.07217 0.49995
# Poissons Ratio (z) = 0.07111 0.14227
#
# Static dielectric constant tensor:
#      x y z
#    x 2.149640 0.000000 0.000000 
#    y 0.000000 2.095090 0.000000 
#    z 0.000000 0.000000 2.018360 
# 
# From -- ./inp_files/11242.got.cif
#   From: 2010.05.17/outbox.cif.g08.bks.cpg/sg55_6_cif.got.tgz:11242.got - 2010.06.03 13:27:54.
