data_PCOD9428540
_publ_section_title
;
Structure prediction by ZEFSAII (Michael W. Deem and Ramdas Pophale) SiO2 
 PCOD9428540
Probable space group: P B A M
;
_chemical_formula_sum "Si O2"
_cell_formula_units_Z 64
_cell_length_a 12.454606
_cell_length_b 15.212112
_cell_length_c 15.556982
_cell_angle_alpha 90.000000
_cell_angle_beta 90.000000
_cell_angle_gamma 90.000000
_cell_volume 2947.439210
_symmetry_space_group_name_H-M "P B A M"
_symmetry_group_IT_number 55
_symmetry_cell_setting 'orthorhombic'
loop_
_space_group_symop_operation_xyz
x,y,z
-x,-y,z
1/2+x,1/2-y,-z
1/2-x,1/2+y,-z
-x,-y,-z
x,y,-z
1/2-x,1/2+y,z
1/2+x,1/2-y,z
loop_
_atom_site_type_symbol
_atom_site_label
_atom_site_fract_x
_atom_site_fract_y
_atom_site_fract_z
Si Si1 0.581856 0.649913 0.095143
Si Si2 0.174109 0.576356 0.750584
Si Si3 0.795364 0.985421 0.597911
Si Si4 0.806501 0.553235 0.091320
Si Si5 0.293002 0.758514 0.267322
Si Si6 0.088284 0.879355 0.279334
Si Si7 0.079722 0.198689 0.406242
Si Si8 0.486263 0.829825 0.155806
O O1 0.707168 0.621758 0.090536
O O2 0.541015 0.603621 0.183799
O O3 0.556374 0.753618 0.110390
O O4 0.536551 0.626203 0.000000
O O5 0.190475 0.531221 0.657470
O O6 0.204098 0.508337 0.825762
O O7 0.253810 0.659751 0.750194
O O8 0.059404 0.616086 0.777231
O O9 0.779297 0.019562 0.500000
O O10 0.874130 0.042159 0.659023
O O11 0.855232 0.892426 0.587864
O O12 0.921021 0.602032 0.097175
O O13 0.800682 0.503840 0.000000
O O14 0.193330 0.822260 0.260240
O O15 0.338048 0.766357 0.364122
O O16 0.388734 0.782892 0.204712
O O17 0.011409 0.819373 0.336769
O O18 0.038871 0.222983 0.500000
#
# Coordination Sequence:
#
# PCOD9428540 Si02
#       8
#     8   8   8   8   8   8   8   8
#     4  11  23  40  64  96 128 165 213 263 318 384
#     4  11  22  40  65  92 131 166 216 271 315 383
#     4  10  22  40  65  94 123 166 215 266 330 388
#     4  11  24  42  65  95 128 168 219 266 321 388
#     4  11  22  39  62  90 126 168 209 261 326 373
#     4  12  20  41  64  88 124 168 212 261 319 385
#     4  10  22  38  62  92 121 158 211 264 319 389
#     4  12  21  42  65  93 128 174 214 259 324 388
#
# _framework density 21.713764999999999
#
# number of rings (size 3 to 8) (size 9 to 14) (size 15 to 20)
#    0.000    1.000    5.000    1.500    0.000    3.500 
#    0.000    5.000    0.000    6.750    0.000    0.000 
#    0.000    0.000    0.000    0.000    0.000    0.000 
#
# Total GULP energy -356985.173867 kJ/mol
# GULP energy per Si atom -5577.893342 kJ/mol
# Density = 2.166434 g / cm^3
# Si number density = 21.713765 Si / 1000 Ang^3
#
#
#
# Elastic Constant Matrix: (Units=GPa)
#
#
# Indices 1 2 3 4 5 6 
#
# 1 63.2526 0.3786 27.3966 0.0000 0.0000 0.0000
# 2 0.3786 40.8229 22.0302 0.0000 0.0000 0.0000
# 3 27.3966 22.0302 201.6484 0.0000 0.0000 0.0000
# 4 0.0000 0.0000 0.0000 17.8481 0.0000 0.0000
# 5 0.0000 0.0000 0.0000 0.0000 21.8241 0.0000
# 6 0.0000 0.0000 0.0000 0.0000 0.0000 11.9934
#
#
#
# Elastic Compliance Matrix: (Units=1/GPa)
#
#
# Indices 1 2 3 4 5 6 
#
# 1 0.016848 0.001147 -0.002414 0.000000 0.000000 0.000000
# 2 0.001147 0.026109 -0.003008 0.000000 0.000000 0.000000
# 3 -0.002414 -0.003008 0.005616 0.000000 0.000000 0.000000
# 4 0.000000 0.000000 0.000000 0.056028 0.000000 0.000000
# 5 0.000000 0.000000 0.000000 0.000000 0.045821 0.000000
# 6 0.000000 0.000000 0.000000 0.000000 0.000000 0.083380
#
#
# Mechanical properties :
#
#
# Convention : Reuss Voigt Hill
#
# Bulk Modulus (GPa) = 24.98669 45.03720 35.01194
# Shear Modulus (GPa) = 19.55463 27.39436 23.47449
#
# Velocity S-wave (km/s) = 3.00419 3.55577 3.29156
# Velocity P-wave (km/s) = 4.85447 6.13550 5.53219
#
# Compressibility (1/GPa) = 0.04002130
#
# Stress axis : x y z
#
# Youngs Moduli (GPa) = 59.35251 38.30129 178.06904
#
# Poissons Ratio (x) = -0.04392 0.42992
# Poissons Ratio (y) = -0.06806 0.53567
# Poissons Ratio (z) = 0.14330 0.11522
#
# Static dielectric constant tensor:
#      x y z
#    x 1.803480 0.000000 0.000000 
#    y 0.000000 1.815410 0.000000 
#    z 0.000000 0.000000 1.924110 
# 
# From -- ./inp_files/18563.got.cif
#   From: 2010.05.17/outbox.cif.g08.bks.cpg/sg55_10_cif.got.tgz:18563.got - 2010.06.03 13:27:54.
