data_PCOD9428446
_publ_section_title
;
Structure prediction by ZEFSAII (Michael W. Deem and Ramdas Pophale) SiO2 
 PCOD9428446
Probable space group: P B A M
;
_chemical_formula_sum "Si O2"
_cell_formula_units_Z 64
_cell_length_a 21.831281
_cell_length_b 10.236954
_cell_length_c 13.924594
_cell_angle_alpha 90.000000
_cell_angle_beta 90.000000
_cell_angle_gamma 90.000000
_cell_volume 3111.949299
_symmetry_space_group_name_H-M "P B A M"
_symmetry_group_IT_number 55
_symmetry_cell_setting 'orthorhombic'
loop_
_space_group_symop_operation_xyz
x,y,z
-x,-y,z
1/2+x,1/2-y,-z
1/2-x,1/2+y,-z
-x,-y,-z
x,y,-z
1/2-x,1/2+y,z
1/2+x,1/2-y,z
loop_
_atom_site_type_symbol
_atom_site_label
_atom_site_fract_x
_atom_site_fract_y
_atom_site_fract_z
Si Si1 0.702700 0.963652 0.114497
Si Si2 0.047751 0.110199 0.384448
Si Si3 0.846152 0.985714 0.885945
Si Si4 0.996890 0.647505 0.731263
Si Si5 0.221932 0.831537 0.615378
Si Si6 0.892809 0.692624 0.886205
Si Si7 0.370193 0.257203 0.227074
Si Si8 0.687626 0.387144 0.384244
O O1 0.773942 0.981581 0.137950
O O2 0.663325 0.094005 0.134640
O O3 0.673398 0.841375 0.168730
O O4 0.699156 0.939143 0.000000
O O5 0.047077 0.105853 0.500000
O O6 0.026616 0.250046 0.347026
O O7 0.118021 0.090922 0.352169
O O8 0.000000 0.000000 0.349363
O O9 0.874712 0.105296 0.828033
O O10 0.874049 0.842686 0.867713
O O11 0.851999 0.010939 0.000000
O O12 0.949983 0.654280 0.820503
O O13 0.000000 0.500000 0.694741
O O14 0.063911 0.692893 0.762868
O O15 0.214975 0.818509 0.500000
O O16 0.161940 0.781692 0.670365
O O17 0.279159 0.744253 0.648708
O O18 0.227581 0.984847 0.637654
O O19 0.906696 0.680410 0.000000
O O20 0.684709 0.378082 0.500000
#
# Coordination Sequence:
#
# PCOD9428446 Si02
#       8
#     8   8   8   8   8   8   8   8
#     4  10  21  42  68  95 130 168 208 260 328 396
#     4  10  23  44  71  96 129 177 221 269 326 379
#     4  10  23  42  66  99 128 161 214 272 328 386
#     4  12  27  44  62  94 131 172 225 264 314 390
#     4  10  23  41  63  96 133 169 214 262 324 384
#     4  10  23  43  67  92 130 171 209 269 324 384
#     4  12  25  39  65  96 128 175 211 272 319 380
#     4   9  20  41  65  92 127 170 215 265 320 381
#
# _framework density 20.565888000000001
#
# number of rings (size 3 to 8) (size 9 to 14) (size 15 to 20)
#    0.000    1.625    1.250    1.875    5.250    7.000 
#    0.000    2.500    0.000    0.000    0.000    0.000 
#    0.000    0.000    0.000    0.000    0.000    0.000 
#
# Total GULP energy -357985.318261 kJ/mol
# GULP energy per Si atom -5593.520598 kJ/mol
# Density = 2.051908 g / cm^3
# Si number density = 20.565888 Si / 1000 Ang^3
#
#
#
# Elastic Constant Matrix: (Units=GPa)
#
#
# Indices 1 2 3 4 5 6 
#
# 1 79.8803 40.0422 -1.3965 0.0000 0.0000 0.0000
# 2 40.0422 157.1410 19.5136 0.0000 0.0000 0.0000
# 3 -1.3965 19.5136 59.9013 0.0000 0.0000 0.0000
# 4 0.0000 0.0000 0.0000 30.3060 0.0000 0.0000
# 5 0.0000 0.0000 0.0000 0.0000 25.8786 0.0000
# 6 0.0000 0.0000 0.0000 0.0000 0.0000 36.1889
#
#
#
# Elastic Compliance Matrix: (Units=1/GPa)
#
#
# Indices 1 2 3 4 5 6 
#
# 1 0.014499 -0.003894 0.001607 0.000000 0.000000 0.000000
# 2 -0.003894 0.007678 -0.002592 0.000000 0.000000 0.000000
# 3 0.001607 -0.002592 0.017576 0.000000 0.000000 0.000000
# 4 0.000000 0.000000 0.000000 0.032997 0.000000 0.000000
# 5 0.000000 0.000000 0.000000 0.000000 0.038642 0.000000
# 6 0.000000 0.000000 0.000000 0.000000 0.000000 0.027633
#
#
# Mechanical properties :
#
#
# Convention : Reuss Voigt Hill
#
# Bulk Modulus (GPa) = 33.34031 45.91569 39.62800
# Shear Modulus (GPa) = 31.48995 34.39226 32.94111
#
# Velocity S-wave (km/s) = 3.91727 4.09381 4.00651
# Velocity P-wave (km/s) = 6.05860 6.68732 6.38071
#
# Compressibility (1/GPa) = 0.02999372
#
# Stress axis : x y z
#
# Youngs Moduli (GPa) = 68.97121 130.24489 56.89597
#
# Poissons Ratio (x) = 0.50718 -0.09141
# Poissons Ratio (y) = 0.26858 0.14747
# Poissons Ratio (z) = -0.11081 0.33759
#
# Static dielectric constant tensor:
#      x y z
#    x 1.707390 0.000000 0.000000 
#    y 0.000000 1.712390 0.000000 
#    z 0.000000 0.000000 1.735300 
# 
# From -- ./inp_files/19968.got.cif
#   From: 2010.05.17/outbox.cif.g08.bks.cpg/sg55_10_cif.got.tgz:19968.got - 2010.06.03 13:27:54.
