data_PCOD9428021
_publ_section_title
;
Structure prediction by ZEFSAII (Michael W. Deem and Ramdas Pophale) SiO2 
 PCOD9428021
Probable space group: P B A M
;
_chemical_formula_sum "Si O2"
_cell_formula_units_Z 48
_cell_length_a 19.688698
_cell_length_b 15.965564
_cell_length_c 7.772381
_cell_angle_alpha 90.000000
_cell_angle_beta 90.000000
_cell_angle_gamma 90.000000
_cell_volume 2443.179322
_symmetry_space_group_name_H-M "P B A M"
_symmetry_group_IT_number 55
_symmetry_cell_setting 'orthorhombic'
loop_
_space_group_symop_operation_xyz
x,y,z
-x,-y,z
1/2+x,1/2-y,-z
1/2-x,1/2+y,-z
-x,-y,-z
x,y,-z
1/2-x,1/2+y,z
1/2+x,1/2-y,z
loop_
_atom_site_type_symbol
_atom_site_label
_atom_site_fract_x
_atom_site_fract_y
_atom_site_fract_z
Si Si1 0.834181 0.658072 0.803045
Si Si2 0.817777 0.143396 0.208200
Si Si3 0.569854 0.104523 0.500000
Si Si4 0.078719 0.999921 0.208090
Si Si5 0.828155 0.339811 0.798399
Si Si6 0.920211 0.406588 0.500000
Si Si7 0.322169 0.651644 0.295533
O O1 0.760184 0.624823 0.741571
O O2 0.890937 0.632079 0.670001
O O3 0.832500 0.759245 0.796381
O O4 0.845372 0.631062 0.000000
O O5 0.829012 0.240906 0.251120
O O6 0.875153 0.078826 0.270163
O O7 0.817972 0.139647 0.000000
O O8 0.493276 0.137239 0.500000
O O9 0.569828 0.005096 0.500000
O O10 0.120089 0.083732 0.255988
O O11 0.076695 0.995273 0.000000
O O12 0.000000 0.000000 0.267997
O O13 0.879367 0.383420 0.670430
O O14 0.752606 0.375898 0.766371
O O15 0.844610 0.347223 0.000000
O O16 0.319776 0.666329 0.500000
#
# Coordination Sequence:
#
# PCOD9428021 Si02
#       7
#     8   8   4   8   8   4   8
#     4  10  21  41  67  90 120 166 214 260 309 367
#     4   8  18  36  59  91 122 157 211 256 295 363
#     4  11  26  43  60  91 127 154 211 266 320 378
#     4  10  21  37  58  91 132 167 204 251 308 380
#     4  10  21  41  66  91 122 166 215 258 309 371
#     4  11  26  43  60  93 125 158 205 268 322 374
#     4  11  21  38  62  93 129 161 210 264 306 365
#
# _framework density 19.646531
#
# number of rings (size 3 to 8) (size 9 to 14) (size 15 to 20)
#    0.000    2.000    1.667    2.500    2.333    3.000 
#    1.500    3.333    0.000    0.000    0.000    0.000 
#    0.000    0.000    0.000    0.000    0.000    0.000 
#
# Total GULP energy -267971.896559 kJ/mol
# GULP energy per Si atom -5582.747845 kJ/mol
# Density = 1.960181 g / cm^3
# Si number density = 19.646531 Si / 1000 Ang^3
#
#
#
# Elastic Constant Matrix: (Units=GPa)
#
#
# Indices 1 2 3 4 5 6 
#
# 1 180.6315 59.9060 54.1488 0.0000 0.0000 0.0000
# 2 59.9060 52.3036 9.1426 0.0000 0.0000 0.0000
# 3 54.1488 9.1426 101.7507 0.0000 0.0000 0.0000
# 4 0.0000 0.0000 0.0000 41.5205 0.0000 0.0000
# 5 0.0000 0.0000 0.0000 0.0000 22.1963 0.0000
# 6 0.0000 0.0000 0.0000 0.0000 0.0000 53.2471
#
#
#
# Elastic Compliance Matrix: (Units=1/GPa)
#
#
# Indices 1 2 3 4 5 6 
#
# 1 0.010756 -0.011500 -0.004691 0.000000 0.000000 0.000000
# 2 -0.011500 0.031719 0.003270 0.000000 0.000000 0.000000
# 3 -0.004691 0.003270 0.012030 0.000000 0.000000 0.000000
# 4 0.000000 0.000000 0.000000 0.024084 0.000000 0.000000
# 5 0.000000 0.000000 0.000000 0.000000 0.045053 0.000000
# 6 0.000000 0.000000 0.000000 0.000000 0.000000 0.018780
#
#
# Mechanical properties :
#
#
# Convention : Reuss Voigt Hill
#
# Bulk Modulus (GPa) = 34.88707 64.56451 49.72579
# Shear Modulus (GPa) = 28.11851 37.49200 32.80525
#
# Velocity S-wave (km/s) = 3.78725 4.37318 4.09072
# Velocity P-wave (km/s) = 6.07621 7.64421 6.90486
#
# Compressibility (1/GPa) = 0.02866392
#
# Stress axis : x y z
#
# Youngs Moduli (GPa) = 92.97008 31.52714 83.12226
#
# Poissons Ratio (x) = 0.36255 0.38991
# Poissons Ratio (y) = 1.06912 -0.27179
# Poissons Ratio (z) = 0.43611 -0.10309
#
# Static dielectric constant tensor:
#      x y z
#    x 1.702910 0.000000 0.000000 
#    y 0.000000 1.687570 0.000000 
#    z 0.000000 0.000000 1.666080 
# 
# From -- ./inp_files/7456.got.cif
#   From: 2010.05.17/outbox.cif.g08.bks.cpg/sg55_4_cif.got.tgz:7456.got - 2010.06.03 13:27:54.
