data_PCOD9428988
_publ_section_title
;
Structure prediction by ZEFSAII (Michael W. Deem and Ramdas Pophale) SiO2 
 PCOD9428988
Probable space group: P B A M
;
_chemical_formula_sum "Si O2"
_cell_formula_units_Z 64
_cell_length_a 23.597168
_cell_length_b 8.281995
_cell_length_c 15.359743
_cell_angle_alpha 90.000000
_cell_angle_beta 90.000000
_cell_angle_gamma 90.000000
_cell_volume 3001.779571
_symmetry_space_group_name_H-M "P B A M"
_symmetry_group_IT_number 55
_symmetry_cell_setting 'orthorhombic'
loop_
_space_group_symop_operation_xyz
x,y,z
-x,-y,z
1/2+x,1/2-y,-z
1/2-x,1/2+y,-z
-x,-y,-z
x,y,-z
1/2-x,1/2+y,z
1/2+x,1/2-y,z
loop_
_atom_site_type_symbol
_atom_site_label
_atom_site_fract_x
_atom_site_fract_y
_atom_site_fract_z
Si Si1 0.858567 0.461917 0.725725
Si Si2 0.965423 0.664062 0.741244
Si Si3 0.319283 0.577501 0.141232
Si Si4 0.442631 0.550326 0.864558
Si Si5 0.778172 0.633979 0.401580
Si Si6 0.669804 0.476218 0.349665
Si Si7 0.803509 0.546671 0.900767
Si Si8 0.932877 0.151024 0.687477
O O1 0.904511 0.604142 0.709824
O O2 0.805871 0.512119 0.667377
O O3 0.838119 0.452799 0.825864
O O4 0.890097 0.299735 0.699341
O O5 0.951755 0.769862 0.826446
O O6 0.000000 0.500000 0.761739
O O7 0.004852 0.768618 0.674823
O O8 0.379683 0.533217 0.098935
O O9 0.324655 0.543225 0.244759
O O10 0.311151 0.766616 0.123813
O O11 0.263154 0.491663 0.107188
O O12 0.500000 0.500000 0.911747
O O13 0.441441 0.435478 0.779744
O O14 0.789109 0.580951 0.500000
O O15 0.711390 0.617928 0.382661
O O16 0.805573 0.810313 0.388652
O O17 0.604189 0.524000 0.368442
O O18 0.821932 0.515368 0.000000
#
# Coordination Sequence:
#
# PCOD9428988 Si02
#       8
#     8   8   8   8   8   8   8   8
#     4  11  20  39  63  91 124 162 207 258 313 375
#     4   9  17  34  61  94 118 158 213 256 313 375
#     4  11  21  39  60  88 125 167 202 262 312 375
#     4   9  17  33  57  94 119 160 214 260 308 377
#     4  12  24  38  61  89 129 169 212 262 321 383
#     4  11  20  38  58  88 121 163 208 258 318 377
#     4  12  25  39  61  91 126 167 209 255 316 379
#     4   9  20  32  63  90 119 160 208 256 313 375
#
# _framework density 21.320685999999998
#
# number of rings (size 3 to 8) (size 9 to 14) (size 15 to 20)
#    0.000    1.500    3.750    2.250    3.500    0.000 
#    0.000    0.625    0.000   10.500    0.000    0.000 
#    0.000    0.000    0.000    0.000    0.000    0.000 
#
# Total GULP energy -356967.109492 kJ/mol
# GULP energy per Si atom -5577.611086 kJ/mol
# Density = 2.127216 g / cm^3
# Si number density = 21.320686 Si / 1000 Ang^3
#
#
#
# Elastic Constant Matrix: (Units=GPa)
#
#
# Indices 1 2 3 4 5 6 
#
# 1 121.6123 12.7639 -0.8923 0.0000 0.0000 0.0000
# 2 12.7639 52.9395 -1.6336 0.0000 0.0000 0.0000
# 3 -0.8923 -1.6336 67.8097 0.0000 0.0000 0.0000
# 4 0.0000 0.0000 0.0000 6.5678 0.0000 0.0000
# 5 0.0000 0.0000 0.0000 0.0000 258.3092 0.0000
# 6 0.0000 0.0000 0.0000 0.0000 0.0000 37.4327
#
#
#
# Elastic Compliance Matrix: (Units=1/GPa)
#
#
# Indices 1 2 3 4 5 6 
#
# 1 0.008437 -0.002032 0.000062 0.000000 0.000000 0.000000
# 2 -0.002032 0.019393 0.000440 0.000000 0.000000 0.000000
# 3 0.000062 0.000440 0.014759 0.000000 0.000000 0.000000
# 4 0.000000 0.000000 0.000000 0.152257 0.000000 0.000000
# 5 0.000000 0.000000 0.000000 0.000000 0.003871 0.000000
# 6 0.000000 0.000000 0.000000 0.000000 0.000000 0.026715
#
#
# Mechanical properties :
#
#
# Convention : Reuss Voigt Hill
#
# Bulk Modulus (GPa) = 25.29795 29.20416 27.25105
# Shear Modulus (GPa) = 20.68963 75.93685 48.31324
#
# Velocity S-wave (km/s) = 3.11851 5.97443 4.76544
# Velocity P-wave (km/s) = 4.98578 7.83065 6.56419
#
# Compressibility (1/GPa) = 0.03952890
#
# Stress axis : x y z
#
# Youngs Moduli (GPa) = 118.53117 51.56486 67.75722
#
# Poissons Ratio (x) = 0.10479 -0.00421
# Poissons Ratio (y) = 0.24088 -0.02984
# Poissons Ratio (z) = -0.00736 -0.02271
#
# Static dielectric constant tensor:
#      x y z
#    x 1.853570 0.000000 0.000000 
#    y 0.000000 1.826040 0.000000 
#    z 0.000000 0.000000 1.747250 
# 
# From -- ./inp_files/17800.got.cif
#   From: 2010.05.17/outbox.cif.g08.bks.cpg/sg55_9_cif.got.tgz:17800.got - 2010.06.03 13:27:54.
