data_PCOD9428023
_publ_section_title
;
Structure prediction by ZEFSAII (Michael W. Deem and Ramdas Pophale) SiO2 
 PCOD9428023
Probable space group: P B A M
;
_chemical_formula_sum "Si O2"
_cell_formula_units_Z 64
_cell_length_a 33.091520
_cell_length_b 10.743073
_cell_length_c 9.358962
_cell_angle_alpha 90.000000
_cell_angle_beta 90.000000
_cell_angle_gamma 90.000000
_cell_volume 3327.154183
_symmetry_space_group_name_H-M "P B A M"
_symmetry_group_IT_number 55
_symmetry_cell_setting 'orthorhombic'
loop_
_space_group_symop_operation_xyz
x,y,z
-x,-y,z
1/2+x,1/2-y,-z
1/2-x,1/2+y,-z
-x,-y,-z
x,y,-z
1/2-x,1/2+y,z
1/2+x,1/2-y,z
loop_
_atom_site_type_symbol
_atom_site_label
_atom_site_fract_x
_atom_site_fract_y
_atom_site_fract_z
Si Si1 0.029527 0.885825 0.827358
Si Si2 0.400834 0.827072 0.338548
Si Si3 0.003941 0.355046 0.332729
Si Si4 0.783663 0.542931 0.670340
Si Si5 0.138058 0.599736 0.333635
Si Si6 0.168382 0.251746 0.160215
Si Si7 0.118714 0.841772 0.828237
Si Si8 0.700473 0.526336 0.836785
O O1 0.076691 0.909210 0.789540
O O2 0.017826 0.753529 0.756176
O O3 0.026510 0.874383 0.000000
O O4 0.000000 0.000000 0.783801
O O5 0.389082 0.789326 0.500000
O O6 0.448615 0.823287 0.326348
O O7 0.376803 0.748507 0.222110
O O8 0.385917 0.969743 0.320592
O O9 0.990615 0.351366 0.500000
O O10 0.000000 0.500000 0.285224
O O11 0.780738 0.550694 0.500000
O O12 0.815101 0.430589 0.703545
O O13 0.805906 0.663037 0.734162
O O14 0.740202 0.535305 0.741943
O O15 0.136204 0.637332 0.500000
O O16 0.118939 0.703735 0.235105
O O17 0.187322 0.116558 0.155985
O O18 0.168476 0.305248 0.000000
O O19 0.160893 0.902629 0.779725
O O20 0.120186 0.839453 0.000000
O O21 0.709287 0.569410 0.000000
#
# Coordination Sequence:
#
# PCOD9428023 Si02
#       8
#     8   8   8   8   8   8   8   8
#     4  10  23  41  62  87 122 162 201 249 303 361
#     4   9  19  36  58  85 117 151 189 236 290 343
#     4  10  21  38  62  90 121 156 198 252 304 354
#     4  10  22  39  59  84 116 150 188 236 289 341
#     4   9  19  37  59  85 116 151 189 233 284 343
#     4  10  21  37  59  84 113 149 191 236 284 340
#     4  10  22  39  58  83 115 152 193 237 287 344
#     4  10  23  39  57  82 113 149 192 236 283 341
#
# _framework density 19.235658000000001
#
# number of rings (size 3 to 8) (size 9 to 14) (size 15 to 20)
#    0.000    2.250    0.000    2.250    3.500    6.500 
#    0.000    0.000    0.000    0.000    0.000    0.000 
#    0.000    0.000    0.000    0.000    0.000    0.000 
#
# Total GULP energy -357048.688922 kJ/mol
# GULP energy per Si atom -5578.885764 kJ/mol
# Density = 1.919188 g / cm^3
# Si number density = 19.235658 Si / 1000 Ang^3
#
#
#
# Elastic Constant Matrix: (Units=GPa)
#
#
# Indices 1 2 3 4 5 6 
#
# 1 101.2655 11.3943 31.5999 0.0000 0.0000 0.0000
# 2 11.3943 39.6948 8.8852 0.0000 0.0000 0.0000
# 3 31.5999 8.8852 33.5058 0.0000 0.0000 0.0000
# 4 0.0000 0.0000 0.0000 47.5817 0.0000 0.0000
# 5 0.0000 0.0000 0.0000 0.0000 12.5021 0.0000
# 6 0.0000 0.0000 0.0000 0.0000 0.0000 21.8597
#
#
#
# Elastic Compliance Matrix: (Units=1/GPa)
#
#
# Indices 1 2 3 4 5 6 
#
# 1 0.014041 -0.001134 -0.012942 0.000000 0.000000 0.000000
# 2 -0.001134 0.026873 -0.006057 0.000000 0.000000 0.000000
# 3 -0.012942 -0.006057 0.043658 0.000000 0.000000 0.000000
# 4 0.000000 0.000000 0.000000 0.021016 0.000000 0.000000
# 5 0.000000 0.000000 0.000000 0.000000 0.079986 0.000000
# 6 0.000000 0.000000 0.000000 0.000000 0.000000 0.045746
#
#
# Mechanical properties :
#
#
# Convention : Reuss Voigt Hill
#
# Bulk Modulus (GPa) = 22.56995 30.91387 26.74191
# Shear Modulus (GPa) = 17.46083 24.56115 21.01099
#
# Velocity S-wave (km/s) = 3.01613 3.57719 3.30857
# Velocity P-wave (km/s) = 4.88756 5.75914 5.34116
#
# Compressibility (1/GPa) = 0.04430671
#
# Stress axis : x y z
#
# Youngs Moduli (GPa) = 71.21961 37.21145 22.90557
#
# Poissons Ratio (x) = 0.04218 0.29644
# Poissons Ratio (y) = 0.08073 0.13875
# Poissons Ratio (z) = 0.92171 0.22540
#
# Static dielectric constant tensor:
#      x y z
#    x 1.702400 0.000000 0.000000 
#    y 0.000000 1.658380 0.000000 
#    z 0.000000 0.000000 1.664380 
# 
# From -- ./inp_files/10803.got.cif
#   From: 2010.05.17/outbox.cif.g08.bks.cpg/sg55_6_cif.got.tgz:10803.got - 2010.06.03 13:27:54.
