data_PCOD9428539
_publ_section_title
;
Structure prediction by ZEFSAII (Michael W. Deem and Ramdas Pophale) SiO2 
 PCOD9428539
Probable space group: P B A M
;
_chemical_formula_sum "Si O2"
_cell_formula_units_Z 48
_cell_length_a 13.810554
_cell_length_b 8.174567
_cell_length_c 18.097961
_cell_angle_alpha 90.000000
_cell_angle_beta 90.000000
_cell_angle_gamma 90.000000
_cell_volume 2043.174718
_symmetry_space_group_name_H-M "P B A M"
_symmetry_group_IT_number 55
_symmetry_cell_setting 'orthorhombic'
loop_
_space_group_symop_operation_xyz
x,y,z
-x,-y,z
1/2+x,1/2-y,-z
1/2-x,1/2+y,-z
-x,-y,-z
x,y,-z
1/2-x,1/2+y,z
1/2+x,1/2-y,z
loop_
_atom_site_type_symbol
_atom_site_label
_atom_site_fract_x
_atom_site_fract_y
_atom_site_fract_z
Si Si1 0.380344 0.672947 0.586911
Si Si2 0.383414 0.204564 0.087384
Si Si3 0.268210 0.494784 0.165876
Si Si4 0.041241 0.675364 0.662787
Si Si5 0.456501 0.682572 0.186635
Si Si6 0.726598 0.024345 0.666185
O O1 0.366128 0.662779 0.500000
O O2 0.493064 0.696124 0.607261
O O3 0.326728 0.526427 0.628529
O O4 0.326014 0.833065 0.620710
O O5 0.323727 0.363660 0.115571
O O6 0.329572 0.055921 0.127832
O O7 0.491461 0.233646 0.117284
O O8 0.379893 0.188552 0.000000
O O9 0.343623 0.646963 0.175494
O O10 0.246633 0.435135 0.248613
O O11 0.992854 0.719218 0.741683
O O12 0.154563 0.635111 0.667143
O O13 0.000000 0.500000 0.639032
O O14 0.500000 0.500000 0.196540
#
# Coordination Sequence:
#
# PCOD9428539 Si02
#       6
#     8   8   8   8   8   8
#     4  11  24  40  61  92 124 156 199 253 305 351
#     4  11  24  40  61  92 124 156 199 253 305 351
#     4  11  22  39  65  87 120 161 204 244 294 364
#     4  10  22  38  62  87 119 158 201 242 299 357
#     4  10  22  38  62  87 119 158 201 242 299 357
#     4  11  22  39  65  87 120 161 204 244 294 364
#
# _framework density 23.492851000000002
#
# number of rings (size 3 to 8) (size 9 to 14) (size 15 to 20)
#    0.000    1.333    3.333    2.000    4.667    7.333 
#    0.000    0.000    0.000    5.000    0.000    0.000 
#    0.000    0.000    0.000    0.000    0.000    0.000 
#
# Total GULP energy -268666.724379 kJ/mol
# GULP energy per Si atom -5597.223425 kJ/mol
# Density = 2.343938 g / cm^3
# Si number density = 23.492851 Si / 1000 Ang^3
#
#
#
# Elastic Constant Matrix: (Units=GPa)
#
#
# Indices 1 2 3 4 5 6 
#
# 1 92.1827 18.7530 9.9735 0.0000 0.0000 0.0000
# 2 18.7530 53.5131 10.5152 0.0000 0.0000 0.0000
# 3 9.9735 10.5152 163.3548 0.0000 0.0000 0.0000
# 4 0.0000 0.0000 0.0000 14.5614 0.0000 0.0000
# 5 0.0000 0.0000 0.0000 0.0000 20.6237 0.0000
# 6 0.0000 0.0000 0.0000 0.0000 0.0000 43.8732
#
#
#
# Elastic Compliance Matrix: (Units=1/GPa)
#
#
# Indices 1 2 3 4 5 6 
#
# 1 0.011714 -0.004015 -0.000457 0.000000 0.000000 0.000000
# 2 -0.004015 0.020303 -0.001062 0.000000 0.000000 0.000000
# 3 -0.000457 -0.001062 0.006218 0.000000 0.000000 0.000000
# 4 0.000000 0.000000 0.000000 0.068675 0.000000 0.000000
# 5 0.000000 0.000000 0.000000 0.000000 0.048488 0.000000
# 6 0.000000 0.000000 0.000000 0.000000 0.000000 0.022793
#
#
# Mechanical properties :
#
#
# Convention : Reuss Voigt Hill
#
# Bulk Modulus (GPa) = 36.80901 43.05930 39.93416
# Shear Modulus (GPa) = 25.21256 33.79893 29.50574
#
# Velocity S-wave (km/s) = 3.27953 3.79712 3.54778
# Velocity P-wave (km/s) = 5.48111 6.13128 5.81529
#
# Compressibility (1/GPa) = 0.02716726
#
# Stress axis : x y z
#
# Youngs Moduli (GPa) = 85.36580 49.25434 160.82665
#
# Poissons Ratio (x) = 0.19777 0.07345
# Poissons Ratio (y) = 0.34278 0.17076
# Poissons Ratio (z) = 0.03899 0.05230
#
# Static dielectric constant tensor:
#      x y z
#    x 2.011290 0.000000 0.000000 
#    y 0.000000 1.929470 0.000000 
#    z 0.000000 0.000000 1.782730 
# 
# From -- ./inp_files/20763.got.cif
#   From: 2010.05.17/outbox.cif.g08.bks.cpg/sg55_11_cif.got.tgz:20763.got - 2010.06.03 13:27:54.
