data_PCOD9428226
_publ_section_title
;
Structure prediction by ZEFSAII (Michael W. Deem and Ramdas Pophale) SiO2 
 PCOD9428226
Probable space group: P B A M
;
_chemical_formula_sum "Si O2"
_cell_formula_units_Z 40
_cell_length_a 12.620511
_cell_length_b 18.158634
_cell_length_c 7.592094
_cell_angle_alpha 90.000000
_cell_angle_beta 90.000000
_cell_angle_gamma 90.000000
_cell_volume 1739.889597
_symmetry_space_group_name_H-M "P B A M"
_symmetry_group_IT_number 55
_symmetry_cell_setting 'orthorhombic'
loop_
_space_group_symop_operation_xyz
x,y,z
-x,-y,z
1/2+x,1/2-y,-z
1/2-x,1/2+y,-z
-x,-y,-z
x,y,-z
1/2-x,1/2+y,z
1/2+x,1/2-y,z
loop_
_atom_site_type_symbol
_atom_site_label
_atom_site_fract_x
_atom_site_fract_y
_atom_site_fract_z
Si Si1 0.603170 0.716731 0.794812
Si Si2 0.531643 0.420076 0.206918
Si Si3 0.298012 0.876018 0.713407
Si Si4 0.036988 0.623707 0.298427
Si Si5 0.240178 0.540391 0.713158
O O1 0.530935 0.650099 0.720363
O O2 0.723408 0.688812 0.780032
O O3 0.581426 0.793669 0.702910
O O4 0.576527 0.728010 0.000000
O O5 0.500000 0.500000 0.284003
O O6 0.657852 0.414602 0.225314
O O7 0.503601 0.422151 0.000000
O O8 0.297907 0.871456 0.500000
O O9 0.419035 0.874929 0.777876
O O10 0.249434 0.955054 0.765361
O O11 0.022930 0.597668 0.500000
O O12 0.128613 0.572383 0.220327
O O13 0.239057 0.543596 0.500000
#
# Coordination Sequence:
#
# PCOD9428226 Si02
#       5
#     8   8   8   8   8
#     4  11  24  40  59  86 121 159 200 244 294 349
#     4  10  21  39  59  83 118 158 196 242 291 341
#     4  10  21  40  64  88 118 154 196 245 296 353
#     4  10  23  41  61  88 122 156 194 244 301 354
#     4  10  21  38  64  92 116 150 197 246 297 352
#
# _framework density 22.989965999999999
#
# number of rings (size 3 to 8) (size 9 to 14) (size 15 to 20)
#    0.000    1.800    2.000    1.200    2.800    6.000 
#    0.000    0.000    0.000    3.600    0.000    0.000 
#    0.000    0.000    0.000    0.000    0.000    0.000 
#
# Total GULP energy -223640.937704 kJ/mol
# GULP energy per Si atom -5591.023443 kJ/mol
# Density = 2.293764 g / cm^3
# Si number density = 22.989966 Si / 1000 Ang^3
#
#
#
# Elastic Constant Matrix: (Units=GPa)
#
#
# Indices 1 2 3 4 5 6 
#
# 1 113.0464 -1.1024 -14.7247 0.0000 0.0000 0.0000
# 2 -1.1024 58.6246 -3.2816 0.0000 0.0000 0.0000
# 3 -14.7247 -3.2816 57.5665 0.0000 0.0000 0.0000
# 4 0.0000 0.0000 0.0000 2.1228 0.0000 0.0000
# 5 0.0000 0.0000 0.0000 0.0000 30.9071 0.0000
# 6 0.0000 0.0000 0.0000 0.0000 0.0000 38.1969
#
#
#
# Elastic Compliance Matrix: (Units=1/GPa)
#
#
# Indices 1 2 3 4 5 6 
#
# 1 0.009156 0.000304 0.002359 0.000000 0.000000 0.000000
# 2 0.000304 0.017122 0.001054 0.000000 0.000000 0.000000
# 3 0.002359 0.001054 0.018035 0.000000 0.000000 0.000000
# 4 0.000000 0.000000 0.000000 0.471067 0.000000 0.000000
# 5 0.000000 0.000000 0.000000 0.000000 0.032355 0.000000
# 6 0.000000 0.000000 0.000000 0.000000 0.000000 0.026180
#
#
# Mechanical properties :
#
#
# Convention : Reuss Voigt Hill
#
# Bulk Modulus (GPa) = 19.32425 21.22445 20.27435
# Shear Modulus (GPa) = 8.56561 30.80179 19.68370
#
# Velocity S-wave (km/s) = 1.93233 3.66429 2.92924
# Velocity P-wave (km/s) = 3.66091 5.21102 4.50317
#
# Compressibility (1/GPa) = 0.05174844
#
# Stress axis : x y z
#
# Youngs Moduli (GPa) = 109.21553 58.40303 55.44839
#
# Poissons Ratio (x) = -0.01777 -0.13082
# Poissons Ratio (y) = -0.03323 -0.05844
# Poissons Ratio (z) = -0.25768 -0.06155
#
# Static dielectric constant tensor:
#      x y z
#    x 1.852940 0.000000 0.000000 
#    y 0.000000 1.823950 0.000000 
#    z 0.000000 0.000000 1.865180 
# 
# From -- ./inp_files/3586.got.cif
#   From: 2010.05.17/outbox.cif.g08.bks.cpg/sg55_2_cif.got.tgz:3586.got - 2010.06.03 13:27:54.
