data_PCOD9428204
_publ_section_title
;
Structure prediction by ZEFSAII (Michael W. Deem and Ramdas Pophale) SiO2 
 PCOD9428204
Probable space group: P B A M
;
_chemical_formula_sum "Si O2"
_cell_formula_units_Z 64
_cell_length_a 10.694333
_cell_length_b 32.856592
_cell_length_c 8.840132
_cell_angle_alpha 90.000000
_cell_angle_beta 90.000000
_cell_angle_gamma 90.000000
_cell_volume 3106.239713
_symmetry_space_group_name_H-M "P B A M"
_symmetry_group_IT_number 55
_symmetry_cell_setting 'orthorhombic'
loop_
_space_group_symop_operation_xyz
x,y,z
-x,-y,z
1/2+x,1/2-y,-z
1/2-x,1/2+y,-z
-x,-y,-z
x,y,-z
1/2-x,1/2+y,z
1/2+x,1/2-y,z
loop_
_atom_site_type_symbol
_atom_site_label
_atom_site_fract_x
_atom_site_fract_y
_atom_site_fract_z
Si Si1 0.607193 0.032750 0.181180
Si Si2 0.958113 0.700492 0.326859
Si Si3 0.172236 0.088991 0.172967
Si Si4 0.052394 0.212430 0.820348
Si Si5 0.405526 0.365110 0.174959
Si Si6 0.656985 0.116302 0.679246
Si Si7 0.144717 0.005077 0.321746
Si Si8 0.770348 0.337967 0.670232
O O1 0.587538 0.078247 0.244919
O O2 0.500000 0.000000 0.228824
O O3 0.745073 0.019560 0.239175
O O4 0.607451 0.033797 0.000000
O O5 0.916223 0.709692 0.500000
O O6 0.958048 0.741201 0.229481
O O7 0.098634 0.684213 0.333439
O O8 0.882255 0.661484 0.266979
O O9 0.176315 0.051762 0.286398
O O10 0.270173 0.123286 0.220668
O O11 0.037143 0.111083 0.183533
O O12 0.190639 0.075198 0.000000
O O13 0.936167 0.182057 0.786287
O O14 0.167839 0.193016 0.731997
O O15 0.073000 0.209038 0.000000
O O16 0.303630 0.385352 0.281461
O O17 0.362845 0.367380 0.000000
O O18 0.634388 0.114743 0.500000
O O19 0.148417 0.995602 0.500000
O O20 0.000000 0.000000 0.268548
O O21 0.736826 0.351288 0.500000
#
# Coordination Sequence:
#
# PCOD9428204 Si02
#       8
#     8   8   8   8   8   8   8   8
#     4  11  26  46  67  95 129 169 214 263 322 383
#     4  10  24  41  59  87 121 160 203 249 302 362
#     4  10  21  38  62  92 125 160 202 252 306 361
#     4  10  22  39  61  90 121 159 203 253 309 359
#     4   9  20  39  61  90 127 164 203 252 306 361
#     4  11  24  41  63  91 123 163 207 251 306 370
#     4  11  24  41  66  98 128 164 211 261 317 379
#     4  10  21  39  61  86 120 159 203 250 300 362
#
# _framework density 20.603688999999999
#
# number of rings (size 3 to 8) (size 9 to 14) (size 15 to 20)
#    0.000    1.750    0.000    3.750    3.500    9.000 
#    0.000    0.000    0.000    0.000    0.000    0.000 
#    0.000    0.000    0.000    0.000    0.000    0.000 
#
# Total GULP energy -357475.909535 kJ/mol
# GULP energy per Si atom -5585.561086 kJ/mol
# Density = 2.055679 g / cm^3
# Si number density = 20.603689 Si / 1000 Ang^3
#
#
#
# Elastic Constant Matrix: (Units=GPa)
#
#
# Indices 1 2 3 4 5 6 
#
# 1 47.4870 9.1228 14.9927 0.0000 0.0000 0.0000
# 2 9.1228 90.4734 9.8978 0.0000 0.0000 0.0000
# 3 14.9927 9.8978 41.5613 0.0000 0.0000 0.0000
# 4 0.0000 0.0000 0.0000 36.3872 0.0000 0.0000
# 5 0.0000 0.0000 0.0000 0.0000 32.0238 0.0000
# 6 0.0000 0.0000 0.0000 0.0000 0.0000 18.6951
#
#
#
# Elastic Compliance Matrix: (Units=1/GPa)
#
#
# Indices 1 2 3 4 5 6 
#
# 1 0.023964 -0.001510 -0.008285 0.000000 0.000000 0.000000
# 2 -0.001510 0.011444 -0.002181 0.000000 0.000000 0.000000
# 3 -0.008285 -0.002181 0.027569 0.000000 0.000000 0.000000
# 4 0.000000 0.000000 0.000000 0.027482 0.000000 0.000000
# 5 0.000000 0.000000 0.000000 0.000000 0.031227 0.000000
# 6 0.000000 0.000000 0.000000 0.000000 0.000000 0.053490
#
#
# Mechanical properties :
#
#
# Convention : Reuss Voigt Hill
#
# Bulk Modulus (GPa) = 25.62437 27.50538 26.56487
# Shear Modulus (GPa) = 23.56976 27.12176 25.34576
#
# Velocity S-wave (km/s) = 3.38591 3.63210 3.51116
# Velocity P-wave (km/s) = 5.26780 5.56491 5.41839
#
# Compressibility (1/GPa) = 0.03902535
#
# Stress axis : x y z
#
# Youngs Moduli (GPa) = 41.72866 87.38363 36.27270
#
# Poissons Ratio (x) = 0.13195 0.30053
# Poissons Ratio (y) = 0.06301 0.07910
# Poissons Ratio (z) = 0.34573 0.19055
#
# Static dielectric constant tensor:
#      x y z
#    x 1.759410 0.000000 0.000000 
#    y 0.000000 1.536870 0.000000 
#    z 0.000000 0.000000 1.719190 
# 
# From -- ./inp_files/4705.got.cif
#   From: 2010.05.17/outbox.cif.g08.bks.cpg/sg55_3_cif.got.tgz:4705.got - 2010.06.03 13:27:54.
