data_PCOD9428133
_publ_section_title
;
Structure prediction by ZEFSAII (Michael W. Deem and Ramdas Pophale) SiO2 
 PCOD9428133
Probable space group: P B A M
;
_chemical_formula_sum "Si O2"
_cell_formula_units_Z 64
_cell_length_a 28.564214
_cell_length_b 12.417937
_cell_length_c 9.304603
_cell_angle_alpha 90.000000
_cell_angle_beta 90.000000
_cell_angle_gamma 90.000000
_cell_volume 3300.422796
_symmetry_space_group_name_H-M "P B A M"
_symmetry_group_IT_number 55
_symmetry_cell_setting 'orthorhombic'
loop_
_space_group_symop_operation_xyz
x,y,z
-x,-y,z
1/2+x,1/2-y,-z
1/2-x,1/2+y,-z
-x,-y,-z
x,y,-z
1/2-x,1/2+y,z
1/2+x,1/2-y,z
loop_
_atom_site_type_symbol
_atom_site_label
_atom_site_fract_x
_atom_site_fract_y
_atom_site_fract_z
Si Si1 0.760054 0.090539 0.838157
Si Si2 0.413424 0.275064 0.330281
Si Si3 0.177325 0.695532 0.164371
Si Si4 0.943744 0.007310 0.169827
Si Si5 0.178563 0.306648 0.663840
Si Si6 0.994412 0.626961 0.669311
Si Si7 0.259004 0.592765 0.661324
Si Si8 0.085283 0.237575 0.827139
O O1 0.792560 0.194566 0.841720
O O2 0.712744 0.115427 0.751706
O O3 0.785650 0.996914 0.752129
O O4 0.749696 0.057204 0.000000
O O5 0.403076 0.287239 0.500000
O O6 0.370190 0.221809 0.246743
O O7 0.425069 0.391690 0.261146
O O8 0.457550 0.194387 0.315969
O O9 0.211145 0.618661 0.255303
O O10 0.169468 0.659369 0.000000
O O11 0.923475 0.889157 0.207961
O O12 0.933995 0.026940 0.000000
O O13 0.000000 0.000000 0.187206
O O14 0.168807 0.342149 0.500000
O O15 0.132022 0.280263 0.751243
O O16 0.209383 0.198172 0.655901
O O17 0.980587 0.631801 0.500000
O O18 0.000000 0.500000 0.705909
O O19 0.956651 0.689167 0.765812
O O20 0.249754 0.555869 0.500000
O O21 0.087984 0.245857 0.000000
#
# Coordination Sequence:
#
# PCOD9428133 Si02
#       8
#     8   8   8   8   8   8   8   8
#     4  10  21  38  60  85 115 155 199 243 295 352
#     4  11  23  38  61  90 119 155 202 251 302 361
#     4  10  22  39  59  85 119 157 197 244 295 354
#     4  10  21  39  61  87 122 159 195 246 306 360
#     4  10  22  39  59  86 120 156 196 244 294 351
#     4  10  23  43  63  85 118 158 199 246 299 355
#     4  10  21  38  60  86 118 156 197 245 298 349
#     4  11  23  39  62  90 121 157 200 247 299 360
#
# _framework density 19.391456999999999
#
# number of rings (size 3 to 8) (size 9 to 14) (size 15 to 20)
#    0.000    1.750    1.250    2.250    1.750    6.000 
#    0.000    3.750    0.000    0.000    0.000    0.000 
#    0.000    0.000    0.000    0.000    0.000    0.000 
#
# Total GULP energy -357357.316407 kJ/mol
# GULP energy per Si atom -5583.708069 kJ/mol
# Density = 1.934732 g / cm^3
# Si number density = 19.391457 Si / 1000 Ang^3
#
#
#
# Elastic Constant Matrix: (Units=GPa)
#
#
# Indices 1 2 3 4 5 6 
#
# 1 81.4247 6.4512 44.7086 0.0000 0.0000 0.0000
# 2 6.4512 86.1440 42.3329 0.0000 0.0000 0.0000
# 3 44.7086 42.3329 138.0146 0.0000 0.0000 0.0000
# 4 0.0000 0.0000 0.0000 30.2888 0.0000 0.0000
# 5 0.0000 0.0000 0.0000 0.0000 47.2814 0.0000
# 6 0.0000 0.0000 0.0000 0.0000 0.0000 -14.4064
#
#
#
# Elastic Compliance Matrix: (Units=1/GPa)
#
#
# Indices 1 2 3 4 5 6 
#
# 1 0.015101 0.001499 -0.005352 0.000000 0.000000 0.000000
# 2 0.001499 0.013818 -0.004724 0.000000 0.000000 0.000000
# 3 -0.005352 -0.004724 0.010428 0.000000 0.000000 0.000000
# 4 0.000000 0.000000 0.000000 0.033016 0.000000 0.000000
# 5 0.000000 0.000000 0.000000 0.000000 0.021150 0.000000
# 6 0.000000 0.000000 0.000000 0.000000 0.000000 -0.069413
#
#
# Mechanical properties :
#
#
# Convention : Reuss Voigt Hill
#
# Bulk Modulus (GPa) = 45.05755 54.72985 49.89370
# Shear Modulus (GPa) = 102.77567 26.77212 64.77389
#
# Velocity S-wave (km/s) = 7.28804 3.71969 5.78583
# Velocity P-wave (km/s) = 9.70087 6.83616 8.39166
#
# Compressibility (1/GPa) = 0.02219384
#
# Stress axis : x y z
#
# Youngs Moduli (GPa) = 66.22089 72.37153 95.89439
#
# Poissons Ratio (x) = -0.10848 0.51319
# Poissons Ratio (y) = -0.09926 0.45299
# Poissons Ratio (z) = 0.35439 0.34187
#
# Static dielectric constant tensor:
#      x y z
#    x 1.645730 0.000000 0.000000 
#    y 0.000000 1.711620 0.000000 
#    z 0.000000 0.000000 1.683310 
# 
# From -- ./inp_files/10776.got.cif
#   From: 2010.05.17/outbox.cif.g08.bks.cpg/sg55_6_cif.got.tgz:10776.got - 2010.06.03 13:27:54.
