data_PCOD9428840
_publ_section_title
;
Structure prediction by ZEFSAII (Michael W. Deem and Ramdas Pophale) SiO2 
 PCOD9428840
Probable space group: P B A M
;
_chemical_formula_sum "Si O2"
_cell_formula_units_Z 48
_cell_length_a 10.506389
_cell_length_b 18.370918
_cell_length_c 10.909917
_cell_angle_alpha 90.000000
_cell_angle_beta 90.000000
_cell_angle_gamma 90.000000
_cell_volume 2105.745018
_symmetry_space_group_name_H-M "P B A M"
_symmetry_group_IT_number 55
_symmetry_cell_setting 'orthorhombic'
loop_
_space_group_symop_operation_xyz
x,y,z
-x,-y,z
1/2+x,1/2-y,-z
1/2-x,1/2+y,-z
-x,-y,-z
x,y,-z
1/2-x,1/2+y,z
1/2+x,1/2-y,z
loop_
_atom_site_type_symbol
_atom_site_label
_atom_site_fract_x
_atom_site_fract_y
_atom_site_fract_z
Si Si1 0.985699 0.347841 0.146551
Si Si2 0.802430 0.027632 0.000000
Si Si3 0.399626 0.733672 0.500000
Si Si4 0.263141 0.904738 0.751250
Si Si5 0.139296 0.668470 0.500000
Si Si6 0.483183 0.306513 0.757048
Si Si7 0.871193 0.457400 0.311457
Si Si8 0.933476 0.880807 0.000000
O O1 0.930306 0.271336 0.195185
O O2 0.905069 0.419476 0.181021
O O3 0.112144 0.355111 0.233513
O O4 0.007924 0.343035 0.000000
O O5 0.733085 0.056100 0.117760
O O6 0.935759 0.072438 0.000000
O O7 0.827970 0.942585 0.000000
O O8 0.245135 0.732656 0.500000
O O9 0.493890 0.803517 0.500000
O O10 0.441002 0.697246 0.629357
O O11 0.137094 0.858835 0.735622
O O12 0.271297 0.977359 0.669991
O O13 0.159485 0.613579 0.388477
O O14 0.564374 0.335509 0.873879
O O15 0.000000 0.500000 0.348264
#
# Coordination Sequence:
#
# PCOD9428840 Si02
#       8
#     8   4   4   8   4   8   8   4
#     4  11  22  40  68 105 142 183 245 297 355 440
#     4   9  18  37  62  95 139 181 218 288 358 434
#     4  12  30  47  75 103 157 182 249 305 373 433
#     4  10  23  41  68  99 141 187 236 296 363 428
#     4  12  27  51  73 107 140 198 249 301 369 442
#     4  11  24  45  67 104 139 189 235 303 366 431
#     4  10  24  44  71 100 139 191 244 297 360 443
#     4   9  20  39  67  95 140 177 231 281 370 424
#
# _framework density 22.794782000000001
#
# number of rings (size 3 to 8) (size 9 to 14) (size 15 to 20)
#    0.000    1.500    3.333    0.250    5.833    1.667 
#    0.000    0.833    0.000    0.000    0.000    0.000 
#    0.000    0.000    0.000    0.000    0.000    0.000 
#
# Total GULP energy -267600.021218 kJ/mol
# GULP energy per Si atom -5575.000442 kJ/mol
# Density = 2.274290 g / cm^3
# Si number density = 22.794782 Si / 1000 Ang^3
#
#
#
# Elastic Constant Matrix: (Units=GPa)
#
#
# Indices 1 2 3 4 5 6 
#
# 1 40.8915 38.4240 8.0153 0.0000 0.0000 0.0000
# 2 38.4240 114.0958 29.2300 0.0000 0.0000 0.0000
# 3 8.0153 29.2300 116.8531 0.0000 0.0000 0.0000
# 4 0.0000 0.0000 0.0000 26.7656 0.0000 0.0000
# 5 0.0000 0.0000 0.0000 0.0000 8.0055 0.0000
# 6 0.0000 0.0000 0.0000 0.0000 0.0000 45.9149
#
#
#
# Elastic Compliance Matrix: (Units=1/GPa)
#
#
# Indices 1 2 3 4 5 6 
#
# 1 0.035815 -0.012215 0.000599 0.000000 0.000000 0.000000
# 2 -0.012215 0.013531 -0.002547 0.000000 0.000000 0.000000
# 3 0.000599 -0.002547 0.009154 0.000000 0.000000 0.000000
# 4 0.000000 0.000000 0.000000 0.037361 0.000000 0.000000
# 5 0.000000 0.000000 0.000000 0.000000 0.124913 0.000000
# 6 0.000000 0.000000 0.000000 0.000000 0.000000 0.021779
#
#
# Mechanical properties :
#
#
# Convention : Reuss Voigt Hill
#
# Bulk Modulus (GPa) = 33.14111 47.01989 40.08050
# Shear Modulus (GPa) = 17.79753 29.21528 23.50640
#
# Velocity S-wave (km/s) = 2.79726 3.58392 3.21474
# Velocity P-wave (km/s) = 5.00034 6.14803 5.60364
#
# Compressibility (1/GPa) = 0.03017400
#
# Stress axis : x y z
#
# Youngs Moduli (GPa) = 27.92090 73.90630 109.24509
#
# Poissons Ratio (x) = 0.90276 -0.06541
# Poissons Ratio (y) = 0.34105 0.27822
# Poissons Ratio (z) = -0.01672 0.18822
#
# Static dielectric constant tensor:
#      x y z
#    x 1.875410 0.000000 0.000000 
#    y 0.000000 1.880390 0.000000 
#    z 0.000000 0.000000 1.979240 
# 
# From -- ./inp_files/13254.got.cif
#   From: 2010.05.17/outbox.cif.g08.bks.cpg/sg55_7_cif.got.tgz:13254.got - 2010.06.03 13:27:54.
