data_PCOD9428885
_publ_section_title
;
Structure prediction by ZEFSAII (Michael W. Deem and Ramdas Pophale) SiO2 
 PCOD9428885
Probable space group: P B A M
;
_chemical_formula_sum "Si O2"
_cell_formula_units_Z 34
_cell_length_a 19.831872
_cell_length_b 9.009469
_cell_length_c 7.987794
_cell_angle_alpha 90.000000
_cell_angle_beta 90.000000
_cell_angle_gamma 90.000000
_cell_volume 1427.216185
_symmetry_space_group_name_H-M "P B A M"
_symmetry_group_IT_number 55
_symmetry_cell_setting 'orthorhombic'
loop_
_space_group_symop_operation_xyz
x,y,z
-x,-y,z
1/2+x,1/2-y,-z
1/2-x,1/2+y,-z
-x,-y,-z
x,y,-z
1/2-x,1/2+y,z
1/2+x,1/2-y,z
loop_
_atom_site_type_symbol
_atom_site_label
_atom_site_fract_x
_atom_site_fract_y
_atom_site_fract_z
Si Si1 0.265156 0.003237 0.691130
Si Si2 0.089365 0.407428 0.691022
Si Si3 0.500000 0.000000 0.000000
Si Si4 0.661496 0.706423 0.806206
Si Si5 0.010363 0.824838 0.806887
O O1 0.244118 0.988700 0.500000
O O2 0.293959 0.166789 0.721534
O O3 0.330751 0.899215 0.719854
O O4 0.201668 0.947826 0.794425
O O5 0.080611 0.466909 0.500000
O O6 0.058033 0.498083 0.845526
O O7 0.048229 0.254099 0.704560
O O8 0.585588 0.696723 0.738486
O O9 0.655578 0.744339 0.000000
O O10 0.004636 0.757389 0.000000
O O11 0.000000 0.000000 0.820076
#
# Coordination Sequence:
#
# PCOD9428885 Si02
#       5
#     8   8   2   8   8
#     4  11  26  46  69 101 144 183 232 291 350 414
#     4  11  25  42  70 104 135 182 233 284 349 418
#     4  12  22  40  70  94 140 176 220 296 338 406
#     4  11  25  43  71 103 136 185 234 284 347 421
#     4  10  23  44  71 104 141 182 232 291 355 416
#
# _framework density 23.822600000000001
#
# number of rings (size 3 to 8) (size 9 to 14) (size 15 to 20)
#    0.000    1.176    1.176    3.176    9.882    4.235 
#    0.000    0.000    0.000    0.000    0.000    0.000 
#    0.000    0.000    0.000    0.000    0.000    0.000 
#
# Total GULP energy -189782.808586 kJ/mol
# GULP energy per Si atom -5581.847311 kJ/mol
# Density = 2.376838 g / cm^3
# Si number density = 23.822600 Si / 1000 Ang^3
#
#
#
# Elastic Constant Matrix: (Units=GPa)
#
#
# Indices 1 2 3 4 5 6 
#
# 1 58.9821 21.2503 9.0983 0.0000 0.0000 0.0000
# 2 21.2503 69.7838 8.3574 0.0000 0.0000 0.0000
# 3 9.0983 8.3574 119.6504 0.0000 0.0000 0.0000
# 4 0.0000 0.0000 0.0000 0.5138 0.0000 0.0000
# 5 0.0000 0.0000 0.0000 0.0000 24.5083 0.0000
# 6 0.0000 0.0000 0.0000 0.0000 0.0000 45.1270
#
#
#
# Elastic Compliance Matrix: (Units=1/GPa)
#
#
# Indices 1 2 3 4 5 6 
#
# 1 0.019176 -0.005713 -0.001059 0.000000 0.000000 0.000000
# 2 -0.005713 0.016153 -0.000694 0.000000 0.000000 0.000000
# 3 -0.001059 -0.000694 0.008487 0.000000 0.000000 0.000000
# 4 0.000000 0.000000 0.000000 1.946155 0.000000 0.000000
# 5 0.000000 0.000000 0.000000 0.000000 0.040803 0.000000
# 6 0.000000 0.000000 0.000000 0.000000 0.000000 0.022160
#
#
# Mechanical properties :
#
#
# Convention : Reuss Voigt Hill
#
# Bulk Modulus (GPa) = 34.62108 36.20314 35.41211
# Shear Modulus (GPa) = 2.40675 28.01051 15.20863
#
# Velocity S-wave (km/s) = 1.00622 3.43271 2.52942
# Velocity P-wave (km/s) = 3.98928 5.56249 4.84023
#
# Compressibility (1/GPa) = 0.02888414
#
# Stress axis : x y z
#
# Youngs Moduli (GPa) = 52.14908 61.90942 117.83169
#
# Poissons Ratio (x) = 0.35366 0.12480
# Poissons Ratio (y) = 0.29790 0.08176
# Poissons Ratio (z) = 0.05523 0.04296
#
# Static dielectric constant tensor:
#      x y z
#    x 1.918020 0.000000 0.000000 
#    y 0.000000 1.681770 0.000000 
#    z 0.000000 0.000000 1.864770 
# 
# From -- ./inp_files/8386.got.cif
#   From: 2010.05.17/outbox.cif.g08.bks.cpg/sg55_5_cif.got.tgz:8386.got - 2010.06.03 13:27:54.
