data_PCOD9428001
_publ_section_title
;
Structure prediction by ZEFSAII (Michael W. Deem and Ramdas Pophale) SiO2 
 PCOD9428001
Probable space group: P B A M
;
_chemical_formula_sum "Si O2"
_cell_formula_units_Z 64
_cell_length_a 8.837041
_cell_length_b 13.182943
_cell_length_c 26.827784
_cell_angle_alpha 90.000000
_cell_angle_beta 90.000000
_cell_angle_gamma 90.000000
_cell_volume 3125.388755
_symmetry_space_group_name_H-M "P B A M"
_symmetry_group_IT_number 55
_symmetry_cell_setting 'orthorhombic'
loop_
_space_group_symop_operation_xyz
x,y,z
-x,-y,z
1/2+x,1/2-y,-z
1/2-x,1/2+y,-z
-x,-y,-z
x,y,-z
1/2-x,1/2+y,z
1/2+x,1/2-y,z
loop_
_atom_site_type_symbol
_atom_site_label
_atom_site_fract_x
_atom_site_fract_y
_atom_site_fract_z
Si Si1 0.889725 0.184550 0.640209
Si Si2 0.850016 0.055097 0.126152
Si Si3 0.579510 0.110105 0.942460
Si Si4 0.413646 0.609851 0.442835
Si Si5 0.322042 0.000687 0.377596
Si Si6 0.987688 0.746267 0.853097
Si Si7 0.272443 0.129409 0.188628
Si Si8 0.303033 0.642082 0.696813
O O1 0.798283 0.271475 0.669325
O O2 0.993437 0.191815 0.589899
O O3 0.022702 0.146123 0.677990
O O4 0.760650 0.107089 0.621339
O O5 0.742034 0.091126 0.082283
O O6 0.916028 0.151975 0.154268
O O7 0.763744 0.978374 0.163319
O O8 0.000000 0.000000 0.105960
O O9 0.501475 0.194189 0.907305
O O10 0.500000 0.000000 0.939123
O O11 0.584501 0.140742 0.000000
O O12 0.500000 0.500000 0.441326
O O13 0.396201 0.640229 0.500000
O O14 0.257595 0.579478 0.415719
O O15 0.274708 0.040435 0.323266
O O16 0.500000 0.000000 0.384623
O O17 0.052362 0.661008 0.816008
O O18 0.820451 0.787895 0.843767
O O19 0.212062 0.142549 0.244207
#
# Coordination Sequence:
#
# PCOD9428001 Si02
#       8
#     8   8   8   8   8   8   8   8
#     4  10  21  38  59  86 126 159 218 268 315 394
#     4  10  23  42  63  93 128 160 210 267 317 394
#     4  11  23  42  67  92 124 163 205 263 331 393
#     4   8  16  34  60  85 117 164 207 262 326 377
#     4  10  21  37  57  88 127 164 213 267 319 392
#     4  11  22  41  62  91 126 164 209 267 322 387
#     4  11  23  39  63  90 124 168 215 267 327 386
#     4  11  22  38  59  89 121 171 208 267 328 383
#
# _framework density 20.477453000000001
#
# number of rings (size 3 to 8) (size 9 to 14) (size 15 to 20)
#    0.000    1.750    2.500    2.625    0.000    5.000 
#    2.250    4.375    0.000    3.000    0.000    0.000 
#    0.000    0.000    0.000    0.000    0.000    0.000 
#
# Total GULP energy -356667.326886 kJ/mol
# GULP energy per Si atom -5572.926983 kJ/mol
# Density = 2.043085 g / cm^3
# Si number density = 20.477453 Si / 1000 Ang^3
#
#
#
# Elastic Constant Matrix: (Units=GPa)
#
#
# Indices 1 2 3 4 5 6 
#
# 1 100.8434 21.9124 5.1139 0.0000 0.0000 0.0000
# 2 21.9124 44.0493 14.3581 0.0000 0.0000 0.0000
# 3 5.1139 14.3581 115.5761 0.0000 0.0000 0.0000
# 4 0.0000 0.0000 0.0000 15.1199 0.0000 0.0000
# 5 0.0000 0.0000 0.0000 0.0000 7.8456 0.0000
# 6 0.0000 0.0000 0.0000 0.0000 0.0000 32.0954
#
#
#
# Elastic Compliance Matrix: (Units=1/GPa)
#
#
# Indices 1 2 3 4 5 6 
#
# 1 0.011123 -0.005599 0.000203 0.000000 0.000000 0.000000
# 2 -0.005599 0.026479 -0.003042 0.000000 0.000000 0.000000
# 3 0.000203 -0.003042 0.009021 0.000000 0.000000 0.000000
# 4 0.000000 0.000000 0.000000 0.066138 0.000000 0.000000
# 5 0.000000 0.000000 0.000000 0.000000 0.127461 0.000000
# 6 0.000000 0.000000 0.000000 0.000000 0.000000 0.031157
#
#
# Mechanical properties :
#
#
# Convention : Reuss Voigt Hill
#
# Bulk Modulus (GPa) = 33.61637 38.13751 35.87694
# Shear Modulus (GPa) = 16.76898 25.61778 21.19338
#
# Velocity S-wave (km/s) = 2.86475 3.54082 3.22057
# Velocity P-wave (km/s) = 5.23396 5.94820 5.60247
#
# Compressibility (1/GPa) = 0.02974742
#
# Stress axis : x y z
#
# Youngs Moduli (GPa) = 89.90588 37.76621 110.85027
#
# Poissons Ratio (x) = 0.21147 -0.02255
# Poissons Ratio (y) = 0.50341 0.33717
# Poissons Ratio (z) = -0.01829 0.11487
#
# Static dielectric constant tensor:
#      x y z
#    x 1.978210 0.000000 0.000000 
#    y 0.000000 1.773440 0.000000 
#    z 0.000000 0.000000 1.696630 
# 
# From -- ./inp_files/23473.got.cif
#   From: 2010.05.17/outbox.cif.g08.bks.cpg/sg55_12_cif.got.tgz:23473.got - 2010.06.03 13:27:54.
