data_PCOD9428302
_publ_section_title
;
Structure prediction by ZEFSAII (Michael W. Deem and Ramdas Pophale) SiO2 
 PCOD9428302
Probable space group: P B A M
;
_chemical_formula_sum "Si O2"
_cell_formula_units_Z 64
_cell_length_a 15.023429
_cell_length_b 24.830653
_cell_length_c 8.204909
_cell_angle_alpha 90.000000
_cell_angle_beta 90.000000
_cell_angle_gamma 90.000000
_cell_volume 3060.771990
_symmetry_space_group_name_H-M "P B A M"
_symmetry_group_IT_number 55
_symmetry_cell_setting 'orthorhombic'
loop_
_space_group_symop_operation_xyz
x,y,z
-x,-y,z
1/2+x,1/2-y,-z
1/2-x,1/2+y,-z
-x,-y,-z
x,y,-z
1/2-x,1/2+y,z
1/2+x,1/2-y,z
loop_
_atom_site_type_symbol
_atom_site_label
_atom_site_fract_x
_atom_site_fract_y
_atom_site_fract_z
Si Si1 0.248715 0.916429 0.314027
Si Si2 0.067970 0.547415 0.198252
Si Si3 0.958254 0.944533 0.306609
Si Si4 0.355995 0.750816 0.195800
Si Si5 0.929283 0.632637 0.803585
Si Si6 0.678084 0.695220 0.191717
Si Si7 0.768729 0.969960 0.811669
Si Si8 0.997899 0.827341 0.692307
O O1 0.235195 0.933289 0.500000
O O2 0.351065 0.902164 0.277308
O O3 0.197814 0.861047 0.280629
O O4 0.220291 0.965585 0.201785
O O5 0.169513 0.541765 0.255502
O O6 0.000000 0.500000 0.252238
O O7 0.022080 0.604393 0.238728
O O8 0.071979 0.542908 0.000000
O O9 0.976555 0.944271 0.500000
O O10 0.852506 0.944844 0.279199
O O11 0.996988 0.888413 0.240991
O O12 0.000000 0.000000 0.239056
O O13 0.410436 0.805466 0.239454
O O14 0.253716 0.762478 0.243800
O O15 0.403693 0.700493 0.275511
O O16 0.359656 0.744488 0.000000
O O17 0.918128 0.628391 0.000000
O O18 0.575744 0.707508 0.224857
O O19 0.692746 0.686379 0.000000
O O20 0.772172 0.952929 0.000000
O O21 0.015036 0.828431 0.500000
#
# Coordination Sequence:
#
# PCOD9428302 Si02
#       8
#     8   8   8   8   8   8   8   8
#     4  11  20  31  52  83 119 153 192 241 293 350
#     4   9  16  30  54  82 116 153 194 244 295 346
#     4  10  23  43  62  83 116 155 192 243 310 368
#     4   9  20  38  61  87 117 153 197 248 293 347
#     4   9  17  34  56  79 111 154 203 247 289 339
#     4  10  21  39  64  89 113 149 201 251 292 342
#     4  11  21  34  56  85 115 155 199 242 291 350
#     4  11  23  40  64  91 123 158 192 243 311 373
#
# _framework density 20.909756999999999
#
# number of rings (size 3 to 8) (size 9 to 14) (size 15 to 20)
#    0.000    2.000    1.250    3.750    0.000    4.750 
#    2.250    1.875    0.000    0.000    0.000    0.000 
#    0.000    0.000    0.000    0.000    0.000    0.000 
#
# Total GULP energy -357301.713820 kJ/mol
# GULP energy per Si atom -5582.839278 kJ/mol
# Density = 2.086217 g / cm^3
# Si number density = 20.909757 Si / 1000 Ang^3
#
#
#
# Elastic Constant Matrix: (Units=GPa)
#
#
# Indices 1 2 3 4 5 6 
#
# 1 119.2740 36.3197 1.4539 0.0000 0.0000 0.0000
# 2 36.3197 58.7418 12.6391 0.0000 0.0000 0.0000
# 3 1.4539 12.6391 19.2615 0.0000 0.0000 0.0000
# 4 0.0000 0.0000 0.0000 12.4305 0.0000 0.0000
# 5 0.0000 0.0000 0.0000 0.0000 -46.5711 0.0000
# 6 0.0000 0.0000 0.0000 0.0000 0.0000 26.2885
#
#
#
# Elastic Compliance Matrix: (Units=1/GPa)
#
#
# Indices 1 2 3 4 5 6 
#
# 1 0.010596 -0.007428 0.004075 0.000000 0.000000 0.000000
# 2 -0.007428 0.025030 -0.015864 0.000000 0.000000 0.000000
# 3 0.004075 -0.015864 0.062019 0.000000 0.000000 0.000000
# 4 0.000000 0.000000 0.000000 0.080447 0.000000 0.000000
# 5 0.000000 0.000000 0.000000 0.000000 -0.021473 0.000000
# 6 0.000000 0.000000 0.000000 0.000000 0.000000 0.038040
#
#
# Mechanical properties :
#
#
# Convention : Reuss Voigt Hill
#
# Bulk Modulus (GPa) = 16.88887 33.12252 25.00569
# Shear Modulus (GPa) = 19.77605 8.22054 13.99830
#
# Velocity S-wave (km/s) = 3.07869 1.98494 2.59020
# Velocity P-wave (km/s) = 4.55328 4.59656 4.57497
#
# Compressibility (1/GPa) = 0.05921059
#
# Stress axis : x y z
#
# Youngs Moduli (GPa) = 94.37187 39.95227 16.12405
#
# Poissons Ratio (x) = 0.29678 -0.06570
# Poissons Ratio (y) = 0.70103 0.25579
# Poissons Ratio (z) = -0.38453 0.63379
#
# Static dielectric constant tensor:
#      x y z
#    x 1.774630 0.000000 0.000000 
#    y 0.000000 1.753520 0.000000 
#    z 0.000000 0.000000 1.735530 
# 
# From -- ./inp_files/6496.got.cif
#   From: 2010.05.17/outbox.cif.g08.bks.cpg/sg55_4_cif.got.tgz:6496.got - 2010.06.03 13:27:54.
