data_PCOD9428288
_publ_section_title
;
Structure prediction by ZEFSAII (Michael W. Deem and Ramdas Pophale) SiO2 
 PCOD9428288
Probable space group: P B A M
;
_chemical_formula_sum "Si O2"
_cell_formula_units_Z 40
_cell_length_a 26.542093
_cell_length_b 7.999893
_cell_length_c 7.921026
_cell_angle_alpha 90.000000
_cell_angle_beta 90.000000
_cell_angle_gamma 90.000000
_cell_volume 1681.902374
_symmetry_space_group_name_H-M "P B A M"
_symmetry_group_IT_number 55
_symmetry_cell_setting 'orthorhombic'
loop_
_space_group_symop_operation_xyz
x,y,z
-x,-y,z
1/2+x,1/2-y,-z
1/2-x,1/2+y,-z
-x,-y,-z
x,y,-z
1/2-x,1/2+y,z
1/2+x,1/2-y,z
loop_
_atom_site_type_symbol
_atom_site_label
_atom_site_fract_x
_atom_site_fract_y
_atom_site_fract_z
Si Si1 0.575785 0.590090 0.186926
Si Si2 0.082103 0.420397 0.500000
Si Si3 0.634046 0.235698 0.188897
Si Si4 0.269188 0.577904 0.700283
Si Si5 0.172246 0.729956 0.300295
Si Si6 0.020573 0.766552 0.500000
O O1 0.601220 0.407697 0.208214
O O2 0.621577 0.723525 0.204692
O O3 0.537667 0.634672 0.334465
O O4 0.553740 0.601996 0.000000
O O5 0.115691 0.388346 0.665427
O O6 0.052591 0.594211 0.500000
O O7 0.037605 0.282419 0.500000
O O8 0.691138 0.298235 0.213779
O O9 0.625858 0.171427 0.000000
O O10 0.268393 0.619685 0.500000
O O11 0.292931 0.395666 0.715370
O O12 0.211623 0.590802 0.760481
O O13 0.160354 0.709591 0.500000
#
# Coordination Sequence:
#
# PCOD9428288 Si02
#       6
#     8   4   8   8   8   4
#     4  10  21  39  63  89 117 152 196 241 285 340
#     4  11  25  43  62  85 116 151 188 239 300 355
#     4  10  21  39  63  89 117 152 196 241 285 340
#     4   9  17  31  52  81 117 154 191 232 278 332
#     4   9  17  31  52  81 117 154 191 232 278 332
#     4  11  25  43  62  85 116 151 188 239 300 355
#
# _framework density 23.782591
#
# number of rings (size 3 to 8) (size 9 to 14) (size 15 to 20)
#    0.000    2.200    2.000    0.600    0.000    5.600 
#    0.000    4.000    0.000    0.000    0.000    0.000 
#    0.000    0.000    0.000    0.000    0.000    0.000 
#
# Total GULP energy -223996.492085 kJ/mol
# GULP energy per Si atom -5599.912302 kJ/mol
# Density = 2.372846 g / cm^3
# Si number density = 23.782591 Si / 1000 Ang^3
#
#
#
# Elastic Constant Matrix: (Units=GPa)
#
#
# Indices 1 2 3 4 5 6 
#
# 1 122.0681 18.4843 45.3055 0.0000 0.0000 0.0000
# 2 18.4843 68.8667 40.3480 0.0000 0.0000 0.0000
# 3 45.3055 40.3480 140.8568 0.0000 0.0000 0.0000
# 4 0.0000 0.0000 0.0000 14.9526 0.0000 0.0000
# 5 0.0000 0.0000 0.0000 0.0000 -53.9193 0.0000
# 6 0.0000 0.0000 0.0000 0.0000 0.0000 52.1047
#
#
#
# Elastic Compliance Matrix: (Units=1/GPa)
#
#
# Indices 1 2 3 4 5 6 
#
# 1 0.009349 -0.000898 -0.002750 0.000000 0.000000 0.000000
# 2 -0.000898 0.017536 -0.004734 0.000000 0.000000 0.000000
# 3 -0.002750 -0.004734 0.009340 0.000000 0.000000 0.000000
# 4 0.000000 0.000000 0.000000 0.066878 0.000000 0.000000
# 5 0.000000 0.000000 0.000000 0.000000 -0.018546 0.000000
# 6 0.000000 0.000000 0.000000 0.000000 0.000000 0.019192
#
#
# Mechanical properties :
#
#
# Convention : Reuss Voigt Hill
#
# Bulk Modulus (GPa) = 51.38714 60.00747 55.69730
# Shear Modulus (GPa) = 39.37047 17.80451 28.58749
#
# Velocity S-wave (km/s) = 4.07311 2.73909 3.47080
# Velocity P-wave (km/s) = 6.61621 5.94053 6.28746
#
# Compressibility (1/GPa) = 0.01946012
#
# Stress axis : x y z
#
# Youngs Moduli (GPa) = 106.96682 57.02704 107.06790
#
# Poissons Ratio (x) = 0.05123 0.29440
# Poissons Ratio (y) = 0.09609 0.50687
# Poissons Ratio (z) = 0.29412 0.26997
#
# Static dielectric constant tensor:
#      x y z
#    x 1.887820 0.000000 0.000000 
#    y 0.000000 1.960880 0.000000 
#    z 0.000000 0.000000 1.838160 
# 
# From -- ./inp_files/2546.got.cif
#   From: 2010.05.17/outbox.cif.g08.bks.cpg/sg55_2_cif.got.tgz:2546.got - 2010.06.03 13:27:54.
