data_PCOD9428820
_publ_section_title
;
Structure prediction by ZEFSAII (Michael W. Deem and Ramdas Pophale) SiO2 
 PCOD9428820
Probable space group: P B A M
;
_chemical_formula_sum "Si O2"
_cell_formula_units_Z 48
_cell_length_a 10.216238
_cell_length_b 8.712174
_cell_length_c 25.209023
_cell_angle_alpha 90.000000
_cell_angle_beta 90.000000
_cell_angle_gamma 90.000000
_cell_volume 2243.745304
_symmetry_space_group_name_H-M "P B A M"
_symmetry_group_IT_number 55
_symmetry_cell_setting 'orthorhombic'
loop_
_space_group_symop_operation_xyz
x,y,z
-x,-y,z
1/2+x,1/2-y,-z
1/2-x,1/2+y,-z
-x,-y,-z
x,y,-z
1/2-x,1/2+y,z
1/2+x,1/2-y,z
loop_
_atom_site_type_symbol
_atom_site_label
_atom_site_fract_x
_atom_site_fract_y
_atom_site_fract_z
Si Si1 0.123081 0.887564 0.262181
Si Si2 0.701972 0.894466 0.197690
Si Si3 0.630724 0.600658 0.615736
Si Si4 0.570684 0.665675 0.062123
Si Si5 0.859298 0.420837 0.561123
Si Si6 0.153154 0.330122 0.875613
O O1 0.115772 0.738678 0.224461
O O2 0.140070 0.843458 0.323423
O O3 0.243049 0.992470 0.242591
O O4 0.000000 0.000000 0.257553
O O5 0.818309 0.802903 0.167804
O O6 0.642324 0.008791 0.154560
O O7 0.500000 0.500000 0.611106
O O8 0.754460 0.498936 0.599497
O O9 0.626238 0.744492 0.576889
O O10 0.500000 0.500000 0.067032
O O11 0.470215 0.783425 0.089291
O O12 0.711839 0.664175 0.090323
O O13 0.587628 0.700319 0.000000
O O14 0.815849 0.436666 0.500000
O O15 0.000000 0.500000 0.566601
#
# Coordination Sequence:
#
# PCOD9428820 Si02
#       6
#     8   8   8   8   8   8
#     4  10  23  44  66  96 133 173 227 280 338 399
#     4  10  23  40  67  94 129 173 221 276 332 403
#     4  11  23  42  69  96 135 179 229 284 341 406
#     4  11  24  45  69 101 140 176 223 279 336 406
#     4  11  24  41  66  99 137 180 228 281 344 410
#     4  11  23  43  70  99 133 179 224 274 343 403
#
# _framework density 21.392800999999999
#
# number of rings (size 3 to 8) (size 9 to 14) (size 15 to 20)
#    0.000    1.333    1.667    3.000    4.667    4.667 
#    3.000    0.833    0.000    0.000    0.000    0.000 
#    0.000    0.000    0.000    0.000    0.000    0.000 
#
# Total GULP energy -268629.359266 kJ/mol
# GULP energy per Si atom -5596.444985 kJ/mol
# Density = 2.134411 g / cm^3
# Si number density = 21.392801 Si / 1000 Ang^3
#
#
#
# Elastic Constant Matrix: (Units=GPa)
#
#
# Indices 1 2 3 4 5 6 
#
# 1 107.9352 32.5080 63.4328 0.0000 0.0000 0.0000
# 2 32.5080 115.1113 41.8684 0.0000 0.0000 0.0000
# 3 63.4328 41.8684 105.6949 0.0000 0.0000 0.0000
# 4 0.0000 0.0000 0.0000 44.1672 0.0000 0.0000
# 5 0.0000 0.0000 0.0000 0.0000 29.6372 0.0000
# 6 0.0000 0.0000 0.0000 0.0000 0.0000 25.1083
#
#
#
# Elastic Compliance Matrix: (Units=1/GPa)
#
#
# Indices 1 2 3 4 5 6 
#
# 1 0.014427 -0.001081 -0.008230 0.000000 0.000000 0.000000
# 2 -0.001081 0.010231 -0.003404 0.000000 0.000000 0.000000
# 3 -0.008230 -0.003404 0.015749 0.000000 0.000000 0.000000
# 4 0.000000 0.000000 0.000000 0.022641 0.000000 0.000000
# 5 0.000000 0.000000 0.000000 0.000000 0.033741 0.000000
# 6 0.000000 0.000000 0.000000 0.000000 0.000000 0.039827
#
#
# Mechanical properties :
#
#
# Convention : Reuss Voigt Hill
#
# Bulk Modulus (GPa) = 66.77069 67.15108 66.96089
# Shear Modulus (GPa) = 29.93305 32.51135 31.22220
#
# Velocity S-wave (km/s) = 3.74466 3.90260 3.82445
# Velocity P-wave (km/s) = 7.06938 7.19478 7.13236
#
# Compressibility (1/GPa) = 0.01497663
#
# Stress axis : x y z
#
# Youngs Moduli (GPa) = 69.31308 97.74649 63.49582
#
# Poissons Ratio (x) = 0.10564 0.52260
# Poissons Ratio (y) = 0.07491 0.21614
# Poissons Ratio (z) = 0.57048 0.33272
#
# Static dielectric constant tensor:
#      x y z
#    x 1.751620 0.000000 0.000000 
#    y 0.000000 1.756330 0.000000 
#    z 0.000000 0.000000 1.748460 
# 
# From -- ./inp_files/23547.got.cif
#   From: 2010.05.17/outbox.cif.g08.bks.cpg/sg55_12_cif.got.tgz:23547.got - 2010.06.03 13:27:54.
