data_PCOD9428164
_publ_section_title
;
Structure prediction by ZEFSAII (Michael W. Deem and Ramdas Pophale) SiO2 
 PCOD9428164
Probable space group: P B A M
;
_chemical_formula_sum "Si O2"
_cell_formula_units_Z 64
_cell_length_a 27.313213
_cell_length_b 9.312230
_cell_length_c 13.247532
_cell_angle_alpha 90.000000
_cell_angle_beta 90.000000
_cell_angle_gamma 90.000000
_cell_volume 3369.468982
_symmetry_space_group_name_H-M "P B A M"
_symmetry_group_IT_number 55
_symmetry_cell_setting 'orthorhombic'
loop_
_space_group_symop_operation_xyz
x,y,z
-x,-y,z
1/2+x,1/2-y,-z
1/2-x,1/2+y,-z
-x,-y,-z
x,y,-z
1/2-x,1/2+y,z
1/2+x,1/2-y,z
loop_
_atom_site_type_symbol
_atom_site_label
_atom_site_fract_x
_atom_site_fract_y
_atom_site_fract_z
Si Si1 0.301150 0.098792 0.196881
Si Si2 0.525721 0.309336 0.387036
Si Si3 0.108678 0.079764 0.884991
Si Si4 0.556570 0.026053 0.680526
Si Si5 0.139235 0.688477 0.616158
Si Si6 0.286816 0.421466 0.883050
Si Si7 0.432191 0.416874 0.698671
Si Si8 0.394534 0.924023 0.883269
O O1 0.318389 0.129157 0.311293
O O2 0.293546 0.255095 0.146587
O O3 0.253068 0.002571 0.184561
O O4 0.344956 0.010762 0.142653
O O5 0.506953 0.283727 0.500000
O O6 0.563800 0.188326 0.356021
O O7 0.553303 0.460111 0.380293
O O8 0.480111 0.315457 0.309002
O O9 0.111751 0.251731 0.868838
O O10 0.162053 0.006906 0.875918
O O11 0.075215 0.997676 0.804105
O O12 0.091458 0.057331 0.000000
O O13 0.567125 0.020257 0.799977
O O14 0.500000 0.000000 0.655880
O O15 0.594354 0.923764 0.624741
O O16 0.152826 0.710007 0.500000
O O17 0.115777 0.830924 0.666246
O O18 0.270307 0.428879 0.000000
O O19 0.407939 0.948654 0.000000
#
# Coordination Sequence:
#
# PCOD9428164 Si02
#       8
#     8   8   8   8   8   8   8   8
#     4  11  23  39  63  91 119 152 196 243 289 357
#     4  11  22  36  60  86 116 157 210 256 292 337
#     4  10  21  38  61  88 120 155 191 242 300 357
#     4  11  22  36  57  85 117 155 203 252 289 347
#     4  11  23  40  62  86 122 162 199 244 297 345
#     4  11  21  37  62  92 118 148 189 237 293 350
#     4  11  20  38  58  88 119 155 201 248 293 348
#     4  10  21  39  58  82 119 159 194 240 300 355
#
# _framework density 18.994091000000001
#
# number of rings (size 3 to 8) (size 9 to 14) (size 15 to 20)
#    0.000    1.250    3.750    3.750    0.000    1.750 
#    0.000    2.500    0.000    0.000    0.000    0.000 
#    0.000    0.000    0.000    0.000    0.000    0.000 
#
# Total GULP energy -357231.858083 kJ/mol
# GULP energy per Si atom -5581.747783 kJ/mol
# Density = 1.895086 g / cm^3
# Si number density = 18.994091 Si / 1000 Ang^3
#
#
#
# Elastic Constant Matrix: (Units=GPa)
#
#
# Indices 1 2 3 4 5 6 
#
# 1 47.4608 9.2716 34.4396 0.0000 0.0000 0.0000
# 2 9.2716 64.4412 27.5956 0.0000 0.0000 0.0000
# 3 34.4396 27.5956 130.8971 0.0000 0.0000 0.0000
# 4 0.0000 0.0000 0.0000 25.4392 0.0000 0.0000
# 5 0.0000 0.0000 0.0000 0.0000 21.0537 0.0000
# 6 0.0000 0.0000 0.0000 0.0000 0.0000 34.2866
#
#
#
# Elastic Compliance Matrix: (Units=1/GPa)
#
#
# Indices 1 2 3 4 5 6 
#
# 1 0.026089 -0.000895 -0.006675 0.000000 0.000000 0.000000
# 2 -0.000895 0.017089 -0.003367 0.000000 0.000000 0.000000
# 3 -0.006675 -0.003367 0.010106 0.000000 0.000000 0.000000
# 4 0.000000 0.000000 0.000000 0.039309 0.000000 0.000000
# 5 0.000000 0.000000 0.000000 0.000000 0.047498 0.000000
# 6 0.000000 0.000000 0.000000 0.000000 0.000000 0.029166
#
#
# Mechanical properties :
#
#
# Convention : Reuss Voigt Hill
#
# Bulk Modulus (GPa) = 31.83877 42.82362 37.33120
# Shear Modulus (GPa) = 24.80148 27.58870 26.19509
#
# Velocity S-wave (km/s) = 3.61743 3.81529 3.71768
# Velocity P-wave (km/s) = 5.85206 6.48099 6.17454
#
# Compressibility (1/GPa) = 0.03140825
#
# Stress axis : x y z
#
# Youngs Moduli (GPa) = 38.33058 58.51816 98.95325
#
# Poissons Ratio (x) = 0.05237 0.66055
# Poissons Ratio (y) = 0.03430 0.33319
# Poissons Ratio (z) = 0.25587 0.19704
#
# Static dielectric constant tensor:
#      x y z
#    x 1.649790 0.000000 0.000000 
#    y 0.000000 1.709700 0.000000 
#    z 0.000000 0.000000 1.655920 
# 
# From -- ./inp_files/16238.got.cif
#   From: 2010.05.17/outbox.cif.g08.bks.cpg/sg55_9_cif.got.tgz:16238.got - 2010.06.03 13:27:54.
