data_PCOD9428142
_publ_section_title
;
Structure prediction by ZEFSAII (Michael W. Deem and Ramdas Pophale) SiO2 
 PCOD9428142
Probable space group: P B A M
;
_chemical_formula_sum "Si O2"
_cell_formula_units_Z 32
_cell_length_a 4.804296
_cell_length_b 13.080627
_cell_length_c 19.002456
_cell_angle_alpha 90.000000
_cell_angle_beta 90.000000
_cell_angle_gamma 90.000000
_cell_volume 1194.175218
_symmetry_space_group_name_H-M "P B A M"
_symmetry_group_IT_number 55
_symmetry_cell_setting 'orthorhombic'
loop_
_space_group_symop_operation_xyz
x,y,z
-x,-y,z
1/2+x,1/2-y,-z
1/2-x,1/2+y,-z
-x,-y,-z
x,y,-z
1/2-x,1/2+y,z
1/2+x,1/2-y,z
loop_
_atom_site_type_symbol
_atom_site_label
_atom_site_fract_x
_atom_site_fract_y
_atom_site_fract_z
Si Si1 0.407483 0.822213 0.076367
Si Si2 0.750114 0.499539 0.675146
Si Si3 0.956271 0.174984 0.579604
Si Si4 0.965356 0.326711 0.227153
O O1 0.091489 0.782530 0.078289
O O2 0.488849 0.872985 0.149704
O O3 0.461111 0.870885 0.000000
O O4 0.500000 0.500000 0.737968
O O5 0.501440 0.586809 0.636942
O O6 0.998212 0.412846 0.713333
O O7 0.000000 0.500000 0.612317
O O8 0.983860 0.136845 0.500000
O O9 0.669952 0.233111 0.589670
O O10 0.682515 0.265305 0.235402
#
# Coordination Sequence:
#
# PCOD9428142 Si02
#       4
#     8   8   8   8
#     4   8  14  27  51  82 114 154 203 248 293 349
#     4  12  26  40  63  94 127 163 206 250 306 375
#     4  10  23  45  70  93 119 156 206 264 317 360
#     4  10  21  38  60  89 128 167 201 246 306 370
#
# _framework density 26.796737
#
# number of rings (size 3 to 8) (size 9 to 14) (size 15 to 20)
#    0.000    2.000    0.000    3.000    0.000    7.000 
#    0.000    0.000    0.000    3.000    0.000    0.000 
#    0.000    2.000    0.000    0.000    0.000    0.000 
#
# Total GULP energy -178407.482577 kJ/mol
# GULP energy per Si atom -5575.233831 kJ/mol
# Density = 2.673575 g / cm^3
# Si number density = 26.796737 Si / 1000 Ang^3
#
#
#
# Elastic Constant Matrix: (Units=GPa)
#
#
# Indices 1 2 3 4 5 6 
#
# 1 226.9060 3.2169 2.2927 0.0000 0.0000 0.0000
# 2 3.2169 134.5743 100.9240 0.0000 0.0000 0.0000
# 3 2.2927 100.9240 241.3017 0.0000 0.0000 0.0000
# 4 0.0000 0.0000 0.0000 6.8470 0.0000 0.0000
# 5 0.0000 0.0000 0.0000 0.0000 34.6408 0.0000
# 6 0.0000 0.0000 0.0000 0.0000 0.0000 20.0806
#
#
#
# Elastic Compliance Matrix: (Units=1/GPa)
#
#
# Indices 1 2 3 4 5 6 
#
# 1 0.004409 -0.000108 0.000003 0.000000 0.000000 0.000000
# 2 -0.000108 0.010829 -0.004528 0.000000 0.000000 0.000000
# 3 0.000003 -0.004528 0.006038 0.000000 0.000000 0.000000
# 4 0.000000 0.000000 0.000000 0.146049 0.000000 0.000000
# 5 0.000000 0.000000 0.000000 0.000000 0.028868 0.000000
# 6 0.000000 0.000000 0.000000 0.000000 0.000000 0.049799
#
#
# Mechanical properties :
#
#
# Convention : Reuss Voigt Hill
#
# Bulk Modulus (GPa) = 83.26196 90.62771 86.94483
# Shear Modulus (GPa) = 19.28553 45.40357 32.34455
#
# Velocity S-wave (km/s) = 2.68563 4.12074 3.47801
# Velocity P-wave (km/s) = 6.38404 7.51894 6.97461
#
# Compressibility (1/GPa) = 0.01201029
#
# Stress axis : x y z
#
# Youngs Moduli (GPa) = 226.82900 92.34056 165.61371
#
# Poissons Ratio (x) = 0.00995 -0.00053
# Poissons Ratio (y) = 0.02445 0.74996
# Poissons Ratio (z) = -0.00072 0.41815
#
# Static dielectric constant tensor:
#      x y z
#    x 2.335110 0.000000 0.000000 
#    y 0.000000 2.011020 0.000000 
#    z 0.000000 0.000000 2.084330 
# 
# From -- ./inp_files/22201.got.cif
#   From: 2010.05.17/outbox.cif.g08.bks.cpg/sg55_12_cif.got.tgz:22201.got - 2010.06.03 13:27:54.
