data_PCOD9428880
_publ_section_title
;
Structure prediction by ZEFSAII (Michael W. Deem and Ramdas Pophale) SiO2 
 PCOD9428880
Probable space group: P B A M
;
_chemical_formula_sum "Si O2"
_cell_formula_units_Z 48
_cell_length_a 7.514385
_cell_length_b 28.002645
_cell_length_c 9.333556
_cell_angle_alpha 90.000000
_cell_angle_beta 90.000000
_cell_angle_gamma 90.000000
_cell_volume 1963.991639
_symmetry_space_group_name_H-M "P B A M"
_symmetry_group_IT_number 55
_symmetry_cell_setting 'orthorhombic'
loop_
_space_group_symop_operation_xyz
x,y,z
-x,-y,z
1/2+x,1/2-y,-z
1/2-x,1/2+y,-z
-x,-y,-z
x,y,-z
1/2-x,1/2+y,z
1/2+x,1/2-y,z
loop_
_atom_site_type_symbol
_atom_site_label
_atom_site_fract_x
_atom_site_fract_y
_atom_site_fract_z
Si Si1 0.251748 0.957446 0.829420
Si Si2 0.934515 0.675651 0.000000
Si Si3 0.158510 0.363528 0.704340
Si Si4 0.672831 0.438368 0.164310
Si Si5 0.556408 0.715926 0.333835
Si Si6 0.763747 0.347426 0.345969
Si Si7 0.848134 0.250821 0.000000
O O1 0.331276 0.920720 0.712183
O O2 0.040248 0.945340 0.829889
O O3 0.264910 0.012752 0.783521
O O4 0.308124 0.953931 0.000000
O O5 0.859658 0.647880 0.130170
O O6 0.138276 0.691400 0.000000
O O7 0.851911 0.729012 0.000000
O O8 0.325527 0.332648 0.655471
O O9 0.975271 0.341361 0.648497
O O10 0.724934 0.389704 0.238152
O O11 0.725499 0.434371 0.000000
O O12 0.574071 0.737335 0.500000
O O13 0.350256 0.699949 0.321074
O O14 0.599557 0.735728 0.170522
O O15 0.702909 0.365750 0.500000
#
# Coordination Sequence:
#
# PCOD9428880 Si02
#       7
#     8   4   8   8   8   8   4
#     4   9  17  35  58  91 124 161 216 260 314 371
#     4  10  24  40  68 101 123 159 210 257 320 392
#     4  11  21  38  65  92 128 161 206 267 315 377
#     4   9  19  34  61  88 120 167 214 263 307 368
#     4  10  23  44  66  91 130 171 208 259 321 380
#     4  11  24  38  59  92 124 167 217 255 315 378
#     4  10  24  44  68  97 128 164 211 256 324 389
#
# _framework density 24.440021999999999
#
# number of rings (size 3 to 8) (size 9 to 14) (size 15 to 20)
#    0.000    2.000    2.500    1.500    4.667    0.667 
#    0.000   10.000    0.000    0.000    0.000    0.000 
#    0.000    0.000    0.000    0.000    0.000    0.000 
#
# Total GULP energy -267313.268141 kJ/mol
# GULP energy per Si atom -5569.026420 kJ/mol
# Density = 2.438440 g / cm^3
# Si number density = 24.440022 Si / 1000 Ang^3
#
#
#
# Elastic Constant Matrix: (Units=GPa)
#
#
# Indices 1 2 3 4 5 6 
#
# 1 71.8526 7.4572 34.5678 0.0000 0.0000 0.0000
# 2 7.4572 63.7874 51.1293 0.0000 0.0000 0.0000
# 3 34.5678 51.1293 155.0214 0.0000 0.0000 0.0000
# 4 0.0000 0.0000 0.0000 25.3663 0.0000 0.0000
# 5 0.0000 0.0000 0.0000 0.0000 138.4888 0.0000
# 6 0.0000 0.0000 0.0000 0.0000 0.0000 28.7150
#
#
#
# Elastic Compliance Matrix: (Units=1/GPa)
#
#
# Indices 1 2 3 4 5 6 
#
# 1 0.015671 0.001317 -0.003929 0.000000 0.000000 0.000000
# 2 0.001317 0.021422 -0.007359 0.000000 0.000000 0.000000
# 3 -0.003929 -0.007359 0.009754 0.000000 0.000000 0.000000
# 4 0.000000 0.000000 0.000000 0.039422 0.000000 0.000000
# 5 0.000000 0.000000 0.000000 0.000000 0.007221 0.000000
# 6 0.000000 0.000000 0.000000 0.000000 0.000000 0.034825
#
#
# Mechanical properties :
#
#
# Convention : Reuss Voigt Hill
#
# Bulk Modulus (GPa) = 37.16763 52.99667 45.08215
# Shear Modulus (GPa) = 31.80162 51.68115 41.74138
#
# Velocity S-wave (km/s) = 3.61114 4.60348 4.13717
# Velocity P-wave (km/s) = 5.71208 7.07018 6.42710
#
# Compressibility (1/GPa) = 0.02690513
#
# Stress axis : x y z
#
# Youngs Moduli (GPa) = 63.81293 46.68132 102.52218
#
# Poissons Ratio (x) = -0.06149 0.40279
# Poissons Ratio (y) = -0.08405 0.75447
# Poissons Ratio (z) = 0.25071 0.34353
#
# Static dielectric constant tensor:
#      x y z
#    x 2.046680 0.000000 0.000000 
#    y 0.000000 1.973980 0.000000 
#    z 0.000000 0.000000 1.834940 
# 
# From -- ./inp_files/2957.got.cif
#   From: 2010.05.17/outbox.cif.g08.bks.cpg/sg55_2_cif.got.tgz:2957.got - 2010.06.03 13:27:54.
