data_PCOD9428862
_publ_section_title
;
Structure prediction by ZEFSAII (Michael W. Deem and Ramdas Pophale) SiO2 
 PCOD9428862
Probable space group: P B A M
;
_chemical_formula_sum "Si O2"
_cell_formula_units_Z 42
_cell_length_a 29.164648
_cell_length_b 7.361117
_cell_length_c 7.395328
_cell_angle_alpha 90.000000
_cell_angle_beta 90.000000
_cell_angle_gamma 90.000000
_cell_volume 1587.661452
_symmetry_space_group_name_H-M "P B A M"
_symmetry_group_IT_number 55
_symmetry_cell_setting 'orthorhombic'
loop_
_space_group_symop_operation_xyz
x,y,z
-x,-y,z
1/2+x,1/2-y,-z
1/2-x,1/2+y,-z
-x,-y,-z
x,y,-z
1/2-x,1/2+y,z
1/2+x,1/2-y,z
loop_
_atom_site_type_symbol
_atom_site_label
_atom_site_fract_x
_atom_site_fract_y
_atom_site_fract_z
Si Si1 0.088844 0.101068 0.206502
Si Si2 0.186142 0.991341 0.291921
Si Si3 0.618014 0.008231 0.785866
Si Si4 0.782966 0.590383 0.294773
Si Si5 0.500000 0.000000 0.500000
Si Si6 0.462941 0.259323 0.221005
O O1 0.136524 0.985778 0.202673
O O2 0.102982 0.294267 0.290503
O O3 0.050436 0.963929 0.274554
O O4 0.075291 0.138311 0.000000
O O5 0.179542 0.930962 0.500000
O O6 0.199436 0.204617 0.288379
O O7 0.232506 0.908367 0.208513
O O8 0.672244 0.975634 0.758393
O O9 0.582007 0.860281 0.722178
O O10 0.613024 0.017033 0.000000
O O11 0.773514 0.532907 0.500000
O O12 0.499076 0.841120 0.338639
O O13 0.468876 0.249713 0.000000
#
# Coordination Sequence:
#
# PCOD9428862 Si02
#       6
#     8   8   8   8   2   8
#     4   9  19  37  59  83 115 158 198 240 295 350
#     4   9  18  30  46  75 113 153 199 248 285 333
#     4   9  19  37  59  83 115 158 198 240 295 350
#     4   9  18  30  46  75 113 153 199 248 285 333
#     4  12  26  44  70 102 112 158 190 244 318 378
#     4  10  23  43  65  92 125 153 194 249 303 366
#
# _framework density 26.454000000000001
#
# number of rings (size 3 to 8) (size 9 to 14) (size 15 to 20)
#    0.000    2.667    0.000    0.286    5.333    0.762 
#    0.000    1.905    0.000    4.571    0.000    0.000 
#    0.000    0.000    0.000    0.000    0.000    0.000 
#
# Total GULP energy -234050.173575 kJ/mol
# GULP energy per Si atom -5572.623180 kJ/mol
# Density = 2.639379 g / cm^3
# Si number density = 26.454000 Si / 1000 Ang^3
#
#
#
# Elastic Constant Matrix: (Units=GPa)
#
#
# Indices 1 2 3 4 5 6 
#
# 1 166.8720 38.1984 -5.4751 0.0000 0.0000 0.0000
# 2 38.1984 76.3292 6.6295 0.0000 0.0000 0.0000
# 3 -5.4751 6.6295 106.0121 0.0000 0.0000 0.0000
# 4 0.0000 0.0000 0.0000 7.8664 0.0000 0.0000
# 5 0.0000 0.0000 0.0000 0.0000 16.9134 0.0000
# 6 0.0000 0.0000 0.0000 0.0000 0.0000 51.7762
#
#
#
# Elastic Compliance Matrix: (Units=1/GPa)
#
#
# Indices 1 2 3 4 5 6 
#
# 1 0.006802 -0.003453 0.000567 0.000000 0.000000 0.000000
# 2 -0.003453 0.014926 -0.001112 0.000000 0.000000 0.000000
# 3 0.000567 -0.001112 0.009532 0.000000 0.000000 0.000000
# 4 0.000000 0.000000 0.000000 0.127123 0.000000 0.000000
# 5 0.000000 0.000000 0.000000 0.000000 0.059125 0.000000
# 6 0.000000 0.000000 0.000000 0.000000 0.000000 0.019314
#
#
# Mechanical properties :
#
#
# Convention : Reuss Voigt Hill
#
# Bulk Modulus (GPa) = 42.98501 47.54654 45.26578
# Shear Modulus (GPa) = 19.79642 35.96858 27.88250
#
# Velocity S-wave (km/s) = 2.73854 3.69136 3.25006
# Velocity P-wave (km/s) = 5.12676 6.01503 5.58857
#
# Compressibility (1/GPa) = 0.02326392
#
# Stress axis : x y z
#
# Youngs Moduli (GPa) = 147.02265 66.99817 104.91310
#
# Poissons Ratio (x) = 0.23135 -0.05951
# Poissons Ratio (y) = 0.50769 0.11663
# Poissons Ratio (z) = -0.08339 0.07448
#
# Static dielectric constant tensor:
#      x y z
#    x 2.224310 0.000000 0.000000 
#    y 0.000000 2.109090 0.000000 
#    z 0.000000 0.000000 2.024080 
# 
# From -- ./inp_files/3970.got.cif
#   From: 2010.05.17/outbox.cif.g08.bks.cpg/sg55_2_cif.got.tgz:3970.got - 2010.06.03 13:27:54.
