data_PCOD9428798
_publ_section_title
;
Structure prediction by ZEFSAII (Michael W. Deem and Ramdas Pophale) SiO2 
 PCOD9428798
Probable space group: P B A M
;
_chemical_formula_sum "Si O2"
_cell_formula_units_Z 56
_cell_length_a 9.561198
_cell_length_b 15.762395
_cell_length_c 17.914622
_cell_angle_alpha 90.000000
_cell_angle_beta 90.000000
_cell_angle_gamma 90.000000
_cell_volume 2699.865737
_symmetry_space_group_name_H-M "P B A M"
_symmetry_group_IT_number 55
_symmetry_cell_setting 'orthorhombic'
loop_
_space_group_symop_operation_xyz
x,y,z
-x,-y,z
1/2+x,1/2-y,-z
1/2-x,1/2+y,-z
-x,-y,-z
x,y,-z
1/2-x,1/2+y,z
1/2+x,1/2-y,z
loop_
_atom_site_type_symbol
_atom_site_label
_atom_site_fract_x
_atom_site_fract_y
_atom_site_fract_z
Si Si1 0.772151 0.215384 0.222119
Si Si2 0.510825 0.270604 0.677560
Si Si3 0.363045 0.541382 0.916112
Si Si4 0.850096 0.613963 0.917285
Si Si5 0.867791 0.377924 0.158735
Si Si6 0.390556 0.575491 0.411961
Si Si7 0.099344 0.577543 0.673815
O O1 0.881739 0.179775 0.282298
O O2 0.647550 0.259173 0.269411
O O3 0.705827 0.160421 0.156656
O O4 0.876196 0.280469 0.180850
O O5 0.551364 0.331231 0.609402
O O6 0.460558 0.173502 0.659797
O O7 0.500000 0.500000 0.881498
O O8 0.242222 0.470771 0.919745
O O9 0.289496 0.614220 0.870955
O O10 0.400603 0.569183 0.000000
O O11 0.013569 0.599990 0.900629
O O12 0.833850 0.654591 0.000000
O O13 0.884520 0.427962 0.235961
O O14 0.500000 0.500000 0.393719
O O15 0.361419 0.570547 0.500000
O O16 0.248198 0.566611 0.365101
O O17 0.000000 0.500000 0.650332
#
# Coordination Sequence:
#
# PCOD9428798 Si02
#       7
#     8   8   8   8   8   8   8
#     4  11  23  42  63  95 126 171 228 276 334 399
#     4  11  23  47  69  99 140 178 226 280 331 407
#     4  10  23  38  55  84 120 166 221 277 336 394
#     4  11  23  39  60  88 128 172 219 279 342 393
#     4  11  22  39  62  90 125 171 223 273 330 401
#     4  11  27  48  72 107 141 177 223 273 338 407
#     4  11  24  42  72 105 137 181 227 276 336 407
#
# _framework density 20.741772999999998
#
# number of rings (size 3 to 8) (size 9 to 14) (size 15 to 20)
#    0.000    1.143    5.714    1.714    4.000    3.714 
#    0.000    0.000    0.000    0.000    0.000    0.000 
#    0.000    0.000    0.000    0.000    0.000    0.000 
#
# Total GULP energy -312274.382406 kJ/mol
# GULP energy per Si atom -5576.328257 kJ/mol
# Density = 2.069456 g / cm^3
# Si number density = 20.741773 Si / 1000 Ang^3
#
#
#
# Elastic Constant Matrix: (Units=GPa)
#
#
# Indices 1 2 3 4 5 6 
#
# 1 95.4493 4.9963 19.0711 0.0000 0.0000 0.0000
# 2 4.9963 52.2610 21.4339 0.0000 0.0000 0.0000
# 3 19.0711 21.4339 64.2595 0.0000 0.0000 0.0000
# 4 0.0000 0.0000 0.0000 14.5034 0.0000 0.0000
# 5 0.0000 0.0000 0.0000 0.0000 114.6085 0.0000
# 6 0.0000 0.0000 0.0000 0.0000 0.0000 36.3018
#
#
#
# Elastic Compliance Matrix: (Units=1/GPa)
#
#
# Indices 1 2 3 4 5 6 
#
# 1 0.011142 0.000337 -0.003419 0.000000 0.000000 0.000000
# 2 0.000337 0.022177 -0.007497 0.000000 0.000000 0.000000
# 3 -0.003419 -0.007497 0.019077 0.000000 0.000000 0.000000
# 4 0.000000 0.000000 0.000000 0.068949 0.000000 0.000000
# 5 0.000000 0.000000 0.000000 0.000000 0.008725 0.000000
# 6 0.000000 0.000000 0.000000 0.000000 0.000000 0.027547
#
#
# Mechanical properties :
#
#
# Convention : Reuss Voigt Hill
#
# Bulk Modulus (GPa) = 32.01221 33.66360 32.83791
# Shear Modulus (GPa) = 26.42839 44.18064 35.30452
#
# Velocity S-wave (km/s) = 3.57341 4.62023 4.13012
# Velocity P-wave (km/s) = 5.70026 6.68784 6.21370
#
# Compressibility (1/GPa) = 0.03123808
#
# Stress axis : x y z
#
# Youngs Moduli (GPa) = 89.74797 45.09091 52.41782
#
# Poissons Ratio (x) = -0.01520 0.17923
# Poissons Ratio (y) = -0.03026 0.39300
# Poissons Ratio (z) = 0.30688 0.33806
#
# Static dielectric constant tensor:
#      x y z
#    x 1.787810 0.000000 0.000000 
#    y 0.000000 1.790090 0.000000 
#    z 0.000000 0.000000 1.752890 
# 
# From -- ./inp_files/22644.got.cif
#   From: 2010.05.17/outbox.cif.g08.bks.cpg/sg55_12_cif.got.tgz:22644.got - 2010.06.03 13:27:54.
