data_PCOD9428273
_publ_section_title
;
Structure prediction by ZEFSAII (Michael W. Deem and Ramdas Pophale) SiO2 
 PCOD9428273
Probable space group: P B A M
;
_chemical_formula_sum "Si O2"
_cell_formula_units_Z 56
_cell_length_a 19.230350
_cell_length_b 17.354482
_cell_length_c 8.892709
_cell_angle_alpha 90.000000
_cell_angle_beta 90.000000
_cell_angle_gamma 90.000000
_cell_volume 2967.788344
_symmetry_space_group_name_H-M "P B A M"
_symmetry_group_IT_number 55
_symmetry_cell_setting 'orthorhombic'
loop_
_space_group_symop_operation_xyz
x,y,z
-x,-y,z
1/2+x,1/2-y,-z
1/2-x,1/2+y,-z
-x,-y,-z
x,y,-z
1/2-x,1/2+y,z
1/2+x,1/2-y,z
loop_
_atom_site_type_symbol
_atom_site_label
_atom_site_fract_x
_atom_site_fract_y
_atom_site_fract_z
Si Si1 0.078755 0.518000 0.181470
Si Si2 0.363156 0.174954 0.680137
Si Si3 0.153826 0.973256 0.679806
Si Si4 0.054951 0.829444 0.319568
Si Si5 0.292555 0.914122 0.181076
Si Si6 0.091942 0.127230 0.179522
Si Si7 0.721632 0.264269 0.180753
O O1 0.107106 0.596733 0.251337
O O2 0.132902 0.450174 0.221227
O O3 0.000000 0.500000 0.229481
O O4 0.078892 0.525399 0.000000
O O5 0.360503 0.169649 0.500000
O O6 0.412442 0.247163 0.721579
O O7 0.286874 0.194762 0.742333
O O8 0.157426 0.979456 0.500000
O O9 0.109880 0.896665 0.718702
O O10 0.230632 0.963390 0.746894
O O11 0.115253 0.047105 0.746645
O O12 0.045093 0.831359 0.500000
O O13 0.982344 0.846280 0.240446
O O14 0.284350 0.825068 0.227467
O O15 0.285959 0.917519 0.000000
O O16 0.150991 0.190261 0.215615
O O17 0.089162 0.118116 0.000000
O O18 0.731415 0.266398 0.000000
#
# Coordination Sequence:
#
# PCOD9428273 Si02
#       7
#     8   8   8   8   8   8   8
#     4  10  23  41  64  91 124 163 205 254 308 361
#     4  11  23  41  63  89 122 160 205 248 300 363
#     4  11  22  40  62  86 121 160 196 241 300 358
#     4  10  23  41  59  86 122 159 196 242 298 357
#     4  10  21  39  62  88 118 156 204 250 296 357
#     4  11  24  38  60  92 121 152 198 246 296 356
#     4  10  22  40  62  89 121 157 201 252 299 353
#
# _framework density 18.869268999999999
#
# number of rings (size 3 to 8) (size 9 to 14) (size 15 to 20)
#    0.000    1.571    1.429    2.571    2.000    9.429 
#    0.000    0.000    0.000    0.000    0.000    0.000 
#    0.000    0.000    0.000    0.000    0.000    0.000 
#
# Total GULP energy -313085.554400 kJ/mol
# GULP energy per Si atom -5590.813471 kJ/mol
# Density = 1.882632 g / cm^3
# Si number density = 18.869269 Si / 1000 Ang^3
#
#
#
# Elastic Constant Matrix: (Units=GPa)
#
#
# Indices 1 2 3 4 5 6 
#
# 1 168.8948 50.1368 44.5340 0.0000 0.0000 0.0000
# 2 50.1368 58.0904 24.8701 0.0000 0.0000 0.0000
# 3 44.5340 24.8701 18.7503 0.0000 0.0000 0.0000
# 4 0.0000 0.0000 0.0000 29.0632 0.0000 0.0000
# 5 0.0000 0.0000 0.0000 0.0000 70.6221 0.0000
# 6 0.0000 0.0000 0.0000 0.0000 0.0000 4.8943
#
#
#
# Elastic Compliance Matrix: (Units=1/GPa)
#
#
# Indices 1 2 3 4 5 6 
#
# 1 0.016682 0.005936 -0.047496 0.000000 0.000000 0.000000
# 2 0.005936 0.041948 -0.069738 0.000000 0.000000 0.000000
# 3 -0.047496 -0.069738 0.258640 0.000000 0.000000 0.000000
# 4 0.000000 0.000000 0.000000 0.034408 0.000000 0.000000
# 5 0.000000 0.000000 0.000000 0.000000 0.014160 0.000000
# 6 0.000000 0.000000 0.000000 0.000000 0.000000 0.204318
#
#
# Mechanical properties :
#
#
# Convention : Reuss Voigt Hill
#
# Bulk Modulus (GPa) = 10.56251 53.86862 32.21556
# Shear Modulus (GPa) = 6.06568 29.32890 17.69729
#
# Velocity S-wave (km/s) = 1.79487 3.94676 3.06582
# Velocity P-wave (km/s) = 3.14727 7.02706 5.44449
#
# Compressibility (1/GPa) = 0.09467450
#
# Stress axis : x y z
#
# Youngs Moduli (GPa) = 59.94329 23.83907 3.86638
#
# Poissons Ratio (x) = -0.14151 0.18364
# Poissons Ratio (y) = -0.35583 0.26963
# Poissons Ratio (z) = 2.84707 1.66249
#
# Static dielectric constant tensor:
#      x y z
#    x 1.621170 0.000000 0.000000 
#    y 0.000000 1.634770 0.000000 
#    z 0.000000 0.000000 1.633680 
# 
# From -- ./inp_files/8762.got.cif
#   From: 2010.05.17/outbox.cif.g08.bks.cpg/sg55_5_cif.got.tgz:8762.got - 2010.06.03 13:27:54.
