data_PCOD9428911
_publ_section_title
;
Structure prediction by ZEFSAII (Michael W. Deem and Ramdas Pophale) SiO2 
 PCOD9428911
Probable space group: P B A M
;
_chemical_formula_sum "Si O2"
_cell_formula_units_Z 48
_cell_length_a 27.164612
_cell_length_b 10.937548
_cell_length_c 7.819305
_cell_angle_alpha 90.000000
_cell_angle_beta 90.000000
_cell_angle_gamma 90.000000
_cell_volume 2323.226922
_symmetry_space_group_name_H-M "P B A M"
_symmetry_group_IT_number 55
_symmetry_cell_setting 'orthorhombic'
loop_
_space_group_symop_operation_xyz
x,y,z
-x,-y,z
1/2+x,1/2-y,-z
1/2-x,1/2+y,-z
-x,-y,-z
x,y,-z
1/2-x,1/2+y,z
1/2+x,1/2-y,z
loop_
_atom_site_type_symbol
_atom_site_label
_atom_site_fract_x
_atom_site_fract_y
_atom_site_fract_z
Si Si1 0.891732 0.252401 0.706873
Si Si2 0.940849 0.000555 0.687992
Si Si3 0.285581 0.956933 0.293677
Si Si4 0.966773 0.619206 0.000000
Si Si5 0.902058 0.527370 0.704207
Si Si6 0.963171 0.883002 0.000000
Si Si7 0.278631 0.229548 0.709892
O O1 0.891030 0.255486 0.500000
O O2 0.912175 0.385322 0.754739
O O3 0.835000 0.243769 0.762693
O O4 0.922406 0.132537 0.751250
O O5 0.919236 0.976538 0.500000
O O6 0.930623 0.900766 0.831120
O O7 0.000000 0.000000 0.668111
O O8 0.279920 0.957269 0.500000
O O9 0.344079 0.951783 0.263205
O O10 0.256716 0.838111 0.229842
O O11 0.266963 0.090561 0.234186
O O12 0.934193 0.609173 0.171550
O O13 0.000000 0.500000 0.000000
O O14 0.989845 0.753771 0.000000
O O15 0.911399 0.543056 0.500000
O O16 0.000000 0.000000 0.000000
O O17 0.277832 0.228770 0.500000
#
# Coordination Sequence:
#
# PCOD9428911 Si02
#       7
#     8   8   8   4   8   4   8
#     4   8  15  30  55  88 115 149 196 235 279 347
#     4   9  18  33  57  82 112 150 186 230 289 337
#     4   8  14  28  51  80 114 152 184 229 284 331
#     4  12  28  42  62  89 111 151 199 239 296 353
#     4   9  20  39  62  86 119 153 192 240 289 346
#     4  10  24  42  58  81 113 143 185 237 285 345
#     4   8  13  24  46  79 113 143 188 230 269 336
#
# _framework density 20.660917999999999
#
# number of rings (size 3 to 8) (size 9 to 14) (size 15 to 20)
#    0.000    3.167    0.000    2.000    4.667    1.000 
#    3.000    0.000    0.000    5.000    0.000    0.000 
#    0.000    0.000    0.000    0.000    0.000    0.000 
#
# Total GULP energy -267406.371412 kJ/mol
# GULP energy per Si atom -5570.966071 kJ/mol
# Density = 2.061389 g / cm^3
# Si number density = 20.660918 Si / 1000 Ang^3
#
#
#
# Elastic Constant Matrix: (Units=GPa)
#
#
# Indices 1 2 3 4 5 6 
#
# 1 39.5459 53.7310 17.8339 0.0000 0.0000 0.0000
# 2 53.7310 153.2348 35.2420 0.0000 0.0000 0.0000
# 3 17.8339 35.2420 73.3940 0.0000 0.0000 0.0000
# 4 0.0000 0.0000 0.0000 84.1847 0.0000 0.0000
# 5 0.0000 0.0000 0.0000 0.0000 17.1264 0.0000
# 6 0.0000 0.0000 0.0000 0.0000 0.0000 38.3353
#
#
#
# Elastic Compliance Matrix: (Units=1/GPa)
#
#
# Indices 1 2 3 4 5 6 
#
# 1 0.049392 -0.016366 -0.004143 0.000000 0.000000 0.000000
# 2 -0.016366 0.012759 -0.002150 0.000000 0.000000 0.000000
# 3 -0.004143 -0.002150 0.015664 0.000000 0.000000 0.000000
# 4 0.000000 0.000000 0.000000 0.011879 0.000000 0.000000
# 5 0.000000 0.000000 0.000000 0.000000 0.058389 0.000000
# 6 0.000000 0.000000 0.000000 0.000000 0.000000 0.026086
#
#
# Mechanical properties :
#
#
# Convention : Reuss Voigt Hill
#
# Bulk Modulus (GPa) = 30.77186 53.30981 42.04084
# Shear Modulus (GPa) = 21.70894 38.55382 30.13138
#
# Velocity S-wave (km/s) = 3.24501 4.32444 3.82301
# Velocity P-wave (km/s) = 5.38202 7.12689 6.31501
#
# Compressibility (1/GPa) = 0.03249722
#
# Stress axis : x y z
#
# Youngs Moduli (GPa) = 20.24605 78.37523 63.84030
#
# Poissons Ratio (x) = 1.28272 0.26449
# Poissons Ratio (y) = 0.33135 0.13724
# Poissons Ratio (z) = 0.08388 0.16849
#
# Static dielectric constant tensor:
#      x y z
#    x 1.688940 0.000000 0.000000 
#    y 0.000000 1.754040 0.000000 
#    z 0.000000 0.000000 1.921420 
# 
# From -- ./inp_files/10561.got.cif
#   From: 2010.05.17/outbox.cif.g08.bks.cpg/sg55_6_cif.got.tgz:10561.got - 2010.06.03 13:27:54.
