data_PCOD9428321
_publ_section_title
;
Structure prediction by ZEFSAII (Michael W. Deem and Ramdas Pophale) SiO2 
 PCOD9428321
Probable space group: P B A M
;
_chemical_formula_sum "Si O2"
_cell_formula_units_Z 32
_cell_length_a 9.153030
_cell_length_b 13.203705
_cell_length_c 13.663919
_cell_angle_alpha 90.000000
_cell_angle_beta 90.000000
_cell_angle_gamma 90.000000
_cell_volume 1651.338009
_symmetry_space_group_name_H-M "P B A M"
_symmetry_group_IT_number 55
_symmetry_cell_setting 'orthorhombic'
loop_
_space_group_symop_operation_xyz
x,y,z
-x,-y,z
1/2+x,1/2-y,-z
1/2-x,1/2+y,-z
-x,-y,-z
x,y,-z
1/2-x,1/2+y,z
1/2+x,1/2-y,z
loop_
_atom_site_type_symbol
_atom_site_label
_atom_site_fract_x
_atom_site_fract_y
_atom_site_fract_z
Si Si1 0.835042 0.457936 0.388646
Si Si2 0.632213 0.576002 0.737661
Si Si3 0.850230 0.653795 0.115641
Si Si4 0.856355 0.299419 0.219152
O O1 0.812536 0.424014 0.500000
O O2 0.722036 0.545450 0.358459
O O3 0.812338 0.371328 0.307808
O O4 0.000000 0.500000 0.379887
O O5 0.500000 0.500000 0.752302
O O6 0.748731 0.573188 0.827317
O O7 0.585026 0.693004 0.735986
O O8 0.775080 0.760141 0.150071
O O9 0.013631 0.651727 0.156751
O O10 0.345331 0.857296 0.000000
#
# Coordination Sequence:
#
# PCOD9428321 Si02
#       4
#     8   8   8   8
#     4  11  22  41  65  91 124 166 209 258 314 367
#     4  10  23  40  62  94 129 156 211 267 301 376
#     4  10  21  39  65  91 126 168 205 258 317 367
#     4  10  21  41  63  90 129 163 212 257 308 376
#
# _framework density 19.378225
#
# number of rings (size 3 to 8) (size 9 to 14) (size 15 to 20)
#    1.500    0.250    2.500    2.250    0.000    2.000 
#    0.000   10.000    0.000    0.000    0.000    0.000 
#    0.000    0.000    0.000    0.000    0.000    0.000 
#
# Total GULP energy -178359.175557 kJ/mol
# GULP energy per Si atom -5573.724236 kJ/mol
# Density = 1.933412 g / cm^3
# Si number density = 19.378225 Si / 1000 Ang^3
#
#
#
# Elastic Constant Matrix: (Units=GPa)
#
#
# Indices 1 2 3 4 5 6 
#
# 1 65.2503 -6.2567 27.0347 0.0000 0.0000 0.0000
# 2 -6.2567 37.3081 9.3367 0.0000 0.0000 0.0000
# 3 27.0347 9.3367 128.3700 0.0000 0.0000 0.0000
# 4 0.0000 0.0000 0.0000 26.1716 0.0000 0.0000
# 5 0.0000 0.0000 0.0000 0.0000 20.6848 0.0000
# 6 0.0000 0.0000 0.0000 0.0000 0.0000 36.1249
#
#
#
# Elastic Compliance Matrix: (Units=1/GPa)
#
#
# Indices 1 2 3 4 5 6 
#
# 1 0.017328 0.003890 -0.003932 0.000000 0.000000 0.000000
# 2 0.003890 0.028174 -0.002868 0.000000 0.000000 0.000000
# 3 -0.003932 -0.002868 0.008827 0.000000 0.000000 0.000000
# 4 0.000000 0.000000 0.000000 0.038209 0.000000 0.000000
# 5 0.000000 0.000000 0.000000 0.000000 0.048345 0.000000
# 6 0.000000 0.000000 0.000000 0.000000 0.000000 0.027682
#
#
# Mechanical properties :
#
#
# Convention : Reuss Voigt Hill
#
# Bulk Modulus (GPa) = 20.61540 32.35085 26.48313
# Shear Modulus (GPa) = 26.23920 29.98385 28.11153
#
# Velocity S-wave (km/s) = 3.68374 3.93784 3.81291
# Velocity P-wave (km/s) = 5.36235 6.11605 5.75156
#
# Compressibility (1/GPa) = 0.04850743
#
# Stress axis : x y z
#
# Youngs Moduli (GPa) = 57.71076 35.49368 113.29240
#
# Poissons Ratio (x) = -0.13807 0.44548
# Poissons Ratio (y) = -0.22450 0.32497
# Poissons Ratio (z) = 0.22693 0.10181
#
# Static dielectric constant tensor:
#      x y z
#    x 1.682910 0.000000 0.000000 
#    y 0.000000 1.701650 0.000000 
#    z 0.000000 0.000000 1.624160 
# 
# From -- ./inp_files/11615.got.cif
#   From: 2010.05.17/outbox.cif.g08.bks.cpg/sg55_6_cif.got.tgz:11615.got - 2010.06.03 13:27:54.
