data_PCOD9428122
_publ_section_title
;
Structure prediction by ZEFSAII (Michael W. Deem and Ramdas Pophale) SiO2 
 PCOD9428122
Probable space group: P B A M
;
_chemical_formula_sum "Si O2"
_cell_formula_units_Z 64
_cell_length_a 22.687667
_cell_length_b 17.165433
_cell_length_c 7.958433
_cell_angle_alpha 90.000000
_cell_angle_beta 90.000000
_cell_angle_gamma 90.000000
_cell_volume 3099.361019
_symmetry_space_group_name_H-M "P B A M"
_symmetry_group_IT_number 55
_symmetry_cell_setting 'orthorhombic'
loop_
_space_group_symop_operation_xyz
x,y,z
-x,-y,z
1/2+x,1/2-y,-z
1/2-x,1/2+y,-z
-x,-y,-z
x,y,-z
1/2-x,1/2+y,z
1/2+x,1/2-y,z
loop_
_atom_site_type_symbol
_atom_site_label
_atom_site_fract_x
_atom_site_fract_y
_atom_site_fract_z
Si Si1 0.773871 0.587752 0.302126
Si Si2 0.889331 0.676935 0.803254
Si Si3 0.852443 0.143238 0.800198
Si Si4 0.232622 0.590920 0.702668
Si Si5 0.140469 0.151853 0.202028
Si Si6 0.432228 0.501647 0.205604
Si Si7 0.383758 0.183632 0.703862
Si Si8 0.504117 0.912842 0.301685
O O1 0.787578 0.584515 0.500000
O O2 0.827881 0.631621 0.216452
O O3 0.712199 0.631834 0.277286
O O4 0.766876 0.498904 0.238829
O O5 0.880495 0.764249 0.734120
O O6 0.942298 0.630572 0.718419
O O7 0.904080 0.682185 0.000000
O O8 0.895407 0.074050 0.740159
O O9 0.878729 0.227634 0.762042
O O10 0.845619 0.134756 0.000000
O O11 0.232008 0.589314 0.500000
O O12 0.291811 0.634395 0.756475
O O13 0.174190 0.636014 0.759218
O O14 0.101029 0.079679 0.262792
O O15 0.135550 0.153899 0.000000
O O16 0.500000 0.500000 0.260017
O O17 0.432172 0.501689 0.000000
O O18 0.383994 0.184678 0.500000
O O19 0.442222 0.139378 0.765809
O O20 0.516859 0.921727 0.500000
O O21 0.500000 0.000000 0.228750
#
# Coordination Sequence:
#
# PCOD9428122 Si02
#       8
#     8   8   8   8   8   8   8   8
#     4  11  22  39  62  86 119 159 201 245 298 358
#     4  11  24  38  60  92 123 153 197 251 302 354
#     4  11  22  37  61  90 119 154 200 247 298 353
#     4  10  21  38  61  86 114 154 199 242 292 350
#     4  10  21  38  59  86 119 153 194 242 293 354
#     4   9  19  36  59  83 115 159 195 231 287 352
#     4  10  22  39  60  86 118 155 197 245 295 355
#     4  10  22  43  66  87 118 161 205 242 293 359
#
# _framework density 20.649418000000001
#
# number of rings (size 3 to 8) (size 9 to 14) (size 15 to 20)
#    0.000    1.750    1.250    2.625    1.750    6.750 
#    0.000    1.250    0.000    1.875    0.000    0.000 
#    0.000    0.000    0.000    0.000    0.000    0.000 
#
# Total GULP energy -357762.705332 kJ/mol
# GULP energy per Si atom -5590.042271 kJ/mol
# Density = 2.060242 g / cm^3
# Si number density = 20.649418 Si / 1000 Ang^3
#
#
#
# Elastic Constant Matrix: (Units=GPa)
#
#
# Indices 1 2 3 4 5 6 
#
# 1 145.9952 74.1344 -15.5944 0.0000 0.0000 0.0000
# 2 74.1344 180.1651 -4.2161 0.0000 0.0000 0.0000
# 3 -15.5944 -4.2161 17.3361 0.0000 0.0000 0.0000
# 4 0.0000 0.0000 0.0000 7.2312 0.0000 0.0000
# 5 0.0000 0.0000 0.0000 0.0000 22.6451 0.0000
# 6 0.0000 0.0000 0.0000 0.0000 0.0000 18.1638
#
#
#
# Elastic Compliance Matrix: (Units=1/GPa)
#
#
# Indices 1 2 3 4 5 6 
#
# 1 0.009583 -0.003763 0.007705 0.000000 0.000000 0.000000
# 2 -0.003763 0.007060 -0.001668 0.000000 0.000000 0.000000
# 3 0.007705 -0.001668 0.064209 0.000000 0.000000 0.000000
# 4 0.000000 0.000000 0.000000 0.138289 0.000000 0.000000
# 5 0.000000 0.000000 0.000000 0.000000 0.044160 0.000000
# 6 0.000000 0.000000 0.000000 0.000000 0.000000 0.055054
#
#
# Mechanical properties :
#
#
# Convention : Reuss Voigt Hill
#
# Bulk Modulus (GPa) = 11.70953 50.23824 30.97389
# Shear Modulus (GPa) = 14.60821 28.88621 21.74721
#
# Velocity S-wave (km/s) = 2.66266 3.74423 3.24877
# Velocity P-wave (km/s) = 3.89049 6.56310 5.39491
#
# Compressibility (1/GPa) = 0.08540052
#
# Stress axis : x y z
#
# Youngs Moduli (GPa) = 104.34665 141.64580 15.57423
#
# Poissons Ratio (x) = 0.53302 -0.12001
# Poissons Ratio (y) = 0.39266 0.02598
# Poissons Ratio (z) = -0.80404 0.23628
#
# Static dielectric constant tensor:
#      x y z
#    x 1.682870 0.000000 0.000000 
#    y 0.000000 1.725750 0.000000 
#    z 0.000000 0.000000 1.757240 
# 
# From -- ./inp_files/9814.got.cif
#   From: 2010.05.17/outbox.cif.g08.bks.cpg/sg55_5_cif.got.tgz:9814.got - 2010.06.03 13:27:54.
