data_PCOD9428638
_publ_section_title
;
Structure prediction by ZEFSAII (Michael W. Deem and Ramdas Pophale) SiO2 
 PCOD9428638
Probable space group: P B A M
;
_chemical_formula_sum "Si O2"
_cell_formula_units_Z 56
_cell_length_a 15.753499
_cell_length_b 21.504923
_cell_length_c 8.164859
_cell_angle_alpha 90.000000
_cell_angle_beta 90.000000
_cell_angle_gamma 90.000000
_cell_volume 2766.072830
_symmetry_space_group_name_H-M "P B A M"
_symmetry_group_IT_number 55
_symmetry_cell_setting 'orthorhombic'
loop_
_space_group_symop_operation_xyz
x,y,z
-x,-y,z
1/2+x,1/2-y,-z
1/2-x,1/2+y,-z
-x,-y,-z
x,y,-z
1/2-x,1/2+y,z
1/2+x,1/2-y,z
loop_
_atom_site_type_symbol
_atom_site_label
_atom_site_fract_x
_atom_site_fract_y
_atom_site_fract_z
Si Si1 0.508330 0.808258 0.690062
Si Si2 0.636666 0.707057 0.806224
Si Si3 0.305285 0.978573 0.688536
Si Si4 0.369263 0.520188 0.808970
Si Si5 0.321050 0.834883 0.302936
Si Si6 0.553913 0.940772 0.189931
Si Si7 0.486213 0.398129 0.810366
O O1 0.508105 0.789531 0.500000
O O2 0.583024 0.769634 0.776967
O O3 0.410458 0.804292 0.754389
O O4 0.532845 0.880430 0.707319
O O5 0.732583 0.699307 0.740222
O O6 0.572758 0.654600 0.733843
O O7 0.645020 0.696126 0.000000
O O8 0.334392 0.979906 0.500000
O O9 0.316721 0.907644 0.752762
O O10 0.208324 0.998554 0.701051
O O11 0.352976 0.031546 0.790089
O O12 0.430040 0.460171 0.813397
O O13 0.423154 0.579033 0.743928
O O14 0.344785 0.531553 0.000000
O O15 0.326069 0.837061 0.500000
O O16 0.500000 0.000000 0.245774
O O17 0.534341 0.927363 0.000000
O O18 0.502549 0.379743 0.000000
#
# Coordination Sequence:
#
# PCOD9428638 Si02
#       7
#     8   8   8   8   8   8   8
#     4  11  24  44  65  87 122 163 203 252 310 371
#     4  11  22  39  64  92 121 160 210 258 306 362
#     4  11  21  35  58  89 121 154 196 244 300 363
#     4   9  16  32  55  82 116 155 198 243 296 351
#     4  10  22  40  63  88 118 162 205 244 304 372
#     4  11  23  39  63  92 119 150 195 252 310 363
#     4   8  16  31  55  83 115 153 194 246 299 348
#
# _framework density 20.24531
#
# number of rings (size 3 to 8) (size 9 to 14) (size 15 to 20)
#    0.000    1.857    2.857    2.571    0.000    2.286 
#    2.571    2.857    0.000    0.000    0.000    0.000 
#    0.000    0.000    0.000    0.000    0.000    0.000 
#
# Total GULP energy -312043.442988 kJ/mol
# GULP energy per Si atom -5572.204339 kJ/mol
# Density = 2.019923 g / cm^3
# Si number density = 20.245310 Si / 1000 Ang^3
#
#
#
# Elastic Constant Matrix: (Units=GPa)
#
#
# Indices 1 2 3 4 5 6 
#
# 1 92.0056 31.8635 6.3617 0.0000 0.0000 0.0000
# 2 31.8635 57.3802 1.7907 0.0000 0.0000 0.0000
# 3 6.3617 1.7907 24.6000 0.0000 0.0000 0.0000
# 4 0.0000 0.0000 0.0000 -28.3740 0.0000 0.0000
# 5 0.0000 0.0000 0.0000 0.0000 22.4467 0.0000
# 6 0.0000 0.0000 0.0000 0.0000 0.0000 30.2662
#
#
#
# Elastic Compliance Matrix: (Units=1/GPa)
#
#
# Indices 1 2 3 4 5 6 
#
# 1 0.013673 -0.007499 -0.002990 0.000000 0.000000 0.000000
# 2 -0.007499 0.021580 0.000368 0.000000 0.000000 0.000000
# 3 -0.002990 0.000368 0.041397 0.000000 0.000000 0.000000
# 4 0.000000 0.000000 0.000000 -0.035244 0.000000 0.000000
# 5 0.000000 0.000000 0.000000 0.000000 0.044550 0.000000
# 6 0.000000 0.000000 0.000000 0.000000 0.000000 0.033040
#
#
# Mechanical properties :
#
#
# Convention : Reuss Voigt Hill
#
# Bulk Modulus (GPa) = 17.72781 28.22419 22.97600
# Shear Modulus (GPa) = 31.63731 13.79909 22.71820
#
# Velocity S-wave (km/s) = 3.95739 2.61357 3.35348
# Velocity P-wave (km/s) = 5.44580 4.80406 5.13497
#
# Compressibility (1/GPa) = 0.05640855
#
# Stress axis : x y z
#
# Youngs Moduli (GPa) = 73.13792 46.33819 24.15642
#
# Poissons Ratio (x) = 0.34750 0.07223
# Poissons Ratio (y) = 0.54848 -0.00890
# Poissons Ratio (z) = 0.21868 -0.01707
#
# Static dielectric constant tensor:
#      x y z
#    x 1.204670 0.000000 0.000000 
#    y 0.000000 1.689480 0.000000 
#    z 0.000000 0.000000 1.730940 
# 
# From -- ./inp_files/6012.got.cif
#   From: 2010.05.17/outbox.cif.g08.bks.cpg/sg55_4_cif.got.tgz:6012.got - 2010.06.03 13:27:54.
