data_PCOD9428194
_publ_section_title
;
Structure prediction by ZEFSAII (Michael W. Deem and Ramdas Pophale) SiO2 
 PCOD9428194
Probable space group: P B A M
;
_chemical_formula_sum "Si O2"
_cell_formula_units_Z 48
_cell_length_a 14.900982
_cell_length_b 8.475568
_cell_length_c 16.769402
_cell_angle_alpha 90.000000
_cell_angle_beta 90.000000
_cell_angle_gamma 90.000000
_cell_volume 2117.879656
_symmetry_space_group_name_H-M "P B A M"
_symmetry_group_IT_number 55
_symmetry_cell_setting 'orthorhombic'
loop_
_space_group_symop_operation_xyz
x,y,z
-x,-y,z
1/2+x,1/2-y,-z
1/2-x,1/2+y,-z
-x,-y,-z
x,y,-z
1/2-x,1/2+y,z
1/2+x,1/2-y,z
loop_
_atom_site_type_symbol
_atom_site_label
_atom_site_fract_x
_atom_site_fract_y
_atom_site_fract_z
Si Si1 0.547870 0.657677 0.091116
Si Si2 0.769846 0.490968 0.661729
Si Si3 0.466983 0.756034 0.500000
Si Si4 0.146528 0.583386 0.500000
Si Si5 0.112521 0.195948 0.670229
Si Si6 0.882616 0.707624 0.155880
Si Si7 0.806541 0.364339 0.827228
O O1 0.500000 0.500000 0.123132
O O2 0.463726 0.775445 0.095336
O O3 0.629843 0.727791 0.140181
O O4 0.576426 0.628993 0.000000
O O5 0.792342 0.417351 0.576996
O O6 0.812316 0.664285 0.661038
O O7 0.664723 0.469509 0.678500
O O8 0.814389 0.389617 0.732259
O O9 0.573365 0.780321 0.500000
O O10 0.441307 0.688315 0.412704
O O11 0.412808 0.922979 0.500000
O O12 0.074253 0.253215 0.755798
O O13 0.796497 0.824071 0.150600
O O14 0.840452 0.534902 0.144720
#
# Coordination Sequence:
#
# PCOD9428194 Si02
#       7
#     8   8   4   4   8   8   8
#     4  11  25  43  63  88 117 150 190 239 295 353
#     4   9  18  32  53  78 106 145 187 229 274 326
#     4   9  17  28  47  75 108 145 186 228 269 318
#     4   9  17  28  47  75 108 145 186 228 269 318
#     4   9  18  32  53  78 106 145 187 229 274 326
#     4  10  21  38  62  90 120 155 196 239 289 347
#     4  10  21  38  62  90 120 155 196 239 289 347
#
# _framework density 22.664176999999999
#
# number of rings (size 3 to 8) (size 9 to 14) (size 15 to 20)
#    0.000    2.333    0.000    2.000    2.333    3.333 
#    0.000    0.000    0.000    1.000    0.000    0.000 
#    0.000    0.000    0.000    0.000    0.000    0.000 
#
# Total GULP energy -267636.484819 kJ/mol
# GULP energy per Si atom -5575.760100 kJ/mol
# Density = 2.261259 g / cm^3
# Si number density = 22.664177 Si / 1000 Ang^3
#
#
#
# Elastic Constant Matrix: (Units=GPa)
#
#
# Indices 1 2 3 4 5 6 
#
# 1 33.3476 -2.9653 -2.2463 0.0000 0.0000 0.0000
# 2 -2.9653 38.3567 6.3345 0.0000 0.0000 0.0000
# 3 -2.2463 6.3345 27.6000 0.0000 0.0000 0.0000
# 4 0.0000 0.0000 0.0000 17.3900 0.0000 0.0000
# 5 0.0000 0.0000 0.0000 0.0000 21.7436 0.0000
# 6 0.0000 0.0000 0.0000 0.0000 0.0000 28.1768
#
#
#
# Elastic Compliance Matrix: (Units=1/GPa)
#
#
# Indices 1 2 3 4 5 6 
#
# 1 0.030301 0.002011 0.002004 0.000000 0.000000 0.000000
# 2 0.002011 0.027232 -0.006086 0.000000 0.000000 0.000000
# 3 0.002004 -0.006086 0.037792 0.000000 0.000000 0.000000
# 4 0.000000 0.000000 0.000000 0.057504 0.000000 0.000000
# 5 0.000000 0.000000 0.000000 0.000000 0.045990 0.000000
# 6 0.000000 0.000000 0.000000 0.000000 0.000000 0.035490
#
#
# Mechanical properties :
#
#
# Convention : Reuss Voigt Hill
#
# Bulk Modulus (GPa) = 10.96683 11.28335 11.12509
# Shear Modulus (GPa) = 18.59809 20.00751 19.30280
#
# Velocity S-wave (km/s) = 2.86771 2.97439 2.92153
# Velocity P-wave (km/s) = 3.97673 4.09698 4.03730
#
# Compressibility (1/GPa) = 0.09118405
#
# Stress axis : x y z
#
# Youngs Moduli (GPa) = 33.00217 36.72193 26.46069
#
# Poissons Ratio (x) = -0.07387 -0.05304
# Poissons Ratio (y) = -0.06638 0.16105
# Poissons Ratio (z) = -0.06615 0.22350
#
# Static dielectric constant tensor:
#      x y z
#    x 1.829530 0.000000 0.000000 
#    y 0.000000 1.939840 0.000000 
#    z 0.000000 0.000000 1.886030 
# 
# From -- ./inp_files/21534.got.cif
#   From: 2010.05.17/outbox.cif.g08.bks.cpg/sg55_11_cif.got.tgz:21534.got - 2010.06.03 13:27:54.
