data_PCOD9428827
_publ_section_title
;
Structure prediction by ZEFSAII (Michael W. Deem and Ramdas Pophale) SiO2 
 PCOD9428827
Probable space group: P B A M
;
_chemical_formula_sum "Si O2"
_cell_formula_units_Z 32
_cell_length_a 8.544872
_cell_length_b 13.754060
_cell_length_c 11.753036
_cell_angle_alpha 90.000000
_cell_angle_beta 90.000000
_cell_angle_gamma 90.000000
_cell_volume 1381.295327
_symmetry_space_group_name_H-M "P B A M"
_symmetry_group_IT_number 55
_symmetry_cell_setting 'orthorhombic'
loop_
_space_group_symop_operation_xyz
x,y,z
-x,-y,z
1/2+x,1/2-y,-z
1/2-x,1/2+y,-z
-x,-y,-z
x,y,-z
1/2-x,1/2+y,z
1/2+x,1/2-y,z
loop_
_atom_site_type_symbol
_atom_site_label
_atom_site_fract_x
_atom_site_fract_y
_atom_site_fract_z
Si Si1 0.306142 0.131896 0.752847
Si Si2 0.650139 0.871295 0.500000
Si Si3 0.008646 0.225642 0.133287
Si Si4 0.656588 0.564811 0.268238
Si Si5 0.703455 0.104318 0.500000
O O1 0.278942 0.158665 0.620454
O O2 0.467202 0.178160 0.795377
O O3 0.173736 0.180800 0.830082
O O4 0.287067 0.015733 0.761555
O O5 0.465984 0.846393 0.500000
O O6 0.669086 0.988207 0.500000
O O7 0.885227 0.142307 0.172026
O O8 0.001380 0.243988 0.000000
O O9 0.500000 0.500000 0.288669
O O10 0.700974 0.619101 0.384588
#
# Coordination Sequence:
#
# PCOD9428827 Si02
#       5
#     8   4   8   8   4
#     4  10  23  41  62  91 126 161 211 263 319 375
#     4   9  20  37  61  92 124 158 196 257 326 368
#     4  11  24  41  62  89 125 171 217 260 309 377
#     4   9  20  38  64  94 127 170 205 253 327 379
#     4   9  17  35  63  94 127 152 198 258 308 382
#
# _framework density 23.16666
#
# number of rings (size 3 to 8) (size 9 to 14) (size 15 to 20)
#    0.000    2.250    0.000    1.125    3.500   10.500 
#    0.000    0.000    0.000    3.000    0.000    0.000 
#    0.000    0.000    0.000    0.000    0.000    0.000 
#
# Total GULP energy -178965.080906 kJ/mol
# GULP energy per Si atom -5592.658778 kJ/mol
# Density = 2.311393 g / cm^3
# Si number density = 23.166660 Si / 1000 Ang^3
#
#
#
# Elastic Constant Matrix: (Units=GPa)
#
#
# Indices 1 2 3 4 5 6 
#
# 1 15.6993 14.0919 7.7497 0.0000 0.0000 0.0000
# 2 14.0919 91.6239 6.0590 0.0000 0.0000 0.0000
# 3 7.7497 6.0590 130.9160 0.0000 0.0000 0.0000
# 4 0.0000 0.0000 0.0000 22.0272 0.0000 0.0000
# 5 0.0000 0.0000 0.0000 0.0000 16.9315 0.0000
# 6 0.0000 0.0000 0.0000 0.0000 0.0000 35.9476
#
#
#
# Elastic Compliance Matrix: (Units=1/GPa)
#
#
# Indices 1 2 3 4 5 6 
#
# 1 0.075897 -0.011411 -0.003965 0.000000 0.000000 0.000000
# 2 -0.011411 0.012663 0.000089 0.000000 0.000000 0.000000
# 3 -0.003965 0.000089 0.007869 0.000000 0.000000 0.000000
# 4 0.000000 0.000000 0.000000 0.045398 0.000000 0.000000
# 5 0.000000 0.000000 0.000000 0.000000 0.059061 0.000000
# 6 0.000000 0.000000 0.000000 0.000000 0.000000 0.027818
#
#
# Mechanical properties :
#
#
# Convention : Reuss Voigt Hill
#
# Bulk Modulus (GPa) = 15.18447 32.67116 23.92781
# Shear Modulus (GPa) = 17.77893 29.00384 23.39138
#
# Velocity S-wave (km/s) = 2.77327 3.54215 3.18103
# Velocity P-wave (km/s) = 4.10163 5.55539 4.88292
#
# Compressibility (1/GPa) = 0.06585678
#
# Stress axis : x y z
#
# Youngs Moduli (GPa) = 13.17580 78.96846 127.08034
#
# Poissons Ratio (x) = 0.90110 0.50383
# Poissons Ratio (y) = 0.15035 -0.01136
# Poissons Ratio (z) = 0.05224 -0.00706
#
# Static dielectric constant tensor:
#      x y z
#    x 1.924990 0.000000 0.000000 
#    y 0.000000 1.896900 0.000000 
#    z 0.000000 0.000000 1.790980 
# 
# From -- ./inp_files/11625.got.cif
#   From: 2010.05.17/outbox.cif.g08.bks.cpg/sg55_6_cif.got.tgz:11625.got - 2010.06.03 13:27:54.
