data_PCOD9428465
_publ_section_title
;
Structure prediction by ZEFSAII (Michael W. Deem and Ramdas Pophale) SiO2 
 PCOD9428465
Probable space group: P B A M
;
_chemical_formula_sum "Si O2"
_cell_formula_units_Z 24
_cell_length_a 9.965354
_cell_length_b 16.156172
_cell_length_c 7.770424
_cell_angle_alpha 90.000000
_cell_angle_beta 90.000000
_cell_angle_gamma 90.000000
_cell_volume 1251.053597
_symmetry_space_group_name_H-M "P B A M"
_symmetry_group_IT_number 55
_symmetry_cell_setting 'orthorhombic'
loop_
_space_group_symop_operation_xyz
x,y,z
-x,-y,z
1/2+x,1/2-y,-z
1/2-x,1/2+y,-z
-x,-y,-z
x,y,-z
1/2-x,1/2+y,z
1/2+x,1/2-y,z
loop_
_atom_site_type_symbol
_atom_site_label
_atom_site_fract_x
_atom_site_fract_y
_atom_site_fract_z
Si Si1 0.850995 0.004557 0.696976
Si Si2 0.500016 0.204438 0.500000
Si Si3 0.583153 0.083312 0.804309
Si Si4 0.795208 0.847831 0.500000
O O1 0.864818 0.038544 0.500000
O O2 0.798112 0.911216 0.661602
O O3 0.739116 0.057565 0.790531
O O4 0.000000 0.000000 0.772315
O O5 0.547176 0.152670 0.666615
O O6 0.339007 0.205833 0.500000
O O7 0.573936 0.291703 0.500000
O O8 0.500000 0.000000 0.760043
O O9 0.550264 0.106918 0.000000
#
# Coordination Sequence:
#
# PCOD9428465 Si02
#       4
#     8   4   8   4
#     4   9  18  36  60  86 113 147 198 235 286 337
#     4  12  22  39  58  87 121 150 193 235 297 354
#     4  11  21  38  64  85 110 154 200 242 282 339
#     4  10  22  34  62  85 115 161 181 239 293 344
#
# _framework density 19.183831999999999
#
# number of rings (size 3 to 8) (size 9 to 14) (size 15 to 20)
#    1.000    0.667    5.000    0.500    4.667    0.667 
#    0.000    3.333    0.000    0.000    0.000    0.000 
#    0.000    0.000    0.000    0.000    0.000    0.000 
#
# Total GULP energy -133821.276584 kJ/mol
# GULP energy per Si atom -5575.886524 kJ/mol
# Density = 1.914017 g / cm^3
# Si number density = 19.183832 Si / 1000 Ang^3
#
#
#
# Elastic Constant Matrix: (Units=GPa)
#
#
# Indices 1 2 3 4 5 6 
#
# 1 114.2026 -0.5614 -19.4548 0.0000 0.0000 0.0000
# 2 -0.5614 40.8470 17.7906 0.0000 0.0000 0.0000
# 3 -19.4548 17.7906 46.0129 0.0000 0.0000 0.0000
# 4 0.0000 0.0000 0.0000 -3.8955 0.0000 0.0000
# 5 0.0000 0.0000 0.0000 0.0000 65.3193 0.0000
# 6 0.0000 0.0000 0.0000 0.0000 0.0000 36.3761
#
#
#
# Elastic Compliance Matrix: (Units=1/GPa)
#
#
# Indices 1 2 3 4 5 6 
#
# 1 0.009565 -0.001960 0.004802 0.000000 0.000000 0.000000
# 2 -0.001960 0.029841 -0.012367 0.000000 0.000000 0.000000
# 3 0.004802 -0.012367 0.028545 0.000000 0.000000 0.000000
# 4 0.000000 0.000000 0.000000 -0.256703 0.000000 0.000000
# 5 0.000000 0.000000 0.000000 0.000000 0.015309 0.000000
# 6 0.000000 0.000000 0.000000 0.000000 0.000000 0.027491
#
#
# Mechanical properties :
#
#
# Convention : Reuss Voigt Hill
#
# Bulk Modulus (GPa) = 20.44938 21.84570 21.14754
# Shear Modulus (GPa) = -45.20662 33.11252 -6.04705
#
# Velocity S-wave (km/s) = -4.85964 4.15910 -1.77736
# Velocity P-wave (km/s) = 4.56128 5.87166 2.61449
#
# Compressibility (1/GPa) = 0.04890124
#
# Stress axis : x y z
#
# Youngs Moduli (GPa) = 104.55050 33.51115 35.03265
#
# Poissons Ratio (x) = 0.06568 -0.16822
# Poissons Ratio (y) = 0.20492 0.43323
# Poissons Ratio (z) = -0.50204 0.41442
#
# Static dielectric constant tensor:
#      x y z
#    x 1.698040 0.000000 0.000000 
#    y 0.000000 1.652080 0.000000 
#    z 0.000000 0.000000 1.669870 
# 
# From -- ./inp_files/1764.got.cif
#   From: 2010.05.17/outbox.cif.g08.bks.cpg/sg55_1_cif.got.tgz:1764.got - 2010.06.03 13:27:54.
