data_PCOD9428982
_publ_section_title
;
Structure prediction by ZEFSAII (Michael W. Deem and Ramdas Pophale) SiO2 
 PCOD9428982
Probable space group: P B A M
;
_chemical_formula_sum "Si O2"
_cell_formula_units_Z 48
_cell_length_a 22.564365
_cell_length_b 7.668256
_cell_length_c 13.497590
_cell_angle_alpha 90.000000
_cell_angle_beta 90.000000
_cell_angle_gamma 90.000000
_cell_volume 2335.478918
_symmetry_space_group_name_H-M "P B A M"
_symmetry_group_IT_number 55
_symmetry_cell_setting 'orthorhombic'
loop_
_space_group_symop_operation_xyz
x,y,z
-x,-y,z
1/2+x,1/2-y,-z
1/2-x,1/2+y,-z
-x,-y,-z
x,y,-z
1/2-x,1/2+y,z
1/2+x,1/2-y,z
loop_
_atom_site_type_symbol
_atom_site_label
_atom_site_fract_x
_atom_site_fract_y
_atom_site_fract_z
Si Si1 0.642537 0.327090 0.838931
Si Si2 0.725951 0.729167 0.889850
Si Si3 0.797565 0.019994 0.314301
Si Si4 0.172320 0.617772 0.389353
Si Si5 0.383337 0.049052 0.816216
Si Si6 0.051489 0.878833 0.114394
O O1 0.706576 0.294375 0.886788
O O2 0.657988 0.371404 0.723948
O O3 0.608490 0.494379 0.879911
O O4 0.606115 0.148350 0.850164
O O5 0.720447 0.613940 0.789992
O O6 0.675908 0.877647 0.872025
O O7 0.716195 0.655741 0.000000
O O8 0.739538 0.943712 0.365563
O O9 0.826578 0.172319 0.378036
O O10 0.155787 0.565225 0.500000
O O11 0.132555 0.548140 0.299870
O O12 0.432545 0.195347 0.836328
O O13 0.036841 0.843159 0.000000
O O14 0.000000 0.000000 0.159109
#
# Coordination Sequence:
#
# PCOD9428982 Si02
#       6
#     8   8   8   8   8   8
#     4  12  21  38  60  87 129 162 203 254 312 366
#     4  11  21  33  54  88 130 164 193 244 313 376
#     4  11  20  35  51  91 131 160 205 243 303 382
#     4  11  20  36  58  86 130 169 201 254 317 379
#     4  11  23  39  60  92 126 158 211 262 306 378
#     4  11  26  45  63  87 125 173 219 259 305 369
#
# _framework density 20.552529
#
# number of rings (size 3 to 8) (size 9 to 14) (size 15 to 20)
#    0.000    0.833    8.333    1.500    0.000    5.333 
#    0.000    2.500    0.000    0.500    0.000    1.167 
#    0.000    0.000    0.000    0.000    0.000    0.000 
#
# Total GULP energy -268063.874902 kJ/mol
# GULP energy per Si atom -5584.664060 kJ/mol
# Density = 2.050575 g / cm^3
# Si number density = 20.552529 Si / 1000 Ang^3
#
#
#
# Elastic Constant Matrix: (Units=GPa)
#
#
# Indices 1 2 3 4 5 6 
#
# 1 19.1118 -23.5041 -5.8294 0.0000 0.0000 0.0000
# 2 -23.5041 83.3524 3.0318 0.0000 0.0000 0.0000
# 3 -5.8294 3.0318 99.5344 0.0000 0.0000 0.0000
# 4 0.0000 0.0000 0.0000 13.0223 0.0000 0.0000
# 5 0.0000 0.0000 0.0000 0.0000 8.3467 0.0000
# 6 0.0000 0.0000 0.0000 0.0000 0.0000 11.5978
#
#
#
# Elastic Compliance Matrix: (Units=1/GPa)
#
#
# Indices 1 2 3 4 5 6 
#
# 1 0.081732 0.022899 0.004089 0.000000 0.000000 0.000000
# 2 0.022899 0.018426 0.000780 0.000000 0.000000 0.000000
# 3 0.004089 0.000780 0.010263 0.000000 0.000000 0.000000
# 4 0.000000 0.000000 0.000000 0.076792 0.000000 0.000000
# 5 0.000000 0.000000 0.000000 0.000000 0.119808 0.000000
# 6 0.000000 0.000000 0.000000 0.000000 0.000000 0.086223
#
#
# Mechanical properties :
#
#
# Convention : Reuss Voigt Hill
#
# Bulk Modulus (GPa) = 6.02569 16.59945 11.31257
# Shear Modulus (GPa) = 12.72178 21.81338 17.26758
#
# Velocity S-wave (km/s) = 2.49065 3.26137 2.90171
# Velocity P-wave (km/s) = 3.34803 4.71976 4.09179
#
# Compressibility (1/GPa) = 0.16595604
#
# Stress axis : x y z
#
# Youngs Moduli (GPa) = 12.23508 54.27132 97.44195
#
# Poissons Ratio (x) = -1.24273 -0.39847
# Poissons Ratio (y) = -0.28017 -0.07599
# Poissons Ratio (z) = -0.05003 -0.04232
#
# Static dielectric constant tensor:
#      x y z
#    x 1.779350 0.000000 0.000000 
#    y 0.000000 1.846710 0.000000 
#    z 0.000000 0.000000 1.734210 
# 
# From -- ./inp_files/19863.got.cif
#   From: 2010.05.17/outbox.cif.g08.bks.cpg/sg55_10_cif.got.tgz:19863.got - 2010.06.03 13:27:54.
