data_PCOD9428659
_publ_section_title
;
Structure prediction by ZEFSAII (Michael W. Deem and Ramdas Pophale) SiO2 
 PCOD9428659
Probable space group: P B A M
;
_chemical_formula_sum "Si O2"
_cell_formula_units_Z 36
_cell_length_a 13.581088
_cell_length_b 10.874380
_cell_length_c 11.126330
_cell_angle_alpha 90.000000
_cell_angle_beta 90.000000
_cell_angle_gamma 90.000000
_cell_volume 1643.202190
_symmetry_space_group_name_H-M "P B A M"
_symmetry_group_IT_number 55
_symmetry_cell_setting 'orthorhombic'
loop_
_space_group_symop_operation_xyz
x,y,z
-x,-y,z
1/2+x,1/2-y,-z
1/2-x,1/2+y,-z
-x,-y,-z
x,y,-z
1/2-x,1/2+y,z
1/2+x,1/2-y,z
loop_
_atom_site_type_symbol
_atom_site_label
_atom_site_fract_x
_atom_site_fract_y
_atom_site_fract_z
Si Si1 0.110363 0.242734 0.868366
Si Si2 0.270373 0.212848 0.695931
Si Si3 0.000000 0.000000 0.814418
Si Si4 0.666153 0.538265 0.628795
Si Si5 0.504110 0.852883 0.361221
O O1 0.224192 0.221467 0.829606
O O2 0.053020 0.113336 0.877261
O O3 0.062799 0.305400 0.749689
O O4 0.103210 0.304110 0.000000
O O5 0.257678 0.349197 0.640464
O O6 0.384469 0.183976 0.673860
O O7 0.213960 0.096024 0.640350
O O8 0.913934 0.053558 0.731251
O O9 0.617097 0.548277 0.500000
O O10 0.482395 0.810106 0.500000
O O11 0.500000 0.000000 0.363460
#
# Coordination Sequence:
#
# PCOD9428659 Si02
#       5
#     8   8   4   8   8
#     4  11  25  44  67  98 137 185 231 282 342 411
#     4  11  24  41  64 101 138 180 223 283 344 414
#     4  10  22  40  64  92 127 178 235 276 331 400
#     4  11  21  38  65  99 135 174 223 281 345 411
#     4  11  24  44  71 104 141 181 230 292 352 413
#
# _framework density 21.908442000000001
#
# number of rings (size 3 to 8) (size 9 to 14) (size 15 to 20)
#    0.000    1.111    2.222    4.000    0.000    8.444 
#    0.000    5.556    0.000    0.000    0.000    0.000 
#    0.000    0.000    0.000    0.000    0.000    0.000 
#
# Total GULP energy -200748.389470 kJ/mol
# GULP energy per Si atom -5576.344152 kJ/mol
# Density = 2.185858 g / cm^3
# Si number density = 21.908442 Si / 1000 Ang^3
#
#
#
# Elastic Constant Matrix: (Units=GPa)
#
#
# Indices 1 2 3 4 5 6 
#
# 1 68.3346 13.0154 62.7045 0.0000 0.0000 0.0000
# 2 13.0154 127.2556 41.5992 0.0000 0.0000 0.0000
# 3 62.7045 41.5992 192.3679 0.0000 0.0000 0.0000
# 4 0.0000 0.0000 0.0000 14.8097 0.0000 0.0000
# 5 0.0000 0.0000 0.0000 0.0000 -5.9848 0.0000
# 6 0.0000 0.0000 0.0000 0.0000 0.0000 29.0220
#
#
#
# Elastic Compliance Matrix: (Units=1/GPa)
#
#
# Indices 1 2 3 4 5 6 
#
# 1 0.020880 0.000096 -0.006827 0.000000 0.000000 0.000000
# 2 0.000096 0.008456 -0.001860 0.000000 0.000000 0.000000
# 3 -0.006827 -0.001860 0.007826 0.000000 0.000000 0.000000
# 4 0.000000 0.000000 0.000000 0.067523 0.000000 0.000000
# 5 0.000000 0.000000 0.000000 0.000000 -0.167091 0.000000
# 6 0.000000 0.000000 0.000000 0.000000 0.000000 0.034457
#
#
# Mechanical properties :
#
#
# Convention : Reuss Voigt Hill
#
# Bulk Modulus (GPa) = 50.04815 69.17734 59.61275
# Shear Modulus (GPa) = -1217.42462 25.61199 -595.90632
#
# Velocity S-wave (km/s) = -23.59860 3.42284 -16.51027
# Velocity P-wave (km/s) = 26.82594 6.87498 18.33529
#
# Compressibility (1/GPa) = 0.01998076
#
# Stress axis : x y z
#
# Youngs Moduli (GPa) = 47.89282 118.25366 127.78115
#
# Poissons Ratio (x) = -0.01137 0.87234
# Poissons Ratio (y) = -0.00460 0.23767
# Poissons Ratio (z) = 0.32696 0.21995
#
# Static dielectric constant tensor:
#      x y z
#    x 1.854210 0.000000 0.000000 
#    y 0.000000 1.839500 0.000000 
#    z 0.000000 0.000000 1.809340 
# 
# From -- ./inp_files/13904.got.cif
#   From: 2010.05.17/outbox.cif.g08.bks.cpg/sg55_7_cif.got.tgz:13904.got - 2010.06.03 13:27:54.
