data_PCOD9428312
_publ_section_title
;
Structure prediction by ZEFSAII (Michael W. Deem and Ramdas Pophale) SiO2 
 PCOD9428312
Probable space group: P B A M
;
_chemical_formula_sum "Si O2"
_cell_formula_units_Z 40
_cell_length_a 14.314304
_cell_length_b 9.065458
_cell_length_c 14.368366
_cell_angle_alpha 90.000000
_cell_angle_beta 90.000000
_cell_angle_gamma 90.000000
_cell_volume 1864.521384
_symmetry_space_group_name_H-M "P B A M"
_symmetry_group_IT_number 55
_symmetry_cell_setting 'orthorhombic'
loop_
_space_group_symop_operation_xyz
x,y,z
-x,-y,z
1/2+x,1/2-y,-z
1/2-x,1/2+y,-z
-x,-y,-z
x,y,-z
1/2-x,1/2+y,z
1/2+x,1/2-y,z
loop_
_atom_site_type_symbol
_atom_site_label
_atom_site_fract_x
_atom_site_fract_y
_atom_site_fract_z
Si Si1 0.102522 0.577458 0.398400
Si Si2 0.967767 0.828944 0.196519
Si Si3 0.470875 0.667636 0.400942
Si Si4 0.652489 0.869763 0.200118
Si Si5 0.803672 0.675827 0.106175
O O1 0.142329 0.538249 0.500000
O O2 0.160463 0.563773 0.304723
O O3 0.000000 0.500000 0.389500
O O4 0.068842 0.745927 0.400152
O O5 0.924525 0.805307 0.300953
O O6 0.892320 0.782409 0.121115
O O7 0.052579 0.711776 0.191167
O O8 0.000000 0.000000 0.188598
O O9 0.500000 0.500000 0.402201
O O10 0.422978 0.705519 0.500000
O O11 0.725731 0.743424 0.173793
O O12 0.667208 0.010080 0.133658
O O13 0.770574 0.679660 0.000000
#
# Coordination Sequence:
#
# PCOD9428312 Si02
#       5
#     8   8   8   8   8
#     4   9  17  33  60  91 123 159 196 241 303 373
#     4  10  21  39  64  92 122 158 202 257 320 385
#     4   8  14  27  51  83 116 150 186 227 285 358
#     4  11  23  42  63  89 125 163 210 264 322 383
#     4  12  26  42  62  87 118 162 213 266 319 372
#
# _framework density 21.453226999999998
#
# number of rings (size 3 to 8) (size 9 to 14) (size 15 to 20)
#    0.000    2.000    0.000    4.800    0.000    2.800 
#    0.000    2.000    0.000    2.400    0.000    0.000 
#    0.000    0.000    0.000    0.000    0.000    0.000 
#
# Total GULP energy -222929.222392 kJ/mol
# GULP energy per Si atom -5573.230560 kJ/mol
# Density = 2.140440 g / cm^3
# Si number density = 21.453227 Si / 1000 Ang^3
#
#
#
# Elastic Constant Matrix: (Units=GPa)
#
#
# Indices 1 2 3 4 5 6 
#
# 1 42.3028 5.0844 23.4054 0.0000 0.0000 0.0000
# 2 5.0844 88.8386 7.5602 0.0000 0.0000 0.0000
# 3 23.4054 7.5602 114.3386 0.0000 0.0000 0.0000
# 4 0.0000 0.0000 0.0000 20.8888 0.0000 0.0000
# 5 0.0000 0.0000 0.0000 0.0000 -158.8982 0.0000
# 6 0.0000 0.0000 0.0000 0.0000 0.0000 26.7627
#
#
#
# Elastic Compliance Matrix: (Units=1/GPa)
#
#
# Indices 1 2 3 4 5 6 
#
# 1 0.026759 -0.001071 -0.005407 0.000000 0.000000 0.000000
# 2 -0.001071 0.011363 -0.000532 0.000000 0.000000 0.000000
# 3 -0.005407 -0.000532 0.009888 0.000000 0.000000 0.000000
# 4 0.000000 0.000000 0.000000 0.047872 0.000000 0.000000
# 5 0.000000 0.000000 0.000000 0.000000 -0.006293 0.000000
# 6 0.000000 0.000000 0.000000 0.000000 0.000000 0.037365
#
#
# Mechanical properties :
#
#
# Convention : Reuss Voigt Hill
#
# Bulk Modulus (GPa) = 29.42064 35.28669 32.35366
# Shear Modulus (GPa) = 32.82881 -8.28732 12.27074
#
# Velocity S-wave (km/s) = 3.91609 -1.96758 2.39420
# Velocity P-wave (km/s) = 5.84733 3.36483 4.77040
#
# Compressibility (1/GPa) = 0.03398975
#
# Stress axis : x y z
#
# Youngs Moduli (GPa) = 37.37008 88.00527 101.13332
#
# Poissons Ratio (x) = 0.09428 0.54682
# Poissons Ratio (y) = 0.04004 0.05381
# Poissons Ratio (z) = 0.20206 0.04682
#
# Static dielectric constant tensor:
#      x y z
#    x 1.757010 0.000000 0.000000 
#    y 0.000000 1.901990 0.000000 
#    z 0.000000 0.000000 1.896390 
# 
# From -- ./inp_files/17093.got.cif
#   From: 2010.05.17/outbox.cif.g08.bks.cpg/sg55_9_cif.got.tgz:17093.got - 2010.06.03 13:27:54.
