data_PCOD9428585
_publ_section_title
;
Structure prediction by ZEFSAII (Michael W. Deem and Ramdas Pophale) SiO2 
 PCOD9428585
Probable space group: P B A M
;
_chemical_formula_sum "Si O2"
_cell_formula_units_Z 64
_cell_length_a 11.179171
_cell_length_b 14.127742
_cell_length_c 17.928162
_cell_angle_alpha 90.000000
_cell_angle_beta 90.000000
_cell_angle_gamma 90.000000
_cell_volume 2831.510148
_symmetry_space_group_name_H-M "P B A M"
_symmetry_group_IT_number 55
_symmetry_cell_setting 'orthorhombic'
loop_
_space_group_symop_operation_xyz
x,y,z
-x,-y,z
1/2+x,1/2-y,-z
1/2-x,1/2+y,-z
-x,-y,-z
x,y,-z
1/2-x,1/2+y,z
1/2+x,1/2-y,z
loop_
_atom_site_type_symbol
_atom_site_label
_atom_site_fract_x
_atom_site_fract_y
_atom_site_fract_z
Si Si1 0.965734 0.399210 0.814354
Si Si2 0.638029 0.508528 0.207136
Si Si3 0.207445 0.305593 0.820731
Si Si4 0.686651 0.893443 0.681106
Si Si5 0.438832 0.397322 0.585216
Si Si6 0.383307 0.737362 0.339119
Si Si7 0.753453 0.880633 0.912123
Si Si8 0.654635 0.069078 0.413122
O O1 0.900372 0.348231 0.744316
O O2 0.873760 0.415371 0.880845
O O3 0.000000 0.500000 0.780449
O O4 0.085451 0.355465 0.845891
O O5 0.500000 0.500000 0.229211
O O6 0.692684 0.614037 0.195620
O O7 0.720987 0.454869 0.267412
O O8 0.653447 0.447897 0.131097
O O9 0.159677 0.255775 0.745251
O O10 0.241241 0.225930 0.879847
O O11 0.765771 0.820647 0.633054
O O12 0.628831 0.970405 0.627219
O O13 0.500000 0.500000 0.590373
O O14 0.459087 0.362176 0.500000
O O15 0.503119 0.327631 0.643058
O O16 0.297905 0.411561 0.596070
O O17 0.402107 0.838373 0.376557
O O18 0.765870 0.884107 0.000000
O O19 0.627869 0.063629 0.500000
#
# Coordination Sequence:
#
# PCOD9428585 Si02
#       8
#     8   8   8   8   8   8   8   8
#     4  11  22  47  70  96 137 181 234 280 341 413
#     4  11  25  46  72 101 138 179 233 287 346 416
#     4  12  25  44  72 105 137 183 233 285 347 413
#     4  11  23  40  67 100 128 179 232 292 341 414
#     4  10  22  39  61  90 130 180 230 284 348 415
#     4  12  23  38  67  97 130 174 231 292 339 412
#     4  11  27  46  68 107 141 180 229 279 346 412
#     4  11  24  41  62  95 136 179 231 291 358 414
#
# _framework density 22.602779000000002
#
# number of rings (size 3 to 8) (size 9 to 14) (size 15 to 20)
#    0.000    0.875    7.500    0.375    5.250    2.000 
#    0.000    0.000    0.000    1.125    0.000    0.000 
#    0.000    0.000    0.000    0.000    0.000    0.000 
#
# Total GULP energy -358039.466205 kJ/mol
# GULP energy per Si atom -5594.366659 kJ/mol
# Density = 2.255133 g / cm^3
# Si number density = 22.602779 Si / 1000 Ang^3
#
#
#
# Elastic Constant Matrix: (Units=GPa)
#
#
# Indices 1 2 3 4 5 6 
#
# 1 82.6066 4.0996 11.1563 0.0000 0.0000 0.0000
# 2 4.0996 88.4672 33.6479 0.0000 0.0000 0.0000
# 3 11.1563 33.6479 126.4510 0.0000 0.0000 0.0000
# 4 0.0000 0.0000 0.0000 26.0828 0.0000 0.0000
# 5 0.0000 0.0000 0.0000 0.0000 90.8074 0.0000
# 6 0.0000 0.0000 0.0000 0.0000 0.0000 34.0798
#
#
#
# Elastic Compliance Matrix: (Units=1/GPa)
#
#
# Indices 1 2 3 4 5 6 
#
# 1 0.012254 -0.000174 -0.001035 0.000000 0.000000 0.000000
# 2 -0.000174 0.012579 -0.003332 0.000000 0.000000 0.000000
# 3 -0.001035 -0.003332 0.008886 0.000000 0.000000 0.000000
# 4 0.000000 0.000000 0.000000 0.038339 0.000000 0.000000
# 5 0.000000 0.000000 0.000000 0.000000 0.011012 0.000000
# 6 0.000000 0.000000 0.000000 0.000000 0.000000 0.029343
#
#
# Mechanical properties :
#
#
# Convention : Reuss Voigt Hill
#
# Bulk Modulus (GPa) = 40.58893 43.92585 42.25739
# Shear Modulus (GPa) = 38.54820 46.76872 42.65846
#
# Velocity S-wave (km/s) = 4.13421 4.55373 4.34903
# Velocity P-wave (km/s) = 6.38634 6.86474 6.62986
#
# Compressibility (1/GPa) = 0.02463726
#
# Stress axis : x y z
#
# Youngs Moduli (GPa) = 81.60628 79.49799 112.53569
#
# Poissons Ratio (x) = 0.01386 0.11645
# Poissons Ratio (y) = 0.01422 0.37495
# Poissons Ratio (z) = 0.08444 0.26487
#
# Static dielectric constant tensor:
#      x y z
#    x 1.875410 0.000000 0.000000 
#    y 0.000000 1.895520 0.000000 
#    z 0.000000 0.000000 1.813220 
# 
# From -- ./inp_files/21328.got.cif
#   From: 2010.05.17/outbox.cif.g08.bks.cpg/sg55_11_cif.got.tgz:21328.got - 2010.06.03 13:27:54.
