data_PCOD9428111
_publ_section_title
;
Structure prediction by ZEFSAII (Michael W. Deem and Ramdas Pophale) SiO2 
 PCOD9428111
Probable space group: P B A M
;
_chemical_formula_sum "Si O2"
_cell_formula_units_Z 48
_cell_length_a 18.368865
_cell_length_b 15.896765
_cell_length_c 8.505545
_cell_angle_alpha 90.000000
_cell_angle_beta 90.000000
_cell_angle_gamma 90.000000
_cell_volume 2483.666178
_symmetry_space_group_name_H-M "P B A M"
_symmetry_group_IT_number 55
_symmetry_cell_setting 'orthorhombic'
loop_
_space_group_symop_operation_xyz
x,y,z
-x,-y,z
1/2+x,1/2-y,-z
1/2-x,1/2+y,-z
-x,-y,-z
x,y,-z
1/2-x,1/2+y,z
1/2+x,1/2-y,z
loop_
_atom_site_type_symbol
_atom_site_label
_atom_site_fract_x
_atom_site_fract_y
_atom_site_fract_z
Si Si1 0.040330 0.414113 0.809845
Si Si2 0.792178 0.249831 0.188519
Si Si3 0.709086 0.080514 0.809913
Si Si4 0.789669 0.914718 0.688569
Si Si5 0.957615 0.916364 0.308230
Si Si6 0.456599 0.249310 0.311462
O O1 0.124705 0.415801 0.760540
O O2 0.000000 0.500000 0.761955
O O3 0.998955 0.333544 0.743299
O O4 0.038166 0.409660 0.000000
O O5 0.751472 0.164590 0.241017
O O6 0.750342 0.331503 0.250878
O O7 0.875042 0.250125 0.246065
O O8 0.791269 0.252025 0.000000
O O9 0.748100 0.997563 0.746487
O O10 0.710434 0.077311 0.000000
O O11 0.789323 0.913836 0.500000
O O12 0.873722 0.916263 0.743035
O O13 0.957500 0.916839 0.500000
O O14 0.999757 0.832415 0.257908
O O15 0.000000 0.000000 0.256299
O O16 0.453283 0.250525 0.500000
#
# Coordination Sequence:
#
# PCOD9428111 Si02
#       6
#     8   8   8   8   8   8
#     4  10  21  38  59  82 113 152 188 230 289 346
#     4  11  23  39  58  82 118 158 195 237 287 346
#     4  10  22  39  59  85 118 157 196 236 286 345
#     4  11  22  37  61  89 117 152 194 241 291 342
#     4   9  19  36  57  84 118 151 183 228 286 340
#     4  11  22  37  60  87 114 147 192 241 287 340
#
# _framework density 19.326267999999999
#
# number of rings (size 3 to 8) (size 9 to 14) (size 15 to 20)
#    0.000    1.667    0.000    4.500    0.000    5.000 
#    0.000    2.500    0.000    6.000    0.000    0.000 
#    0.000    0.000    0.000    0.000    0.000    0.000 
#
# Total GULP energy -268393.344496 kJ/mol
# GULP energy per Si atom -5591.528010 kJ/mol
# Density = 1.928228 g / cm^3
# Si number density = 19.326268 Si / 1000 Ang^3
#
#
#
# Elastic Constant Matrix: (Units=GPa)
#
#
# Indices 1 2 3 4 5 6 
#
# 1 226.6872 133.2954 39.9647 0.0000 0.0000 0.0000
# 2 133.2954 227.3307 40.9598 0.0000 0.0000 0.0000
# 3 39.9647 40.9598 23.4229 0.0000 0.0000 0.0000
# 4 0.0000 0.0000 0.0000 -394.9950 0.0000 0.0000
# 5 0.0000 0.0000 0.0000 0.0000 15.4052 0.0000
# 6 0.0000 0.0000 0.0000 0.0000 0.0000 46.6787
#
#
#
# Elastic Compliance Matrix: (Units=1/GPa)
#
#
# Indices 1 2 3 4 5 6 
#
# 1 0.007537 -0.003069 -0.007493 0.000000 0.000000 0.000000
# 2 -0.003069 0.007672 -0.008180 0.000000 0.000000 0.000000
# 3 -0.007493 -0.008180 0.069781 0.000000 0.000000 0.000000
# 4 0.000000 0.000000 0.000000 -0.002532 0.000000 0.000000
# 5 0.000000 0.000000 0.000000 0.000000 0.064913 0.000000
# 6 0.000000 0.000000 0.000000 0.000000 0.000000 0.021423
#
#
# Mechanical properties :
#
#
# Convention : Reuss Voigt Hill
#
# Bulk Modulus (GPa) = 21.04935 100.65339 60.85137
# Shear Modulus (GPa) = 22.51089 -49.03417 -13.26164
#
# Velocity S-wave (km/s) = 3.41659 -5.04250 -2.62238
# Velocity P-wave (km/s) = 5.14581 4.27688 4.73134
#
# Compressibility (1/GPa) = 0.04750741
#
# Stress axis : x y z
#
# Youngs Moduli (GPa) = 132.67586 130.33673 14.33051
#
# Poissons Ratio (x) = 0.40006 0.10737
# Poissons Ratio (y) = 0.40724 0.11722
# Poissons Ratio (z) = 0.99408 1.06612
#
# Static dielectric constant tensor:
#      x y z
#    x 1.644580 0.000000 0.000000 
#    y 0.000000 1.632830 0.000000 
#    z 0.000000 0.000000 1.668810 
# 
# From -- ./inp_files/5688.got.cif
#   From: 2010.05.17/outbox.cif.g08.bks.cpg/sg55_3_cif.got.tgz:5688.got - 2010.06.03 13:27:54.
