data_PCOD9428340
_publ_section_title
;
Structure prediction by ZEFSAII (Michael W. Deem and Ramdas Pophale) SiO2 
 PCOD9428340
Probable space group: P B A M
;
_chemical_formula_sum "Si O2"
_cell_formula_units_Z 38
_cell_length_a 33.389798
_cell_length_b 5.053652
_cell_length_c 11.576751
_cell_angle_alpha 90.000000
_cell_angle_beta 90.000000
_cell_angle_gamma 90.000000
_cell_volume 1953.465820
_symmetry_space_group_name_H-M "P B A M"
_symmetry_group_IT_number 55
_symmetry_cell_setting 'orthorhombic'
loop_
_space_group_symop_operation_xyz
x,y,z
-x,-y,z
1/2+x,1/2-y,-z
1/2-x,1/2+y,-z
-x,-y,-z
x,y,-z
1/2-x,1/2+y,z
1/2+x,1/2-y,z
loop_
_atom_site_type_symbol
_atom_site_label
_atom_site_fract_x
_atom_site_fract_y
_atom_site_fract_z
Si Si1 0.725296 0.475176 0.861803
Si Si2 0.390850 0.189976 0.364481
Si Si3 0.500000 0.000000 0.000000
Si Si4 0.223633 0.369561 0.500000
Si Si5 0.160805 0.198630 0.692040
Si Si6 0.025431 0.733515 0.239335
O O1 0.740533 0.764154 0.825875
O O2 0.683523 0.388816 0.807539
O O3 0.722643 0.468407 0.000000
O O4 0.397168 0.125608 0.500000
O O5 0.361445 0.441069 0.356867
O O6 0.431859 0.257956 0.299156
O O7 0.370493 0.938165 0.302718
O O8 0.526302 0.854642 0.104427
O O9 0.238790 0.669724 0.500000
O O10 0.195930 0.300618 0.608335
O O11 0.000000 0.500000 0.299230
O O12 0.000000 0.000000 0.245652
#
# Coordination Sequence:
#
# PCOD9428340 Si02
#       6
#     8   8   2   4   8   8
#     4  10  21  40  62  84 117 158 207 259 303 363
#     4  12  24  42  61  89 132 162 197 258 313 362
#     4   8  22  44  68  96 126 148 214 262 282 388
#     4  12  22  36  62  88 116 166 212 252 300 358
#     4  12  23  41  59  91 127 162 203 258 310 368
#     4  10  22  42  68  94 121 162 202 251 303 368
#
# _framework density 19.452607
#
# number of rings (size 3 to 8) (size 9 to 14) (size 15 to 20)
#    0.632    0.421    2.105    5.368    0.000    0.842 
#    3.789    0.000    0.000    0.000    0.000    0.000 
#    0.000    0.000    0.000    0.000    0.000    0.000 
#
# Total GULP energy -211710.400511 kJ/mol
# GULP energy per Si atom -5571.326329 kJ/mol
# Density = 1.940833 g / cm^3
# Si number density = 19.452607 Si / 1000 Ang^3
#
#
#
# Elastic Constant Matrix: (Units=GPa)
#
#
# Indices 1 2 3 4 5 6 
#
# 1 76.9339 -2.7735 36.0545 0.0000 0.0000 0.0000
# 2 -2.7735 47.4733 -1.8489 0.0000 0.0000 0.0000
# 3 36.0545 -1.8489 45.7068 0.0000 0.0000 0.0000
# 4 0.0000 0.0000 0.0000 34.8381 0.0000 0.0000
# 5 0.0000 0.0000 0.0000 0.0000 21.3984 0.0000
# 6 0.0000 0.0000 0.0000 0.0000 0.0000 34.8933
#
#
#
# Elastic Compliance Matrix: (Units=1/GPa)
#
#
# Indices 1 2 3 4 5 6 
#
# 1 0.020637 0.000573 -0.016256 0.000000 0.000000 0.000000
# 2 0.000573 0.021114 0.000402 0.000000 0.000000 0.000000
# 3 -0.016256 0.000402 0.034718 0.000000 0.000000 0.000000
# 4 0.000000 0.000000 0.000000 0.028704 0.000000 0.000000
# 5 0.000000 0.000000 0.000000 0.000000 0.046733 0.000000
# 6 0.000000 0.000000 0.000000 0.000000 0.000000 0.028659
#
#
# Mechanical properties :
#
#
# Convention : Reuss Voigt Hill
#
# Bulk Modulus (GPa) = 21.78326 25.88646 23.83486
# Shear Modulus (GPa) = 22.08216 27.47142 24.77679
#
# Velocity S-wave (km/s) = 3.37289 3.76203 3.57277
# Velocity P-wave (km/s) = 5.13722 5.67511 5.41285
#
# Compressibility (1/GPa) = 0.04590680
#
# Stress axis : x y z
#
# Youngs Moduli (GPa) = 48.45692 47.36285 28.80382
#
# Poissons Ratio (x) = -0.02712 0.46822
# Poissons Ratio (y) = -0.02774 -0.01159
# Poissons Ratio (z) = 0.78770 -0.01906
#
# Static dielectric constant tensor:
#      x y z
#    x 1.652780 0.000000 0.000000 
#    y 0.000000 1.693650 0.000000 
#    z 0.000000 0.000000 1.684470 
# 
# From -- ./inp_files/11347.got.cif
#   From: 2010.05.17/outbox.cif.g08.bks.cpg/sg55_6_cif.got.tgz:11347.got - 2010.06.03 13:27:54.
