data_PCOD9428796
_publ_section_title
;
Structure prediction by ZEFSAII (Michael W. Deem and Ramdas Pophale) SiO2 
 PCOD9428796
Probable space group: P B A M
;
_chemical_formula_sum "Si O2"
_cell_formula_units_Z 48
_cell_length_a 7.807988
_cell_length_b 22.513218
_cell_length_c 13.116070
_cell_angle_alpha 90.000000
_cell_angle_beta 90.000000
_cell_angle_gamma 90.000000
_cell_volume 2305.581293
_symmetry_space_group_name_H-M "P B A M"
_symmetry_group_IT_number 55
_symmetry_cell_setting 'orthorhombic'
loop_
_space_group_symop_operation_xyz
x,y,z
-x,-y,z
1/2+x,1/2-y,-z
1/2-x,1/2+y,-z
-x,-y,-z
x,y,-z
1/2-x,1/2+y,z
1/2+x,1/2-y,z
loop_
_atom_site_type_symbol
_atom_site_label
_atom_site_fract_x
_atom_site_fract_y
_atom_site_fract_z
Si Si1 0.303393 0.570264 0.620039
Si Si2 0.723002 0.685723 0.387209
Si Si3 0.141581 0.654671 0.790894
Si Si4 0.570239 0.267785 0.262774
Si Si5 0.403936 0.937375 0.886986
Si Si6 0.207974 0.937258 0.678960
O O1 0.294394 0.584670 0.500000
O O2 0.199987 0.616127 0.691695
O O3 0.240915 0.502393 0.638222
O O4 0.504579 0.569041 0.654444
O O5 0.650766 0.689248 0.500000
O O6 0.584272 0.691653 0.298345
O O7 0.834577 0.744259 0.364906
O O8 0.798096 0.619572 0.374219
O O9 0.308809 0.694923 0.810950
O O10 0.999019 0.705395 0.776642
O O11 0.055984 0.609813 0.868604
O O12 0.264590 0.933835 0.796889
O O13 0.500000 0.000000 0.879793
O O14 0.329411 0.930285 0.000000
#
# Coordination Sequence:
#
# PCOD9428796 Si02
#       6
#     8   8   8   8   8   8
#     4  11  23  39  64  96 139 178 209 257 326 393
#     4  11  20  34  56  87 129 171 210 252 308 382
#     4  11  22  43  62  93 130 171 219 271 317 383
#     4  10  23  36  59  85 131 172 219 256 313 373
#     4  11  24  46  71  95 123 165 217 282 340 384
#     4  11  21  40  63  95 131 168 214 269 324 389
#
# _framework density 20.819046
#
# number of rings (size 3 to 8) (size 9 to 14) (size 15 to 20)
#    0.000    1.167    5.000    2.500    0.000    3.333 
#    0.000    4.167    0.000    0.000    0.000    0.000 
#    0.000    0.000    0.000    0.000    0.000    0.000 
#
# Total GULP energy -267518.056605 kJ/mol
# GULP energy per Si atom -5573.292846 kJ/mol
# Density = 2.077166 g / cm^3
# Si number density = 20.819046 Si / 1000 Ang^3
#
#
#
# Elastic Constant Matrix: (Units=GPa)
#
#
# Indices 1 2 3 4 5 6 
#
# 1 44.4337 8.4982 9.5278 0.0000 0.0000 0.0000
# 2 8.4982 128.4612 -2.0328 0.0000 0.0000 0.0000
# 3 9.5278 -2.0328 83.5261 0.0000 0.0000 0.0000
# 4 0.0000 0.0000 0.0000 -20.9014 0.0000 0.0000
# 5 0.0000 0.0000 0.0000 0.0000 19.4033 0.0000
# 6 0.0000 0.0000 0.0000 0.0000 0.0000 31.3943
#
#
#
# Elastic Compliance Matrix: (Units=1/GPa)
#
#
# Indices 1 2 3 4 5 6 
#
# 1 0.023390 -0.001590 -0.002707 0.000000 0.000000 0.000000
# 2 -0.001590 0.007896 0.000374 0.000000 0.000000 0.000000
# 3 -0.002707 0.000374 0.012290 0.000000 0.000000 0.000000
# 4 0.000000 0.000000 0.000000 -0.047844 0.000000 0.000000
# 5 0.000000 0.000000 0.000000 0.000000 0.051538 0.000000
# 6 0.000000 0.000000 0.000000 0.000000 0.000000 0.031853
#
#
# Mechanical properties :
#
#
# Convention : Reuss Voigt Hill
#
# Bulk Modulus (GPa) = 27.98855 32.04525 30.01690
# Shear Modulus (GPa) = 50.56680 22.00775 36.28727
#
# Velocity S-wave (km/s) = 4.93371 3.25483 4.17944
# Velocity P-wave (km/s) = 6.77703 5.43608 6.14325
#
# Compressibility (1/GPa) = 0.03572889
#
# Stress axis : x y z
#
# Youngs Moduli (GPa) = 42.75331 126.65346 81.36593
#
# Poissons Ratio (x) = 0.20140 0.22024
# Poissons Ratio (y) = 0.06798 -0.03039
# Poissons Ratio (z) = 0.11572 -0.04731
#
# Static dielectric constant tensor:
#      x y z
#    x 1.863480 0.000000 0.000000 
#    y 0.000000 1.812820 0.000000 
#    z 0.000000 0.000000 1.706280 
# 
# From -- ./inp_files/12244.got.cif
#   From: 2010.05.17/outbox.cif.g08.bks.cpg/sg55_7_cif.got.tgz:12244.got - 2010.06.03 13:27:54.
