data_PCOD9428459
_publ_section_title
;
Structure prediction by ZEFSAII (Michael W. Deem and Ramdas Pophale) SiO2 
 PCOD9428459
Probable space group: P B A M
;
_chemical_formula_sum "Si O2"
_cell_formula_units_Z 48
_cell_length_a 19.140084
_cell_length_b 7.723467
_cell_length_c 13.756333
_cell_angle_alpha 90.000000
_cell_angle_beta 90.000000
_cell_angle_gamma 90.000000
_cell_volume 2033.568542
_symmetry_space_group_name_H-M "P B A M"
_symmetry_group_IT_number 55
_symmetry_cell_setting 'orthorhombic'
loop_
_space_group_symop_operation_xyz
x,y,z
-x,-y,z
1/2+x,1/2-y,-z
1/2-x,1/2+y,-z
-x,-y,-z
x,y,-z
1/2-x,1/2+y,z
1/2+x,1/2-y,z
loop_
_atom_site_type_symbol
_atom_site_label
_atom_site_fract_x
_atom_site_fract_y
_atom_site_fract_z
Si Si1 0.193249 0.447642 0.612135
Si Si2 0.053070 0.663580 0.390710
Si Si3 0.529094 0.689217 0.814189
Si Si4 0.111722 0.268042 0.888116
Si Si5 0.205420 0.141460 0.743040
Si Si6 0.329098 0.152040 0.889647
O O1 0.206677 0.405923 0.500000
O O2 0.132027 0.589114 0.616683
O O3 0.170076 0.283605 0.673946
O O4 0.263160 0.506305 0.667373
O O5 0.043680 0.735400 0.500000
O O6 0.000000 0.500000 0.382210
O O7 0.040871 0.790521 0.301154
O O8 0.500000 0.500000 0.840091
O O9 0.464024 0.808311 0.845708
O O10 0.598177 0.753432 0.868233
O O11 0.147845 0.115897 0.825572
O O12 0.156480 0.445253 0.881101
O O13 0.106735 0.218831 0.000000
O O14 0.272228 0.197858 0.808235
O O15 0.305012 0.188710 0.000000
#
# Coordination Sequence:
#
# PCOD9428459 Si02
#       6
#     8   8   8   8   8   8
#     4  11  24  41  67  97 130 173 217 270 330 392
#     4  10  21  43  71  96 129 178 226 267 324 401
#     4  12  25  41  65 100 136 170 215 277 336 388
#     4  11  25  44  68  94 131 179 227 270 327 399
#     4  12  22  43  65  97 130 170 219 274 329 388
#     4  11  24  44  67  92 128 178 224 266 327 396
#
# _framework density 23.603825000000001
#
# number of rings (size 3 to 8) (size 9 to 14) (size 15 to 20)
#    0.000    0.833    3.333    4.000    2.333    3.000 
#    0.000    0.833    0.000    0.000    0.000    0.000 
#    0.000    0.000    0.000    0.000    0.000    0.000 
#
# Total GULP energy -268546.404240 kJ/mol
# GULP energy per Si atom -5594.716755 kJ/mol
# Density = 2.355010 g / cm^3
# Si number density = 23.603825 Si / 1000 Ang^3
#
#
#
# Elastic Constant Matrix: (Units=GPa)
#
#
# Indices 1 2 3 4 5 6 
#
# 1 83.5974 -1.4738 28.6367 0.0000 0.0000 0.0000
# 2 -1.4738 22.0614 14.6930 0.0000 0.0000 0.0000
# 3 28.6367 14.6930 181.0935 0.0000 0.0000 0.0000
# 4 0.0000 0.0000 0.0000 26.8288 0.0000 0.0000
# 5 0.0000 0.0000 0.0000 0.0000 33.0363 0.0000
# 6 0.0000 0.0000 0.0000 0.0000 0.0000 27.2458
#
#
#
# Elastic Compliance Matrix: (Units=1/GPa)
#
#
# Indices 1 2 3 4 5 6 
#
# 1 0.012759 0.002322 -0.002206 0.000000 0.000000 0.000000
# 2 0.002322 0.048340 -0.004289 0.000000 0.000000 0.000000
# 3 -0.002206 -0.004289 0.006219 0.000000 0.000000 0.000000
# 4 0.000000 0.000000 0.000000 0.037273 0.000000 0.000000
# 5 0.000000 0.000000 0.000000 0.000000 0.030270 0.000000
# 6 0.000000 0.000000 0.000000 0.000000 0.000000 0.036703
#
#
# Mechanical properties :
#
#
# Convention : Reuss Voigt Hill
#
# Bulk Modulus (GPa) = 16.95775 41.16267 29.06021
# Shear Modulus (GPa) = 25.05424 33.74860 29.40142
#
# Velocity S-wave (km/s) = 3.26152 3.78536 3.53316
# Velocity P-wave (km/s) = 4.62421 6.04832 5.38356
#
# Compressibility (1/GPa) = 0.05897010
#
# Stress axis : x y z
#
# Youngs Moduli (GPa) = 78.37810 20.68692 160.80181
#
# Poissons Ratio (x) = -0.04802 0.35471
# Poissons Ratio (y) = -0.18195 0.68970
# Poissons Ratio (z) = 0.17289 0.08873
#
# Static dielectric constant tensor:
#      x y z
#    x 1.916060 0.000000 0.000000 
#    y 0.000000 1.941930 0.000000 
#    z 0.000000 0.000000 1.841500 
# 
# From -- ./inp_files/19356.got.cif
#   From: 2010.05.17/outbox.cif.g08.bks.cpg/sg55_10_cif.got.tgz:19356.got - 2010.06.03 13:27:54.
