data_PCOD9428008
_publ_section_title
;
Structure prediction by ZEFSAII (Michael W. Deem and Ramdas Pophale) SiO2 
 PCOD9428008
Probable space group: P B A M
;
_chemical_formula_sum "Si O2"
_cell_formula_units_Z 58
_cell_length_a 19.763732
_cell_length_b 15.629482
_cell_length_c 7.789465
_cell_angle_alpha 90.000000
_cell_angle_beta 90.000000
_cell_angle_gamma 90.000000
_cell_volume 2406.141541
_symmetry_space_group_name_H-M "P B A M"
_symmetry_group_IT_number 55
_symmetry_cell_setting 'orthorhombic'
loop_
_space_group_symop_operation_xyz
x,y,z
-x,-y,z
1/2+x,1/2-y,-z
1/2-x,1/2+y,-z
-x,-y,-z
x,y,-z
1/2-x,1/2+y,z
1/2+x,1/2-y,z
loop_
_atom_site_type_symbol
_atom_site_label
_atom_site_fract_x
_atom_site_fract_y
_atom_site_fract_z
Si Si1 0.505153 0.686608 0.702830
Si Si2 0.894953 0.341977 0.701530
Si Si3 0.245977 0.197103 0.799550
Si Si4 0.388540 0.970474 0.696560
Si Si5 0.383691 0.785780 0.297939
Si Si6 0.239938 0.002132 0.205090
Si Si7 0.500000 0.500000 0.500000
Si Si8 0.407799 0.466562 0.191590
O O1 0.509180 0.654374 0.500000
O O2 0.543281 0.777513 0.712336
O O3 0.430164 0.708049 0.766631
O O4 0.550520 0.621261 0.806632
O O5 0.880498 0.355714 0.500000
O O6 0.826514 0.299252 0.772645
O O7 0.908140 0.437379 0.774637
O O8 0.195307 0.264437 0.716526
O O9 0.226926 0.100690 0.744053
O O10 0.232421 0.204840 0.000000
O O11 0.414274 0.968863 0.500000
O O12 0.403726 0.878199 0.777316
O O13 0.306680 0.972502 0.698948
O O14 0.400592 0.788913 0.500000
O O15 0.170943 0.951390 0.232035
O O16 0.255327 0.000742 0.000000
O O17 0.442650 0.516647 0.345799
O O18 0.411425 0.505259 0.000000
#
# Coordination Sequence:
#
# PCOD9428008 Si02
#       8
#     8   8   8   8   8   8   2   8
#     4  10  22  40  60  88 126 166 209 257 316 378
#     4   9  19  38  62  86 117 158 206 256 312 377
#     4  10  21  37  58  84 116 155 198 251 313 371
#     4   9  19  36  60  89 117 155 206 258 313 375
#     4  10  22  37  57  87 122 158 201 255 311 376
#     4   9  21  39  59  85 116 155 203 256 312 373
#     4  12  26  44  64  90 124 174 210 258 316 368
#     4  11  25  42  64  93 128 170 215 260 313 382
#
# _framework density 24.104982
#
# number of rings (size 3 to 8) (size 9 to 14) (size 15 to 20)
#    0.000    2.207    0.690    0.621    4.828    2.759 
#    0.000    2.759    0.000    0.000    0.000    5.793 
#    0.000    0.000    0.000    0.000    0.000    0.000 
#
# Total GULP energy -323536.289663 kJ/mol
# GULP energy per Si atom -5578.211891 kJ/mol
# Density = 2.405012 g / cm^3
# Si number density = 24.104982 Si / 1000 Ang^3
#
#
#
# Elastic Constant Matrix: (Units=GPa)
#
#
# Indices 1 2 3 4 5 6 
#
# 1 39.3413 6.3153 8.6945 0.0000 0.0000 0.0000
# 2 6.3153 65.1158 17.3334 0.0000 0.0000 0.0000
# 3 8.6945 17.3334 67.0277 0.0000 0.0000 0.0000
# 4 0.0000 0.0000 0.0000 3.7854 0.0000 0.0000
# 5 0.0000 0.0000 0.0000 0.0000 -47.2114 0.0000
# 6 0.0000 0.0000 0.0000 0.0000 0.0000 35.5857
#
#
#
# Elastic Compliance Matrix: (Units=1/GPa)
#
#
# Indices 1 2 3 4 5 6 
#
# 1 0.026357 -0.001768 -0.002962 0.000000 0.000000 0.000000
# 2 -0.001768 0.016611 -0.004066 0.000000 0.000000 0.000000
# 3 -0.002962 -0.004066 0.016355 0.000000 0.000000 0.000000
# 4 0.000000 0.000000 0.000000 0.264174 0.000000 0.000000
# 5 0.000000 0.000000 0.000000 0.000000 -0.021181 0.000000
# 6 0.000000 0.000000 0.000000 0.000000 0.000000 0.028101
#
#
# Mechanical properties :
#
#
# Convention : Reuss Voigt Hill
#
# Bulk Modulus (GPa) = 23.96288 26.24123 25.10206
# Shear Modulus (GPa) = 13.81524 7.70807 10.76165
#
# Velocity S-wave (km/s) = 2.39661 1.79015 2.11523
# Velocity P-wave (km/s) = 4.19773 3.89650 4.04992
#
# Compressibility (1/GPa) = 0.04173121
#
# Stress axis : x y z
#
# Youngs Moduli (GPa) = 37.94072 60.20057 61.14363
#
# Poissons Ratio (x) = 0.10643 0.18109
# Poissons Ratio (y) = 0.06707 0.24863
# Poissons Ratio (z) = 0.11237 0.24480
#
# Static dielectric constant tensor:
#      x y z
#    x 1.883420 0.000000 0.000000 
#    y 0.000000 1.902150 0.000000 
#    z 0.000000 0.000000 1.911230 
# 
# From -- ./inp_files/7722.got.cif
#   From: 2010.05.17/outbox.cif.g08.bks.cpg/sg55_4_cif.got.tgz:7722.got - 2010.06.03 13:27:54.
