data_PCOD9428022
_publ_section_title
;
Structure prediction by ZEFSAII (Michael W. Deem and Ramdas Pophale) SiO2 
 PCOD9428022
Probable space group: P B A M
;
_chemical_formula_sum "Si O2"
_cell_formula_units_Z 64
_cell_length_a 8.314901
_cell_length_b 14.178919
_cell_length_c 25.103505
_cell_angle_alpha 90.000000
_cell_angle_beta 90.000000
_cell_angle_gamma 90.000000
_cell_volume 2959.610552
_symmetry_space_group_name_H-M "P B A M"
_symmetry_group_IT_number 55
_symmetry_cell_setting 'orthorhombic'
loop_
_space_group_symop_operation_xyz
x,y,z
-x,-y,z
1/2+x,1/2-y,-z
1/2-x,1/2+y,-z
-x,-y,-z
x,y,-z
1/2-x,1/2+y,z
1/2+x,1/2-y,z
loop_
_atom_site_type_symbol
_atom_site_label
_atom_site_fract_x
_atom_site_fract_y
_atom_site_fract_z
Si Si1 0.451464 0.401312 0.560223
Si Si2 0.756241 0.753819 0.278931
Si Si3 0.065481 0.393650 0.559744
Si Si4 0.700055 0.853769 0.060036
Si Si5 0.883069 0.698003 0.109911
Si Si6 0.332428 0.450160 0.938131
Si Si7 0.498284 0.258509 0.642980
Si Si8 0.513935 0.115815 0.777710
O O1 0.500000 0.500000 0.584861
O O2 0.511284 0.398816 0.500000
O O3 0.259464 0.391441 0.559961
O O4 0.538543 0.323555 0.594100
O O5 0.683816 0.730025 0.336917
O O6 0.823513 0.659889 0.249736
O O7 0.640669 0.828610 0.248735
O O8 0.921581 0.795653 0.301893
O O9 0.015371 0.355141 0.500000
O O10 0.000000 0.500000 0.561052
O O11 0.009674 0.343095 0.614452
O O12 0.815275 0.803135 0.103009
O O13 0.519575 0.817842 0.065936
O O14 0.704189 0.965719 0.066919
O O15 0.760540 0.834169 0.000000
O O16 0.726986 0.634713 0.097521
O O17 0.965291 0.658768 0.163140
O O18 0.500000 0.500000 0.924338
O O19 0.342215 0.420206 0.000000
O O20 0.500000 0.000000 0.776096
#
# Coordination Sequence:
#
# PCOD9428022 Si02
#       8
#     8   8   8   8   8   8   8   8
#     4  10  22  37  57  92 132 168 210 255 313 396
#     4  10  25  43  67  95 124 161 233 288 340 408
#     4  10  22  38  61  95 134 176 215 257 321 404
#     4  11  22  36  60  95 134 172 207 260 322 389
#     4  12  23  40  66  93 127 174 223 265 333 405
#     4  10  21  37  58  92 134 172 214 256 310 397
#     4  11  21  42  63  89 122 168 213 271 329 392
#     4  11  25  48  71  95 131 173 221 295 354 398
#
# _framework density 21.624466000000002
#
# number of rings (size 3 to 8) (size 9 to 14) (size 15 to 20)
#    0.000    1.375    1.250    4.125    1.750    5.000 
#    0.000    3.125    0.000    0.000    0.000    0.000 
#    0.000    0.000    0.000    0.000    0.000    0.000 
#
# Total GULP energy -356276.541236 kJ/mol
# GULP energy per Si atom -5566.820957 kJ/mol
# Density = 2.157525 g / cm^3
# Si number density = 21.624466 Si / 1000 Ang^3
#
#
#
# Elastic Constant Matrix: (Units=GPa)
#
#
# Indices 1 2 3 4 5 6 
#
# 1 22.3797 9.2859 12.0362 0.0000 0.0000 0.0000
# 2 9.2859 93.1784 47.4581 0.0000 0.0000 0.0000
# 3 12.0362 47.4581 90.9427 0.0000 0.0000 0.0000
# 4 0.0000 0.0000 0.0000 40.9440 0.0000 0.0000
# 5 0.0000 0.0000 0.0000 0.0000 105.4681 0.0000
# 6 0.0000 0.0000 0.0000 0.0000 0.0000 33.1563
#
#
#
# Elastic Compliance Matrix: (Units=1/GPa)
#
#
# Indices 1 2 3 4 5 6 
#
# 1 0.048415 -0.002126 -0.005298 0.000000 0.000000 0.000000
# 2 -0.002126 0.014711 -0.007395 0.000000 0.000000 0.000000
# 3 -0.005298 -0.007395 0.015556 0.000000 0.000000 0.000000
# 4 0.000000 0.000000 0.000000 0.024424 0.000000 0.000000
# 5 0.000000 0.000000 0.000000 0.000000 0.009482 0.000000
# 6 0.000000 0.000000 0.000000 0.000000 0.000000 0.030160
#
#
# Mechanical properties :
#
#
# Convention : Reuss Voigt Hill
#
# Bulk Modulus (GPa) = 20.39045 38.22901 29.30973
# Shear Modulus (GPa) = 26.49227 45.09505 35.79366
#
# Velocity S-wave (km/s) = 3.50395 4.57154 4.07288
# Velocity P-wave (km/s) = 5.08134 6.75147 5.97504
#
# Compressibility (1/GPa) = 0.04904256
#
# Stress axis : x y z
#
# Youngs Moduli (GPa) = 20.65470 67.97821 64.28262
#
# Poissons Ratio (x) = 0.14456 0.34057
# Poissons Ratio (y) = 0.04392 0.47538
# Poissons Ratio (z) = 0.10943 0.50271
#
# Static dielectric constant tensor:
#      x y z
#    x 1.751510 0.000000 0.000000 
#    y 0.000000 2.353600 0.000000 
#    z 0.000000 0.000000 1.827360 
# 
# From -- ./inp_files/23494.got.cif
#   From: 2010.05.17/outbox.cif.g08.bks.cpg/sg55_12_cif.got.tgz:23494.got - 2010.06.03 13:27:54.
