data_PCOD9428933
_publ_section_title
;
Structure prediction by ZEFSAII (Michael W. Deem and Ramdas Pophale) SiO2 
 PCOD9428933
Probable space group: P B A M
;
_chemical_formula_sum "Si O2"
_cell_formula_units_Z 58
_cell_length_a 7.922902
_cell_length_b 17.215077
_cell_length_c 17.966571
_cell_angle_alpha 90.000000
_cell_angle_beta 90.000000
_cell_angle_gamma 90.000000
_cell_volume 2450.521130
_symmetry_space_group_name_H-M "P B A M"
_symmetry_group_IT_number 55
_symmetry_cell_setting 'orthorhombic'
loop_
_space_group_symop_operation_xyz
x,y,z
-x,-y,z
1/2+x,1/2-y,-z
1/2-x,1/2+y,-z
-x,-y,-z
x,y,-z
1/2-x,1/2+y,z
1/2+x,1/2-y,z
loop_
_atom_site_type_symbol
_atom_site_label
_atom_site_fract_x
_atom_site_fract_y
_atom_site_fract_z
Si Si1 0.466477 0.262473 0.812708
Si Si2 0.198461 0.506105 0.077636
Si Si3 0.448592 0.850975 0.585220
Si Si4 0.407251 0.299223 0.352394
Si Si5 0.709322 0.427145 0.631541
Si Si6 0.000000 0.000000 0.500000
Si Si7 0.370330 0.567763 0.794489
Si Si8 0.802470 0.671862 0.086916
O O1 0.391721 0.256202 0.728819
O O2 0.559987 0.345260 0.799697
O O3 0.575440 0.190953 0.842836
O O4 0.351276 0.275893 0.885165
O O5 0.229717 0.563230 0.143919
O O6 0.253126 0.417527 0.089808
O O7 0.000000 0.500000 0.070613
O O8 0.274164 0.535297 0.000000
O O9 0.407535 0.869942 0.500000
O O10 0.271393 0.840258 0.629231
O O11 0.546372 0.768314 0.589969
O O12 0.596333 0.905951 0.616123
O O13 0.567774 0.357173 0.362138
O O14 0.639150 0.479498 0.565582
O O15 0.696061 0.459105 0.714591
O O16 0.500000 0.500000 0.816622
O O17 0.853167 0.686570 0.000000
#
# Coordination Sequence:
#
# PCOD9428933 Si02
#       8
#     8   8   8   8   8   2   8   8
#     4  11  25  43  68  97 144 185 232 297 367 432
#     4  10  24  44  69 100 138 182 238 301 354 428
#     4  12  24  42  72 108 136 182 238 295 366 427
#     4  11  25  43  69 103 142 178 239 298 362 428
#     4  11  26  46  71 103 145 190 233 306 360 437
#     4  12  24  48  70  92 154 190 232 294 366 432
#     4  11  23  47  70  98 135 188 242 289 366 431
#     4  11  24  42  66 101 138 180 234 291 356 428
#
# _framework density 23.668434000000001
#
# number of rings (size 3 to 8) (size 9 to 14) (size 15 to 20)
#    0.000    0.966    4.138    1.655    5.793    2.483 
#    0.000    1.379    0.000    0.000    0.000    0.000 
#    0.000    0.000    0.000    0.000    0.000    0.000 
#
# Total GULP energy -322964.124302 kJ/mol
# GULP energy per Si atom -5568.346971 kJ/mol
# Density = 2.361456 g / cm^3
# Si number density = 23.668434 Si / 1000 Ang^3
#
#
#
# Elastic Constant Matrix: (Units=GPa)
#
#
# Indices 1 2 3 4 5 6 
#
# 1 76.1449 4.4322 49.6149 0.0000 0.0000 0.0000
# 2 4.4322 24.2568 22.8753 0.0000 0.0000 0.0000
# 3 49.6149 22.8753 151.2453 0.0000 0.0000 0.0000
# 4 0.0000 0.0000 0.0000 35.9107 0.0000 0.0000
# 5 0.0000 0.0000 0.0000 0.0000 38.2217 0.0000
# 6 0.0000 0.0000 0.0000 0.0000 0.0000 26.4095
#
#
#
# Elastic Compliance Matrix: (Units=1/GPa)
#
#
# Indices 1 2 3 4 5 6 
#
# 1 0.016831 0.002486 -0.005897 0.000000 0.000000 0.000000
# 2 0.002486 0.048451 -0.008144 0.000000 0.000000 0.000000
# 3 -0.005897 -0.008144 0.009778 0.000000 0.000000 0.000000
# 4 0.000000 0.000000 0.000000 0.027847 0.000000 0.000000
# 5 0.000000 0.000000 0.000000 0.000000 0.026163 0.000000
# 6 0.000000 0.000000 0.000000 0.000000 0.000000 0.037865
#
#
# Mechanical properties :
#
#
# Convention : Reuss Voigt Hill
#
# Bulk Modulus (GPa) = 19.24919 45.05463 32.15191
# Shear Modulus (GPa) = 24.11253 31.75668 27.93461
#
# Velocity S-wave (km/s) = 3.19527 3.66694 3.43920
# Velocity P-wave (km/s) = 4.66514 6.08323 5.42076
#
# Compressibility (1/GPa) = 0.05195023
#
# Stress axis : x y z
#
# Youngs Moduli (GPa) = 59.41541 20.63939 102.27062
#
# Poissons Ratio (x) = -0.05131 0.60311
# Poissons Ratio (y) = -0.14771 0.83285
# Poissons Ratio (z) = 0.35038 0.16808
#
# Static dielectric constant tensor:
#      x y z
#    x 1.991590 0.000000 0.000000 
#    y 0.000000 1.849120 0.000000 
#    z 0.000000 0.000000 1.930410 
# 
# From -- ./inp_files/20993.got.cif
#   From: 2010.05.17/outbox.cif.g08.bks.cpg/sg55_11_cif.got.tgz:20993.got - 2010.06.03 13:27:54.
