data_PCOD9428335
_publ_section_title
;
Structure prediction by ZEFSAII (Michael W. Deem and Ramdas Pophale) SiO2 
 PCOD9428335
Probable space group: P B A M
;
_chemical_formula_sum "Si O2"
_cell_formula_units_Z 64
_cell_length_a 14.989978
_cell_length_b 12.113855
_cell_length_c 16.894136
_cell_angle_alpha 90.000000
_cell_angle_beta 90.000000
_cell_angle_gamma 90.000000
_cell_volume 3067.745674
_symmetry_space_group_name_H-M "P B A M"
_symmetry_group_IT_number 55
_symmetry_cell_setting 'orthorhombic'
loop_
_space_group_symop_operation_xyz
x,y,z
-x,-y,z
1/2+x,1/2-y,-z
1/2-x,1/2+y,-z
-x,-y,-z
x,y,-z
1/2-x,1/2+y,z
1/2+x,1/2-y,z
loop_
_atom_site_type_symbol
_atom_site_label
_atom_site_fract_x
_atom_site_fract_y
_atom_site_fract_z
Si Si1 0.403354 0.514174 0.909975
Si Si2 0.287040 0.972776 0.093439
Si Si3 0.097268 0.258971 0.866852
Si Si4 0.310192 0.270619 0.410137
Si Si5 0.969287 0.375826 0.645014
Si Si6 0.105838 0.009946 0.411747
Si Si7 0.937206 0.393697 0.168528
Si Si8 0.365571 0.724600 0.681664
O O1 0.500000 0.500000 0.869808
O O2 0.313790 0.462157 0.874463
O O3 0.386546 0.645088 0.910648
O O4 0.411501 0.470499 0.000000
O O5 0.341526 0.071291 0.135716
O O6 0.341899 0.859882 0.104201
O O7 0.282005 0.997625 0.000000
O O8 0.120091 0.240568 0.774614
O O9 0.992766 0.294522 0.870927
O O10 0.275186 0.266047 0.500000
O O11 0.385756 0.176712 0.400310
O O12 0.355684 0.389106 0.398146
O O13 0.230374 0.262905 0.348302
O O14 0.938462 0.378620 0.737160
O O15 0.000000 0.500000 0.622979
O O16 0.055025 0.295245 0.640671
O O17 0.135704 0.047485 0.500000
O O18 0.129487 0.098397 0.345805
O O19 0.000000 0.000000 0.413292
O O20 0.000000 0.500000 0.152880
#
# Coordination Sequence:
#
# PCOD9428335 Si02
#       8
#     8   8   8   8   8   8   8   8
#     4  10  23  41  58  87 129 165 204 255 309 372
#     4  10  21  39  66  95 124 168 216 257 308 374
#     4  10  22  39  61  91 123 165 208 260 317 370
#     4  11  25  41  65  95 122 169 219 262 326 387
#     4  10  22  42  64  91 133 166 207 270 325 379
#     4  10  21  42  65  86 122 164 209 263 312 380
#     4   8  18  37  61  89 121 158 205 255 310 368
#     4  11  24  41  63  94 126 167 211 265 323 379
#
# _framework density 20.862224999999999
#
# number of rings (size 3 to 8) (size 9 to 14) (size 15 to 20)
#    0.000    2.000    1.250    1.500    3.500    6.000 
#    2.250    2.500    0.000    0.000    0.000    0.000 
#    0.000    0.000    0.000    0.000    0.000    0.000 
#
# Total GULP energy -357324.270611 kJ/mol
# GULP energy per Si atom -5583.191728 kJ/mol
# Density = 2.081474 g / cm^3
# Si number density = 20.862225 Si / 1000 Ang^3
#
#
#
# Elastic Constant Matrix: (Units=GPa)
#
#
# Indices 1 2 3 4 5 6 
#
# 1 138.2924 22.6130 26.9747 0.0000 0.0000 0.0000
# 2 22.6130 67.4178 11.2459 0.0000 0.0000 0.0000
# 3 26.9747 11.2459 43.6334 0.0000 0.0000 0.0000
# 4 0.0000 0.0000 0.0000 26.8705 0.0000 0.0000
# 5 0.0000 0.0000 0.0000 0.0000 46.9495 0.0000
# 6 0.0000 0.0000 0.0000 0.0000 0.0000 30.6950
#
#
#
# Elastic Compliance Matrix: (Units=1/GPa)
#
#
# Indices 1 2 3 4 5 6 
#
# 1 0.008488 -0.002060 -0.004716 0.000000 0.000000 0.000000
# 2 -0.002060 0.015999 -0.002850 0.000000 0.000000 0.000000
# 3 -0.004716 -0.002850 0.026568 0.000000 0.000000 0.000000
# 4 0.000000 0.000000 0.000000 0.037216 0.000000 0.000000
# 5 0.000000 0.000000 0.000000 0.000000 0.021299 0.000000
# 6 0.000000 0.000000 0.000000 0.000000 0.000000 0.032579
#
#
# Mechanical properties :
#
#
# Convention : Reuss Voigt Hill
#
# Bulk Modulus (GPa) = 31.44392 41.22343 36.33367
# Shear Modulus (GPa) = 29.06924 33.47033 31.26978
#
# Velocity S-wave (km/s) = 3.73687 4.00978 3.87573
# Velocity P-wave (km/s) = 5.80722 6.42188 6.12227
#
# Compressibility (1/GPa) = 0.03180265
#
# Stress axis : x y z
#
# Youngs Moduli (GPa) = 117.81495 62.50270 37.63866
#
# Poissons Ratio (x) = 0.12877 0.17752
# Poissons Ratio (y) = 0.24273 0.10727
# Poissons Ratio (z) = 0.55565 0.17813
#
# Static dielectric constant tensor:
#      x y z
#    x 1.756170 0.000000 0.000000 
#    y 0.000000 1.721870 0.000000 
#    z 0.000000 0.000000 1.743060 
# 
# From -- ./inp_files/21629.got.cif
#   From: 2010.05.17/outbox.cif.g08.bks.cpg/sg55_11_cif.got.tgz:21629.got - 2010.06.03 13:27:54.
