data_PCOD9428404
_publ_section_title
;
Structure prediction by ZEFSAII (Michael W. Deem and Ramdas Pophale) SiO2 
 PCOD9428404
Probable space group: P B A M
;
_chemical_formula_sum "Si O2"
_cell_formula_units_Z 34
_cell_length_a 5.247131
_cell_length_b 11.384396
_cell_length_c 25.096900
_cell_angle_alpha 90.000000
_cell_angle_beta 90.000000
_cell_angle_gamma 90.000000
_cell_volume 1499.173791
_symmetry_space_group_name_H-M "P B A M"
_symmetry_group_IT_number 55
_symmetry_cell_setting 'orthorhombic'
loop_
_space_group_symop_operation_xyz
x,y,z
-x,-y,z
1/2+x,1/2-y,-z
1/2-x,1/2+y,-z
-x,-y,-z
x,y,-z
1/2-x,1/2+y,z
1/2+x,1/2-y,z
loop_
_atom_site_type_symbol
_atom_site_label
_atom_site_fract_x
_atom_site_fract_y
_atom_site_fract_z
Si Si1 0.000000 0.500000 0.000000
Si Si2 0.752432 0.826266 0.618933
Si Si3 0.500000 0.000000 0.185946
Si Si4 0.685316 0.169956 0.904572
Si Si5 0.250081 0.074926 0.500000
Si Si6 0.262528 0.667036 0.266411
O O1 0.136420 0.418025 0.953489
O O2 0.505640 0.747736 0.623204
O O3 0.749656 0.867388 0.558051
O O4 0.750169 0.896072 0.674851
O O5 0.356932 0.905838 0.148639
O O6 0.700093 0.929071 0.222172
O O7 0.461385 0.268575 0.906844
O O8 0.500000 0.000000 0.500000
O O9 0.000000 0.000000 0.500000
O O10 0.530656 0.736777 0.261904
#
# Coordination Sequence:
#
# PCOD9428404 Si02
#       6
#     2   8   4   8   4   8
#     4  10  24  42  72 100 132 184 212 272 324 370
#     4  10  21  41  61  82 117 160 197 251 318 379
#     4  11  24  41  68  93 130 177 214 268 328 371
#     4  11  25  43  66  99 137 172 222 267 319 383
#     4  12  24  36  60  92 120 150 202 258 316 390
#     4  10  23  41  62  91 123 162 215 263 315 383
#
# _framework density 22.679157
#
# number of rings (size 3 to 8) (size 9 to 14) (size 15 to 20)
#    0.000    1.412    0.000    4.235    1.647    7.529 
#    0.000    0.000    0.000    0.000    0.000    0.000 
#    0.000    0.000    0.000    0.000    0.000    0.000 
#
# Total GULP energy -189401.323084 kJ/mol
# GULP energy per Si atom -5570.627150 kJ/mol
# Density = 2.262754 g / cm^3
# Si number density = 22.679157 Si / 1000 Ang^3
#
#
#
# Elastic Constant Matrix: (Units=GPa)
#
#
# Indices 1 2 3 4 5 6 
#
# 1 123.7227 11.8336 1.3886 0.0000 0.0000 0.0000
# 2 11.8336 46.9704 44.7055 0.0000 0.0000 0.0000
# 3 1.3886 44.7055 212.8755 0.0000 0.0000 0.0000
# 4 0.0000 0.0000 0.0000 56.3794 0.0000 0.0000
# 5 0.0000 0.0000 0.0000 0.0000 -93.6967 0.0000
# 6 0.0000 0.0000 0.0000 0.0000 0.0000 20.6360
#
#
#
# Elastic Compliance Matrix: (Units=1/GPa)
#
#
# Indices 1 2 3 4 5 6 
#
# 1 0.008322 -0.002556 0.000482 0.000000 0.000000 0.000000
# 2 -0.002556 0.027393 -0.005736 0.000000 0.000000 0.000000
# 3 0.000482 -0.005736 0.005899 0.000000 0.000000 0.000000
# 4 0.000000 0.000000 0.000000 0.017737 0.000000 0.000000
# 5 0.000000 0.000000 0.000000 0.000000 -0.010673 0.000000
# 6 0.000000 0.000000 0.000000 0.000000 0.000000 0.048459
#
#
# Mechanical properties :
#
#
# Convention : Reuss Voigt Hill
#
# Bulk Modulus (GPa) = 38.46851 55.49157 46.98004
# Shear Modulus (GPa) = 41.17886 18.37312 29.77599
#
# Velocity S-wave (km/s) = 4.26574 2.84937 3.62736
# Velocity P-wave (km/s) = 6.42347 5.94529 6.18900
#
# Compressibility (1/GPa) = 0.02599529
#
# Stress axis : x y z
#
# Youngs Moduli (GPa) = 120.16891 36.50501 169.51799
#
# Poissons Ratio (x) = 0.09330 -0.08178
# Poissons Ratio (y) = 0.30712 0.97239
# Poissons Ratio (z) = -0.05797 0.20940
#
# Static dielectric constant tensor:
#      x y z
#    x 1.777720 0.000000 0.000000 
#    y 0.000000 1.863500 0.000000 
#    z 0.000000 0.000000 2.477700 
# 
# From -- ./inp_files/23256.got.cif
#   From: 2010.05.17/outbox.cif.g08.bks.cpg/sg55_12_cif.got.tgz:23256.got - 2010.06.03 13:27:54.
