data_PCOD9428724
_publ_section_title
;
Structure prediction by ZEFSAII (Michael W. Deem and Ramdas Pophale) SiO2 
 PCOD9428724
Probable space group: P B A M
;
_chemical_formula_sum "Si O2"
_cell_formula_units_Z 64
_cell_length_a 24.662434
_cell_length_b 15.783148
_cell_length_c 8.630693
_cell_angle_alpha 90.000000
_cell_angle_beta 90.000000
_cell_angle_gamma 90.000000
_cell_volume 3359.504551
_symmetry_space_group_name_H-M "P B A M"
_symmetry_group_IT_number 55
_symmetry_cell_setting 'orthorhombic'
loop_
_space_group_symop_operation_xyz
x,y,z
-x,-y,z
1/2+x,1/2-y,-z
1/2-x,1/2+y,-z
-x,-y,-z
x,y,-z
1/2-x,1/2+y,z
1/2+x,1/2-y,z
loop_
_atom_site_type_symbol
_atom_site_label
_atom_site_fract_x
_atom_site_fract_y
_atom_site_fract_z
Si Si1 0.545362 0.199636 0.184957
Si Si2 0.576868 0.563154 0.311834
Si Si3 0.776202 0.489732 0.185569
Si Si4 0.692841 0.625055 0.685453
Si Si5 0.808475 0.305238 0.813526
Si Si6 0.392968 0.961267 0.315953
Si Si7 0.071886 0.634805 0.186728
Si Si8 0.957770 0.878720 0.312857
O O1 0.579940 0.125409 0.261582
O O2 0.482206 0.185026 0.229831
O O3 0.562763 0.292299 0.240024
O O4 0.549327 0.192645 0.000000
O O5 0.576659 0.565354 0.500000
O O6 0.631349 0.607989 0.257263
O O7 0.574126 0.464036 0.268090
O O8 0.520363 0.605612 0.262985
O O9 0.730302 0.548699 0.257093
O O10 0.776380 0.390461 0.233537
O O11 0.834489 0.525505 0.237690
O O12 0.772755 0.492473 0.000000
O O13 0.692748 0.625747 0.500000
O O14 0.711277 0.716867 0.745024
O O15 0.871498 0.321146 0.766332
O O16 0.807046 0.300189 0.000000
O O17 0.387197 0.963153 0.500000
O O18 0.428344 0.041560 0.260194
O O19 0.073211 0.625755 0.000000
O O20 0.956785 0.872428 0.500000
#
# Coordination Sequence:
#
# PCOD9428724 Si02
#       8
#     8   8   8   8   8   8   8   8
#     4  11  21  33  51  80 115 151 186 223 274 335
#     4   8  17  34  56  81 111 146 182 229 281 325
#     4  10  22  42  61  79 110 150 189 234 287 340
#     4  11  21  35  59  89 114 143 188 238 286 336
#     4   9  19  37  59  82 109 146 188 232 283 336
#     4  11  22  36  55  79 108 143 185 233 284 332
#     4   9  19  35  55  79 112 150 186 226 275 330
#     4   9  17  34  56  78 111 151 187 225 273 326
#
# _framework density 19.050426999999999
#
# number of rings (size 3 to 8) (size 9 to 14) (size 15 to 20)
#    0.000    2.250    0.000    4.875    0.000    5.000 
#    2.250    3.125    0.000    0.000    0.000    0.000 
#    0.000    0.000    0.000    0.000    0.000    0.000 
#
# Total GULP energy -357316.616520 kJ/mol
# GULP energy per Si atom -5583.072133 kJ/mol
# Density = 1.900707 g / cm^3
# Si number density = 19.050427 Si / 1000 Ang^3
#
#
#
# Elastic Constant Matrix: (Units=GPa)
#
#
# Indices 1 2 3 4 5 6 
#
# 1 30.3887 36.0169 8.2673 0.0000 0.0000 0.0000
# 2 36.0169 144.6773 24.7674 0.0000 0.0000 0.0000
# 3 8.2673 24.7674 20.4093 0.0000 0.0000 0.0000
# 4 0.0000 0.0000 0.0000 31.4345 0.0000 0.0000
# 5 0.0000 0.0000 0.0000 0.0000 19.3237 0.0000
# 6 0.0000 0.0000 0.0000 0.0000 0.0000 19.5126
#
#
#
# Elastic Compliance Matrix: (Units=1/GPa)
#
#
# Indices 1 2 3 4 5 6 
#
# 1 0.047283 -0.010719 -0.006145 0.000000 0.000000 0.000000
# 2 -0.010719 0.011154 -0.009194 0.000000 0.000000 0.000000
# 3 -0.006145 -0.009194 0.062644 0.000000 0.000000 0.000000
# 4 0.000000 0.000000 0.000000 0.031812 0.000000 0.000000
# 5 0.000000 0.000000 0.000000 0.000000 0.051750 0.000000
# 6 0.000000 0.000000 0.000000 0.000000 0.000000 0.051249
#
#
# Mechanical properties :
#
#
# Convention : Reuss Voigt Hill
#
# Bulk Modulus (GPa) = 14.50024 37.06430 25.78227
# Shear Modulus (GPa) = 15.10587 22.48241 18.79414
#
# Velocity S-wave (km/s) = 2.81898 3.43906 3.14434
# Velocity P-wave (km/s) = 4.26890 5.93866 5.17161
#
# Compressibility (1/GPa) = 0.06896438
#
# Stress axis : x y z
#
# Youngs Moduli (GPa) = 21.14929 89.65125 15.96324
#
# Poissons Ratio (x) = 0.96096 0.09810
# Poissons Ratio (y) = 0.22670 0.14677
# Poissons Ratio (z) = 0.12997 0.82427
#
# Static dielectric constant tensor:
#      x y z
#    x 1.662770 0.000000 0.000000 
#    y 0.000000 1.649080 0.000000 
#    z 0.000000 0.000000 1.642560 
# 
# From -- ./inp_files/9656.got.cif
#   From: 2010.05.17/outbox.cif.g08.bks.cpg/sg55_5_cif.got.tgz:9656.got - 2010.06.03 13:27:54.
