data_PCOD9428959
_publ_section_title
;
Structure prediction by ZEFSAII (Michael W. Deem and Ramdas Pophale) SiO2 
 PCOD9428959
Probable space group: P B A M
;
_chemical_formula_sum "Si O2"
_cell_formula_units_Z 34
_cell_length_a 16.569482
_cell_length_b 5.354773
_cell_length_c 18.020866
_cell_angle_alpha 90.000000
_cell_angle_beta 90.000000
_cell_angle_gamma 90.000000
_cell_volume 1598.916020
_symmetry_space_group_name_H-M "P B A M"
_symmetry_group_IT_number 55
_symmetry_cell_setting 'orthorhombic'
loop_
_space_group_symop_operation_xyz
x,y,z
-x,-y,z
1/2+x,1/2-y,-z
1/2-x,1/2+y,-z
-x,-y,-z
x,y,-z
1/2-x,1/2+y,z
1/2+x,1/2-y,z
loop_
_atom_site_type_symbol
_atom_site_label
_atom_site_fract_x
_atom_site_fract_y
_atom_site_fract_z
Si Si1 0.698372 0.428143 0.725832
Si Si2 0.500000 0.000000 0.241166
Si Si3 0.564755 0.307364 0.623815
Si Si4 0.912223 0.125483 0.145852
Si Si5 0.304663 0.315082 0.000000
Si Si6 0.000000 0.500000 0.500000
O O1 0.759298 0.659982 0.727667
O O2 0.646337 0.437128 0.649852
O O3 0.641822 0.464802 0.797757
O O4 0.470397 0.789733 0.298034
O O5 0.567955 0.881204 0.189519
O O6 0.500000 0.500000 0.590126
O O7 0.564830 0.084231 0.565658
O O8 0.861979 0.171940 0.071939
O O9 0.000000 0.000000 0.131960
O O10 0.246637 0.558685 0.000000
#
# Coordination Sequence:
#
# PCOD9428959 Si02
#       6
#     8   4   8   8   4   2
#     4  12  25  42  71 106 148 189 239 306 377 433
#     4  11  20  40  78 103 140 176 268 305 350 426
#     4  11  22  45  70 109 138 194 250 303 361 439
#     4  12  25  45  74 106 140 200 254 308 360 448
#     4  12  31  51  68 106 158 194 240 308 397 442
#     4  10  26  40  80  96 148 186 256 294 356 432
#
# _framework density 21.264406000000001
#
# number of rings (size 3 to 8) (size 9 to 14) (size 15 to 20)
#    0.000    0.471    4.706    3.529    6.588    0.471 
#    0.000    1.176    0.000    0.000    0.000    0.000 
#    0.000    0.000    0.000    0.000    0.000    0.000 
#
# Total GULP energy -189530.551855 kJ/mol
# GULP energy per Si atom -5574.427996 kJ/mol
# Density = 2.121601 g / cm^3
# Si number density = 21.264406 Si / 1000 Ang^3
#
#
#
# Elastic Constant Matrix: (Units=GPa)
#
#
# Indices 1 2 3 4 5 6 
#
# 1 100.5873 32.5400 61.2498 0.0000 0.0000 0.0000
# 2 32.5400 82.3656 25.0519 0.0000 0.0000 0.0000
# 3 61.2498 25.0519 166.4406 0.0000 0.0000 0.0000
# 4 0.0000 0.0000 0.0000 -80.4637 0.0000 0.0000
# 5 0.0000 0.0000 0.0000 0.0000 6.1901 0.0000
# 6 0.0000 0.0000 0.0000 0.0000 0.0000 59.8635
#
#
#
# Elastic Compliance Matrix: (Units=1/GPa)
#
#
# Indices 1 2 3 4 5 6 
#
# 1 0.014059 -0.004172 -0.004546 0.000000 0.000000 0.000000
# 2 -0.004172 0.013961 -0.000566 0.000000 0.000000 0.000000
# 3 -0.004546 -0.000566 0.007766 0.000000 0.000000 0.000000
# 4 0.000000 0.000000 0.000000 -0.012428 0.000000 0.000000
# 5 0.000000 0.000000 0.000000 0.000000 0.161549 0.000000
# 6 0.000000 0.000000 0.000000 0.000000 0.000000 0.016705
#
#
# Mechanical properties :
#
#
# Convention : Reuss Voigt Hill
#
# Bulk Modulus (GPa) = 58.07461 65.23074 61.65268
# Shear Modulus (GPa) = 22.13176 12.48811 17.30993
#
# Velocity S-wave (km/s) = 3.22963 2.42601 2.85622
# Velocity P-wave (km/s) = 6.42474 6.21208 6.31931
#
# Compressibility (1/GPa) = 0.01721923
#
# Stress axis : x y z
#
# Youngs Moduli (GPa) = 71.12771 71.62652 128.76242
#
# Poissons Ratio (x) = 0.29880 0.58534
# Poissons Ratio (y) = 0.29672 0.07291
# Poissons Ratio (z) = 0.32334 0.04056
#
# Static dielectric constant tensor:
#      x y z
#    x 1.823600 0.000000 0.000000 
#    y 0.000000 1.869210 0.000000 
#    z 0.000000 0.000000 1.734400 
# 
# From -- ./inp_files/21425.got.cif
#   From: 2010.05.17/outbox.cif.g08.bks.cpg/sg55_11_cif.got.tgz:21425.got - 2010.06.03 13:27:54.
