data_PCOD9428562
_publ_section_title
;
Structure prediction by ZEFSAII (Michael W. Deem and Ramdas Pophale) SiO2 
 PCOD9428562
Probable space group: P B A M
;
_chemical_formula_sum "Si O2"
_cell_formula_units_Z 22
_cell_length_a 4.720848
_cell_length_b 10.619572
_cell_length_c 16.533780
_cell_angle_alpha 90.000000
_cell_angle_beta 90.000000
_cell_angle_gamma 90.000000
_cell_volume 828.894362
_symmetry_space_group_name_H-M "P B A M"
_symmetry_group_IT_number 55
_symmetry_cell_setting 'orthorhombic'
loop_
_space_group_symop_operation_xyz
x,y,z
-x,-y,z
1/2+x,1/2-y,-z
1/2-x,1/2+y,-z
-x,-y,-z
x,y,-z
1/2-x,1/2+y,z
1/2+x,1/2-y,z
loop_
_atom_site_type_symbol
_atom_site_label
_atom_site_fract_x
_atom_site_fract_y
_atom_site_fract_z
Si Si1 0.000000 0.000000 0.000000
Si Si2 0.500000 0.500000 0.284978
Si Si3 0.160133 0.335872 0.591053
Si Si4 0.735863 0.835957 0.145525
O O1 0.171981 0.079986 0.070358
O O2 0.718376 0.575163 0.341005
O O3 0.672104 0.405632 0.226723
O O4 0.211523 0.384693 0.500000
O O5 0.335888 0.205114 0.597805
O O6 0.409427 0.795892 0.141840
#
# Coordination Sequence:
#
# PCOD9428562 Si02
#       4
#     2   4   8   8
#     4  10  24  42  70  88 118 162 194 238 300 350
#     4  11  23  39  63  88 120 162 195 241 303 351
#     4  10  22  39  59  86 119 156 202 249 291 346
#     4  11  25  42  62  92 123 153 197 245 291 353
#
# _framework density 26.541376
#
# number of rings (size 3 to 8) (size 9 to 14) (size 15 to 20)
#    0.000    1.455    0.000    3.818    0.000   11.636 
#    0.000    5.455    0.000    0.000    0.000    0.000 
#    0.000    0.000    0.000    0.000    0.000    0.000 
#
# Total GULP energy -123184.223413 kJ/mol
# GULP energy per Si atom -5599.282882 kJ/mol
# Density = 2.648097 g / cm^3
# Si number density = 26.541376 Si / 1000 Ang^3
#
#
#
# Elastic Constant Matrix: (Units=GPa)
#
#
# Indices 1 2 3 4 5 6 
#
# 1 94.2134 15.1995 21.8557 0.0000 0.0000 0.0000
# 2 15.1995 90.7115 65.8271 0.0000 0.0000 0.0000
# 3 21.8557 65.8271 228.7597 0.0000 0.0000 0.0000
# 4 0.0000 0.0000 0.0000 44.1095 0.0000 0.0000
# 5 0.0000 0.0000 0.0000 0.0000 -43.1350 0.0000
# 6 0.0000 0.0000 0.0000 0.0000 0.0000 50.7270
#
#
#
# Elastic Compliance Matrix: (Units=1/GPa)
#
#
# Indices 1 2 3 4 5 6 
#
# 1 0.010987 -0.001364 -0.000657 0.000000 0.000000 0.000000
# 2 -0.001364 0.014103 -0.003928 0.000000 0.000000 0.000000
# 3 -0.000657 -0.003928 0.005564 0.000000 0.000000 0.000000
# 4 0.000000 0.000000 0.000000 0.022671 0.000000 0.000000
# 5 0.000000 0.000000 0.000000 0.000000 -0.023183 0.000000
# 6 0.000000 0.000000 0.000000 0.000000 0.000000 0.019713
#
#
# Mechanical properties :
#
#
# Convention : Reuss Voigt Hill
#
# Bulk Modulus (GPa) = 53.31656 68.82770 61.07213
# Shear Modulus (GPa) = 73.52362 31.06045 52.29203
#
# Velocity S-wave (km/s) = 5.26893 3.42463 4.44352
# Velocity P-wave (km/s) = 7.55958 6.45182 7.02756
#
# Compressibility (1/GPa) = 0.01875590
#
# Stress axis : x y z
#
# Youngs Moduli (GPa) = 91.01907 70.90746 179.71208
#
# Poissons Ratio (x) = 0.09672 0.11810
# Poissons Ratio (y) = 0.12415 0.70589
# Poissons Ratio (z) = 0.05981 0.27852
#
# Static dielectric constant tensor:
#      x y z
#    x 1.997190 0.000000 0.000000 
#    y 0.000000 2.110800 0.000000 
#    z 0.000000 0.000000 1.968710 
# 
# From -- ./inp_files/16304.got.cif
#   From: 2010.05.17/outbox.cif.g08.bks.cpg/sg55_9_cif.got.tgz:16304.got - 2010.06.03 13:27:54.
