data_PCOD9428593
_publ_section_title
;
Structure prediction by ZEFSAII (Michael W. Deem and Ramdas Pophale) SiO2 
 PCOD9428593
Probable space group: P B A M
;
_chemical_formula_sum "Si O2"
_cell_formula_units_Z 34
_cell_length_a 10.395800
_cell_length_b 18.975054
_cell_length_c 7.275458
_cell_angle_alpha 90.000000
_cell_angle_beta 90.000000
_cell_angle_gamma 90.000000
_cell_volume 1435.163148
_symmetry_space_group_name_H-M "P B A M"
_symmetry_group_IT_number 55
_symmetry_cell_setting 'orthorhombic'
loop_
_space_group_symop_operation_xyz
x,y,z
-x,-y,z
1/2+x,1/2-y,-z
1/2-x,1/2+y,-z
-x,-y,-z
x,y,-z
1/2-x,1/2+y,z
1/2+x,1/2-y,z
loop_
_atom_site_type_symbol
_atom_site_label
_atom_site_fract_x
_atom_site_fract_y
_atom_site_fract_z
Si Si1 0.954787 0.078624 0.275337
Si Si2 0.811426 0.649687 0.276079
Si Si3 0.587975 0.909238 0.716915
Si Si4 0.672828 0.311049 0.278726
Si Si5 0.000000 0.500000 0.000000
O O1 0.955424 0.077272 0.500000
O O2 0.813300 0.105378 0.218785
O O3 0.055717 0.139374 0.216632
O O4 0.000000 0.000000 0.218557
O O5 0.810863 0.649133 0.500000
O O6 0.949585 0.619667 0.219899
O O7 0.812433 0.731063 0.214542
O O8 0.589276 0.924065 0.500000
O O9 0.696019 0.852347 0.756853
O O10 0.603878 0.977198 0.838980
O O11 0.657723 0.306187 0.500000
#
# Coordination Sequence:
#
# PCOD9428593 Si02
#       5
#     8   8   8   8   2
#     4   9  17  27  46  81 119 148 188 244 296 350
#     4   9  17  32  57  88 118 153 198 246 302 367
#     4  10  22  39  63  88 119 160 203 248 300 362
#     4   9  17  32  57  88 118 153 198 246 302 367
#     4  12  26  40  56  88 124 160 208 254 292 354
#
# _framework density 23.690687
#
# number of rings (size 3 to 8) (size 9 to 14) (size 15 to 20)
#    0.000    2.588    0.000    1.765    3.294    5.647 
#    0.000    1.176    0.000    2.824    0.000    0.000 
#    0.000    0.000    0.000    0.000    0.000    0.000 
#
# Total GULP energy -189525.984054 kJ/mol
# GULP energy per Si atom -5574.293649 kJ/mol
# Density = 2.363677 g / cm^3
# Si number density = 23.690687 Si / 1000 Ang^3
#
#
#
# Elastic Constant Matrix: (Units=GPa)
#
#
# Indices 1 2 3 4 5 6 
#
# 1 197.0559 78.4778 14.4761 0.0000 0.0000 0.0000
# 2 78.4778 124.5505 8.0732 0.0000 0.0000 0.0000
# 3 14.4761 8.0732 100.4766 0.0000 0.0000 0.0000
# 4 0.0000 0.0000 0.0000 -1.2971 0.0000 0.0000
# 5 0.0000 0.0000 0.0000 0.0000 -37.4982 0.0000
# 6 0.0000 0.0000 0.0000 0.0000 0.0000 42.6388
#
#
#
# Elastic Compliance Matrix: (Units=1/GPa)
#
#
# Indices 1 2 3 4 5 6 
#
# 1 0.006815 -0.004253 -0.000640 0.000000 0.000000 0.000000
# 2 -0.004253 0.010725 -0.000249 0.000000 0.000000 0.000000
# 3 -0.000640 -0.000249 0.010065 0.000000 0.000000 0.000000
# 4 0.000000 0.000000 0.000000 -0.770946 0.000000 0.000000
# 5 0.000000 0.000000 0.000000 0.000000 -0.026668 0.000000
# 6 0.000000 0.000000 0.000000 0.000000 0.000000 0.023453
#
#
# Mechanical properties :
#
#
# Convention : Reuss Voigt Hill
#
# Bulk Modulus (GPa) = 57.73394 69.34857 63.54126
# Shear Modulus (GPa) = -6.84464 22.17242 7.66389
#
# Velocity S-wave (km/s) = -1.70160 3.06259 1.80056
# Velocity P-wave (km/s) = 4.53456 6.46854 5.58588
#
# Compressibility (1/GPa) = 0.01732083
#
# Stress axis : x y z
#
# Youngs Moduli (GPa) = 146.72601 93.24302 99.35609
#
# Poissons Ratio (x) = 0.39655 0.06361
# Poissons Ratio (y) = 0.62400 0.02474
# Poissons Ratio (z) = 0.09394 0.02322
#
# Static dielectric constant tensor:
#      x y z
#    x 1.860650 0.000000 0.000000 
#    y 0.000000 2.582930 0.000000 
#    z 0.000000 0.000000 1.946920 
# 
# From -- ./inp_files/2152.got.cif
#   From: 2010.05.17/outbox.cif.g08.bks.cpg/sg55_2_cif.got.tgz:2152.got - 2010.06.03 13:27:54.
