data_PCOD9428976
_publ_section_title
;
Structure prediction by ZEFSAII (Michael W. Deem and Ramdas Pophale) SiO2 
 PCOD9428976
Probable space group: P B A M
;
_chemical_formula_sum "Si O2"
_cell_formula_units_Z 24
_cell_length_a 5.018087
_cell_length_b 22.458746
_cell_length_c 10.674734
_cell_angle_alpha 90.000000
_cell_angle_beta 90.000000
_cell_angle_gamma 90.000000
_cell_volume 1203.041896
_symmetry_space_group_name_H-M "P B A M"
_symmetry_group_IT_number 55
_symmetry_cell_setting 'orthorhombic'
loop_
_space_group_symop_operation_xyz
x,y,z
-x,-y,z
1/2+x,1/2-y,-z
1/2-x,1/2+y,-z
-x,-y,-z
x,y,-z
1/2-x,1/2+y,z
1/2+x,1/2-y,z
loop_
_atom_site_type_symbol
_atom_site_label
_atom_site_fract_x
_atom_site_fract_y
_atom_site_fract_z
Si Si1 0.087582 0.378919 0.221066
Si Si2 0.747581 0.540840 0.000000
Si Si3 0.951932 0.287996 0.000000
Si Si4 0.561829 0.429464 0.353059
O O1 0.813938 0.407131 0.272147
O O2 0.238123 0.420034 0.121640
O O3 0.310614 0.384526 0.329876
O O4 0.016468 0.323203 0.129989
O O5 0.500000 0.500000 0.000000
O O6 0.000000 0.500000 0.000000
O O7 0.643917 0.269346 0.000000
O O8 0.500000 0.500000 0.326575
O O9 0.633208 0.427248 0.500000
#
# Coordination Sequence:
#
# PCOD9428976 Si02
#       4
#     8   4   4   8
#     4  11  22  37  59  86 115 154 198 240 292 351
#     4  11  20  31  52  82 116 144 178 234 289 346
#     4  11  24  43  65  86 111 150 200 260 312 340
#     4  11  22  37  59  89 127 163 190 223 278 357
#
# _framework density 19.949428999999999
#
# number of rings (size 3 to 8) (size 9 to 14) (size 15 to 20)
#    0.000    1.000    0.000    9.000    0.000    8.000 
#    0.000    2.500    0.000   20.000    0.000    0.000 
#    0.000    0.000    0.000    0.000    0.000    0.000 
#
# Total GULP energy -133784.689229 kJ/mol
# GULP energy per Si atom -5574.362051 kJ/mol
# Density = 1.990402 g / cm^3
# Si number density = 19.949429 Si / 1000 Ang^3
#
#
#
# Elastic Constant Matrix: (Units=GPa)
#
#
# Indices 1 2 3 4 5 6 
#
# 1 124.2131 13.8499 21.8823 0.0000 0.0000 0.0000
# 2 13.8499 46.1705 33.0094 0.0000 0.0000 0.0000
# 3 21.8823 33.0094 99.8589 0.0000 0.0000 0.0000
# 4 0.0000 0.0000 0.0000 31.8934 0.0000 0.0000
# 5 0.0000 0.0000 0.0000 0.0000 20.8580 0.0000
# 6 0.0000 0.0000 0.0000 0.0000 0.0000 35.6119
#
#
#
# Elastic Compliance Matrix: (Units=1/GPa)
#
#
# Indices 1 2 3 4 5 6 
#
# 1 0.008462 -0.001588 -0.001329 0.000000 0.000000 0.000000
# 2 -0.001588 0.028660 -0.009126 0.000000 0.000000 0.000000
# 3 -0.001329 -0.009126 0.013322 0.000000 0.000000 0.000000
# 4 0.000000 0.000000 0.000000 0.031354 0.000000 0.000000
# 5 0.000000 0.000000 0.000000 0.000000 0.047943 0.000000
# 6 0.000000 0.000000 0.000000 0.000000 0.000000 0.028081
#
#
# Mechanical properties :
#
#
# Convention : Reuss Voigt Hill
#
# Bulk Modulus (GPa) = 37.93990 45.30285 41.62138
# Shear Modulus (GPa) = 26.22004 31.10605 28.66304
#
# Velocity S-wave (km/s) = 3.62930 3.95301 3.79461
# Velocity P-wave (km/s) = 6.05159 6.60252 6.33304
#
# Compressibility (1/GPa) = 0.02635747
#
# Stress axis : x y z
#
# Youngs Moduli (GPa) = 118.17641 34.89229 75.06345
#
# Poissons Ratio (x) = 0.05541 0.09979
# Poissons Ratio (y) = 0.18765 0.68501
# Poissons Ratio (z) = 0.15710 0.31842
#
# Static dielectric constant tensor:
#      x y z
#    x 1.695830 0.000000 0.000000 
#    y 0.000000 1.721760 0.000000 
#    z 0.000000 0.000000 1.410490 
# 
# From -- ./inp_files/11072.got.cif
#   From: 2010.05.17/outbox.cif.g08.bks.cpg/sg55_6_cif.got.tgz:11072.got - 2010.06.03 13:27:54.
