data_PCOD9428905
_publ_section_title
;
Structure prediction by ZEFSAII (Michael W. Deem and Ramdas Pophale) SiO2 
 PCOD9428905
Probable space group: P B A M
;
_chemical_formula_sum "Si O2"
_cell_formula_units_Z 40
_cell_length_a 8.880376
_cell_length_b 10.463561
_cell_length_c 19.093863
_cell_angle_alpha 90.000000
_cell_angle_beta 90.000000
_cell_angle_gamma 90.000000
_cell_volume 1774.208547
_symmetry_space_group_name_H-M "P B A M"
_symmetry_group_IT_number 55
_symmetry_cell_setting 'orthorhombic'
loop_
_space_group_symop_operation_xyz
x,y,z
-x,-y,z
1/2+x,1/2-y,-z
1/2-x,1/2+y,-z
-x,-y,-z
x,y,-z
1/2-x,1/2+y,z
1/2+x,1/2-y,z
loop_
_atom_site_type_symbol
_atom_site_label
_atom_site_fract_x
_atom_site_fract_y
_atom_site_fract_z
Si Si1 0.301798 0.587620 0.076613
Si Si2 0.217777 0.901674 0.798251
Si Si3 0.386499 0.685560 0.583213
Si Si4 0.294096 0.423254 0.363504
Si Si5 0.489516 0.197984 0.135333
O O1 0.335869 0.498025 0.141981
O O2 0.406351 0.710910 0.087613
O O3 0.126810 0.623652 0.086384
O O4 0.325540 0.529723 0.000000
O O5 0.199038 0.946626 0.719555
O O6 0.119616 0.775647 0.812311
O O7 0.391428 0.876642 0.817258
O O8 0.391561 0.703724 0.500000
O O9 0.330314 0.816442 0.618547
O O10 0.549692 0.640979 0.610712
O O11 0.281297 0.562182 0.600454
#
# Coordination Sequence:
#
# PCOD9428905 Si02
#       5
#     8   8   8   8   8
#     4  11  24  42  65  93 130 175 226 283 341 400
#     4  11  24  41  64  94 130 175 221 277 342 405
#     4  11  24  46  72 103 139 183 229 279 345 414
#     4  11  25  42  72 101 143 180 228 286 342 411
#     4  10  24  41  64  89 131 166 233 271 344 397
#
# _framework density 22.545262999999998
#
# number of rings (size 3 to 8) (size 9 to 14) (size 15 to 20)
#    0.000    1.200    0.000    5.400   11.200    7.200 
#    3.600    2.000    0.000    0.000    0.000    0.000 
#    0.000    0.000    0.000    0.000    0.000    0.000 
#
# Total GULP energy -223799.610194 kJ/mol
# GULP energy per Si atom -5594.990255 kJ/mol
# Density = 2.249395 g / cm^3
# Si number density = 22.545263 Si / 1000 Ang^3
#
#
#
# Elastic Constant Matrix: (Units=GPa)
#
#
# Indices 1 2 3 4 5 6 
#
# 1 101.5810 11.8197 8.9593 0.0000 0.0000 0.0000
# 2 11.8197 38.6180 18.2814 0.0000 0.0000 0.0000
# 3 8.9593 18.2814 178.8619 0.0000 0.0000 0.0000
# 4 0.0000 0.0000 0.0000 29.3353 0.0000 0.0000
# 5 0.0000 0.0000 0.0000 0.0000 24.8410 0.0000
# 6 0.0000 0.0000 0.0000 0.0000 0.0000 42.0756
#
#
#
# Elastic Compliance Matrix: (Units=1/GPa)
#
#
# Indices 1 2 3 4 5 6 
#
# 1 0.010215 -0.003031 -0.000202 0.000000 0.000000 0.000000
# 2 -0.003031 0.028111 -0.002721 0.000000 0.000000 0.000000
# 3 -0.000202 -0.002721 0.005879 0.000000 0.000000 0.000000
# 4 0.000000 0.000000 0.000000 0.034089 0.000000 0.000000
# 5 0.000000 0.000000 0.000000 0.000000 0.040256 0.000000
# 6 0.000000 0.000000 0.000000 0.000000 0.000000 0.023767
#
#
# Mechanical properties :
#
#
# Convention : Reuss Voigt Hill
#
# Bulk Modulus (GPa) = 30.96323 44.13130 37.54727
# Shear Modulus (GPa) = 30.30494 37.91708 34.11101
#
# Velocity S-wave (km/s) = 3.67029 4.10545 3.89395
# Velocity P-wave (km/s) = 5.63249 6.48768 6.07515
#
# Compressibility (1/GPa) = 0.03229637
#
# Stress axis : x y z
#
# Youngs Moduli (GPa) = 97.89696 35.57386 170.09212
#
# Poissons Ratio (x) = 0.10782 0.03434
# Poissons Ratio (y) = 0.29671 0.46288
# Poissons Ratio (z) = 0.01976 0.09681
#
# Static dielectric constant tensor:
#      x y z
#    x 1.848850 0.000000 0.000000 
#    y 0.000000 1.930730 0.000000 
#    z 0.000000 0.000000 1.787960 
# 
# From -- ./inp_files/20597.got.cif
#   From: 2010.05.17/outbox.cif.g08.bks.cpg/sg55_11_cif.got.tgz:20597.got - 2010.06.03 13:27:54.
