data_PCOD9428715
_publ_section_title
;
Structure prediction by ZEFSAII (Michael W. Deem and Ramdas Pophale) SiO2 
 PCOD9428715
Probable space group: P B A M
;
_chemical_formula_sum "Si O2"
_cell_formula_units_Z 32
_cell_length_a 6.944541
_cell_length_b 14.151625
_cell_length_c 13.347696
_cell_angle_alpha 90.000000
_cell_angle_beta 90.000000
_cell_angle_gamma 90.000000
_cell_volume 1311.765380
_symmetry_space_group_name_H-M "P B A M"
_symmetry_group_IT_number 55
_symmetry_cell_setting 'orthorhombic'
loop_
_space_group_symop_operation_xyz
x,y,z
-x,-y,z
1/2+x,1/2-y,-z
1/2-x,1/2+y,-z
-x,-y,-z
x,y,-z
1/2-x,1/2+y,z
1/2+x,1/2-y,z
loop_
_atom_site_type_symbol
_atom_site_label
_atom_site_fract_x
_atom_site_fract_y
_atom_site_fract_z
Si Si1 0.777817 0.322909 0.699742
Si Si2 0.655714 0.118595 0.386782
Si Si3 0.477081 0.885195 0.112897
Si Si4 0.103080 0.912629 0.211849
O O1 0.731895 0.222649 0.647254
O O2 0.569755 0.359414 0.733490
O O3 0.925253 0.376887 0.625593
O O4 0.898828 0.332092 0.803410
O O5 0.710284 0.097496 0.500000
O O6 0.757894 0.054266 0.303318
O O7 0.253110 0.864440 0.137432
O O8 0.500000 0.000000 0.122124
O O9 0.528542 0.859170 0.000000
O O10 0.000000 0.000000 0.158702
#
# Coordination Sequence:
#
# PCOD9428715 Si02
#       4
#     8   8   8   8
#     4  11  22  40  64  92 129 166 215 264 315 383
#     4  11  24  41  66  92 125 173 216 263 327 388
#     4  10  22  41  67  97 128 169 216 263 325 388
#     4  11  23  41  66  96 130 168 215 269 317 375
#
# _framework density 24.394606
#
# number of rings (size 3 to 8) (size 9 to 14) (size 15 to 20)
#    0.000    1.250    5.000    0.750    0.000    3.000 
#    0.000    6.250    0.000    0.000    0.000    0.000 
#    0.000    0.000    0.000    0.000    0.000    0.000 
#
# Total GULP energy -178715.144151 kJ/mol
# GULP energy per Si atom -5584.848255 kJ/mol
# Density = 2.433908 g / cm^3
# Si number density = 24.394606 Si / 1000 Ang^3
#
#
#
# Elastic Constant Matrix: (Units=GPa)
#
#
# Indices 1 2 3 4 5 6 
#
# 1 138.5084 10.1725 -6.6947 0.0000 0.0000 0.0000
# 2 10.1725 42.2823 -13.0576 0.0000 0.0000 0.0000
# 3 -6.6947 -13.0576 139.2980 0.0000 0.0000 0.0000
# 4 0.0000 0.0000 0.0000 22.0677 0.0000 0.0000
# 5 0.0000 0.0000 0.0000 0.0000 16.4509 0.0000
# 6 0.0000 0.0000 0.0000 0.0000 0.0000 47.1555
#
#
#
# Elastic Compliance Matrix: (Units=1/GPa)
#
#
# Indices 1 2 3 4 5 6 
#
# 1 0.007355 -0.001710 0.000193 0.000000 0.000000 0.000000
# 2 -0.001710 0.024753 0.002238 0.000000 0.000000 0.000000
# 3 0.000193 0.002238 0.007398 0.000000 0.000000 0.000000
# 4 0.000000 0.000000 0.000000 0.045315 0.000000 0.000000
# 5 0.000000 0.000000 0.000000 0.000000 0.060787 0.000000
# 6 0.000000 0.000000 0.000000 0.000000 0.000000 0.021206
#
#
# Mechanical properties :
#
#
# Convention : Reuss Voigt Hill
#
# Bulk Modulus (GPa) = 24.42071 33.43657 28.92864
# Shear Modulus (GPa) = 27.92972 39.11271 33.52122
#
# Velocity S-wave (km/s) = 3.38733 4.00851 3.71094
# Velocity P-wave (km/s) = 5.03300 5.92963 5.49962
#
# Compressibility (1/GPa) = 0.04094885
#
# Stress axis : x y z
#
# Youngs Moduli (GPa) = 135.96767 40.39904 135.17276
#
# Poissons Ratio (x) = 0.06907 -0.02611
# Poissons Ratio (y) = 0.23247 -0.30254
# Poissons Ratio (z) = -0.02627 -0.09042
#
# Static dielectric constant tensor:
#      x y z
#    x 1.933260 0.000000 0.000000 
#    y 0.000000 2.121010 0.000000 
#    z 0.000000 0.000000 1.850480 
# 
# From -- ./inp_files/11144.got.cif
#   From: 2010.05.17/outbox.cif.g08.bks.cpg/sg55_6_cif.got.tgz:11144.got - 2010.06.03 13:27:54.
