data_PCOD9428537
_publ_section_title
;
Structure prediction by ZEFSAII (Michael W. Deem and Ramdas Pophale) SiO2 
 PCOD9428537
Probable space group: P B A M
;
_chemical_formula_sum "Si O2"
_cell_formula_units_Z 24
_cell_length_a 16.725960
_cell_length_b 5.348497
_cell_length_c 12.935926
_cell_angle_alpha 90.000000
_cell_angle_beta 90.000000
_cell_angle_gamma 90.000000
_cell_volume 1157.231730
_symmetry_space_group_name_H-M "P B A M"
_symmetry_group_IT_number 55
_symmetry_cell_setting 'orthorhombic'
loop_
_space_group_symop_operation_xyz
x,y,z
-x,-y,z
1/2+x,1/2-y,-z
1/2-x,1/2+y,-z
-x,-y,-z
x,y,-z
1/2-x,1/2+y,z
1/2+x,1/2-y,z
loop_
_atom_site_type_symbol
_atom_site_label
_atom_site_fract_x
_atom_site_fract_y
_atom_site_fract_z
Si Si1 0.095628 0.496734 0.320068
Si Si2 0.197011 0.463850 0.884859
Si Si3 0.695977 0.771021 0.500000
Si Si4 0.946547 0.760934 0.500000
O O1 0.138374 0.482616 0.211493
O O2 0.140023 0.695832 0.396757
O O3 0.102762 0.256287 0.395099
O O4 0.000000 0.500000 0.299558
O O5 0.255900 0.701964 0.878005
O O6 0.159426 0.474157 0.000000
O O7 0.745614 0.514567 0.500000
O O8 0.000000 0.500000 0.500000
O O9 0.000000 0.000000 0.500000
#
# Coordination Sequence:
#
# PCOD9428537 Si02
#       4
#     8   8   4   4
#     4  10  22  38  61  89 119 152 196 247 295 344
#     4  10  22  41  62  85 117 157 199 242 293 354
#     4  11  23  39  59  84 118 158 196 233 289 359
#     4   9  20  35  52  80 116 148 177 225 287 339
#
# _framework density 20.739146999999999
#
# number of rings (size 3 to 8) (size 9 to 14) (size 15 to 20)
#    0.000    2.000    0.000    3.500    0.000   16.667 
#    0.000    0.000    0.000    7.000    0.000    0.000 
#    0.000    0.000    0.000    0.000    0.000    0.000 
#
# Total GULP energy -133663.645513 kJ/mol
# GULP energy per Si atom -5569.318563 kJ/mol
# Density = 2.069194 g / cm^3
# Si number density = 20.739147 Si / 1000 Ang^3
#
#
#
# Elastic Constant Matrix: (Units=GPa)
#
#
# Indices 1 2 3 4 5 6 
#
# 1 105.2584 34.2349 82.5916 0.0000 0.0000 0.0000
# 2 34.2349 122.8947 8.4864 0.0000 0.0000 0.0000
# 3 82.5916 8.4864 232.1003 0.0000 0.0000 0.0000
# 4 0.0000 0.0000 0.0000 2.2206 0.0000 0.0000
# 5 0.0000 0.0000 0.0000 0.0000 49.3311 0.0000
# 6 0.0000 0.0000 0.0000 0.0000 0.0000 43.2946
#
#
#
# Elastic Compliance Matrix: (Units=1/GPa)
#
#
# Indices 1 2 3 4 5 6 
#
# 1 0.014723 -0.003749 -0.005102 0.000000 0.000000 0.000000
# 2 -0.003749 0.009112 0.001001 0.000000 0.000000 0.000000
# 3 -0.005102 0.001001 0.006087 0.000000 0.000000 0.000000
# 4 0.000000 0.000000 0.000000 0.450321 0.000000 0.000000
# 5 0.000000 0.000000 0.000000 0.000000 0.020271 0.000000
# 6 0.000000 0.000000 0.000000 0.000000 0.000000 0.023098
#
#
# Mechanical properties :
#
#
# Convention : Reuss Voigt Hill
#
# Bulk Modulus (GPa) = 70.31171 78.98657 74.64914
# Shear Modulus (GPa) = 9.19027 41.29863 25.24445
#
# Velocity S-wave (km/s) = 2.10736 4.46728 3.49268
# Velocity P-wave (km/s) = 6.31647 8.04843 7.23447
#
# Compressibility (1/GPa) = 0.01422238
#
# Stress axis : x y z
#
# Youngs Moduli (GPa) = 67.92000 109.74145 164.27279
#
# Poissons Ratio (x) = 0.41144 0.83813
# Poissons Ratio (y) = 0.25464 -0.16443
# Poissons Ratio (z) = 0.34653 -0.10984
#
# Static dielectric constant tensor:
#      x y z
#    x 1.876580 0.000000 0.000000 
#    y 0.000000 1.810340 0.000000 
#    z 0.000000 0.000000 1.782040 
# 
# From -- ./inp_files/11036.got.cif
#   From: 2010.05.17/outbox.cif.g08.bks.cpg/sg55_6_cif.got.tgz:11036.got - 2010.06.03 13:27:54.
