data_PCOD9428946
_publ_section_title
;
Structure prediction by ZEFSAII (Michael W. Deem and Ramdas Pophale) SiO2 
 PCOD9428946
Probable space group: P B A M
;
_chemical_formula_sum "Si O2"
_cell_formula_units_Z 58
_cell_length_a 7.118034
_cell_length_b 18.569977
_cell_length_c 18.646113
_cell_angle_alpha 90.000000
_cell_angle_beta 90.000000
_cell_angle_gamma 90.000000
_cell_volume 2464.675431
_symmetry_space_group_name_H-M "P B A M"
_symmetry_group_IT_number 55
_symmetry_cell_setting 'orthorhombic'
loop_
_space_group_symop_operation_xyz
x,y,z
-x,-y,z
1/2+x,1/2-y,-z
1/2-x,1/2+y,-z
-x,-y,-z
x,y,-z
1/2-x,1/2+y,z
1/2+x,1/2-y,z
loop_
_atom_site_type_symbol
_atom_site_label
_atom_site_fract_x
_atom_site_fract_y
_atom_site_fract_z
Si Si1 0.762363 0.434243 0.625067
Si Si2 0.572885 0.183884 0.364535
Si Si3 0.724132 0.639824 0.218336
Si Si4 0.037762 0.836623 0.580726
Si Si5 0.115356 0.158157 0.137801
Si Si6 0.500000 0.000000 0.500000
Si Si7 0.240211 0.302794 0.920659
Si Si8 0.211738 0.520429 0.209925
O O1 0.550140 0.408584 0.613080
O O2 0.790715 0.457380 0.706640
O O3 0.890485 0.362405 0.617506
O O4 0.841033 0.486185 0.564009
O O5 0.662575 0.162025 0.288133
O O6 0.523529 0.267160 0.373591
O O7 0.738460 0.162952 0.418660
O O8 0.520104 0.677855 0.206860
O O9 0.849092 0.658960 0.148396
O O10 0.680030 0.555464 0.211509
O O11 0.965538 0.828035 0.500000
O O12 0.249204 0.220365 0.107269
O O13 0.212712 0.084126 0.159557
O O14 0.945063 0.159322 0.080180
O O15 0.157621 0.306669 0.000000
O O16 0.000000 0.500000 0.188978
#
# Coordination Sequence:
#
# PCOD9428946 Si02
#       8
#     8   8   8   8   8   2   8   8
#     4  12  26  47  72  97 145 189 251 302 377 443
#     4  12  25  43  70 106 143 186 239 307 369 444
#     4  10  25  44  72 108 140 185 239 298 357 437
#     4  12  27  42  68 105 145 186 243 312 382 440
#     4  10  25  40  77 104 147 187 237 298 360 431
#     4  12  24  48  70  92 132 206 238 298 374 452
#     4  10  24  46  73 109 148 188 235 292 366 439
#     4  12  24  47  70 106 141 190 244 304 361 439
#
# _framework density 23.532509000000001
#
# number of rings (size 3 to 8) (size 9 to 14) (size 15 to 20)
#    0.828    0.000    4.138    2.069    7.724    0.000 
#    0.000    3.448    0.000    2.069    0.000    0.000 
#    0.000    0.000    0.000    0.000    0.000    0.000 
#
# Total GULP energy -323302.716197 kJ/mol
# GULP energy per Si atom -5574.184762 kJ/mol
# Density = 2.347895 g / cm^3
# Si number density = 23.532509 Si / 1000 Ang^3
#
#
#
# Elastic Constant Matrix: (Units=GPa)
#
#
# Indices 1 2 3 4 5 6 
#
# 1 57.4714 -3.4567 6.4657 0.0000 0.0000 0.0000
# 2 -3.4567 75.1322 38.6836 0.0000 0.0000 0.0000
# 3 6.4657 38.6836 118.3873 0.0000 0.0000 0.0000
# 4 0.0000 0.0000 0.0000 61.3476 0.0000 0.0000
# 5 0.0000 0.0000 0.0000 0.0000 23.0915 0.0000
# 6 0.0000 0.0000 0.0000 0.0000 0.0000 37.4639
#
#
#
# Elastic Compliance Matrix: (Units=1/GPa)
#
#
# Indices 1 2 3 4 5 6 
#
# 1 0.017661 0.001574 -0.001479 0.000000 0.000000 0.000000
# 2 0.001574 0.016142 -0.005361 0.000000 0.000000 0.000000
# 3 -0.001479 -0.005361 0.010279 0.000000 0.000000 0.000000
# 4 0.000000 0.000000 0.000000 0.016301 0.000000 0.000000
# 5 0.000000 0.000000 0.000000 0.000000 0.043306 0.000000
# 6 0.000000 0.000000 0.000000 0.000000 0.000000 0.026692
#
#
# Mechanical properties :
#
#
# Convention : Reuss Voigt Hill
#
# Bulk Modulus (GPa) = 29.80480 37.15292 33.47886
# Shear Modulus (GPa) = 32.87397 38.33382 35.60390
#
# Velocity S-wave (km/s) = 3.74165 4.04043 3.89391
# Velocity P-wave (km/s) = 5.59995 6.13099 5.87147
#
# Compressibility (1/GPa) = 0.03355164
#
# Stress axis : x y z
#
# Youngs Moduli (GPa) = 56.62194 61.94914 97.28390
#
# Poissons Ratio (x) = -0.09751 0.14387
# Poissons Ratio (y) = -0.08912 0.52149
# Poissons Ratio (z) = 0.08374 0.33208
#
# Static dielectric constant tensor:
#      x y z
#    x 1.957440 0.000000 0.000000 
#    y 0.000000 1.931100 0.000000 
#    z 0.000000 0.000000 1.872970 
# 
# From -- ./inp_files/21002.got.cif
#   From: 2010.05.17/outbox.cif.g08.bks.cpg/sg55_11_cif.got.tgz:21002.got - 2010.06.03 13:27:54.
