data_PCOD9428938
_publ_section_title
;
Structure prediction by ZEFSAII (Michael W. Deem and Ramdas Pophale) SiO2 
 PCOD9428938
Probable space group: P B A M
;
_chemical_formula_sum "Si O2"
_cell_formula_units_Z 32
_cell_length_a 10.303476
_cell_length_b 9.039891
_cell_length_c 13.766118
_cell_angle_alpha 90.000000
_cell_angle_beta 90.000000
_cell_angle_gamma 90.000000
_cell_volume 1282.207892
_symmetry_space_group_name_H-M "P B A M"
_symmetry_group_IT_number 55
_symmetry_cell_setting 'orthorhombic'
loop_
_space_group_symop_operation_xyz
x,y,z
-x,-y,z
1/2+x,1/2-y,-z
1/2-x,1/2+y,-z
-x,-y,-z
x,y,-z
1/2-x,1/2+y,z
1/2+x,1/2-y,z
loop_
_atom_site_type_symbol
_atom_site_label
_atom_site_fract_x
_atom_site_fract_y
_atom_site_fract_z
Si Si1 0.634371 0.080569 0.800054
Si Si2 0.670140 0.904130 0.612268
Si Si3 0.467327 0.659520 0.386144
Si Si4 0.629070 0.402005 0.887838
O O1 0.665278 0.036526 0.688551
O O2 0.750018 0.004608 0.859915
O O3 0.500000 0.000000 0.827136
O O4 0.627241 0.254566 0.822253
O O5 0.645212 0.950559 0.500000
O O6 0.812386 0.833022 0.613791
O O7 0.562216 0.788081 0.649202
O O8 0.500000 0.500000 0.341560
O O9 0.507211 0.653208 0.500000
O O10 0.500000 0.500000 0.878571
O O11 0.639688 0.353396 0.000000
#
# Coordination Sequence:
#
# PCOD9428938 Si02
#       4
#     8   8   8   8
#     4  12  28  46  79 123 159 211 263 330 403 484
#     4  10  24  44  71 111 163 219 274 335 395 469
#     4   9  20  40  68 100 147 214 278 334 394 454
#     4  11  27  55  87 118 157 203 264 339 412 485
#
# _framework density 24.956952999999999
#
# number of rings (size 3 to 8) (size 9 to 14) (size 15 to 20)
#    0.000    1.500    0.000    2.250    7.000    5.500 
#    0.000    0.000    0.000    5.250    0.000    0.000 
#    0.000    0.000    0.000    0.000    0.000    0.000 
#
# Total GULP energy -179486.877343 kJ/mol
# GULP energy per Si atom -5608.964917 kJ/mol
# Density = 2.490015 g / cm^3
# Si number density = 24.956953 Si / 1000 Ang^3
#
#
#
# Elastic Constant Matrix: (Units=GPa)
#
#
# Indices 1 2 3 4 5 6 
#
# 1 149.4965 40.1128 31.6457 0.0000 0.0000 0.0000
# 2 40.1128 167.0172 71.0589 0.0000 0.0000 0.0000
# 3 31.6457 71.0589 159.3985 0.0000 0.0000 0.0000
# 4 0.0000 0.0000 0.0000 -46.7458 0.0000 0.0000
# 5 0.0000 0.0000 0.0000 0.0000 24.0095 0.0000
# 6 0.0000 0.0000 0.0000 0.0000 0.0000 40.2868
#
#
#
# Elastic Compliance Matrix: (Units=1/GPa)
#
#
# Indices 1 2 3 4 5 6 
#
# 1 0.007235 -0.001390 -0.000817 0.000000 0.000000 0.000000
# 2 -0.001390 0.007656 -0.003137 0.000000 0.000000 0.000000
# 3 -0.000817 -0.003137 0.007834 0.000000 0.000000 0.000000
# 4 0.000000 0.000000 0.000000 -0.021392 0.000000 0.000000
# 5 0.000000 0.000000 0.000000 0.000000 0.041650 0.000000
# 6 0.000000 0.000000 0.000000 0.000000 0.000000 0.024822
#
#
# Mechanical properties :
#
#
# Convention : Reuss Voigt Hill
#
# Bulk Modulus (GPa) = 83.07383 84.61634 83.84509
# Shear Modulus (GPa) = 60.60228 25.71642 43.15935
#
# Velocity S-wave (km/s) = 4.93310 3.21352 4.16306
# Velocity P-wave (km/s) = 8.11211 6.90995 7.53504
#
# Compressibility (1/GPa) = 0.01203748
#
# Stress axis : x y z
#
# Youngs Moduli (GPa) = 138.21686 130.61739 127.64612
#
# Poissons Ratio (x) = 0.18158 0.10424
# Poissons Ratio (y) = 0.19215 0.40042
# Poissons Ratio (z) = 0.11287 0.40974
#
# Static dielectric constant tensor:
#      x y z
#    x 1.933110 0.000000 0.000000 
#    y 0.000000 2.029610 0.000000 
#    z 0.000000 0.000000 2.021230 
# 
# From -- ./inp_files/18040.got.cif
#   From: 2010.05.17/outbox.cif.g08.bks.cpg/sg55_10_cif.got.tgz:18040.got - 2010.06.03 13:27:54.
