data_PCOD9428847
_publ_section_title
;
Structure prediction by ZEFSAII (Michael W. Deem and Ramdas Pophale) SiO2 
 PCOD9428847
Probable space group: P B A M
;
_chemical_formula_sum "Si O2"
_cell_formula_units_Z 26
_cell_length_a 4.763523
_cell_length_b 10.702303
_cell_length_c 19.109852
_cell_angle_alpha 90.000000
_cell_angle_beta 90.000000
_cell_angle_gamma 90.000000
_cell_volume 974.232992
_symmetry_space_group_name_H-M "P B A M"
_symmetry_group_IT_number 55
_symmetry_cell_setting 'orthorhombic'
loop_
_space_group_symop_operation_xyz
x,y,z
-x,-y,z
1/2+x,1/2-y,-z
1/2-x,1/2+y,-z
-x,-y,-z
x,y,-z
1/2-x,1/2+y,z
1/2+x,1/2-y,z
loop_
_atom_site_type_symbol
_atom_site_label
_atom_site_fract_x
_atom_site_fract_y
_atom_site_fract_z
Si Si1 0.800154 0.837903 0.882455
Si Si2 0.000000 0.500000 0.000000
Si Si3 0.823812 0.334309 0.274133
Si Si4 0.277430 0.832499 0.500000
Si Si5 0.500000 0.500000 0.617201
O O1 0.616038 0.710517 0.891219
O O2 0.744642 0.883358 0.803524
O O3 0.694868 0.932954 0.939392
O O4 0.646263 0.204932 0.279211
O O5 0.709662 0.422011 0.334068
O O6 0.603292 0.797666 0.500000
O O7 0.178208 0.908612 0.432665
#
# Coordination Sequence:
#
# PCOD9428847 Si02
#       5
#     8   2   8   4   4
#     4  10  24  43  63  94 132 169 218 278 332 389
#     4  12  24  42  72  96 132 184 228 270 340 412
#     4  10  23  42  64  95 133 171 221 281 333 393
#     4  11  26  45  66 102 142 177 224 285 342 404
#     4  11  24  42  74  99 132 186 232 273 344 418
#
# _framework density 26.687663000000001
#
# number of rings (size 3 to 8) (size 9 to 14) (size 15 to 20)
#    0.000    1.538    0.000    2.769    0.000   16.000 
#    0.000    0.000    0.000    0.000    0.000    0.000 
#    0.000    0.000    0.000    0.000    0.000    0.000 
#
# Total GULP energy -145685.388062 kJ/mol
# GULP energy per Si atom -5603.284156 kJ/mol
# Density = 2.662692 g / cm^3
# Si number density = 26.687663 Si / 1000 Ang^3
#
#
#
# Elastic Constant Matrix: (Units=GPa)
#
#
# Indices 1 2 3 4 5 6 
#
# 1 95.9480 18.7040 24.1407 0.0000 0.0000 0.0000
# 2 18.7040 77.1881 71.0092 0.0000 0.0000 0.0000
# 3 24.1407 71.0092 238.2846 0.0000 0.0000 0.0000
# 4 0.0000 0.0000 0.0000 43.9773 0.0000 0.0000
# 5 0.0000 0.0000 0.0000 0.0000 44.7481 0.0000
# 6 0.0000 0.0000 0.0000 0.0000 0.0000 59.7090
#
#
#
# Elastic Compliance Matrix: (Units=1/GPa)
#
#
# Indices 1 2 3 4 5 6 
#
# 1 0.010972 -0.002254 -0.000440 0.000000 0.000000 0.000000
# 2 -0.002254 0.018312 -0.005229 0.000000 0.000000 0.000000
# 3 -0.000440 -0.005229 0.005799 0.000000 0.000000 0.000000
# 4 0.000000 0.000000 0.000000 0.022739 0.000000 0.000000
# 5 0.000000 0.000000 0.000000 0.000000 0.022347 0.000000
# 6 0.000000 0.000000 0.000000 0.000000 0.000000 0.016748
#
#
# Mechanical properties :
#
#
# Convention : Reuss Voigt Hill
#
# Bulk Modulus (GPa) = 51.97981 71.01428 61.49704
# Shear Modulus (GPa) = 41.95499 49.52465 45.73982
#
# Velocity S-wave (km/s) = 3.96924 4.31247 4.14441
# Velocity P-wave (km/s) = 6.36599 7.17382 6.78195
#
# Compressibility (1/GPa) = 0.01923824
#
# Stress axis : x y z
#
# Youngs Moduli (GPa) = 91.13773 54.61035 172.43367
#
# Poissons Ratio (x) = 0.12310 0.07585
# Poissons Ratio (y) = 0.20544 0.90157
# Poissons Ratio (z) = 0.04009 0.28553
#
# Static dielectric constant tensor:
#      x y z
#    x 1.996350 0.000000 0.000000 
#    y 0.000000 2.088110 0.000000 
#    z 0.000000 0.000000 1.989690 
# 
# From -- ./inp_files/20244.got.cif
#   From: 2010.05.17/outbox.cif.g08.bks.cpg/sg55_11_cif.got.tgz:20244.got - 2010.06.03 13:27:54.
