data_PCOD9428656
_publ_section_title
;
Structure prediction by ZEFSAII (Michael W. Deem and Ramdas Pophale) SiO2 
 PCOD9428656
Probable space group: P B A M
;
_chemical_formula_sum "Si O2"
_cell_formula_units_Z 64
_cell_length_a 31.426413
_cell_length_b 12.157608
_cell_length_c 8.396270
_cell_angle_alpha 90.000000
_cell_angle_beta 90.000000
_cell_angle_gamma 90.000000
_cell_volume 3207.962964
_symmetry_space_group_name_H-M "P B A M"
_symmetry_group_IT_number 55
_symmetry_cell_setting 'orthorhombic'
loop_
_space_group_symop_operation_xyz
x,y,z
-x,-y,z
1/2+x,1/2-y,-z
1/2-x,1/2+y,-z
-x,-y,-z
x,y,-z
1/2-x,1/2+y,z
1/2+x,1/2-y,z
loop_
_atom_site_type_symbol
_atom_site_label
_atom_site_fract_x
_atom_site_fract_y
_atom_site_fract_z
Si Si1 0.160645 0.494345 0.315278
Si Si2 0.952487 0.752029 0.688208
Si Si3 0.068403 0.488041 0.186525
Si Si4 0.125773 0.860239 0.807213
Si Si5 0.042981 0.724899 0.191007
Si Si6 0.300483 0.770543 0.189407
Si Si7 0.129215 0.108729 0.690681
Si Si8 0.705032 0.794675 0.192020
O O1 0.148105 0.500179 0.500000
O O2 0.118571 0.510010 0.208904
O O3 0.180608 0.376206 0.277752
O O4 0.193503 0.590185 0.272653
O O5 0.955763 0.766732 0.500000
O O6 0.942013 0.625122 0.726499
O O7 0.913378 0.827011 0.746056
O O8 0.998211 0.777359 0.762995
O O9 0.045200 0.597972 0.247760
O O10 0.058145 0.472703 0.000000
O O11 0.083965 0.793053 0.752970
O O12 0.168056 0.791777 0.765210
O O13 0.126665 0.981498 0.735795
O O14 0.124422 0.868535 0.000000
O O15 0.046054 0.718985 0.000000
O O16 0.330336 0.667417 0.230331
O O17 0.251827 0.747111 0.235544
O O18 0.301874 0.791488 0.000000
O O19 0.132410 0.121533 0.500000
O O20 0.704037 0.809350 0.000000
#
# Coordination Sequence:
#
# PCOD9428656 Si02
#       8
#     8   8   8   8   8   8   8   8
#     4  12  24  39  64  97 132 165 201 254 319 371
#     4  11  24  40  60  90 128 165 204 256 314 375
#     4  11  21  39  65  92 125 164 207 256 308 366
#     4  10  22  43  66  90 121 162 212 261 307 368
#     4  10  22  40  64  92 121 158 208 260 307 366
#     4  11  24  42  68  94 123 168 213 257 304 363
#     4  11  25  43  61  89 128 166 206 258 316 371
#     4  10  23  44  67  93 124 163 212 256 303 368
#
# _framework density 19.950354999999998
#
# number of rings (size 3 to 8) (size 9 to 14) (size 15 to 20)
#    0.000    1.250    2.500    3.000    1.750    6.500 
#    0.000    2.500    0.000    0.000    0.000    0.000 
#    0.000    0.000    0.000    0.000    0.000    0.000 
#
# Total GULP energy -357929.140147 kJ/mol
# GULP energy per Si atom -5592.642815 kJ/mol
# Density = 1.990495 g / cm^3
# Si number density = 19.950355 Si / 1000 Ang^3
#
#
#
# Elastic Constant Matrix: (Units=GPa)
#
#
# Indices 1 2 3 4 5 6 
#
# 1 104.9445 23.2966 1.0208 0.0000 0.0000 0.0000
# 2 23.2966 95.6098 6.3514 0.0000 0.0000 0.0000
# 3 1.0208 6.3514 7.9671 0.0000 0.0000 0.0000
# 4 0.0000 0.0000 0.0000 41.7947 0.0000 0.0000
# 5 0.0000 0.0000 0.0000 0.0000 -4.2582 0.0000
# 6 0.0000 0.0000 0.0000 0.0000 0.0000 4.9469
#
#
#
# Elastic Compliance Matrix: (Units=1/GPa)
#
#
# Indices 1 2 3 4 5 6 
#
# 1 0.010077 -0.002502 0.000704 0.000000 0.000000 0.000000
# 2 -0.002502 0.011665 -0.008979 0.000000 0.000000 0.000000
# 3 0.000704 -0.008979 0.132584 0.000000 0.000000 0.000000
# 4 0.000000 0.000000 0.000000 0.023926 0.000000 0.000000
# 5 0.000000 0.000000 0.000000 0.000000 -0.234841 0.000000
# 6 0.000000 0.000000 0.000000 0.000000 0.000000 0.202147
#
#
# Mechanical properties :
#
#
# Convention : Reuss Voigt Hill
#
# Bulk Modulus (GPa) = 7.53172 29.98432 18.75802
# Shear Modulus (GPa) = 23.65492 20.35352 22.00422
#
# Velocity S-wave (km/s) = 3.44712 3.19754 3.32467
# Velocity P-wave (km/s) = 4.43023 5.35672 4.91535
#
# Compressibility (1/GPa) = 0.13277173
#
# Stress axis : x y z
#
# Youngs Moduli (GPa) = 99.23117 85.72389 7.54238
#
# Poissons Ratio (x) = 0.21450 -0.00531
# Poissons Ratio (y) = 0.24830 0.06772
# Poissons Ratio (z) = -0.06982 0.76972
#
# Static dielectric constant tensor:
#      x y z
#    x 1.695510 0.000000 0.000000 
#    y 0.000000 1.666950 0.000000 
#    z 0.000000 0.000000 1.684950 
# 
# From -- ./inp_files/4652.got.cif
#   From: 2010.05.17/outbox.cif.g08.bks.cpg/sg55_3_cif.got.tgz:4652.got - 2010.06.03 13:27:54.
