data_PCOD9428225
_publ_section_title
;
Structure prediction by ZEFSAII (Michael W. Deem and Ramdas Pophale) SiO2 
 PCOD9428225
Probable space group: P B A M
;
_chemical_formula_sum "Si O2"
_cell_formula_units_Z 40
_cell_length_a 9.570569
_cell_length_b 27.868174
_cell_length_c 7.312687
_cell_angle_alpha 90.000000
_cell_angle_beta 90.000000
_cell_angle_gamma 90.000000
_cell_volume 1950.398064
_symmetry_space_group_name_H-M "P B A M"
_symmetry_group_IT_number 55
_symmetry_cell_setting 'orthorhombic'
loop_
_space_group_symop_operation_xyz
x,y,z
-x,-y,z
1/2+x,1/2-y,-z
1/2-x,1/2+y,-z
-x,-y,-z
x,y,-z
1/2-x,1/2+y,z
1/2+x,1/2-y,z
loop_
_atom_site_type_symbol
_atom_site_label
_atom_site_fract_x
_atom_site_fract_y
_atom_site_fract_z
Si Si1 0.653345 0.020487 0.500000
Si Si2 0.095121 0.047083 0.500000
Si Si3 0.504310 0.374500 0.782587
Si Si4 0.193039 0.216170 0.777621
Si Si5 0.509030 0.194159 0.222903
Si Si6 0.312842 0.895280 0.782122
O O1 0.680261 0.055314 0.672472
O O2 0.500000 0.000000 0.500000
O O3 0.751892 0.974450 0.500000
O O4 0.061454 0.080025 0.326396
O O5 0.000000 0.000000 0.500000
O O6 0.591266 0.327651 0.727145
O O7 0.338546 0.371154 0.746532
O O8 0.521683 0.380745 0.000000
O O9 0.120006 0.265433 0.718578
O O10 0.351976 0.206879 0.717148
O O11 0.197264 0.217606 0.000000
O O12 0.566447 0.141904 0.275312
O O13 0.507907 0.194674 0.000000
O O14 0.323129 0.903346 0.000000
#
# Coordination Sequence:
#
# PCOD9428225 Si02
#       6
#     4   4   8   8   8   8
#     4  12  28  44  61  86 119 156 199 254 305 350
#     4  12  24  44  63  86 117 154 201 252 299 352
#     4  10  21  38  64  91 119 155 198 244 296 354
#     4   9  17  31  55  89 123 158 195 238 289 350
#     4   9  17  31  55  87 124 158 195 238 288 350
#     4  10  21  40  63  89 120 157 198 244 296 354
#
# _framework density 20.508634000000001
#
# number of rings (size 3 to 8) (size 9 to 14) (size 15 to 20)
#    0.000    2.000    2.000    1.200    2.800    6.400 
#    0.000    1.000    0.000    0.000    0.000    0.000 
#    0.000    0.000    0.000    0.000    0.000    0.000 
#
# Total GULP energy -223556.889484 kJ/mol
# GULP energy per Si atom -5588.922237 kJ/mol
# Density = 2.046196 g / cm^3
# Si number density = 20.508634 Si / 1000 Ang^3
#
#
#
# Elastic Constant Matrix: (Units=GPa)
#
#
# Indices 1 2 3 4 5 6 
#
# 1 120.9719 9.4693 19.7688 0.0000 0.0000 0.0000
# 2 9.4693 61.2992 19.2125 0.0000 0.0000 0.0000
# 3 19.7688 19.2125 77.1270 0.0000 0.0000 0.0000
# 4 0.0000 0.0000 0.0000 34.3897 0.0000 0.0000
# 5 0.0000 0.0000 0.0000 0.0000 1.8366 0.0000
# 6 0.0000 0.0000 0.0000 0.0000 0.0000 48.0151
#
#
#
# Elastic Compliance Matrix: (Units=1/GPa)
#
#
# Indices 1 2 3 4 5 6 
#
# 1 0.008655 -0.000696 -0.002045 0.000000 0.000000 0.000000
# 2 -0.000696 0.017751 -0.004243 0.000000 0.000000 0.000000
# 3 -0.002045 -0.004243 0.014547 0.000000 0.000000 0.000000
# 4 0.000000 0.000000 0.000000 0.029078 0.000000 0.000000
# 5 0.000000 0.000000 0.000000 0.000000 0.544485 0.000000
# 6 0.000000 0.000000 0.000000 0.000000 0.000000 0.020827
#
#
# Mechanical properties :
#
#
# Convention : Reuss Voigt Hill
#
# Bulk Modulus (GPa) = 37.05915 39.58881 38.32398
# Shear Modulus (GPa) = 7.59524 30.91145 19.25335
#
# Velocity S-wave (km/s) = 1.92652 3.88653 3.06730
# Velocity P-wave (km/s) = 4.80186 6.28375 5.59211
#
# Compressibility (1/GPa) = 0.02698389
#
# Stress axis : x y z
#
# Youngs Moduli (GPa) = 115.53941 56.33506 68.74348
#
# Poissons Ratio (x) = 0.03921 0.14058
# Poissons Ratio (y) = 0.08042 0.29171
# Poissons Ratio (z) = 0.23628 0.23905
#
# Static dielectric constant tensor:
#      x y z
#    x 1.645070 0.000000 0.000000 
#    y 0.000000 1.535900 0.000000 
#    z 0.000000 0.000000 1.770120 
# 
# From -- ./inp_files/2536.got.cif
#   From: 2010.05.17/outbox.cif.g08.bks.cpg/sg55_2_cif.got.tgz:2536.got - 2010.06.03 13:27:54.
