data_PCOD9428180
_publ_section_title
;
Structure prediction by ZEFSAII (Michael W. Deem and Ramdas Pophale) SiO2 
 PCOD9428180
Probable space group: P B A M
;
_chemical_formula_sum "Si O2"
_cell_formula_units_Z 56
_cell_length_a 20.264472
_cell_length_b 9.717398
_cell_length_c 13.901561
_cell_angle_alpha 90.000000
_cell_angle_beta 90.000000
_cell_angle_gamma 90.000000
_cell_volume 2737.466751
_symmetry_space_group_name_H-M "P B A M"
_symmetry_group_IT_number 55
_symmetry_cell_setting 'orthorhombic'
loop_
_space_group_symop_operation_xyz
x,y,z
-x,-y,z
1/2+x,1/2-y,-z
1/2-x,1/2+y,-z
-x,-y,-z
x,y,-z
1/2-x,1/2+y,z
1/2+x,1/2-y,z
loop_
_atom_site_type_symbol
_atom_site_label
_atom_site_fract_x
_atom_site_fract_y
_atom_site_fract_z
Si Si1 0.798920 0.021615 0.797937
Si Si2 0.570731 0.463285 0.302049
Si Si3 0.610477 0.188447 0.610057
Si Si4 0.097853 0.752304 0.393299
Si Si5 0.311653 0.171025 0.114410
Si Si6 0.070855 0.544394 0.237507
Si Si7 0.239264 0.838451 0.392265
O O1 0.805480 0.172139 0.846997
O O2 0.767959 0.052869 0.693017
O O3 0.871526 0.962224 0.776830
O O4 0.752464 0.916636 0.854047
O O5 0.500000 0.500000 0.258928
O O6 0.570562 0.323435 0.361443
O O7 0.587614 0.586706 0.375298
O O8 0.596651 0.143516 0.500000
O O9 0.688350 0.225348 0.614474
O O10 0.597108 0.074160 0.690717
O O11 0.078301 0.710831 0.500000
O O12 0.061304 0.671072 0.310608
O O13 0.177391 0.734362 0.381973
O O14 0.374574 0.094478 0.162059
O O15 0.317450 0.173022 0.000000
O O16 0.000000 0.500000 0.196348
O O17 0.232946 0.898684 0.500000
#
# Coordination Sequence:
#
# PCOD9428180 Si02
#       7
#     8   8   8   8   8   8   8
#     4  11  23  46  71 101 132 170 216 278 332 398
#     4  11  23  38  62  96 137 182 216 259 321 389
#     4  11  23  36  60  98 141 180 225 267 315 395
#     4  10  21  38  61  91 134 183 225 264 321 392
#     4  12  26  48  75  99 124 166 225 287 343 391
#     4  12  25  41  63  94 134 181 221 273 333 391
#     4   9  18  35  61  95 129 167 211 259 320 383
#
# _framework density 20.456871
#
# number of rings (size 3 to 8) (size 9 to 14) (size 15 to 20)
#    0.000    1.143    4.286    3.000    0.000    4.286 
#    0.000    5.000    0.000    1.714    0.000    0.000 
#    0.000    0.000    0.000    0.000    0.000    0.000 
#
# Total GULP energy -313054.308520 kJ/mol
# GULP energy per Si atom -5590.255509 kJ/mol
# Density = 2.041031 g / cm^3
# Si number density = 20.456871 Si / 1000 Ang^3
#
#
#
# Elastic Constant Matrix: (Units=GPa)
#
#
# Indices 1 2 3 4 5 6 
#
# 1 128.3454 13.6982 34.7561 0.0000 0.0000 0.0000
# 2 13.6982 62.4880 28.0542 0.0000 0.0000 0.0000
# 3 34.7561 28.0542 120.6546 0.0000 0.0000 0.0000
# 4 0.0000 0.0000 0.0000 8.6824 0.0000 0.0000
# 5 0.0000 0.0000 0.0000 0.0000 9.9110 0.0000
# 6 0.0000 0.0000 0.0000 0.0000 0.0000 26.9017
#
#
#
# Elastic Compliance Matrix: (Units=1/GPa)
#
#
# Indices 1 2 3 4 5 6 
#
# 1 0.008491 -0.000852 -0.002248 0.000000 0.000000 0.000000
# 2 -0.000852 0.017954 -0.003929 0.000000 0.000000 0.000000
# 3 -0.002248 -0.003929 0.009849 0.000000 0.000000 0.000000
# 4 0.000000 0.000000 0.000000 0.115176 0.000000 0.000000
# 5 0.000000 0.000000 0.000000 0.000000 0.100898 0.000000
# 6 0.000000 0.000000 0.000000 0.000000 0.000000 0.037172
#
#
# Mechanical properties :
#
#
# Convention : Reuss Voigt Hill
#
# Bulk Modulus (GPa) = 44.97216 51.61168 48.29192
# Shear Modulus (GPa) = 16.07663 24.76433 20.42048
#
# Velocity S-wave (km/s) = 2.80640 3.48309 3.16289
# Velocity P-wave (km/s) = 5.70375 6.43896 6.08247
#
# Compressibility (1/GPa) = 0.02223598
#
# Stress axis : x y z
#
# Youngs Moduli (GPa) = 117.76980 55.69837 101.53100
#
# Poissons Ratio (x) = 0.04747 0.22822
# Poissons Ratio (y) = 0.10036 0.39892
# Poissons Ratio (z) = 0.26473 0.21884
#
# Static dielectric constant tensor:
#      x y z
#    x 1.797630 0.000000 0.000000 
#    y 0.000000 1.749740 0.000000 
#    z 0.000000 0.000000 1.685740 
# 
# From -- ./inp_files/19757.got.cif
#   From: 2010.05.17/outbox.cif.g08.bks.cpg/sg55_10_cif.got.tgz:19757.got - 2010.06.03 13:27:54.
