data_PCOD9428510
_publ_section_title
;
Structure prediction by ZEFSAII (Michael W. Deem and Ramdas Pophale) SiO2 
 PCOD9428510
Probable space group: P B A M
;
_chemical_formula_sum "Si O2"
_cell_formula_units_Z 40
_cell_length_a 5.073073
_cell_length_b 19.073346
_cell_length_c 16.176671
_cell_angle_alpha 90.000000
_cell_angle_beta 90.000000
_cell_angle_gamma 90.000000
_cell_volume 1565.262396
_symmetry_space_group_name_H-M "P B A M"
_symmetry_group_IT_number 55
_symmetry_cell_setting 'orthorhombic'
loop_
_space_group_symop_operation_xyz
x,y,z
-x,-y,z
1/2+x,1/2-y,-z
1/2-x,1/2+y,-z
-x,-y,-z
x,y,-z
1/2-x,1/2+y,z
1/2+x,1/2-y,z
loop_
_atom_site_type_symbol
_atom_site_label
_atom_site_fract_x
_atom_site_fract_y
_atom_site_fract_z
Si Si1 0.578478 0.384880 0.000000
Si Si2 0.798297 0.705313 0.688803
Si Si3 0.432525 0.582807 0.667996
Si Si4 0.752818 0.450228 0.837654
Si Si5 0.780071 0.706133 0.113400
Si Si6 0.745459 0.949244 0.500000
O O1 0.772664 0.412602 0.925423
O O2 0.360396 0.358993 0.928961
O O3 0.078184 0.736803 0.664705
O O4 0.689689 0.630800 0.658719
O O5 0.787090 0.699372 0.788535
O O6 0.500000 0.500000 0.673136
O O7 0.293078 0.597878 0.756318
O O8 0.262271 0.592405 0.585587
O O9 0.500000 0.500000 0.847246
O O10 0.000000 0.500000 0.820631
O O11 0.071012 0.732108 0.089215
O O12 0.500000 0.000000 0.500000
O O13 0.000000 0.000000 0.500000
#
# Coordination Sequence:
#
# PCOD9428510 Si02
#       6
#     4   8   8   8   8   4
#     4  12  22  40  58  86 118 164 212 254 324 362
#     4  10  22  41  64  94 130 170 214 267 326 385
#     4  10  22  45  69  99 129 174 217 270 324 391
#     4  11  25  40  58  87 124 161 207 260 319 378
#     4  10  22  38  57  84 116 160 213 261 309 373
#     4  10  22  40  68 100 130 164 215 268 317 382
#
# _framework density 25.554822000000001
#
# number of rings (size 3 to 8) (size 9 to 14) (size 15 to 20)
#    0.000    1.600    2.000    1.800    0.000    9.600 
#    0.000    1.000    0.000    0.000    0.000    0.000 
#    0.000    0.000    0.000    0.000    0.000    0.000 
#
# Total GULP energy -223048.843428 kJ/mol
# GULP energy per Si atom -5576.221086 kJ/mol
# Density = 2.549666 g / cm^3
# Si number density = 25.554822 Si / 1000 Ang^3
#
#
#
# Elastic Constant Matrix: (Units=GPa)
#
#
# Indices 1 2 3 4 5 6 
#
# 1 106.7880 23.7448 9.2217 0.0000 0.0000 0.0000
# 2 23.7448 95.8749 18.0130 0.0000 0.0000 0.0000
# 3 9.2217 18.0130 168.2380 0.0000 0.0000 0.0000
# 4 0.0000 0.0000 0.0000 29.4432 0.0000 0.0000
# 5 0.0000 0.0000 0.0000 0.0000 -32.4361 0.0000
# 6 0.0000 0.0000 0.0000 0.0000 0.0000 56.2910
#
#
#
# Elastic Compliance Matrix: (Units=1/GPa)
#
#
# Indices 1 2 3 4 5 6 
#
# 1 0.009924 -0.002404 -0.000287 0.000000 0.000000 0.000000
# 2 -0.002404 0.011227 -0.001070 0.000000 0.000000 0.000000
# 3 -0.000287 -0.001070 0.006074 0.000000 0.000000 0.000000
# 4 0.000000 0.000000 0.000000 0.033964 0.000000 0.000000
# 5 0.000000 0.000000 0.000000 0.000000 -0.030830 0.000000
# 6 0.000000 0.000000 0.000000 0.000000 0.000000 0.017765
#
#
# Mechanical properties :
#
#
# Convention : Reuss Voigt Hill
#
# Bulk Modulus (GPa) = 50.75333 52.53999 51.64666
# Shear Modulus (GPa) = 80.36986 31.98771 56.17879
#
# Velocity S-wave (km/s) = 5.61411 3.54182 4.69376
# Velocity P-wave (km/s) = 7.86944 6.10985 7.04480
#
# Compressibility (1/GPa) = 0.01970314
#
# Stress axis : x y z
#
# Youngs Moduli (GPa) = 100.76976 89.07338 164.62914
#
# Poissons Ratio (x) = 0.21412 0.04718
# Poissons Ratio (y) = 0.24224 0.17620
# Poissons Ratio (z) = 0.02888 0.09533
#
# Static dielectric constant tensor:
#      x y z
#    x 2.002110 0.000000 0.000000 
#    y 0.000000 2.121440 0.000000 
#    z 0.000000 0.000000 2.113940 
# 
# From -- ./inp_files/20403.got.cif
#   From: 2010.05.17/outbox.cif.g08.bks.cpg/sg55_11_cif.got.tgz:20403.got - 2010.06.03 13:27:54.
