data_PCOD9428788
_publ_section_title
;
Structure prediction by ZEFSAII (Michael W. Deem and Ramdas Pophale) SiO2 
 PCOD9428788
Probable space group: P B A M
;
_chemical_formula_sum "Si O2"
_cell_formula_units_Z 48
_cell_length_a 7.223635
_cell_length_b 13.849045
_cell_length_c 18.881858
_cell_angle_alpha 90.000000
_cell_angle_beta 90.000000
_cell_angle_gamma 90.000000
_cell_volume 1888.949499
_symmetry_space_group_name_H-M "P B A M"
_symmetry_group_IT_number 55
_symmetry_cell_setting 'orthorhombic'
loop_
_space_group_symop_operation_xyz
x,y,z
-x,-y,z
1/2+x,1/2-y,-z
1/2-x,1/2+y,-z
-x,-y,-z
x,y,-z
1/2-x,1/2+y,z
1/2+x,1/2-y,z
loop_
_atom_site_type_symbol
_atom_site_label
_atom_site_fract_x
_atom_site_fract_y
_atom_site_fract_z
Si Si1 0.337566 0.636389 0.655857
Si Si2 0.845217 0.857659 0.500000
Si Si3 0.286219 0.446009 0.000000
Si Si4 0.738332 0.084461 0.500000
Si Si5 0.776663 0.584182 0.653415
Si Si6 0.651121 0.681912 0.119088
Si Si7 0.904809 0.717661 0.231170
Si Si8 0.616964 0.844321 0.000000
O O1 0.287625 0.678103 0.577855
O O2 0.563648 0.624485 0.656994
O O3 0.254389 0.529795 0.663036
O O4 0.286277 0.705546 0.720810
O O5 0.068465 0.858261 0.500000
O O6 0.791033 0.971136 0.500000
O O7 0.392907 0.406712 0.931232
O O8 0.231869 0.556954 0.000000
O O9 0.095391 0.381738 0.000000
O O10 0.643512 0.102126 0.425350
O O11 0.907911 0.633856 0.710278
O O12 0.838915 0.660818 0.160760
O O13 0.531453 0.706645 0.187977
O O14 0.659364 0.775494 0.067543
#
# Coordination Sequence:
#
# PCOD9428788 Si02
#       8
#     8   4   4   4   8   8   8   4
#     4   9  18  34  56  84 120 166 222 263 322 378
#     4   7  12  27  52  79 112 159 216 279 305 362
#     4  10  22  45  72  93 118 170 209 247 309 383
#     4   7  12  27  52  79 112 157 224 272 307 361
#     4   9  18  34  56  84 119 170 218 268 317 376
#     4  11  24  42  64  97 132 158 204 264 313 386
#     4  12  22  38  60  92 134 165 200 266 332 384
#     4  10  22  45  72  93 120 163 213 248 311 378
#
# _framework density 25.410951000000001
#
# number of rings (size 3 to 8) (size 9 to 14) (size 15 to 20)
#    0.000    2.333    3.333    2.000    0.000    2.000 
#    0.000    0.833    0.000    0.000    0.000    3.500 
#    0.000    0.000    0.000    0.000    0.000    0.250 
#
# Total GULP energy -267638.466383 kJ/mol
# GULP energy per Si atom -5575.801383 kJ/mol
# Density = 2.535311 g / cm^3
# Si number density = 25.410951 Si / 1000 Ang^3
#
#
#
# Elastic Constant Matrix: (Units=GPa)
#
#
# Indices 1 2 3 4 5 6 
#
# 1 65.4505 30.4329 32.8985 0.0000 0.0000 0.0000
# 2 30.4329 160.5459 79.2420 0.0000 0.0000 0.0000
# 3 32.8985 79.2420 237.3905 0.0000 0.0000 0.0000
# 4 0.0000 0.0000 0.0000 16.4418 0.0000 0.0000
# 5 0.0000 0.0000 0.0000 0.0000 14.0678 0.0000
# 6 0.0000 0.0000 0.0000 0.0000 0.0000 11.1969
#
#
#
# Elastic Compliance Matrix: (Units=1/GPa)
#
#
# Indices 1 2 3 4 5 6 
#
# 1 0.017221 -0.002498 -0.001553 0.000000 0.000000 0.000000
# 2 -0.002498 0.007820 -0.002264 0.000000 0.000000 0.000000
# 3 -0.001553 -0.002264 0.005183 0.000000 0.000000 0.000000
# 4 0.000000 0.000000 0.000000 0.060821 0.000000 0.000000
# 5 0.000000 0.000000 0.000000 0.000000 0.071084 0.000000
# 6 0.000000 0.000000 0.000000 0.000000 0.000000 0.089310
#
#
# Mechanical properties :
#
#
# Convention : Reuss Voigt Hill
#
# Bulk Modulus (GPa) = 56.83637 83.17042 70.00339
# Shear Modulus (GPa) = 18.52310 29.72888 24.12599
#
# Velocity S-wave (km/s) = 2.70282 3.42413 3.08463
# Velocity P-wave (km/s) = 5.67060 6.95946 6.34783
#
# Compressibility (1/GPa) = 0.01759437
#
# Stress axis : x y z
#
# Youngs Moduli (GPa) = 58.06978 127.88109 192.92327
#
# Poissons Ratio (x) = 0.31944 0.29955
# Poissons Ratio (y) = 0.14506 0.43680
# Poissons Ratio (z) = 0.09016 0.28953
#
# Static dielectric constant tensor:
#      x y z
#    x 2.342350 0.000000 0.000000 
#    y 0.000000 1.881610 0.000000 
#    z 0.000000 0.000000 1.923950 
# 
# From -- ./inp_files/20875.got.cif
#   From: 2010.05.17/outbox.cif.g08.bks.cpg/sg55_11_cif.got.tgz:20875.got - 2010.06.03 13:27:54.
