data_PCOD9428337
_publ_section_title
;
Structure prediction by ZEFSAII (Michael W. Deem and Ramdas Pophale) SiO2 
 PCOD9428337
Probable space group: P B A M
;
_chemical_formula_sum "Si O2"
_cell_formula_units_Z 58
_cell_length_a 7.942755
_cell_length_b 19.590734
_cell_length_c 16.320567
_cell_angle_alpha 90.000000
_cell_angle_beta 90.000000
_cell_angle_gamma 90.000000
_cell_volume 2539.552043
_symmetry_space_group_name_H-M "P B A M"
_symmetry_group_IT_number 55
_symmetry_cell_setting 'orthorhombic'
loop_
_space_group_symop_operation_xyz
x,y,z
-x,-y,z
1/2+x,1/2-y,-z
1/2-x,1/2+y,-z
-x,-y,-z
x,y,-z
1/2-x,1/2+y,z
1/2+x,1/2-y,z
loop_
_atom_site_type_symbol
_atom_site_label
_atom_site_fract_x
_atom_site_fract_y
_atom_site_fract_z
Si Si1 0.059875 0.856655 0.908328
Si Si2 0.040005 0.635675 0.749098
Si Si3 0.831028 0.084778 0.241195
Si Si4 0.514349 0.655164 0.378946
Si Si5 0.610642 0.201160 0.412185
Si Si6 0.729725 0.460651 0.641487
Si Si7 0.306477 0.212100 0.094985
Si Si8 0.000000 0.500000 0.500000
O O1 0.083845 0.918426 0.846204
O O2 0.188703 0.793764 0.891698
O O3 0.879159 0.819969 0.902866
O O4 0.086365 0.880644 0.000000
O O5 0.865802 0.598672 0.770594
O O6 0.989264 0.678296 0.667794
O O7 0.099064 0.677409 0.828333
O O8 0.178697 0.584960 0.711737
O O9 0.935633 0.147005 0.283400
O O10 0.087458 0.086996 0.399166
O O11 0.835017 0.024899 0.306827
O O12 0.395429 0.717449 0.404321
O O13 0.701292 0.670625 0.412901
O O14 0.532365 0.179896 0.500000
O O15 0.858990 0.484943 0.572582
O O16 0.371008 0.201703 0.000000
#
# Coordination Sequence:
#
# PCOD9428337 Si02
#       8
#     8   8   8   8   8   8   8   2
#     4  10  21  39  69 103 140 180 229 288 349 424
#     4  11  23  42  69  96 141 178 226 291 350 414
#     4  11  23  44  65 100 137 184 233 279 341 413
#     4  11  25  43  70  94 135 179 226 291 350 424
#     4  11  25  43  65 103 133 177 225 290 365 420
#     4  12  26  47  71  99 134 189 242 292 350 412
#     4  10  21  39  68 107 141 182 232 287 359 428
#     4  12  28  48  74  96 130 192 246 308 330 418
#
# _framework density 22.838673
#
# number of rings (size 3 to 8) (size 9 to 14) (size 15 to 20)
#    0.000    1.103    1.379    4.138    2.897    4.966 
#    1.241    1.379    0.000    4.966    0.000    0.000 
#    0.000    0.000    0.000    0.000    0.000    0.000 
#
# Total GULP energy -323472.532381 kJ/mol
# GULP energy per Si atom -5577.112627 kJ/mol
# Density = 2.278669 g / cm^3
# Si number density = 22.838673 Si / 1000 Ang^3
#
#
#
# Elastic Constant Matrix: (Units=GPa)
#
#
# Indices 1 2 3 4 5 6 
#
# 1 86.6566 46.4611 61.0496 0.0000 0.0000 0.0000
# 2 46.4611 56.6492 61.9540 0.0000 0.0000 0.0000
# 3 61.0496 61.9540 183.0318 0.0000 0.0000 0.0000
# 4 0.0000 0.0000 0.0000 37.2637 0.0000 0.0000
# 5 0.0000 0.0000 0.0000 0.0000 9.1985 0.0000
# 6 0.0000 0.0000 0.0000 0.0000 0.0000 34.5302
#
#
#
# Elastic Compliance Matrix: (Units=1/GPa)
#
#
# Indices 1 2 3 4 5 6 
#
# 1 0.020990 -0.015176 -0.001864 0.000000 0.000000 0.000000
# 2 -0.015176 0.039001 -0.008139 0.000000 0.000000 0.000000
# 3 -0.001864 -0.008139 0.008840 0.000000 0.000000 0.000000
# 4 0.000000 0.000000 0.000000 0.026836 0.000000 0.000000
# 5 0.000000 0.000000 0.000000 0.000000 0.108713 0.000000
# 6 0.000000 0.000000 0.000000 0.000000 0.000000 0.028960
#
#
# Mechanical properties :
#
#
# Convention : Reuss Voigt Hill
#
# Bulk Modulus (GPa) = 54.13684 73.91856 64.02770
# Shear Modulus (GPa) = 17.24991 26.65668 21.95329
#
# Velocity S-wave (km/s) = 2.75124 3.42010 3.10374
# Velocity P-wave (km/s) = 5.81790 6.93050 6.39843
#
# Compressibility (1/GPa) = 0.01847171
#
# Stress axis : x y z
#
# Youngs Moduli (GPa) = 47.64204 25.64044 113.11760
#
# Poissons Ratio (x) = 0.38913 0.21087
# Poissons Ratio (y) = 0.72303 0.92070
# Poissons Ratio (z) = 0.08881 0.20870
#
# Static dielectric constant tensor:
#      x y z
#    x 1.879970 0.000000 0.000000 
#    y 0.000000 2.119180 0.000000 
#    z 0.000000 0.000000 1.860590 
# 
# From -- ./inp_files/17780.got.cif
#   From: 2010.05.17/outbox.cif.g08.bks.cpg/sg55_9_cif.got.tgz:17780.got - 2010.06.03 13:27:54.
