data_PCOD9428950
_publ_section_title
;
Structure prediction by ZEFSAII (Michael W. Deem and Ramdas Pophale) SiO2 
 PCOD9428950
Probable space group: P B A M
;
_chemical_formula_sum "Si O2"
_cell_formula_units_Z 34
_cell_length_a 8.768769
_cell_length_b 9.363802
_cell_length_c 18.883202
_cell_angle_alpha 90.000000
_cell_angle_beta 90.000000
_cell_angle_gamma 90.000000
_cell_volume 1550.481148
_symmetry_space_group_name_H-M "P B A M"
_symmetry_group_IT_number 55
_symmetry_cell_setting 'orthorhombic'
loop_
_space_group_symop_operation_xyz
x,y,z
-x,-y,z
1/2+x,1/2-y,-z
1/2-x,1/2+y,-z
-x,-y,-z
x,y,-z
1/2-x,1/2+y,z
1/2+x,1/2-y,z
loop_
_atom_site_type_symbol
_atom_site_label
_atom_site_fract_x
_atom_site_fract_y
_atom_site_fract_z
Si Si1 0.121294 0.109169 0.854334
Si Si2 0.575130 0.153938 0.422691
Si Si3 0.119010 0.871774 0.346384
Si Si4 0.500000 0.500000 0.000000
Si Si5 0.851910 0.583642 0.782668
O O1 0.114128 0.266157 0.821411
O O2 0.279741 0.030352 0.838048
O O3 0.076634 0.100123 0.936666
O O4 0.000000 0.000000 0.819508
O O5 0.554967 0.225128 0.500000
O O6 0.753312 0.135620 0.407217
O O7 0.489958 0.237434 0.359968
O O8 0.500000 0.000000 0.425746
O O9 0.225710 0.882852 0.277189
O O10 0.000000 0.000000 0.350479
O O11 0.000000 0.500000 0.754686
#
# Coordination Sequence:
#
# PCOD9428950 Si02
#       5
#     8   8   8   2   8
#     4  10  24  49  73 108 155 200 258 317 381 462
#     4  11  26  47  72 106 146 197 257 321 394 467
#     4  12  28  46  73 108 149 199 256 316 396 466
#     4   8  24  48  76 104 156 208 260 304 390 458
#     4  12  27  45  76 115 156 204 261 327 388 458
#
# _framework density 21.928677
#
# number of rings (size 3 to 8) (size 9 to 14) (size 15 to 20)
#    0.706    0.235    0.000    4.941   13.176    4.706 
#    0.000    1.176    0.000    0.000    0.000    0.000 
#    0.000    0.000    0.000    0.000    0.000    0.000 
#
# Total GULP energy -189327.527526 kJ/mol
# GULP energy per Si atom -5568.456692 kJ/mol
# Density = 2.187877 g / cm^3
# Si number density = 21.928677 Si / 1000 Ang^3
#
#
#
# Elastic Constant Matrix: (Units=GPa)
#
#
# Indices 1 2 3 4 5 6 
#
# 1 151.4239 72.4487 63.9959 0.0000 0.0000 0.0000
# 2 72.4487 170.8598 74.3203 0.0000 0.0000 0.0000
# 3 63.9959 74.3203 134.6283 0.0000 0.0000 0.0000
# 4 0.0000 0.0000 0.0000 3.5989 0.0000 0.0000
# 5 0.0000 0.0000 0.0000 0.0000 39.2644 0.0000
# 6 0.0000 0.0000 0.0000 0.0000 0.0000 46.8796
#
#
#
# Elastic Compliance Matrix: (Units=1/GPa)
#
#
# Indices 1 2 3 4 5 6 
#
# 1 0.009059 -0.002590 -0.002876 0.000000 0.000000 0.000000
# 2 -0.002590 0.008443 -0.003430 0.000000 0.000000 0.000000
# 3 -0.002876 -0.003430 0.010688 0.000000 0.000000 0.000000
# 4 0.000000 0.000000 0.000000 0.277863 0.000000 0.000000
# 5 0.000000 0.000000 0.000000 0.000000 0.025468 0.000000
# 6 0.000000 0.000000 0.000000 0.000000 0.000000 0.021331
#
#
# Mechanical properties :
#
#
# Convention : Reuss Voigt Hill
#
# Bulk Modulus (GPa) = 96.17129 97.60465 96.88797
# Shear Modulus (GPa) = 13.36503 34.35838 23.86170
#
# Velocity S-wave (km/s) = 2.47144 3.96261 3.30229
# Velocity P-wave (km/s) = 7.21773 8.09586 7.66938
#
# Compressibility (1/GPa) = 0.01039811
#
# Stress axis : x y z
#
# Youngs Moduli (GPa) = 110.39024 118.44444 93.55937
#
# Poissons Ratio (x) = 0.30677 0.26911
# Poissons Ratio (y) = 0.28591 0.32087
# Poissons Ratio (z) = 0.31752 0.40622
#
# Static dielectric constant tensor:
#      x y z
#    x 1.898160 0.000000 0.000000 
#    y 0.000000 1.801080 0.000000 
#    z 0.000000 0.000000 1.797110 
# 
# From -- ./inp_files/22496.got.cif
#   From: 2010.05.17/outbox.cif.g08.bks.cpg/sg55_12_cif.got.tgz:22496.got - 2010.06.03 13:27:54.
