data_PCOD9428801
_publ_section_title
;
Structure prediction by ZEFSAII (Michael W. Deem and Ramdas Pophale) SiO2 
 PCOD9428801
Probable space group: P B A M
;
_chemical_formula_sum "Si O2"
_cell_formula_units_Z 58
_cell_length_a 15.169244
_cell_length_b 23.635051
_cell_length_c 9.346887
_cell_angle_alpha 90.000000
_cell_angle_beta 90.000000
_cell_angle_gamma 90.000000
_cell_volume 3351.100659
_symmetry_space_group_name_H-M "P B A M"
_symmetry_group_IT_number 55
_symmetry_cell_setting 'orthorhombic'
loop_
_space_group_symop_operation_xyz
x,y,z
-x,-y,z
1/2+x,1/2-y,-z
1/2-x,1/2+y,-z
-x,-y,-z
x,y,-z
1/2-x,1/2+y,z
1/2+x,1/2-y,z
loop_
_atom_site_type_symbol
_atom_site_label
_atom_site_fract_x
_atom_site_fract_y
_atom_site_fract_z
Si Si1 0.864651 0.035034 0.668673
Si Si2 0.732197 0.742544 0.169126
Si Si3 0.940177 0.913985 0.669327
Si Si4 0.769810 0.613611 0.170118
Si Si5 0.563979 0.781456 0.670109
Si Si6 0.000000 0.500000 0.500000
Si Si7 0.446745 0.888393 0.343655
Si Si8 0.423948 0.702575 0.169915
O O1 0.842919 0.038267 0.500000
O O2 0.790078 0.065757 0.758434
O O3 0.958320 0.066562 0.689129
O O4 0.881486 0.969204 0.703827
O O5 0.731547 0.675876 0.204830
O O6 0.660087 0.774640 0.262339
O O7 0.830530 0.766188 0.192120
O O8 0.712070 0.748645 0.000000
O O9 0.928699 0.901334 0.500000
O O10 0.919726 0.860143 0.765148
O O11 0.868210 0.611053 0.231749
O O12 0.770241 0.607813 0.000000
O O13 0.566503 0.770988 0.500000
O O14 0.522084 0.843436 0.694290
O O15 0.499659 0.736950 0.747792
O O16 0.984052 0.549629 0.622337
O O17 0.409416 0.868827 0.500000
O O18 0.442136 0.701249 0.000000
#
# Coordination Sequence:
#
# PCOD9428801 Si02
#       8
#     8   8   8   8   8   2   8   8
#     4   9  19  36  57  82 115 152 194 244 293 346
#     4  10  23  39  56  84 122 158 192 235 300 364
#     4   9  19  37  57  82 115 155 197 238 292 353
#     4  11  21  36  59  88 115 152 201 245 291 359
#     4  11  22  37  61  90 115 151 199 246 295 354
#     4   8  20  44  66  80 112 146 198 238 312 336
#     4   9  20  40  63  83 111 149 195 247 296 349
#     4  11  22  38  58  84 123 158 188 235 299 360
#
# _framework density 17.307746000000002
#
# number of rings (size 3 to 8) (size 9 to 14) (size 15 to 20)
#    0.414    1.655    1.379    2.897    0.000    6.069 
#    2.483    1.724    0.000    0.000    0.000    0.000 
#    0.000    0.000    0.000    0.000    0.000    0.000 
#
# Total GULP energy -323032.147147 kJ/mol
# GULP energy per Si atom -5569.519778 kJ/mol
# Density = 1.726835 g / cm^3
# Si number density = 17.307746 Si / 1000 Ang^3
#
#
#
# Elastic Constant Matrix: (Units=GPa)
#
#
# Indices 1 2 3 4 5 6 
#
# 1 26.7433 6.0473 19.4542 0.0000 0.0000 0.0000
# 2 6.0473 80.5423 28.6637 0.0000 0.0000 0.0000
# 3 19.4542 28.6637 40.5016 0.0000 0.0000 0.0000
# 4 0.0000 0.0000 0.0000 24.8966 0.0000 0.0000
# 5 0.0000 0.0000 0.0000 0.0000 30.5459 0.0000
# 6 0.0000 0.0000 0.0000 0.0000 0.0000 25.4535
#
#
#
# Elastic Compliance Matrix: (Units=1/GPa)
#
#
# Indices 1 2 3 4 5 6 
#
# 1 0.060940 0.007808 -0.034798 0.000000 0.000000 0.000000
# 2 0.007808 0.017596 -0.016204 0.000000 0.000000 0.000000
# 3 -0.034798 -0.016204 0.052872 0.000000 0.000000 0.000000
# 4 0.000000 0.000000 0.000000 0.040166 0.000000 0.000000
# 5 0.000000 0.000000 0.000000 0.000000 0.032738 0.000000
# 6 0.000000 0.000000 0.000000 0.000000 0.000000 0.039287
#
#
# Mechanical properties :
#
#
# Convention : Reuss Voigt Hill
#
# Bulk Modulus (GPa) = 22.21095 28.45751 25.33423
# Shear Modulus (GPa) = 14.49303 22.42066 18.45685
#
# Velocity S-wave (km/s) = 2.89688 3.60309 3.26911
# Velocity P-wave (km/s) = 4.90408 5.81269 5.37761
#
# Compressibility (1/GPa) = 0.04502284
#
# Stress axis : x y z
#
# Youngs Moduli (GPa) = 16.40956 56.83043 18.91345
#
# Poissons Ratio (x) = -0.44375 0.65814
# Poissons Ratio (y) = -0.12813 0.30647
# Poissons Ratio (z) = 0.57101 0.92087
#
# Static dielectric constant tensor:
#      x y z
#    x 1.572920 0.000000 0.000000 
#    y 0.000000 1.575900 0.000000 
#    z 0.000000 0.000000 1.578610 
# 
# From -- ./inp_files/6411.got.cif
#   From: 2010.05.17/outbox.cif.g08.bks.cpg/sg55_4_cif.got.tgz:6411.got - 2010.06.03 13:27:54.
