data_PCOD9428241
_publ_section_title
;
Structure prediction by ZEFSAII (Michael W. Deem and Ramdas Pophale) SiO2 
 PCOD9428241
Probable space group: P B A M
;
_chemical_formula_sum "Si O2"
_cell_formula_units_Z 48
_cell_length_a 14.593373
_cell_length_b 7.473331
_cell_length_c 17.738887
_cell_angle_alpha 90.000000
_cell_angle_beta 90.000000
_cell_angle_gamma 90.000000
_cell_volume 1934.622650
_symmetry_space_group_name_H-M "P B A M"
_symmetry_group_IT_number 55
_symmetry_cell_setting 'orthorhombic'
loop_
_space_group_symop_operation_xyz
x,y,z
-x,-y,z
1/2+x,1/2-y,-z
1/2-x,1/2+y,-z
-x,-y,-z
x,y,-z
1/2-x,1/2+y,z
1/2+x,1/2-y,z
loop_
_atom_site_type_symbol
_atom_site_label
_atom_site_fract_x
_atom_site_fract_y
_atom_site_fract_z
Si Si1 0.598631 0.906757 0.585055
Si Si2 0.103767 0.376821 0.148593
Si Si3 0.224543 0.063489 0.085947
Si Si4 0.935918 0.159522 0.126545
Si Si5 0.629424 0.607135 0.705665
Si Si6 0.163021 0.310594 0.304033
O O1 0.628234 0.863549 0.500000
O O2 0.595517 0.731428 0.637497
O O3 0.500000 0.000000 0.582760
O O4 0.659596 0.061221 0.623611
O O5 0.172739 0.519297 0.112175
O O6 0.101932 0.401030 0.238495
O O7 0.003925 0.327023 0.116818
O O8 0.165517 0.196016 0.137696
O O9 0.163304 0.881333 0.091873
O O10 0.220477 0.124600 0.000000
O O11 0.924538 0.138204 0.216826
O O12 0.000000 0.000000 0.096082
O O13 0.633534 0.395633 0.686096
O O14 0.732116 0.676545 0.722396
#
# Coordination Sequence:
#
# PCOD9428241 Si02
#       6
#     8   8   8   8   8   8
#     4  11  28  46  66 105 145 183 233 287 354 424
#     4  11  22  41  64  94 128 173 227 277 341 415
#     4  11  23  39  62  93 134 171 217 282 341 407
#     4  10  21  38  67  95 128 175 234 280 346 415
#     4  12  23  44  71 105 135 179 238 296 345 419
#     4  12  22  44  74  98 138 184 232 295 348 412
#
# _framework density 24.811040999999999
#
# number of rings (size 3 to 8) (size 9 to 14) (size 15 to 20)
#    0.000    0.833    6.667    1.500    0.000    5.000 
#    0.000    2.500    0.000    2.000    0.000    0.000 
#    0.000    0.000    0.000    0.000    0.000    0.000 
#
# Total GULP energy -268690.818560 kJ/mol
# GULP energy per Si atom -5597.725387 kJ/mol
# Density = 2.475457 g / cm^3
# Si number density = 24.811041 Si / 1000 Ang^3
#
#
#
# Elastic Constant Matrix: (Units=GPa)
#
#
# Indices 1 2 3 4 5 6 
#
# 1 143.3369 -7.6229 10.6349 0.0000 0.0000 0.0000
# 2 -7.6229 127.9287 26.7784 0.0000 0.0000 0.0000
# 3 10.6349 26.7784 136.7958 0.0000 0.0000 0.0000
# 4 0.0000 0.0000 0.0000 32.9119 0.0000 0.0000
# 5 0.0000 0.0000 0.0000 0.0000 11.1804 0.0000
# 6 0.0000 0.0000 0.0000 0.0000 0.0000 38.3639
#
#
#
# Elastic Compliance Matrix: (Units=1/GPa)
#
#
# Indices 1 2 3 4 5 6 
#
# 1 0.007055 0.000558 -0.000658 0.000000 0.000000 0.000000
# 2 0.000558 0.008195 -0.001648 0.000000 0.000000 0.000000
# 3 -0.000658 -0.001648 0.007684 0.000000 0.000000 0.000000
# 4 0.000000 0.000000 0.000000 0.030384 0.000000 0.000000
# 5 0.000000 0.000000 0.000000 0.000000 0.089442 0.000000
# 6 0.000000 0.000000 0.000000 0.000000 0.000000 0.026066
#
#
# Mechanical properties :
#
#
# Convention : Reuss Voigt Hill
#
# Bulk Modulus (GPa) = 51.44202 51.96024 51.70113
# Shear Modulus (GPa) = 27.96407 41.70930 34.83669
#
# Velocity S-wave (km/s) = 3.36085 4.10454 3.75117
# Velocity P-wave (km/s) = 5.98656 6.59173 6.29642
#
# Compressibility (1/GPa) = 0.01943936
#
# Stress axis : x y z
#
# Youngs Moduli (GPa) = 141.74249 122.02578 130.14351
#
# Poissons Ratio (x) = -0.06810 0.08560
# Poissons Ratio (y) = -0.07910 0.21442
# Poissons Ratio (z) = 0.09323 0.20105
#
# Static dielectric constant tensor:
#      x y z
#    x 2.045860 0.000000 0.000000 
#    y 0.000000 2.232630 0.000000 
#    z 0.000000 0.000000 1.905510 
# 
# From -- ./inp_files/21517.got.cif
#   From: 2010.05.17/outbox.cif.g08.bks.cpg/sg55_11_cif.got.tgz:21517.got - 2010.06.03 13:27:54.
