data_PCOD9428519
_publ_section_title
;
Structure prediction by ZEFSAII (Michael W. Deem and Ramdas Pophale) SiO2 
 PCOD9428519
Probable space group: P B A M
;
_chemical_formula_sum "Si O2"
_cell_formula_units_Z 64
_cell_length_a 13.089402
_cell_length_b 11.599869
_cell_length_c 18.526232
_cell_angle_alpha 90.000000
_cell_angle_beta 90.000000
_cell_angle_gamma 90.000000
_cell_volume 2812.936892
_symmetry_space_group_name_H-M "P B A M"
_symmetry_group_IT_number 55
_symmetry_cell_setting 'orthorhombic'
loop_
_space_group_symop_operation_xyz
x,y,z
-x,-y,z
1/2+x,1/2-y,-z
1/2-x,1/2+y,-z
-x,-y,-z
x,y,-z
1/2-x,1/2+y,z
1/2+x,1/2-y,z
loop_
_atom_site_type_symbol
_atom_site_label
_atom_site_fract_x
_atom_site_fract_y
_atom_site_fract_z
Si Si1 0.310262 0.889853 0.661049
Si Si2 0.543784 0.288952 0.417369
Si Si3 0.125275 0.688426 0.809011
Si Si4 0.287738 0.378727 0.085293
Si Si5 0.901503 0.666886 0.818835
Si Si6 0.601066 0.920591 0.576371
Si Si7 0.587700 0.611152 0.304962
Si Si8 0.842255 0.926525 0.813137
O O1 0.365759 0.793854 0.611334
O O2 0.347104 0.863429 0.742508
O O3 0.341036 0.020195 0.640943
O O4 0.190615 0.886961 0.648554
O O5 0.561504 0.327720 0.500000
O O6 0.511497 0.379627 0.356185
O O7 0.444460 0.205318 0.417660
O O8 0.156507 0.771436 0.875579
O O9 0.098969 0.771995 0.742245
O O10 0.225495 0.611514 0.795404
O O11 0.018046 0.626425 0.822932
O O12 0.173091 0.375825 0.118193
O O13 0.337868 0.496058 0.115157
O O14 0.289449 0.370152 0.000000
O O15 0.901805 0.807001 0.822033
O O16 0.657909 0.932862 0.500000
O O17 0.500000 0.000000 0.572246
O O18 0.608947 0.508462 0.247585
#
# Coordination Sequence:
#
# PCOD9428519 Si02
#       8
#     8   8   8   8   8   8   8   8
#     4  11  19  34  60  90 119 163 214 269 309 372
#     4  10  22  38  58  90 131 167 210 269 329 382
#     4  10  22  41  64  95 124 165 216 262 313 378
#     4  10  23  43  63  95 132 165 209 259 318 383
#     4  11  22  40  66  96 124 168 214 262 318 384
#     4   8  17  32  54  83 115 154 200 256 318 365
#     4  11  22  36  62  91 121 170 216 266 319 383
#     4  10  22  41  62  94 128 162 213 262 327 375
#
# _framework density 22.752020999999999
#
# number of rings (size 3 to 8) (size 9 to 14) (size 15 to 20)
#    0.000    1.875    5.000    1.125    1.750    7.000 
#    0.000    1.250    0.000    2.250    0.000    0.000 
#    0.000    0.000    0.000    0.000    0.000    0.000 
#
# Total GULP energy -357627.750317 kJ/mol
# GULP energy per Si atom -5587.933599 kJ/mol
# Density = 2.270024 g / cm^3
# Si number density = 22.752021 Si / 1000 Ang^3
#
#
#
# Elastic Constant Matrix: (Units=GPa)
#
#
# Indices 1 2 3 4 5 6 
#
# 1 89.9526 -7.7227 0.6784 0.0000 0.0000 0.0000
# 2 -7.7227 80.6375 15.7428 0.0000 0.0000 0.0000
# 3 0.6784 15.7428 138.1993 0.0000 0.0000 0.0000
# 4 0.0000 0.0000 0.0000 18.4881 0.0000 0.0000
# 5 0.0000 0.0000 0.0000 0.0000 26.1950 0.0000
# 6 0.0000 0.0000 0.0000 0.0000 0.0000 19.1771
#
#
#
# Elastic Compliance Matrix: (Units=1/GPa)
#
#
# Indices 1 2 3 4 5 6 
#
# 1 0.011214 0.001109 -0.000181 0.000000 0.000000 0.000000
# 2 0.001109 0.012793 -0.001463 0.000000 0.000000 0.000000
# 3 -0.000181 -0.001463 0.007403 0.000000 0.000000 0.000000
# 4 0.000000 0.000000 0.000000 0.054089 0.000000 0.000000
# 5 0.000000 0.000000 0.000000 0.000000 0.038175 0.000000
# 6 0.000000 0.000000 0.000000 0.000000 0.000000 0.052146
#
#
# Mechanical properties :
#
#
# Convention : Reuss Voigt Hill
#
# Bulk Modulus (GPa) = 32.95938 36.24293 34.60115
# Shear Modulus (GPa) = 26.73756 32.77808 29.75782
#
# Velocity S-wave (km/s) = 3.43180 3.79973 3.62044
# Velocity P-wave (km/s) = 5.49734 5.93420 5.71994
#
# Compressibility (1/GPa) = 0.03034038
#
# Stress axis : x y z
#
# Youngs Moduli (GPa) = 89.17762 78.16784 135.07223
#
# Poissons Ratio (x) = -0.08671 0.02450
# Poissons Ratio (y) = -0.09893 0.19758
# Poissons Ratio (z) = 0.01618 0.11434
#
# Static dielectric constant tensor:
#      x y z
#    x 1.940540 0.000000 0.000000 
#    y 0.000000 1.995840 0.000000 
#    z 0.000000 0.000000 1.829080 
# 
# From -- ./inp_files/21648.got.cif
#   From: 2010.05.17/outbox.cif.g08.bks.cpg/sg55_11_cif.got.tgz:21648.got - 2010.06.03 13:27:54.
