data_PCOD9428928
_publ_section_title
;
Structure prediction by ZEFSAII (Michael W. Deem and Ramdas Pophale) SiO2 
 PCOD9428928
Probable space group: P B A M
;
_chemical_formula_sum "Si O2"
_cell_formula_units_Z 64
_cell_length_a 24.013609
_cell_length_b 15.558360
_cell_length_c 8.849353
_cell_angle_alpha 90.000000
_cell_angle_beta 90.000000
_cell_angle_gamma 90.000000
_cell_volume 3306.227780
_symmetry_space_group_name_H-M "P B A M"
_symmetry_group_IT_number 55
_symmetry_cell_setting 'orthorhombic'
loop_
_space_group_symop_operation_xyz
x,y,z
-x,-y,z
1/2+x,1/2-y,-z
1/2-x,1/2+y,-z
-x,-y,-z
x,y,-z
1/2-x,1/2+y,z
1/2+x,1/2-y,z
loop_
_atom_site_type_symbol
_atom_site_label
_atom_site_fract_x
_atom_site_fract_y
_atom_site_fract_z
Si Si1 0.669233 0.744941 0.180458
Si Si2 0.374628 0.604193 0.320003
Si Si3 0.604198 0.920750 0.819698
Si Si4 0.000335 0.339567 0.320698
Si Si5 0.493242 0.654213 0.179630
Si Si6 0.199997 0.249724 0.819476
Si Si7 0.872971 0.598716 0.320560
Si Si8 0.602184 0.588199 0.320861
O O1 0.640376 0.835965 0.215447
O O2 0.734584 0.748045 0.215878
O O3 0.639092 0.667854 0.266697
O O4 0.662644 0.730506 0.000000
O O5 0.373496 0.618358 0.500000
O O6 0.435082 0.631393 0.257965
O O7 0.328747 0.663683 0.242862
O O8 0.368667 0.502879 0.289155
O O9 0.544785 0.907070 0.739164
O O10 0.632634 0.006701 0.758407
O O11 0.596806 0.926060 0.000000
O O12 0.992842 0.325841 0.500000
O O13 0.991231 0.250621 0.232144
O O14 0.063473 0.369850 0.294538
O O15 0.543161 0.593950 0.236080
O O16 0.487781 0.650388 0.000000
O O17 0.168158 0.330260 0.746509
O O18 0.193231 0.252871 0.000000
O O19 0.864791 0.591087 0.500000
O O20 0.591813 0.593509 0.500000
#
# Coordination Sequence:
#
# PCOD9428928 Si02
#       8
#     8   8   8   8   8   8   8   8
#     4  10  24  44  64  90 124 163 210 262 313 365
#     4  11  24  42  63  93 128 163 206 257 311 374
#     4  11  23  40  64  94 127 164 209 257 306 371
#     4  11  22  38  62  92 128 165 201 251 312 372
#     4  12  23  37  63  95 127 165 206 251 309 374
#     4  11  24  43  66  90 121 164 212 262 312 367
#     4  11  24  41  63  92 128 165 205 256 313 373
#     4  11  24  41  65  94 127 166 206 254 312 371
#
# _framework density 19.357406999999998
#
# number of rings (size 3 to 8) (size 9 to 14) (size 15 to 20)
#    0.000    1.000    2.500    4.125    0.000    9.000 
#    0.000    3.750    0.000    0.000    0.000    0.000 
#    0.000    0.000    0.000    0.000    0.000    0.000 
#
# Total GULP energy -358139.032646 kJ/mol
# GULP energy per Si atom -5595.922385 kJ/mol
# Density = 1.931335 g / cm^3
# Si number density = 19.357407 Si / 1000 Ang^3
#
#
#
# Elastic Constant Matrix: (Units=GPa)
#
#
# Indices 1 2 3 4 5 6 
#
# 1 86.9854 21.0758 42.3369 0.0000 0.0000 0.0000
# 2 21.0758 90.4312 35.5770 0.0000 0.0000 0.0000
# 3 42.3369 35.5770 59.8506 0.0000 0.0000 0.0000
# 4 0.0000 0.0000 0.0000 49.3918 0.0000 0.0000
# 5 0.0000 0.0000 0.0000 0.0000 15.9026 0.0000
# 6 0.0000 0.0000 0.0000 0.0000 0.0000 4.5162
#
#
#
# Elastic Compliance Matrix: (Units=1/GPa)
#
#
# Indices 1 2 3 4 5 6 
#
# 1 0.017607 0.001040 -0.013073 0.000000 0.000000 0.000000
# 2 0.001040 0.014495 -0.009352 0.000000 0.000000 0.000000
# 3 -0.013073 -0.009352 0.031514 0.000000 0.000000 0.000000
# 4 0.000000 0.000000 0.000000 0.020246 0.000000 0.000000
# 5 0.000000 0.000000 0.000000 0.000000 0.062883 0.000000
# 6 0.000000 0.000000 0.000000 0.000000 0.000000 0.221426
#
#
# Mechanical properties :
#
#
# Convention : Reuss Voigt Hill
#
# Bulk Modulus (GPa) = 47.96876 48.36071 48.16473
# Shear Modulus (GPa) = 11.96487 23.18062 17.57274
#
# Velocity S-wave (km/s) = 2.48886 3.46425 3.01625
# Velocity P-wave (km/s) = 5.75271 6.40615 6.08820
#
# Compressibility (1/GPa) = 0.02084690
#
# Stress axis : x y z
#
# Youngs Moduli (GPa) = 56.79576 68.98984 31.73151
#
# Poissons Ratio (x) = -0.07172 0.41482
# Poissons Ratio (y) = -0.05904 0.29674
# Poissons Ratio (z) = 0.74247 0.64516
#
# Static dielectric constant tensor:
#      x y z
#    x 1.644740 0.000000 0.000000 
#    y 0.000000 1.673300 0.000000 
#    z 0.000000 0.000000 1.644130 
# 
# From -- ./inp_files/9661.got.cif
#   From: 2010.05.17/outbox.cif.g08.bks.cpg/sg55_5_cif.got.tgz:9661.got - 2010.06.03 13:27:54.
