data_PCOD9428647
_publ_section_title
;
Structure prediction by ZEFSAII (Michael W. Deem and Ramdas Pophale) SiO2 
 PCOD9428647
Probable space group: P B A M
;
_chemical_formula_sum "Si O2"
_cell_formula_units_Z 56
_cell_length_a 14.719874
_cell_length_b 21.332909
_cell_length_c 8.903524
_cell_angle_alpha 90.000000
_cell_angle_beta 90.000000
_cell_angle_gamma 90.000000
_cell_volume 2795.864418
_symmetry_space_group_name_H-M "P B A M"
_symmetry_group_IT_number 55
_symmetry_cell_setting 'orthorhombic'
loop_
_space_group_symop_operation_xyz
x,y,z
-x,-y,z
1/2+x,1/2-y,-z
1/2-x,1/2+y,-z
-x,-y,-z
x,y,-z
1/2-x,1/2+y,z
1/2+x,1/2-y,z
loop_
_atom_site_type_symbol
_atom_site_label
_atom_site_fract_x
_atom_site_fract_y
_atom_site_fract_z
Si Si1 0.723535 0.516558 0.321374
Si Si2 0.592246 0.035948 0.179553
Si Si3 0.606646 0.768948 0.178665
Si Si4 0.609267 0.620633 0.177713
Si Si5 0.420387 0.591279 0.321765
Si Si6 0.573672 0.172767 0.680228
Si Si7 0.296821 0.713192 0.321275
O O1 0.735547 0.516807 0.500000
O O2 0.818678 0.501981 0.243049
O O3 0.687148 0.583475 0.265153
O O4 0.646267 0.465785 0.283651
O O5 0.590543 0.105326 0.248344
O O6 0.500000 0.000000 0.221219
O O7 0.597286 0.039630 0.000000
O O8 0.607653 0.694508 0.212483
O O9 0.522517 0.800780 0.262302
O O10 0.703153 0.794914 0.233782
O O11 0.596009 0.777150 0.000000
O O12 0.512797 0.592688 0.229351
O O13 0.622548 0.612811 0.000000
O O14 0.442608 0.587083 0.500000
O O15 0.365202 0.655495 0.296297
O O16 0.572998 0.168346 0.500000
O O17 0.651223 0.223107 0.723437
O O18 0.277756 0.715829 0.500000
#
# Coordination Sequence:
#
# PCOD9428647 Si02
#       7
#     8   8   8   8   8   8   8
#     4  11  24  41  65  93 125 169 214 262 313 371
#     4  11  26  46  66  92 129 168 209 262 318 376
#     4  11  24  39  61  93 128 166 206 256 317 377
#     4  11  23  40  63  94 130 170 210 258 317 379
#     4  10  22  41  63  92 127 163 210 265 315 374
#     4  11  23  42  69  95 124 165 211 261 310 371
#     4  10  22  40  63  93 125 164 211 261 316 372
#
# _framework density 20.029585000000001
#
# number of rings (size 3 to 8) (size 9 to 14) (size 15 to 20)
#    0.000    1.286    1.429    3.429    2.000    9.714 
#    0.000    0.000    0.000    0.000    0.000    0.000 
#    0.000    0.000    0.000    0.000    0.000    0.000 
#
# Total GULP energy -313383.311627 kJ/mol
# GULP energy per Si atom -5596.130565 kJ/mol
# Density = 1.998400 g / cm^3
# Si number density = 20.029585 Si / 1000 Ang^3
#
#
#
# Elastic Constant Matrix: (Units=GPa)
#
#
# Indices 1 2 3 4 5 6 
#
# 1 82.0467 -10.1280 18.7447 0.0000 0.0000 0.0000
# 2 -10.1280 46.6750 11.2583 0.0000 0.0000 0.0000
# 3 18.7447 11.2583 26.1143 0.0000 0.0000 0.0000
# 4 0.0000 0.0000 0.0000 23.2804 0.0000 0.0000
# 5 0.0000 0.0000 0.0000 0.0000 35.2113 0.0000
# 6 0.0000 0.0000 0.0000 0.0000 0.0000 19.8271
#
#
#
# Elastic Compliance Matrix: (Units=1/GPa)
#
#
# Indices 1 2 3 4 5 6 
#
# 1 0.016484 0.007177 -0.014927 0.000000 0.000000 0.000000
# 2 0.007177 0.027036 -0.016808 0.000000 0.000000 0.000000
# 3 -0.014927 -0.016808 0.056253 0.000000 0.000000 0.000000
# 4 0.000000 0.000000 0.000000 0.042955 0.000000 0.000000
# 5 0.000000 0.000000 0.000000 0.000000 0.028400 0.000000
# 6 0.000000 0.000000 0.000000 0.000000 0.000000 0.050436
#
#
# Mechanical properties :
#
#
# Convention : Reuss Voigt Hill
#
# Bulk Modulus (GPa) = 19.73936 21.62068 20.68002
# Shear Modulus (GPa) = 17.38736 24.66117 21.02426
#
# Velocity S-wave (km/s) = 2.94952 3.51271 3.24336
# Velocity P-wave (km/s) = 4.63423 5.22206 4.93690
#
# Compressibility (1/GPa) = 0.05066021
#
# Stress axis : x y z
#
# Youngs Moduli (GPa) = 60.66347 36.98734 17.77668
#
# Poissons Ratio (x) = -0.26547 0.26535
# Poissons Ratio (y) = -0.43540 0.29878
# Poissons Ratio (z) = 0.90550 0.62167
#
# Static dielectric constant tensor:
#      x y z
#    x 1.685440 0.000000 0.000000 
#    y 0.000000 1.699590 0.000000 
#    z 0.000000 0.000000 1.667500 
# 
# From -- ./inp_files/6137.got.cif
#   From: 2010.05.17/outbox.cif.g08.bks.cpg/sg55_4_cif.got.tgz:6137.got - 2010.06.03 13:27:54.
