data_PCOD9428709
_publ_section_title
;
Structure prediction by ZEFSAII (Michael W. Deem and Ramdas Pophale) SiO2 
 PCOD9428709
Probable space group: P B A M
;
_chemical_formula_sum "Si O2"
_cell_formula_units_Z 64
_cell_length_a 30.795215
_cell_length_b 11.884407
_cell_length_c 8.817114
_cell_angle_alpha 90.000000
_cell_angle_beta 90.000000
_cell_angle_gamma 90.000000
_cell_volume 3226.912675
_symmetry_space_group_name_H-M "P B A M"
_symmetry_group_IT_number 55
_symmetry_cell_setting 'orthorhombic'
loop_
_space_group_symop_operation_xyz
x,y,z
-x,-y,z
1/2+x,1/2-y,-z
1/2-x,1/2+y,-z
-x,-y,-z
x,y,-z
1/2-x,1/2+y,z
1/2+x,1/2-y,z
loop_
_atom_site_type_symbol
_atom_site_label
_atom_site_fract_x
_atom_site_fract_y
_atom_site_fract_z
Si Si1 0.192537 0.762383 0.321943
Si Si2 0.552422 0.198928 0.318352
Si Si3 0.669734 0.965006 0.825896
Si Si4 0.213727 0.294239 0.819912
Si Si5 0.065790 0.537824 0.824330
Si Si6 0.460038 0.272885 0.320331
Si Si7 0.636552 0.344062 0.682129
Si Si8 0.883548 0.087166 0.819492
O O1 0.189502 0.785379 0.500000
O O2 0.185545 0.631028 0.286491
O O3 0.239596 0.793853 0.258201
O O4 0.154586 0.829790 0.236611
O O5 0.552684 0.179335 0.500000
O O6 0.511275 0.278530 0.284859
O O7 0.597501 0.258458 0.275786
O O8 0.547034 0.079396 0.236581
O O9 0.617890 0.974415 0.816132
O O10 0.691316 0.084794 0.795648
O O11 0.680574 0.931517 0.000000
O O12 0.181417 0.201460 0.750846
O O13 0.218315 0.276029 0.000000
O O14 0.053233 0.646151 0.726503
O O15 0.053702 0.556504 0.000000
O O16 0.453825 0.288358 0.500000
O O17 0.428968 0.358626 0.233586
O O18 0.639419 0.347275 0.500000
O O19 0.624695 0.466286 0.745011
O O20 0.882408 0.078554 0.000000
#
# Coordination Sequence:
#
# PCOD9428709 Si02
#       8
#     8   8   8   8   8   8   8   8
#     4  12  26  43  67  97 129 167 213 263 313 377
#     4  10  23  41  64  93 129 168 209 260 317 377
#     4  10  22  41  66  95 130 169 210 258 318 374
#     4  11  24  44  68  95 130 170 210 259 315 374
#     4  11  21  37  63  96 131 166 209 259 313 373
#     4  11  23  41  64  93 127 168 213 259 317 379
#     4  11  24  44  67  93 126 166 213 263 315 377
#     4  12  26  45  66  91 126 167 212 265 321 379
#
# _framework density 19.833197999999999
#
# number of rings (size 3 to 8) (size 9 to 14) (size 15 to 20)
#    0.000    1.000    2.500    4.125    1.750    5.000 
#    0.000    2.500    0.000    0.000    0.000    0.000 
#    0.000    0.000    0.000    0.000    0.000    0.000 
#
# Total GULP energy -358100.153486 kJ/mol
# GULP energy per Si atom -5595.314898 kJ/mol
# Density = 1.978806 g / cm^3
# Si number density = 19.833198 Si / 1000 Ang^3
#
#
#
# Elastic Constant Matrix: (Units=GPa)
#
#
# Indices 1 2 3 4 5 6 
#
# 1 44.7883 -24.9730 2.3401 0.0000 0.0000 0.0000
# 2 -24.9730 40.0576 11.2612 0.0000 0.0000 0.0000
# 3 2.3401 11.2612 55.7761 0.0000 0.0000 0.0000
# 4 0.0000 0.0000 0.0000 33.9515 0.0000 0.0000
# 5 0.0000 0.0000 0.0000 0.0000 17.0535 0.0000
# 6 0.0000 0.0000 0.0000 0.0000 0.0000 15.9686
#
#
#
# Elastic Compliance Matrix: (Units=1/GPa)
#
#
# Indices 1 2 3 4 5 6 
#
# 1 0.036292 0.024441 -0.006457 0.000000 0.000000 0.000000
# 2 0.024441 0.042926 -0.009692 0.000000 0.000000 0.000000
# 3 -0.006457 -0.009692 0.020157 0.000000 0.000000 0.000000
# 4 0.000000 0.000000 0.000000 0.029454 0.000000 0.000000
# 5 0.000000 0.000000 0.000000 0.000000 0.058639 0.000000
# 6 0.000000 0.000000 0.000000 0.000000 0.000000 0.062623
#
#
# Mechanical properties :
#
#
# Convention : Reuss Voigt Hill
#
# Bulk Modulus (GPa) = 8.62380 13.09763 10.86072
# Shear Modulus (GPa) = 18.37153 23.52765 20.94959
#
# Velocity S-wave (km/s) = 3.04682 3.44797 3.25359
# Velocity P-wave (km/s) = 4.09086 4.74021 4.42745
#
# Compressibility (1/GPa) = 0.11595810
#
# Stress axis : x y z
#
# Youngs Moduli (GPa) = 27.55393 23.29591 49.61154
#
# Poissons Ratio (x) = -0.56938 0.32036
# Poissons Ratio (y) = -0.67345 0.48085
# Poissons Ratio (z) = 0.17792 0.22579
#
# Static dielectric constant tensor:
#      x y z
#    x 1.695980 0.000000 0.000000 
#    y 0.000000 1.661380 0.000000 
#    z 0.000000 0.000000 1.667400 
# 
# From -- ./inp_files/10855.got.cif
#   From: 2010.05.17/outbox.cif.g08.bks.cpg/sg55_6_cif.got.tgz:10855.got - 2010.06.03 13:27:54.
