data_PCOD9428263
_publ_section_title
;
Structure prediction by ZEFSAII (Michael W. Deem and Ramdas Pophale) SiO2 
 PCOD9428263
Probable space group: P B A M
;
_chemical_formula_sum "Si O2"
_cell_formula_units_Z 40
_cell_length_a 15.235450
_cell_length_b 9.104002
_cell_length_c 13.838149
_cell_angle_alpha 90.000000
_cell_angle_beta 90.000000
_cell_angle_gamma 90.000000
_cell_volume 1919.400631
_symmetry_space_group_name_H-M "P B A M"
_symmetry_group_IT_number 55
_symmetry_cell_setting 'orthorhombic'
loop_
_space_group_symop_operation_xyz
x,y,z
-x,-y,z
1/2+x,1/2-y,-z
1/2-x,1/2+y,-z
-x,-y,-z
x,y,-z
1/2-x,1/2+y,z
1/2+x,1/2-y,z
loop_
_atom_site_type_symbol
_atom_site_label
_atom_site_fract_x
_atom_site_fract_y
_atom_site_fract_z
Si Si1 0.422915 0.702824 0.000000
Si Si2 0.532988 0.160445 0.192146
Si Si3 0.654228 0.700205 0.791287
Si Si4 0.266702 0.563619 0.326761
Si Si5 0.129872 0.335307 0.603812
Si Si6 0.867818 0.128215 0.000000
O O1 0.408134 0.781585 0.103196
O O2 0.374909 0.547388 0.000000
O O3 0.529660 0.679671 0.000000
O O4 0.449141 0.264515 0.209594
O O5 0.578030 0.146220 0.296202
O O6 0.500000 0.000000 0.161843
O O7 0.706670 0.831631 0.740390
O O8 0.676544 0.548629 0.737574
O O9 0.677447 0.685102 0.903597
O O10 0.325826 0.675462 0.387065
O O11 0.204330 0.460174 0.390083
O O12 0.082978 0.347461 0.500000
#
# Coordination Sequence:
#
# PCOD9428263 Si02
#       6
#     4   8   8   8   8   4
#     4   9  19  34  60  87 125 160 194 243 306 358
#     4  11  21  39  61  93 122 163 208 255 300 358
#     4  10  21  39  61  88 124 159 204 250 303 365
#     4  10  22  41  60  86 123 161 197 250 315 372
#     4  11  23  41  64  89 120 159 205 254 310 366
#     4   9  18  34  58  89 118 161 200 246 296 355
#
# _framework density 20.839838
#
# number of rings (size 3 to 8) (size 9 to 14) (size 15 to 20)
#    0.000    1.800    2.000    2.100    0.000    3.600 
#    0.000    7.000    0.000    0.000    0.000    0.000 
#    0.000    0.000    0.000    0.000    0.000    0.000 
#
# Total GULP energy -223396.394485 kJ/mol
# GULP energy per Si atom -5584.909862 kJ/mol
# Density = 2.079241 g / cm^3
# Si number density = 20.839838 Si / 1000 Ang^3
#
#
#
# Elastic Constant Matrix: (Units=GPa)
#
#
# Indices 1 2 3 4 5 6 
#
# 1 21.4889 0.2938 -0.4842 0.0000 0.0000 0.0000
# 2 0.2938 96.2786 21.7236 0.0000 0.0000 0.0000
# 3 -0.4842 21.7236 132.6889 0.0000 0.0000 0.0000
# 4 0.0000 0.0000 0.0000 -2.3964 0.0000 0.0000
# 5 0.0000 0.0000 0.0000 0.0000 25.6859 0.0000
# 6 0.0000 0.0000 0.0000 0.0000 0.0000 23.1964
#
#
#
# Elastic Compliance Matrix: (Units=1/GPa)
#
#
# Indices 1 2 3 4 5 6 
#
# 1 0.046543 -0.000187 0.000200 0.000000 0.000000 0.000000
# 2 -0.000187 0.010786 -0.001766 0.000000 0.000000 0.000000
# 3 0.000200 -0.001766 0.007826 0.000000 0.000000 0.000000
# 4 0.000000 0.000000 0.000000 -0.417301 0.000000 0.000000
# 5 0.000000 0.000000 0.000000 0.000000 0.038932 0.000000
# 6 0.000000 0.000000 0.000000 0.000000 0.000000 0.043110
#
#
# Mechanical properties :
#
#
# Convention : Reuss Voigt Hill
#
# Bulk Modulus (GPa) = 16.22104 32.61364 24.41734
# Shear Modulus (GPa) = -20.32120 24.55873 2.11876
#
# Velocity S-wave (km/s) = -3.12607 3.43658 1.00940
# Velocity P-wave (km/s) = 2.28674 5.60628 3.61948
#
# Compressibility (1/GPa) = 0.06164833
#
# Stress axis : x y z
#
# Youngs Moduli (GPa) = 21.48559 92.71557 127.77325
#
# Poissons Ratio (x) = 0.01736 -0.02562
# Poissons Ratio (y) = 0.00402 0.22571
# Poissons Ratio (z) = -0.00431 0.16378
#
# Static dielectric constant tensor:
#      x y z
#    x 1.768020 0.000000 0.000000 
#    y 0.000000 1.716840 0.000000 
#    z 0.000000 0.000000 1.776150 
# 
# From -- ./inp_files/14679.got.cif
#   From: 2010.05.17/outbox.cif.g08.bks.cpg/sg55_8_cif.got.tgz:14679.got - 2010.06.03 13:27:54.
