data_PCOD9428388
_publ_section_title
;
Structure prediction by ZEFSAII (Michael W. Deem and Ramdas Pophale) SiO2 
 PCOD9428388
Probable space group: P B A M
;
_chemical_formula_sum "Si O2"
_cell_formula_units_Z 28
_cell_length_a 12.385598
_cell_length_b 5.024234
_cell_length_c 20.024736
_cell_angle_alpha 90.000000
_cell_angle_beta 90.000000
_cell_angle_gamma 90.000000
_cell_volume 1246.102127
_symmetry_space_group_name_H-M "P B A M"
_symmetry_group_IT_number 55
_symmetry_cell_setting 'orthorhombic'
loop_
_space_group_symop_operation_xyz
x,y,z
-x,-y,z
1/2+x,1/2-y,-z
1/2-x,1/2+y,-z
-x,-y,-z
x,y,-z
1/2-x,1/2+y,z
1/2+x,1/2-y,z
loop_
_atom_site_type_symbol
_atom_site_label
_atom_site_fract_x
_atom_site_fract_y
_atom_site_fract_z
Si Si1 0.175496 0.658015 0.000000
Si Si2 0.187403 0.746598 0.713306
Si Si3 0.579111 0.751092 0.425820
Si Si4 0.500000 0.000000 0.890946
Si Si5 0.000000 0.000000 0.198065
O O1 0.098699 0.601314 0.936729
O O2 0.275201 0.452253 0.000000
O O3 0.212382 0.440772 0.728336
O O4 0.161269 0.768820 0.634826
O O5 0.089810 0.866202 0.755233
O O6 0.500000 0.500000 0.424640
O O7 0.628810 0.772406 0.500000
O O8 0.500000 0.000000 0.415046
O O9 0.537824 0.254195 0.847986
#
# Coordination Sequence:
#
# PCOD9428388 Si02
#       5
#     4   8   8   4   4
#     4  11  24  45  74 104 136 167 220 277 317 387
#     4  12  26  41  66  97 130 179 229 275 337 399
#     4  10  21  40  66  91 125 172 222 284 347 394
#     4  11  26  44  70 102 133 182 216 262 339 388
#     4  12  26  45  65  96 146 176 222 274 322 404
#
# _framework density 22.470067
#
# number of rings (size 3 to 8) (size 9 to 14) (size 15 to 20)
#    0.000    0.857    1.429    5.143    2.000   10.286 
#    0.000    0.000    0.000    0.000    0.000    0.000 
#    0.000    0.000    0.000    0.000    0.000    0.000 
#
# Total GULP energy -156787.209479 kJ/mol
# GULP energy per Si atom -5599.543196 kJ/mol
# Density = 2.241892 g / cm^3
# Si number density = 22.470067 Si / 1000 Ang^3
#
#
#
# Elastic Constant Matrix: (Units=GPa)
#
#
# Indices 1 2 3 4 5 6 
#
# 1 41.8078 -3.9952 30.6116 0.0000 0.0000 0.0000
# 2 -3.9952 123.4296 23.5684 0.0000 0.0000 0.0000
# 3 30.6116 23.5684 109.6771 0.0000 0.0000 0.0000
# 4 0.0000 0.0000 0.0000 -549.0081 0.0000 0.0000
# 5 0.0000 0.0000 0.0000 0.0000 40.8168 0.0000
# 6 0.0000 0.0000 0.0000 0.0000 0.0000 42.1727
#
#
#
# Elastic Compliance Matrix: (Units=1/GPa)
#
#
# Indices 1 2 3 4 5 6 
#
# 1 0.030941 0.002764 -0.009230 0.000000 0.000000 0.000000
# 2 0.002764 0.008695 -0.002640 0.000000 0.000000 0.000000
# 3 -0.009230 -0.002640 0.012261 0.000000 0.000000 0.000000
# 4 0.000000 0.000000 0.000000 -0.001821 0.000000 0.000000
# 5 0.000000 0.000000 0.000000 0.000000 0.024500 0.000000
# 6 0.000000 0.000000 0.000000 0.000000 0.000000 0.023712
#
#
# Mechanical properties :
#
#
# Convention : Reuss Voigt Hill
#
# Bulk Modulus (GPa) = 29.68608 41.69823 35.69215
# Shear Modulus (GPa) = 39.14567 -78.22173 -19.53803
#
# Velocity S-wave (km/s) = 4.17841 -5.90653 -2.95195
# Velocity P-wave (km/s) = 6.04308 5.28381 2.07367
#
# Compressibility (1/GPa) = 0.03368582
#
# Stress axis : x y z
#
# Youngs Moduli (GPa) = 32.31947 115.00417 81.55901
#
# Poissons Ratio (x) = -0.31786 0.75277
# Poissons Ratio (y) = -0.08933 0.21531
# Poissons Ratio (z) = 0.29830 0.30361
#
# Static dielectric constant tensor:
#      x y z
#    x 1.823590 0.000000 0.000000 
#    y 0.000000 1.781520 0.000000 
#    z 0.000000 0.000000 1.836830 
# 
# From -- ./inp_files/22767.got.cif
#   From: 2010.05.17/outbox.cif.g08.bks.cpg/sg55_12_cif.got.tgz:22767.got - 2010.06.03 13:27:54.
