data_PCOD9428362
_publ_section_title
;
Structure prediction by ZEFSAII (Michael W. Deem and Ramdas Pophale) SiO2 
 PCOD9428362
Probable space group: P B A M
;
_chemical_formula_sum "Si O2"
_cell_formula_units_Z 32
_cell_length_a 11.024088
_cell_length_b 12.519684
_cell_length_c 11.454500
_cell_angle_alpha 90.000000
_cell_angle_beta 90.000000
_cell_angle_gamma 90.000000
_cell_volume 1580.928305
_symmetry_space_group_name_H-M "P B A M"
_symmetry_group_IT_number 55
_symmetry_cell_setting 'orthorhombic'
loop_
_space_group_symop_operation_xyz
x,y,z
-x,-y,z
1/2+x,1/2-y,-z
1/2-x,1/2+y,-z
-x,-y,-z
x,y,-z
1/2-x,1/2+y,z
1/2+x,1/2-y,z
loop_
_atom_site_type_symbol
_atom_site_label
_atom_site_fract_x
_atom_site_fract_y
_atom_site_fract_z
Si Si1 0.140890 0.958708 0.500000
Si Si2 0.094203 0.902670 0.244750
Si Si3 0.335707 0.970052 0.865513
Si Si4 0.452249 0.163158 0.245804
Si Si5 0.607373 0.911606 0.500000
O O1 0.149100 0.898443 0.376587
O O2 0.255235 0.040879 0.500000
O O3 0.000000 0.000000 0.500000
O O4 0.200971 0.932202 0.157431
O O5 0.040564 0.787184 0.215602
O O6 0.000000 0.000000 0.242770
O O7 0.423511 0.898358 0.784581
O O8 0.354872 0.092751 0.826340
O O9 0.369974 0.956562 0.000000
O O10 0.416037 0.151894 0.380985
O O11 0.500000 0.000000 0.500000
#
# Coordination Sequence:
#
# PCOD9428362 Si02
#       5
#     4   8   8   8   4
#     4  10  21  40  63  99 142 162 209 279 337 402
#     4  11  25  43  67 102 135 173 222 277 342 406
#     4  11  25  45  67  94 133 179 230 281 331 394
#     4  11  23  42  70  97 132 174 223 277 339 401
#     4  12  19  40  72  98 132 178 219 270 343 414
#
# _framework density 20.241271000000001
#
# number of rings (size 3 to 8) (size 9 to 14) (size 15 to 20)
#    0.000    1.000    5.000    2.250    3.500    2.500 
#    0.000    2.500    0.000    0.000    0.000    0.000 
#    0.000    0.000    0.000    0.000    0.000    0.000 
#
# Total GULP energy -178609.831285 kJ/mol
# GULP energy per Si atom -5581.557228 kJ/mol
# Density = 2.019520 g / cm^3
# Si number density = 20.241271 Si / 1000 Ang^3
#
#
#
# Elastic Constant Matrix: (Units=GPa)
#
#
# Indices 1 2 3 4 5 6 
#
# 1 95.6084 49.8013 37.6953 0.0000 0.0000 0.0000
# 2 49.8013 170.1134 25.5215 0.0000 0.0000 0.0000
# 3 37.6953 25.5215 97.2814 0.0000 0.0000 0.0000
# 4 0.0000 0.0000 0.0000 -4.9371 0.0000 0.0000
# 5 0.0000 0.0000 0.0000 0.0000 50.4685 0.0000
# 6 0.0000 0.0000 0.0000 0.0000 0.0000 11.5733
#
#
#
# Elastic Compliance Matrix: (Units=1/GPa)
#
#
# Indices 1 2 3 4 5 6 
#
# 1 0.014034 -0.003428 -0.004539 0.000000 0.000000 0.000000
# 2 -0.003428 0.006956 -0.000497 0.000000 0.000000 0.000000
# 3 -0.004539 -0.000497 0.012169 0.000000 0.000000 0.000000
# 4 0.000000 0.000000 0.000000 -0.202549 0.000000 0.000000
# 5 0.000000 0.000000 0.000000 0.000000 0.019814 0.000000
# 6 0.000000 0.000000 0.000000 0.000000 0.000000 0.086406
#
#
# Mechanical properties :
#
#
# Convention : Reuss Voigt Hill
#
# Bulk Modulus (GPa) = 61.60452 65.44880 63.52666
# Shear Modulus (GPa) = -122.45478 28.08661 -47.18409
#
# Velocity S-wave (km/s) = -7.78646 3.72908 -4.83337
# Velocity P-wave (km/s) = 7.09488 7.13764 0.55161
#
# Compressibility (1/GPa) = 0.01623258
#
# Stress axis : x y z
#
# Youngs Moduli (GPa) = 71.25416 143.75209 82.17908
#
# Poissons Ratio (x) = 0.49273 0.37300
# Poissons Ratio (y) = 0.24423 0.04083
# Poissons Ratio (z) = 0.32341 0.07142
#
# Static dielectric constant tensor:
#      x y z
#    x 1.726770 0.000000 0.000000 
#    y 0.000000 1.721840 0.000000 
#    z 0.000000 0.000000 1.736760 
# 
# From -- ./inp_files/12784.got.cif
#   From: 2010.05.17/outbox.cif.g08.bks.cpg/sg55_7_cif.got.tgz:12784.got - 2010.06.03 13:27:54.
