data_PCOD9428304
_publ_section_title
;
Structure prediction by ZEFSAII (Michael W. Deem and Ramdas Pophale) SiO2 
 PCOD9428304
Probable space group: P B A M
;
_chemical_formula_sum "Si O2"
_cell_formula_units_Z 56
_cell_length_a 14.933921
_cell_length_b 14.604433
_cell_length_c 14.095641
_cell_angle_alpha 90.000000
_cell_angle_beta 90.000000
_cell_angle_gamma 90.000000
_cell_volume 3074.279722
_symmetry_space_group_name_H-M "P B A M"
_symmetry_group_IT_number 55
_symmetry_cell_setting 'orthorhombic'
loop_
_space_group_symop_operation_xyz
x,y,z
-x,-y,z
1/2+x,1/2-y,-z
1/2-x,1/2+y,-z
-x,-y,-z
x,y,-z
1/2-x,1/2+y,z
1/2+x,1/2-y,z
loop_
_atom_site_type_symbol
_atom_site_label
_atom_site_fract_x
_atom_site_fract_y
_atom_site_fract_z
Si Si1 0.755927 0.636411 0.894159
Si Si2 0.105876 0.480063 0.386332
Si Si3 0.455027 0.907645 0.108614
Si Si4 0.311112 0.791191 0.303267
Si Si5 0.997203 0.756562 0.250739
Si Si6 0.942315 0.091238 0.106402
Si Si7 0.149417 0.683681 0.611037
O O1 0.848024 0.580381 0.891639
O O2 0.766427 0.700089 0.801745
O O3 0.664877 0.579178 0.886497
O O4 0.754064 0.681533 0.000000
O O5 0.110296 0.463934 0.500000
O O6 0.151361 0.391478 0.336625
O O7 0.156273 0.575560 0.363488
O O8 0.000000 0.500000 0.364722
O O9 0.481927 0.825494 0.176058
O O10 0.500000 0.000000 0.141776
O O11 0.482953 0.889340 0.000000
O O12 0.400012 0.729778 0.296691
O O13 0.237740 0.743265 0.368797
O O14 0.029582 0.841272 0.189259
O O15 0.069403 0.726327 0.327631
O O16 0.959271 0.130033 0.000000
O O17 0.000000 0.000000 0.113512
O O18 0.126584 0.686606 0.500000
#
# Coordination Sequence:
#
# PCOD9428304 Si02
#       7
#     8   8   8   8   8   8   8
#     4   9  19  35  56  85 117 153 195 241 292 358
#     4  10  21  39  64  89 119 159 207 255 306 367
#     4   9  19  35  57  88 123 151 187 247 307 359
#     4  11  22  38  65  90 122 161 199 255 313 371
#     4  11  22  37  61  89 114 161 202 255 301 374
#     4  10  21  40  61  83 119 165 209 246 295 372
#     4  11  24  40  61  93 122 157 207 258 312 365
#
# _framework density 18.215648999999999
#
# number of rings (size 3 to 8) (size 9 to 14) (size 15 to 20)
#    0.000    1.857    2.857    0.857    4.000    2.286 
#    0.000    0.000    0.000    1.286    0.000    0.000 
#    0.000    0.000    0.000    0.000    0.000    0.000 
#
# Total GULP energy -312201.287784 kJ/mol
# GULP energy per Si atom -5575.022996 kJ/mol
# Density = 1.817419 g / cm^3
# Si number density = 18.215649 Si / 1000 Ang^3
#
#
#
# Elastic Constant Matrix: (Units=GPa)
#
#
# Indices 1 2 3 4 5 6 
#
# 1 100.0477 46.4431 39.9456 0.0000 0.0000 0.0000
# 2 46.4431 70.9425 37.2459 0.0000 0.0000 0.0000
# 3 39.9456 37.2459 97.2952 0.0000 0.0000 0.0000
# 4 0.0000 0.0000 0.0000 -7.6152 0.0000 0.0000
# 5 0.0000 0.0000 0.0000 0.0000 28.8244 0.0000
# 6 0.0000 0.0000 0.0000 0.0000 0.0000 23.3504
#
#
#
# Elastic Compliance Matrix: (Units=1/GPa)
#
#
# Indices 1 2 3 4 5 6 
#
# 1 0.015031 -0.008261 -0.003009 0.000000 0.000000 0.000000
# 2 -0.008261 0.022181 -0.005100 0.000000 0.000000 0.000000
# 3 -0.003009 -0.005100 0.013466 0.000000 0.000000 0.000000
# 4 0.000000 0.000000 0.000000 -0.131316 0.000000 0.000000
# 5 0.000000 0.000000 0.000000 0.000000 0.034693 0.000000
# 6 0.000000 0.000000 0.000000 0.000000 0.000000 0.042826
#
#
# Mechanical properties :
#
#
# Convention : Reuss Voigt Hill
#
# Bulk Modulus (GPa) = 55.74317 57.28384 56.51351
# Shear Modulus (GPa) = 140.45218 18.55529 79.50374
#
# Velocity S-wave (km/s) = 8.79048 3.19509 6.61367
# Velocity P-wave (km/s) = 11.56280 6.71769 9.45584
#
# Compressibility (1/GPa) = 0.01793942
#
# Stress axis : x y z
#
# Youngs Moduli (GPa) = 66.52812 45.08313 74.26297
#
# Poissons Ratio (x) = 0.37241 0.22346
# Poissons Ratio (y) = 0.54956 0.37873
# Poissons Ratio (z) = 0.20018 0.22992
#
# Static dielectric constant tensor:
#      x y z
#    x 1.632570 0.000000 0.000000 
#    y 0.000000 1.598870 0.000000 
#    z 0.000000 0.000000 1.661090 
# 
# From -- ./inp_files/18936.got.cif
#   From: 2010.05.17/outbox.cif.g08.bks.cpg/sg55_10_cif.got.tgz:18936.got - 2010.06.03 13:27:54.
