data_PCOD9428297
_publ_section_title
;
Structure prediction by ZEFSAII (Michael W. Deem and Ramdas Pophale) SiO2 
 PCOD9428297
Probable space group: P B A M
;
_chemical_formula_sum "Si O2"
_cell_formula_units_Z 36
_cell_length_a 4.934496
_cell_length_b 12.343444
_cell_length_c 23.579186
_cell_angle_alpha 90.000000
_cell_angle_beta 90.000000
_cell_angle_gamma 90.000000
_cell_volume 1436.176978
_symmetry_space_group_name_H-M "P B A M"
_symmetry_group_IT_number 55
_symmetry_cell_setting 'orthorhombic'
loop_
_space_group_symop_operation_xyz
x,y,z
-x,-y,z
1/2+x,1/2-y,-z
1/2-x,1/2+y,-z
-x,-y,-z
x,y,-z
1/2-x,1/2+y,z
1/2+x,1/2-y,z
loop_
_atom_site_type_symbol
_atom_site_label
_atom_site_fract_x
_atom_site_fract_y
_atom_site_fract_z
Si Si1 0.972454 0.820833 0.437426
Si Si2 0.203586 0.323243 0.933074
Si Si3 0.500000 0.500000 0.858373
Si Si4 0.181728 0.681814 0.209808
Si Si5 0.762469 0.927700 0.323879
O O1 0.918603 0.868830 0.500000
O O2 0.786046 0.712593 0.434553
O O3 0.877720 0.886197 0.383303
O O4 0.401070 0.219888 0.922257
O O5 0.313925 0.423893 0.897891
O O6 0.225228 0.348767 0.000000
O O7 0.695528 0.423139 0.820692
O O8 0.377786 0.782845 0.196133
O O9 0.194288 0.662381 0.277544
O O10 0.500000 0.000000 0.333239
O O11 0.000000 0.000000 0.297741
#
# Coordination Sequence:
#
# PCOD9428297 Si02
#       5
#     8   8   4   8   8
#     4  10  21  39  63  91 125 167 215 271 336 401
#     4  10  23  44  69 101 138 177 221 274 338 398
#     4  12  25  44  70 102 135 178 232 280 328 402
#     4  12  27  45  67  95 136 180 224 280 336 396
#     4  12  24  42  65  93 129 171 224 278 333 402
#
# _framework density 25.066547
#
# number of rings (size 3 to 8) (size 9 to 14) (size 15 to 20)
#    0.000    0.889    1.111    5.667    0.000    3.556 
#    0.000    3.333    0.000    0.000    0.000    0.000 
#    0.000    0.000    0.000    0.000    0.000    0.000 
#
# Total GULP energy -201979.650875 kJ/mol
# GULP energy per Si atom -5610.545858 kJ/mol
# Density = 2.500949 g / cm^3
# Si number density = 25.066547 Si / 1000 Ang^3
#
#
#
# Elastic Constant Matrix: (Units=GPa)
#
#
# Indices 1 2 3 4 5 6 
#
# 1 85.2765 14.6454 -7.4707 0.0000 0.0000 0.0000
# 2 14.6454 89.6158 46.6211 0.0000 0.0000 0.0000
# 3 -7.4707 46.6211 135.3032 0.0000 0.0000 0.0000
# 4 0.0000 0.0000 0.0000 74.2190 0.0000 0.0000
# 5 0.0000 0.0000 0.0000 0.0000 36.0239 0.0000
# 6 0.0000 0.0000 0.0000 0.0000 0.0000 42.4671
#
#
#
# Elastic Compliance Matrix: (Units=1/GPa)
#
#
# Indices 1 2 3 4 5 6 
#
# 1 0.012371 -0.002896 0.001681 0.000000 0.000000 0.000000
# 2 -0.002896 0.014274 -0.005078 0.000000 0.000000 0.000000
# 3 0.001681 -0.005078 0.009233 0.000000 0.000000 0.000000
# 4 0.000000 0.000000 0.000000 0.013474 0.000000 0.000000
# 5 0.000000 0.000000 0.000000 0.000000 0.027759 0.000000
# 6 0.000000 0.000000 0.000000 0.000000 0.000000 0.023548
#
#
# Mechanical properties :
#
#
# Convention : Reuss Voigt Hill
#
# Bulk Modulus (GPa) = 42.93393 46.42078 44.67736
# Shear Modulus (GPa) = 41.31886 47.63532 44.47709
#
# Velocity S-wave (km/s) = 4.06441 4.36403 4.21689
# Velocity P-wave (km/s) = 6.26028 6.62965 6.44761
#
# Compressibility (1/GPa) = 0.02329160
#
# Stress axis : x y z
#
# Youngs Moduli (GPa) = 80.83265 70.05772 108.30211
#
# Poissons Ratio (x) = 0.20291 -0.18206
# Poissons Ratio (y) = 0.23411 0.54999
# Poissons Ratio (z) = -0.13588 0.35577
#
# Static dielectric constant tensor:
#      x y z
#    x 1.898800 0.000000 0.000000 
#    y 0.000000 1.970450 0.000000 
#    z 0.000000 0.000000 1.993880 
# 
# From -- ./inp_files/23237.got.cif
#   From: 2010.05.17/outbox.cif.g08.bks.cpg/sg55_12_cif.got.tgz:23237.got - 2010.06.03 13:27:54.
