data_PCOD9428017
_publ_section_title
;
Structure prediction by ZEFSAII (Michael W. Deem and Ramdas Pophale) SiO2 
 PCOD9428017
Probable space group: P B A M
;
_chemical_formula_sum "Si O2"
_cell_formula_units_Z 64
_cell_length_a 28.606032
_cell_length_b 13.051366
_cell_length_c 8.286503
_cell_angle_alpha 90.000000
_cell_angle_beta 90.000000
_cell_angle_gamma 90.000000
_cell_volume 3093.747610
_symmetry_space_group_name_H-M "P B A M"
_symmetry_group_IT_number 55
_symmetry_cell_setting 'orthorhombic'
loop_
_space_group_symop_operation_xyz
x,y,z
-x,-y,z
1/2+x,1/2-y,-z
1/2-x,1/2+y,-z
-x,-y,-z
x,y,-z
1/2-x,1/2+y,z
1/2+x,1/2-y,z
loop_
_atom_site_type_symbol
_atom_site_label
_atom_site_fract_x
_atom_site_fract_y
_atom_site_fract_z
Si Si1 0.971716 0.099589 0.305473
Si Si2 0.694954 0.185156 0.691760
Si Si3 0.866316 0.080923 0.193530
Si Si4 0.344976 0.037125 0.307358
Si Si5 0.043110 0.258747 0.312420
Si Si6 0.373022 0.643556 0.811770
Si Si7 0.203779 0.744985 0.806184
Si Si8 0.553033 0.020847 0.188408
O O1 0.974994 0.099269 0.500000
O O2 0.918731 0.094077 0.253362
O O3 0.995842 0.205553 0.252236
O O4 0.000000 0.000000 0.244923
O O5 0.685436 0.192840 0.500000
O O6 0.662360 0.264721 0.784542
O O7 0.747324 0.221858 0.727848
O O8 0.680632 0.069550 0.741276
O O9 0.833222 0.170321 0.253513
O O10 0.851392 0.965442 0.236879
O O11 0.866160 0.087795 0.000000
O O12 0.342238 0.044756 0.500000
O O13 0.317412 0.133804 0.234795
O O14 0.400329 0.030714 0.262034
O O15 0.039384 0.288758 0.500000
O O16 0.081794 0.170553 0.293304
O O17 0.058593 0.357329 0.213466
O O18 0.386805 0.637437 0.000000
O O19 0.209264 0.751394 0.000000
O O20 0.500000 0.000000 0.253899
O O21 0.552475 0.993552 0.000000
#
# Coordination Sequence:
#
# PCOD9428017 Si02
#       8
#     8   8   8   8   8   8   8   8
#     4  10  21  37  58  88 126 168 208 252 311 372
#     4  11  25  45  69  98 127 164 214 270 327 386
#     4  10  24  42  62  93 129 167 214 264 318 380
#     4  11  25  46  70  99 134 171 219 272 326 389
#     4  11  22  38  60  91 127 168 216 264 318 383
#     4  11  22  39  65  96 127 166 215 267 322 383
#     4  11  26  46  68  96 131 171 214 265 326 389
#     4  11  25  43  65  94 129 172 220 270 327 390
#
# _framework density 20.686885
#
# number of rings (size 3 to 8) (size 9 to 14) (size 15 to 20)
#    0.000    1.250    2.500    2.250    3.500    5.250 
#    0.000    0.000    0.000    0.000    0.000    0.000 
#    0.000    0.000    0.000    0.000    0.000    0.000 
#
# Total GULP energy -357545.225962 kJ/mol
# GULP energy per Si atom -5586.644156 kJ/mol
# Density = 2.063980 g / cm^3
# Si number density = 20.686885 Si / 1000 Ang^3
#
#
#
# Elastic Constant Matrix: (Units=GPa)
#
#
# Indices 1 2 3 4 5 6 
#
# 1 87.5635 27.3529 -1.0516 0.0000 0.0000 0.0000
# 2 27.3529 86.0748 3.2344 0.0000 0.0000 0.0000
# 3 -1.0516 3.2344 22.2018 0.0000 0.0000 0.0000
# 4 0.0000 0.0000 0.0000 20.3842 0.0000 0.0000
# 5 0.0000 0.0000 0.0000 0.0000 33.7941 0.0000
# 6 0.0000 0.0000 0.0000 0.0000 0.0000 28.8963
#
#
#
# Elastic Compliance Matrix: (Units=1/GPa)
#
#
# Indices 1 2 3 4 5 6 
#
# 1 0.012710 -0.004084 0.001197 0.000000 0.000000 0.000000
# 2 -0.004084 0.012994 -0.002086 0.000000 0.000000 0.000000
# 3 0.001197 -0.002086 0.045402 0.000000 0.000000 0.000000
# 4 0.000000 0.000000 0.000000 0.049058 0.000000 0.000000
# 5 0.000000 0.000000 0.000000 0.000000 0.029591 0.000000
# 6 0.000000 0.000000 0.000000 0.000000 0.000000 0.034607
#
#
# Mechanical properties :
#
#
# Convention : Reuss Voigt Hill
#
# Bulk Modulus (GPa) = 16.35071 28.32349 22.33710
# Shear Modulus (GPa) = 23.28883 27.70186 25.49535
#
# Velocity S-wave (km/s) = 3.35890 3.66335 3.51442
# Velocity P-wave (km/s) = 4.79208 5.62270 5.22392
#
# Compressibility (1/GPa) = 0.06115943
#
# Stress axis : x y z
#
# Youngs Moduli (GPa) = 78.67547 76.95831 22.02546
#
# Poissons Ratio (x) = 0.31431 -0.02636
# Poissons Ratio (y) = 0.32132 0.04595
# Poissons Ratio (z) = -0.09417 0.16057
#
# Static dielectric constant tensor:
#      x y z
#    x 1.760570 0.000000 0.000000 
#    y 0.000000 1.744540 0.000000 
#    z 0.000000 0.000000 1.713370 
# 
# From -- ./inp_files/10824.got.cif
#   From: 2010.05.17/outbox.cif.g08.bks.cpg/sg55_6_cif.got.tgz:10824.got - 2010.06.03 13:27:54.
