data_PCOD9428173
_publ_section_title
;
Structure prediction by ZEFSAII (Michael W. Deem and Ramdas Pophale) SiO2 
 PCOD9428173
Probable space group: P B A M
;
_chemical_formula_sum "Si O2"
_cell_formula_units_Z 64
_cell_length_a 12.760693
_cell_length_b 18.554735
_cell_length_c 13.915379
_cell_angle_alpha 90.000000
_cell_angle_beta 90.000000
_cell_angle_gamma 90.000000
_cell_volume 3294.762056
_symmetry_space_group_name_H-M "P B A M"
_symmetry_group_IT_number 55
_symmetry_cell_setting 'orthorhombic'
loop_
_space_group_symop_operation_xyz
x,y,z
-x,-y,z
1/2+x,1/2-y,-z
1/2-x,1/2+y,-z
-x,-y,-z
x,y,-z
1/2-x,1/2+y,z
1/2+x,1/2-y,z
loop_
_atom_site_type_symbol
_atom_site_label
_atom_site_fract_x
_atom_site_fract_y
_atom_site_fract_z
Si Si1 0.081078 0.441923 0.792478
Si Si2 0.693851 0.187810 0.114529
Si Si3 0.594343 0.635604 0.213204
Si Si4 0.806375 0.985898 0.764566
Si Si5 0.378815 0.649515 0.887932
Si Si6 0.729692 0.380297 0.386256
Si Si7 0.475102 0.704392 0.387845
Si Si8 0.972120 0.371313 0.387057
O O1 0.104220 0.368387 0.850748
O O2 0.192270 0.481410 0.783707
O O3 0.000000 0.500000 0.835468
O O4 0.036118 0.419703 0.687733
O O5 0.798352 0.169235 0.174005
O O6 0.664845 0.270800 0.132315
O O7 0.710677 0.177948 0.000000
O O8 0.612595 0.550042 0.219731
O O9 0.500600 0.650869 0.140102
O O10 0.556513 0.667252 0.315314
O O11 0.827036 0.915546 0.828867
O O12 0.809076 0.955276 0.657164
O O13 0.364698 0.634836 0.000000
O O14 0.733049 0.381783 0.500000
O O15 0.641950 0.321361 0.359999
O O16 0.849854 0.368572 0.355310
O O17 0.493810 0.684757 0.500000
O O18 0.484997 0.790110 0.380877
O O19 0.978354 0.394029 0.500000
#
# Coordination Sequence:
#
# PCOD9428173 Si02
#       8
#     8   8   8   8   8   8   8   8
#     4  11  23  40  65  95 129 165 210 264 324 382
#     4  10  25  45  65  94 124 164 217 270 322 382
#     4  11  23  40  67  91 129 167 207 266 320 385
#     4  11  24  38  59  96 125 163 212 260 320 373
#     4  11  24  43  67  91 122 168 219 265 324 387
#     4  10  21  38  61  89 128 168 211 260 307 373
#     4  10  22  38  63  98 131 169 213 261 319 377
#     4  10  22  40  65  94 131 175 217 260 314 383
#
# _framework density 19.424771
#
# number of rings (size 3 to 8) (size 9 to 14) (size 15 to 20)
#    0.000    1.500    2.500    1.500    1.750    6.500 
#    0.000    5.625    0.000    0.000    0.000    0.000 
#    0.000    0.000    0.000    0.000    0.000    0.000 
#
# Total GULP energy -357371.886948 kJ/mol
# GULP energy per Si atom -5583.935734 kJ/mol
# Density = 1.938056 g / cm^3
# Si number density = 19.424771 Si / 1000 Ang^3
#
#
#
# Elastic Constant Matrix: (Units=GPa)
#
#
# Indices 1 2 3 4 5 6 
#
# 1 76.7687 25.1689 13.4725 0.0000 0.0000 0.0000
# 2 25.1689 77.8565 5.9817 0.0000 0.0000 0.0000
# 3 13.4725 5.9817 41.1705 0.0000 0.0000 0.0000
# 4 0.0000 0.0000 0.0000 5.6850 0.0000 0.0000
# 5 0.0000 0.0000 0.0000 0.0000 27.8404 0.0000
# 6 0.0000 0.0000 0.0000 0.0000 0.0000 45.1129
#
#
#
# Elastic Compliance Matrix: (Units=1/GPa)
#
#
# Indices 1 2 3 4 5 6 
#
# 1 0.015299 -0.004613 -0.004336 0.000000 0.000000 0.000000
# 2 -0.004613 0.014380 -0.000580 0.000000 0.000000 0.000000
# 3 -0.004336 -0.000580 0.025792 0.000000 0.000000 0.000000
# 4 0.000000 0.000000 0.000000 0.175901 0.000000 0.000000
# 5 0.000000 0.000000 0.000000 0.000000 0.035919 0.000000
# 6 0.000000 0.000000 0.000000 0.000000 0.000000 0.022167
#
#
# Mechanical properties :
#
#
# Convention : Reuss Voigt Hill
#
# Bulk Modulus (GPa) = 27.46196 31.67132 29.56664
# Shear Modulus (GPa) = 15.59313 25.80586 20.69950
#
# Velocity S-wave (km/s) = 2.83635 3.64882 3.26793
# Velocity P-wave (km/s) = 4.98947 5.83882 5.43077
#
# Compressibility (1/GPa) = 0.03641401
#
# Stress axis : x y z
#
# Youngs Moduli (GPa) = 65.36183 69.54173 38.77097
#
# Poissons Ratio (x) = 0.32078 0.16813
# Poissons Ratio (y) = 0.30150 0.02248
# Poissons Ratio (z) = 0.28343 0.04032
#
# Static dielectric constant tensor:
#      x y z
#    x 1.673970 0.000000 0.000000 
#    y 0.000000 1.669610 0.000000 
#    z 0.000000 0.000000 1.687710 
# 
# From -- ./inp_files/18552.got.cif
#   From: 2010.05.17/outbox.cif.g08.bks.cpg/sg55_10_cif.got.tgz:18552.got - 2010.06.03 13:27:54.
