data_PCOD9428053
_publ_section_title
;
Structure prediction by ZEFSAII (Michael W. Deem and Ramdas Pophale) SiO2 
 PCOD9428053
Probable space group: P B A M
;
_chemical_formula_sum "Si O2"
_cell_formula_units_Z 64
_cell_length_a 30.396233
_cell_length_b 11.781594
_cell_length_c 7.536718
_cell_angle_alpha 90.000000
_cell_angle_beta 90.000000
_cell_angle_gamma 90.000000
_cell_volume 2699.019879
_symmetry_space_group_name_H-M "P B A M"
_symmetry_group_IT_number 55
_symmetry_cell_setting 'orthorhombic'
loop_
_space_group_symop_operation_xyz
x,y,z
-x,-y,z
1/2+x,1/2-y,-z
1/2-x,1/2+y,-z
-x,-y,-z
x,y,-z
1/2-x,1/2+y,z
1/2+x,1/2-y,z
loop_
_atom_site_type_symbol
_atom_site_label
_atom_site_fract_x
_atom_site_fract_y
_atom_site_fract_z
Si Si1 0.726037 0.527414 0.794764
Si Si2 0.518428 0.798529 0.713022
Si Si3 0.179764 0.430799 0.785542
Si Si4 0.664771 0.322009 0.706455
Si Si5 0.440527 0.437227 0.291677
Si Si6 0.851595 0.170940 0.215288
Si Si7 0.434727 0.687032 0.282734
Si Si8 0.894347 0.407235 0.211794
O O1 0.775179 0.508358 0.724946
O O2 0.696084 0.415878 0.789155
O O3 0.695650 0.628355 0.718203
O O4 0.732596 0.558725 0.000000
O O5 0.517447 0.795414 0.500000
O O6 0.539843 0.679884 0.782008
O O7 0.467905 0.786984 0.773659
O O8 0.553556 0.896357 0.753698
O O9 0.184740 0.302198 0.726199
O O10 0.134642 0.488382 0.719178
O O11 0.176917 0.433614 0.000000
O O12 0.661026 0.352718 0.500000
O O13 0.615268 0.308871 0.780429
O O14 0.451451 0.436467 0.500000
O O15 0.388181 0.421445 0.269581
O O16 0.452759 0.562452 0.226926
O O17 0.870074 0.292072 0.278182
O O18 0.850623 0.173787 0.000000
O O19 0.433706 0.687861 0.500000
O O20 0.890447 0.405614 0.000000
#
# Coordination Sequence:
#
# PCOD9428053 Si02
#       8
#     8   8   8   8   8   8   8   8
#     4  10  21  37  61  85 109 145 187 227 276 344
#     4   9  17  30  53  80 107 147 192 228 273 340
#     4  10  23  41  62  81 108 151 196 235 277 337
#     4  11  23  39  59  85 119 148 182 236 286 333
#     4   9  15  27  48  75 109 144 177 218 270 327
#     4   9  17  30  51  80 109 138 175 221 272 325
#     4   9  17  31  51  78 112 149 186 226 278 334
#     4   9  19  36  55  79 111 144 184 238 284 322
#
# _framework density 23.712311
#
# number of rings (size 3 to 8) (size 9 to 14) (size 15 to 20)
#    0.000    2.500    1.250    0.750    1.750    2.500 
#    0.000    2.500    0.000    6.750    0.000    0.000 
#    0.000    0.000    0.000    0.000    0.000    0.000 
#
# Total GULP energy -357098.868543 kJ/mol
# GULP energy per Si atom -5579.669821 kJ/mol
# Density = 2.365834 g / cm^3
# Si number density = 23.712311 Si / 1000 Ang^3
#
#
#
# Elastic Constant Matrix: (Units=GPa)
#
#
# Indices 1 2 3 4 5 6 
#
# 1 86.2425 -8.9022 -4.5727 0.0000 0.0000 0.0000
# 2 -8.9022 22.1296 -10.3068 0.0000 0.0000 0.0000
# 3 -4.5727 -10.3068 60.8830 0.0000 0.0000 0.0000
# 4 0.0000 0.0000 0.0000 28.9559 0.0000 0.0000
# 5 0.0000 0.0000 0.0000 0.0000 14.8664 0.0000
# 6 0.0000 0.0000 0.0000 0.0000 0.0000 18.3014
#
#
#
# Elastic Compliance Matrix: (Units=1/GPa)
#
#
# Indices 1 2 3 4 5 6 
#
# 1 0.012299 0.005838 0.001912 0.000000 0.000000 0.000000
# 2 0.005838 0.051827 0.009212 0.000000 0.000000 0.000000
# 3 0.001912 0.009212 0.018128 0.000000 0.000000 0.000000
# 4 0.000000 0.000000 0.000000 0.034535 0.000000 0.000000
# 5 0.000000 0.000000 0.000000 0.000000 0.067266 0.000000
# 6 0.000000 0.000000 0.000000 0.000000 0.000000 0.054641
#
#
# Mechanical properties :
#
#
# Convention : Reuss Voigt Hill
#
# Bulk Modulus (GPa) = 8.60734 13.52131 11.06432
# Shear Modulus (GPa) = 20.53406 25.29386 22.91396
#
# Velocity S-wave (km/s) = 2.94592 3.26958 3.11196
# Velocity P-wave (km/s) = 3.89988 4.46857 4.19388
#
# Compressibility (1/GPa) = 0.11617992
#
# Stress axis : x y z
#
# Youngs Moduli (GPa) = 81.30591 19.29481 55.16302
#
# Poissons Ratio (x) = -0.11265 -0.10548
# Poissons Ratio (y) = -0.47468 -0.50818
# Poissons Ratio (z) = -0.15546 -0.17775
#
# Static dielectric constant tensor:
#      x y z
#    x 1.976570 0.000000 0.000000 
#    y 0.000000 1.882790 0.000000 
#    z 0.000000 0.000000 1.928000 
# 
# From -- ./inp_files/10829.got.cif
#   From: 2010.05.17/outbox.cif.g08.bks.cpg/sg55_6_cif.got.tgz:10829.got - 2010.06.03 13:27:54.
