data_PCOD9428223
_publ_section_title
;
Structure prediction by ZEFSAII (Michael W. Deem and Ramdas Pophale) SiO2 
 PCOD9428223
Probable space group: P B A M
;
_chemical_formula_sum "Si O2"
_cell_formula_units_Z 64
_cell_length_a 16.386202
_cell_length_b 8.883675
_cell_length_c 19.539162
_cell_angle_alpha 90.000000
_cell_angle_beta 90.000000
_cell_angle_gamma 90.000000
_cell_volume 2844.309815
_symmetry_space_group_name_H-M "P B A M"
_symmetry_group_IT_number 55
_symmetry_cell_setting 'orthorhombic'
loop_
_space_group_symop_operation_xyz
x,y,z
-x,-y,z
1/2+x,1/2-y,-z
1/2-x,1/2+y,-z
-x,-y,-z
x,y,-z
1/2-x,1/2+y,z
1/2+x,1/2-y,z
loop_
_atom_site_type_symbol
_atom_site_label
_atom_site_fract_x
_atom_site_fract_y
_atom_site_fract_z
Si Si1 0.714241 0.425734 0.126668
Si Si2 0.095586 0.263726 0.667442
Si Si3 0.827116 0.214282 0.791737
Si Si4 0.585353 0.025317 0.785176
Si Si5 0.086229 0.812918 0.655449
Si Si6 0.182090 0.041531 0.577373
Si Si7 0.627934 0.983731 0.577460
Si Si8 0.136653 0.366752 0.924586
O O1 0.667388 0.567426 0.159978
O O2 0.747047 0.310178 0.185601
O O3 0.667803 0.306174 0.079468
O O4 0.789052 0.513502 0.089059
O O5 0.127785 0.365304 0.730517
O O6 0.079671 0.371845 0.602858
O O7 0.008531 0.180926 0.679553
O O8 0.165750 0.156956 0.638669
O O9 0.887361 0.355896 0.799665
O O10 0.849954 0.155221 0.716841
O O11 0.580672 0.107031 0.858251
O O12 0.500000 0.000000 0.749640
O O13 0.112622 0.918487 0.592641
O O14 0.107653 0.647211 0.629866
O O15 0.172788 0.103693 0.500000
O O16 0.274681 0.982888 0.581371
O O17 0.609349 0.941234 0.500000
O O18 0.102324 0.395141 0.000000
#
# Coordination Sequence:
#
# PCOD9428223 Si02
#       8
#     8   8   8   8   8   8   8   8
#     4   9  21  38  64  99 132 171 210 264 325 379
#     4  12  24  44  65  93 124 171 216 275 325 394
#     4  10  21  38  63  96 128 165 212 267 323 375
#     4  11  22  43  62  90 129 166 220 264 320 392
#     4  12  24  39  65  91 129 165 220 266 330 393
#     4  11  27  44  62  93 128 167 215 274 339 399
#     4  11  24  42  65  90 126 168 213 267 329 395
#     4  10  21  38  66  97 133 170 210 264 318 383
#
# _framework density 22.501065000000001
#
# number of rings (size 3 to 8) (size 9 to 14) (size 15 to 20)
#    0.000    1.250    2.500    2.625    3.500    8.250 
#    0.000    1.250    0.000    0.750    0.000    0.000 
#    0.000    0.000    0.000    0.000    0.000    0.000 
#
# Total GULP energy -356684.950944 kJ/mol
# GULP energy per Si atom -5573.202358 kJ/mol
# Density = 2.244985 g / cm^3
# Si number density = 22.501065 Si / 1000 Ang^3
#
#
#
# Elastic Constant Matrix: (Units=GPa)
#
#
# Indices 1 2 3 4 5 6 
#
# 1 40.0335 8.7760 19.7482 0.0000 0.0000 0.0000
# 2 8.7760 105.2923 30.2230 0.0000 0.0000 0.0000
# 3 19.7482 30.2230 128.5889 0.0000 0.0000 0.0000
# 4 0.0000 0.0000 0.0000 21.3061 0.0000 0.0000
# 5 0.0000 0.0000 0.0000 0.0000 12.3452 0.0000
# 6 0.0000 0.0000 0.0000 0.0000 0.0000 25.5233
#
#
#
# Elastic Compliance Matrix: (Units=1/GPa)
#
#
# Indices 1 2 3 4 5 6 
#
# 1 0.027154 -0.001143 -0.003902 0.000000 0.000000 0.000000
# 2 -0.001143 0.010233 -0.002229 0.000000 0.000000 0.000000
# 3 -0.003902 -0.002229 0.008900 0.000000 0.000000 0.000000
# 4 0.000000 0.000000 0.000000 0.046935 0.000000 0.000000
# 5 0.000000 0.000000 0.000000 0.000000 0.081003 0.000000
# 6 0.000000 0.000000 0.000000 0.000000 0.000000 0.039180
#
#
# Mechanical properties :
#
#
# Convention : Reuss Voigt Hill
#
# Bulk Modulus (GPa) = 31.50783 43.48990 37.49886
# Shear Modulus (GPa) = 20.96147 26.17942 23.57045
#
# Velocity S-wave (km/s) = 3.05549 3.41468 3.24006
# Velocity P-wave (km/s) = 5.14599 5.90902 5.54066
#
# Compressibility (1/GPa) = 0.03173814
#
# Stress axis : x y z
#
# Youngs Moduli (GPa) = 36.82654 97.72679 112.36077
#
# Poissons Ratio (x) = 0.11174 0.43838
# Poissons Ratio (y) = 0.04211 0.25050
# Poissons Ratio (z) = 0.14368 0.21788
#
# Static dielectric constant tensor:
#      x y z
#    x 1.913350 0.000000 0.000000 
#    y 0.000000 1.925650 0.000000 
#    z 0.000000 0.000000 1.859250 
# 
# From -- ./inp_files/23087.got.cif
#   From: 2010.05.17/outbox.cif.g08.bks.cpg/sg55_12_cif.got.tgz:23087.got - 2010.06.03 13:27:54.
