data_PCOD9428776
_publ_section_title
;
Structure prediction by ZEFSAII (Michael W. Deem and Ramdas Pophale) SiO2 
 PCOD9428776
Probable space group: P B A M
;
_chemical_formula_sum "Si O2"
_cell_formula_units_Z 48
_cell_length_a 24.512431
_cell_length_b 8.375529
_cell_length_c 11.169217
_cell_angle_alpha 90.000000
_cell_angle_beta 90.000000
_cell_angle_gamma 90.000000
_cell_volume 2293.091368
_symmetry_space_group_name_H-M "P B A M"
_symmetry_group_IT_number 55
_symmetry_cell_setting 'orthorhombic'
loop_
_space_group_symop_operation_xyz
x,y,z
-x,-y,z
1/2+x,1/2-y,-z
1/2-x,1/2+y,-z
-x,-y,-z
x,y,-z
1/2-x,1/2+y,z
1/2+x,1/2-y,z
loop_
_atom_site_type_symbol
_atom_site_label
_atom_site_fract_x
_atom_site_fract_y
_atom_site_fract_z
Si Si1 0.918822 0.830019 0.140732
Si Si2 0.873842 0.158129 0.240173
Si Si3 0.727863 0.843089 0.139254
Si Si4 0.529745 0.831293 0.859610
Si Si5 0.209887 0.488575 0.500000
Si Si6 0.820365 0.658749 0.248321
Si Si7 0.171753 0.856487 0.500000
O O1 0.881003 0.708188 0.213818
O O2 0.982453 0.798599 0.162764
O O3 0.899255 0.005784 0.174778
O O4 0.909471 0.800740 0.000000
O O5 0.817898 0.215649 0.178987
O O6 0.918083 0.298195 0.221458
O O7 0.861861 0.121409 0.378388
O O8 0.780890 0.808314 0.219438
O O9 0.702486 0.015565 0.166097
O O10 0.741475 0.827456 0.000000
O O11 0.500000 0.000000 0.841635
O O12 0.546553 0.822724 0.000000
O O13 0.186862 0.402678 0.382346
O O14 0.193445 0.673691 0.500000
O O15 0.275106 0.468089 0.500000
#
# Coordination Sequence:
#
# PCOD9428776 Si02
#       7
#     8   8   8   8   4   8   4
#     4  11  24  42  68 102 137 175 219 276 340 405
#     4  12  24  43  66  97 131 177 226 278 329 401
#     4  12  23  38  62  95 134 168 214 284 339 396
#     4  10  22  43  71 100 135 176 219 273 343 409
#     4  12  24  48  65  92 132 185 225 268 323 400
#     4  12  24  41  64  94 133 173 227 267 336 401
#     4  12  28  46  69  95 133 182 236 273 331 395
#
# _framework density 20.932441000000001
#
# number of rings (size 3 to 8) (size 9 to 14) (size 15 to 20)
#    0.000    0.500    3.333    5.500    2.333    2.667 
#    0.000    2.917    0.000    0.000    0.000    0.000 
#    0.000    0.000    0.000    0.000    0.000    0.000 
#
# Total GULP energy -268924.429985 kJ/mol
# GULP energy per Si atom -5602.592291 kJ/mol
# Density = 2.088480 g / cm^3
# Si number density = 20.932441 Si / 1000 Ang^3
#
#
#
# Elastic Constant Matrix: (Units=GPa)
#
#
# Indices 1 2 3 4 5 6 
#
# 1 77.5039 -6.7927 28.4315 0.0000 0.0000 0.0000
# 2 -6.7927 43.9032 -13.8329 0.0000 0.0000 0.0000
# 3 28.4315 -13.8329 74.9414 0.0000 0.0000 0.0000
# 4 0.0000 0.0000 0.0000 24.3705 0.0000 0.0000
# 5 0.0000 0.0000 0.0000 0.0000 10.9499 0.0000
# 6 0.0000 0.0000 0.0000 0.0000 0.0000 36.2609
#
#
#
# Elastic Compliance Matrix: (Units=1/GPa)
#
#
# Indices 1 2 3 4 5 6 
#
# 1 0.015002 0.000560 -0.005588 0.000000 0.000000 0.000000
# 2 0.000560 0.024205 0.004255 0.000000 0.000000 0.000000
# 3 -0.005588 0.004255 0.016249 0.000000 0.000000 0.000000
# 4 0.000000 0.000000 0.000000 0.041033 0.000000 0.000000
# 5 0.000000 0.000000 0.000000 0.000000 0.091325 0.000000
# 6 0.000000 0.000000 0.000000 0.000000 0.000000 0.027578
#
#
# Mechanical properties :
#
#
# Convention : Reuss Voigt Hill
#
# Bulk Modulus (GPa) = 18.54912 23.55114 21.05013
# Shear Modulus (GPa) = 21.28509 26.88577 24.08543
#
# Velocity S-wave (km/s) = 3.19226 3.58775 3.39577
# Velocity P-wave (km/s) = 4.74005 5.33273 5.04510
#
# Compressibility (1/GPa) = 0.05391092
#
# Stress axis : x y z
#
# Youngs Moduli (GPa) = 66.65979 41.31412 61.54171
#
# Poissons Ratio (x) = -0.02315 0.34389
# Poissons Ratio (y) = -0.03736 -0.26187
# Poissons Ratio (z) = 0.37249 -0.17580
#
# Static dielectric constant tensor:
#      x y z
#    x 1.729650 0.000000 0.000000 
#    y 0.000000 1.801330 0.000000 
#    z 0.000000 0.000000 1.697930 
# 
# From -- ./inp_files/15629.got.cif
#   From: 2010.05.17/outbox.cif.g08.bks.cpg/sg55_8_cif.got.tgz:15629.got - 2010.06.03 13:27:54.
