data_PCOD9428825
_publ_section_title
;
Structure prediction by ZEFSAII (Michael W. Deem and Ramdas Pophale) SiO2 
 PCOD9428825
Probable space group: P B A M
;
_chemical_formula_sum "Si O2"
_cell_formula_units_Z 34
_cell_length_a 10.382287
_cell_length_b 9.210195
_cell_length_c 17.839944
_cell_angle_alpha 90.000000
_cell_angle_beta 90.000000
_cell_angle_gamma 90.000000
_cell_volume 1705.906964
_symmetry_space_group_name_H-M "P B A M"
_symmetry_group_IT_number 55
_symmetry_cell_setting 'orthorhombic'
loop_
_space_group_symop_operation_xyz
x,y,z
-x,-y,z
1/2+x,1/2-y,-z
1/2-x,1/2+y,-z
-x,-y,-z
x,y,-z
1/2-x,1/2+y,z
1/2+x,1/2-y,z
loop_
_atom_site_type_symbol
_atom_site_label
_atom_site_fract_x
_atom_site_fract_y
_atom_site_fract_z
Si Si1 0.137963 0.582388 0.657134
Si Si2 0.000000 0.000000 0.000000
Si Si3 0.874224 0.095138 0.410448
Si Si4 0.150014 0.530097 0.172482
Si Si5 0.797734 0.191796 0.918805
O O1 0.246284 0.493663 0.611930
O O2 0.125296 0.746924 0.628084
O O3 0.182258 0.581901 0.744090
O O4 0.000000 0.500000 0.651524
O O5 0.925908 0.100138 0.936230
O O6 0.877194 0.116055 0.500000
O O7 0.000000 0.000000 0.389168
O O8 0.222186 0.386414 0.146908
O O9 0.178232 0.646688 0.108047
O O10 0.000000 0.500000 0.172470
O O11 0.726161 0.194865 0.000000
#
# Coordination Sequence:
#
# PCOD9428825 Si02
#       5
#     8   2   8   8   8
#     4  11  24  44  64  98 132 168 212 261 319 380
#     4   8  24  40  60  92 118 162 214 258 310 364
#     4  11  24  43  68  97 129 169 212 260 315 379
#     4  11  25  41  64  92 126 165 209 257 314 373
#     4  10  23  41  62  88 123 162 210 257 309 364
#
# _framework density 19.930747
#
# number of rings (size 3 to 8) (size 9 to 14) (size 15 to 20)
#    0.706    0.706    0.000    4.235    3.294    7.529 
#    4.235    0.000    0.000    0.000    0.000    0.000 
#    0.000    0.000    0.000    0.000    0.000    0.000 
#
# Total GULP energy -189352.631866 kJ/mol
# GULP energy per Si atom -5569.195055 kJ/mol
# Density = 1.988538 g / cm^3
# Si number density = 19.930747 Si / 1000 Ang^3
#
#
#
# Elastic Constant Matrix: (Units=GPa)
#
#
# Indices 1 2 3 4 5 6 
#
# 1 56.0738 26.9848 21.6703 0.0000 0.0000 0.0000
# 2 26.9848 110.5567 47.3272 0.0000 0.0000 0.0000
# 3 21.6703 47.3272 106.7078 0.0000 0.0000 0.0000
# 4 0.0000 0.0000 0.0000 35.7729 0.0000 0.0000
# 5 0.0000 0.0000 0.0000 0.0000 37.5998 0.0000
# 6 0.0000 0.0000 0.0000 0.0000 0.0000 1.1460
#
#
#
# Elastic Compliance Matrix: (Units=1/GPa)
#
#
# Indices 1 2 3 4 5 6 
#
# 1 0.020703 -0.004016 -0.002423 0.000000 0.000000 0.000000
# 2 -0.004016 0.011944 -0.004482 0.000000 0.000000 0.000000
# 3 -0.002423 -0.004482 0.011851 0.000000 0.000000 0.000000
# 4 0.000000 0.000000 0.000000 0.027954 0.000000 0.000000
# 5 0.000000 0.000000 0.000000 0.000000 0.026596 0.000000
# 6 0.000000 0.000000 0.000000 0.000000 0.000000 0.872593
#
#
# Mechanical properties :
#
#
# Convention : Reuss Voigt Hill
#
# Bulk Modulus (GPa) = 44.13814 51.70031 47.91923
# Shear Modulus (GPa) = 4.99483 26.72748 15.86116
#
# Velocity S-wave (km/s) = 1.58478 3.66596 2.82408
# Velocity P-wave (km/s) = 5.05396 6.62687 5.89313
#
# Compressibility (1/GPa) = 0.02265614
#
# Stress axis : x y z
#
# Youngs Moduli (GPa) = 48.30294 83.72471 84.37907
#
# Poissons Ratio (x) = 0.33622 0.20447
# Poissons Ratio (y) = 0.19398 0.37817
# Poissons Ratio (z) = 0.11705 0.37524
#
# Static dielectric constant tensor:
#      x y z
#    x 1.800160 0.000000 0.000000 
#    y 0.000000 1.535530 0.000000 
#    z 0.000000 0.000000 1.714430 
# 
# From -- ./inp_files/22495.got.cif
#   From: 2010.05.17/outbox.cif.g08.bks.cpg/sg55_12_cif.got.tgz:22495.got - 2010.06.03 13:27:54.
