data_PCOD9428055
_publ_section_title
;
Structure prediction by ZEFSAII (Michael W. Deem and Ramdas Pophale) SiO2 
 PCOD9428055
Probable space group: P B A M
;
_chemical_formula_sum "Si O2"
_cell_formula_units_Z 56
_cell_length_a 12.679373
_cell_length_b 14.831991
_cell_length_c 14.260680
_cell_angle_alpha 90.000000
_cell_angle_beta 90.000000
_cell_angle_gamma 90.000000
_cell_volume 2681.868418
_symmetry_space_group_name_H-M "P B A M"
_symmetry_group_IT_number 55
_symmetry_cell_setting 'orthorhombic'
loop_
_space_group_symop_operation_xyz
x,y,z
-x,-y,z
1/2+x,1/2-y,-z
1/2-x,1/2+y,-z
-x,-y,-z
x,y,-z
1/2-x,1/2+y,z
1/2+x,1/2-y,z
loop_
_atom_site_type_symbol
_atom_site_label
_atom_site_fract_x
_atom_site_fract_y
_atom_site_fract_z
Si Si1 0.932299 0.077275 0.891428
Si Si2 0.603898 0.057103 0.301703
Si Si3 0.486054 0.772038 0.102156
Si Si4 0.307476 0.903619 0.891633
Si Si5 0.956300 0.288318 0.695158
Si Si6 0.769932 0.407532 0.388401
Si Si7 0.529615 0.395040 0.612600
O O1 0.813939 0.098739 0.859760
O O2 0.003477 0.165444 0.893307
O O3 0.913981 0.049795 0.000000
O O4 0.000000 0.000000 0.842929
O O5 0.629921 0.046907 0.191166
O O6 0.566194 0.158003 0.328280
O O7 0.500000 0.000000 0.323779
O O8 0.697693 0.008314 0.355982
O O9 0.366492 0.807096 0.108126
O O10 0.549675 0.803583 0.192743
O O11 0.527736 0.801972 0.000000
O O12 0.316883 0.936710 0.000000
O O13 0.965920 0.183874 0.666104
O O14 0.856843 0.337667 0.649648
O O15 0.772707 0.405058 0.500000
O O16 0.651708 0.385126 0.357919
O O17 0.500000 0.500000 0.627211
O O18 0.519658 0.378484 0.500000
#
# Coordination Sequence:
#
# PCOD9428055 Si02
#       7
#     8   8   8   8   8   8   8
#     4   9  18  33  53  78 108 145 192 236 273 327
#     4   9  20  37  57  85 115 146 191 239 287 346
#     4   9  19  35  54  81 117 152 188 234 288 343
#     4   9  18  34  54  77 111 150 185 229 285 344
#     4  10  21  37  61  88 114 153 199 240 287 350
#     4  10  22  40  61  85 115 152 194 242 297 351
#     4  10  23  41  60  88 122 152 190 244 300 351
#
# _framework density 20.880966999999998
#
# number of rings (size 3 to 8) (size 9 to 14) (size 15 to 20)
#    0.000    2.571    0.000    0.429    0.000    9.714 
#    0.000    7.857    0.000    8.571    0.000    0.000 
#    0.000    0.000    0.000    0.000    0.000    0.000 
#
# Total GULP energy -311886.762192 kJ/mol
# GULP energy per Si atom -5569.406468 kJ/mol
# Density = 2.083344 g / cm^3
# Si number density = 20.880967 Si / 1000 Ang^3
#
#
#
# Elastic Constant Matrix: (Units=GPa)
#
#
# Indices 1 2 3 4 5 6 
#
# 1 50.9176 11.8072 27.4587 0.0000 0.0000 0.0000
# 2 11.8072 62.0344 18.5766 0.0000 0.0000 0.0000
# 3 27.4587 18.5766 66.4805 0.0000 0.0000 0.0000
# 4 0.0000 0.0000 0.0000 17.4603 0.0000 0.0000
# 5 0.0000 0.0000 0.0000 0.0000 11.9719 0.0000
# 6 0.0000 0.0000 0.0000 0.0000 0.0000 55.4660
#
#
#
# Elastic Compliance Matrix: (Units=1/GPa)
#
#
# Indices 1 2 3 4 5 6 
#
# 1 0.025461 -0.001852 -0.009999 0.000000 0.000000 0.000000
# 2 -0.001852 0.017727 -0.004189 0.000000 0.000000 0.000000
# 3 -0.009999 -0.004189 0.020342 0.000000 0.000000 0.000000
# 4 0.000000 0.000000 0.000000 0.057273 0.000000 0.000000
# 5 0.000000 0.000000 0.000000 0.000000 0.083529 0.000000
# 6 0.000000 0.000000 0.000000 0.000000 0.000000 0.018029
#
#
# Mechanical properties :
#
#
# Convention : Reuss Voigt Hill
#
# Bulk Modulus (GPa) = 31.79471 32.79083 32.29277
# Shear Modulus (GPa) = 18.87337 25.08564 21.97951
#
# Velocity S-wave (km/s) = 3.00968 3.46983 3.24791
# Velocity P-wave (km/s) = 5.22851 5.63833 5.43728
#
# Compressibility (1/GPa) = 0.03145177
#
# Stress axis : x y z
#
# Youngs Moduli (GPa) = 39.27559 56.41163 49.15875
#
# Poissons Ratio (x) = 0.10447 0.49153
# Poissons Ratio (y) = 0.07273 0.20590
# Poissons Ratio (z) = 0.39271 0.23628
#
# Static dielectric constant tensor:
#      x y z
#    x 1.751220 0.000000 0.000000 
#    y 0.000000 1.797850 0.000000 
#    z 0.000000 0.000000 1.803280 
# 
# From -- ./inp_files/18396.got.cif
#   From: 2010.05.17/outbox.cif.g08.bks.cpg/sg55_10_cif.got.tgz:18396.got - 2010.06.03 13:27:54.
