data_PCOD9428072
_publ_section_title
;
Structure prediction by ZEFSAII (Michael W. Deem and Ramdas Pophale) SiO2 
 PCOD9428072
Probable space group: P B A M
;
_chemical_formula_sum "Si O2"
_cell_formula_units_Z 48
_cell_length_a 17.827499
_cell_length_b 9.155185
_cell_length_c 15.667475
_cell_angle_alpha 90.000000
_cell_angle_beta 90.000000
_cell_angle_gamma 90.000000
_cell_volume 2557.152070
_symmetry_space_group_name_H-M "P B A M"
_symmetry_group_IT_number 55
_symmetry_cell_setting 'orthorhombic'
loop_
_space_group_symop_operation_xyz
x,y,z
-x,-y,z
1/2+x,1/2-y,-z
1/2-x,1/2+y,-z
-x,-y,-z
x,y,-z
1/2-x,1/2+y,z
1/2+x,1/2-y,z
loop_
_atom_site_type_symbol
_atom_site_label
_atom_site_fract_x
_atom_site_fract_y
_atom_site_fract_z
Si Si1 0.335718 0.411346 0.898447
Si Si2 0.591288 0.178597 0.307432
Si Si3 0.354098 0.140907 0.681662
Si Si4 0.539031 0.653739 0.228104
Si Si5 0.616386 0.871240 0.500000
Si Si6 0.776463 0.807425 0.804018
Si Si7 0.054062 0.297820 0.500000
O O1 0.415959 0.358476 0.860685
O O2 0.269968 0.305154 0.863029
O O3 0.319275 0.571190 0.859337
O O4 0.335668 0.413301 0.000000
O O5 0.525987 0.229153 0.243345
O O6 0.667146 0.230714 0.261863
O O7 0.579199 0.247930 0.402985
O O8 0.593886 0.003024 0.314337
O O9 0.396310 0.288570 0.708845
O O10 0.334979 0.156808 0.583150
O O11 0.285953 0.116447 0.744963
O O12 0.500000 0.500000 0.247549
O O13 0.536655 0.786301 0.500000
O O14 0.586210 0.037086 0.500000
#
# Coordination Sequence:
#
# PCOD9428072 Si02
#       7
#     8   8   8   8   4   8   4
#     4  11  24  43  63  88 116 154 201 247 309 372
#     4  11  20  39  61  89 120 164 203 240 297 349
#     4  10  21  37  63  84 122 162 207 238 291 361
#     4  11  22  37  62  89 118 156 196 246 304 348
#     4   9  16  33  56  86 114 164 202 241 284 339
#     4  11  22  40  65  86 120 159 195 251 305 360
#     4   9  18  31  58  86 118 159 207 239 276 358
#
# _framework density 18.770882
#
# number of rings (size 3 to 8) (size 9 to 14) (size 15 to 20)
#    0.000    1.500    5.000    1.000    0.000    1.000 
#    0.000    1.667    0.000    2.000    0.000    0.000 
#    0.000    0.000    0.000    0.000    0.000    0.000 
#
# Total GULP energy -267325.883345 kJ/mol
# GULP energy per Si atom -5569.289236 kJ/mol
# Density = 1.872816 g / cm^3
# Si number density = 18.770882 Si / 1000 Ang^3
#
#
#
# Elastic Constant Matrix: (Units=GPa)
#
#
# Indices 1 2 3 4 5 6 
#
# 1 59.8267 21.9025 38.7045 0.0000 0.0000 0.0000
# 2 21.9025 46.2891 59.5503 0.0000 0.0000 0.0000
# 3 38.7045 59.5503 144.6752 0.0000 0.0000 0.0000
# 4 0.0000 0.0000 0.0000 17.5984 0.0000 0.0000
# 5 0.0000 0.0000 0.0000 0.0000 19.3217 0.0000
# 6 0.0000 0.0000 0.0000 0.0000 0.0000 25.8141
#
#
#
# Elastic Compliance Matrix: (Units=1/GPa)
#
#
# Indices 1 2 3 4 5 6 
#
# 1 0.020905 -0.005732 -0.003233 0.000000 0.000000 0.000000
# 2 -0.005732 0.047491 -0.018014 0.000000 0.000000 0.000000
# 3 -0.003233 -0.018014 0.015192 0.000000 0.000000 0.000000
# 4 0.000000 0.000000 0.000000 0.056823 0.000000 0.000000
# 5 0.000000 0.000000 0.000000 0.000000 0.051755 0.000000
# 6 0.000000 0.000000 0.000000 0.000000 0.000000 0.038738
#
#
# Mechanical properties :
#
#
# Convention : Reuss Voigt Hill
#
# Bulk Modulus (GPa) = 33.75125 54.56730 44.15928
# Shear Modulus (GPa) = 16.96403 21.25574 19.10989
#
# Velocity S-wave (km/s) = 3.00949 3.36873 3.19417
# Velocity P-wave (km/s) = 5.48596 6.65315 6.09755
#
# Compressibility (1/GPa) = 0.02962853
#
# Stress axis : x y z
#
# Youngs Moduli (GPa) = 47.83489 21.05667 65.82400
#
# Poissons Ratio (x) = 0.12070 0.21283
# Poissons Ratio (y) = 0.27419 1.18578
# Poissons Ratio (z) = 0.15467 0.37932
#
# Static dielectric constant tensor:
#      x y z
#    x 1.671450 0.000000 0.000000 
#    y 0.000000 1.671300 0.000000 
#    z 0.000000 0.000000 1.647310 
# 
# From -- ./inp_files/19366.got.cif
#   From: 2010.05.17/outbox.cif.g08.bks.cpg/sg55_10_cif.got.tgz:19366.got - 2010.06.03 13:27:54.
