data_PCOD9428120
_publ_section_title
;
Structure prediction by ZEFSAII (Michael W. Deem and Ramdas Pophale) SiO2 
 PCOD9428120
Probable space group: P B A M
;
_chemical_formula_sum "Si O2"
_cell_formula_units_Z 56
_cell_length_a 8.329147
_cell_length_b 14.766833
_cell_length_c 22.244874
_cell_angle_alpha 90.000000
_cell_angle_beta 90.000000
_cell_angle_gamma 90.000000
_cell_volume 2736.011009
_symmetry_space_group_name_H-M "P B A M"
_symmetry_group_IT_number 55
_symmetry_cell_setting 'orthorhombic'
loop_
_space_group_symop_operation_xyz
x,y,z
-x,-y,z
1/2+x,1/2-y,-z
1/2-x,1/2+y,-z
-x,-y,-z
x,y,-z
1/2-x,1/2+y,z
1/2+x,1/2-y,z
loop_
_atom_site_type_symbol
_atom_site_label
_atom_site_fract_x
_atom_site_fract_y
_atom_site_fract_z
Si Si1 0.074317 0.099679 0.761738
Si Si2 0.347455 0.286146 0.569851
Si Si3 0.839441 0.864117 0.629261
Si Si4 0.871578 0.146323 0.871328
Si Si5 0.703072 0.309105 0.069670
Si Si6 0.815728 0.528081 0.569682
Si Si7 0.323519 0.035993 0.857430
O O1 0.111481 0.144040 0.698367
O O2 0.234819 0.083456 0.801124
O O3 0.948770 0.152072 0.804662
O O4 0.000000 0.000000 0.750896
O O5 0.347981 0.258579 0.500000
O O6 0.306428 0.201255 0.611132
O O7 0.514722 0.331494 0.587595
O O8 0.216350 0.365783 0.578801
O O9 0.791115 0.966420 0.613018
O O10 0.746432 0.223420 0.889099
O O11 0.023697 0.157315 0.915388
O O12 0.788632 0.048694 0.875307
O O13 0.821059 0.390073 0.089707
O O14 0.720027 0.286420 0.000000
O O15 0.771246 0.508382 0.500000
O O16 0.000000 0.500000 0.577699
O O17 0.500000 0.000000 0.843673
#
# Coordination Sequence:
#
# PCOD9428120 Si02
#       7
#     8   8   8   8   8   8   8
#     4   9  21  41  62  87 121 161 207 253 301 359
#     4  11  23  38  59  88 121 157 197 247 308 365
#     4  12  23  39  62  88 119 157 204 251 299 365
#     4  10  22  40  60  87 127 164 202 257 308 353
#     4  11  22  37  62  93 123 163 211 251 298 362
#     4  10  21  38  59  84 117 155 196 248 306 360
#     4  10  22  41  63  88 123 164 200 249 312 361
#
# _framework density 20.467753999999999
#
# number of rings (size 3 to 8) (size 9 to 14) (size 15 to 20)
#    0.000    1.571    0.000    6.000    0.000    7.143 
#    0.000    4.286    0.000    0.000    0.000    0.000 
#    0.000    0.000    0.000    0.000    0.000    0.000 
#
# Total GULP energy -313093.587575 kJ/mol
# GULP energy per Si atom -5590.956921 kJ/mol
# Density = 2.042117 g / cm^3
# Si number density = 20.467754 Si / 1000 Ang^3
#
#
#
# Elastic Constant Matrix: (Units=GPa)
#
#
# Indices 1 2 3 4 5 6 
#
# 1 48.9197 -3.6552 11.9361 0.0000 0.0000 0.0000
# 2 -3.6552 65.6819 43.4740 0.0000 0.0000 0.0000
# 3 11.9361 43.4740 113.3394 0.0000 0.0000 0.0000
# 4 0.0000 0.0000 0.0000 25.3949 0.0000 0.0000
# 5 0.0000 0.0000 0.0000 0.0000 13.7348 0.0000
# 6 0.0000 0.0000 0.0000 0.0000 0.0000 31.5013
#
#
#
# Elastic Compliance Matrix: (Units=1/GPa)
#
#
# Indices 1 2 3 4 5 6 
#
# 1 0.021608 0.003630 -0.003668 0.000000 0.000000 0.000000
# 2 0.003630 0.021015 -0.008443 0.000000 0.000000 0.000000
# 3 -0.003668 -0.008443 0.012448 0.000000 0.000000 0.000000
# 4 0.000000 0.000000 0.000000 0.039378 0.000000 0.000000
# 5 0.000000 0.000000 0.000000 0.000000 0.072808 0.000000
# 6 0.000000 0.000000 0.000000 0.000000 0.000000 0.031745
#
#
# Mechanical properties :
#
#
# Convention : Reuss Voigt Hill
#
# Bulk Modulus (GPa) = 26.24034 36.82786 31.53410
# Shear Modulus (GPa) = 21.86585 25.87193 23.86889
#
# Velocity S-wave (km/s) = 3.27204 3.55918 3.41863
# Velocity P-wave (km/s) = 5.20799 5.90953 5.56982
#
# Compressibility (1/GPa) = 0.03810927
#
# Stress axis : x y z
#
# Youngs Moduli (GPa) = 46.27935 47.58405 80.33436
#
# Poissons Ratio (x) = -0.17275 0.29467
# Poissons Ratio (y) = -0.16801 0.67829
# Poissons Ratio (z) = 0.16976 0.40177
#
# Static dielectric constant tensor:
#      x y z
#    x 1.746160 0.000000 0.000000 
#    y 0.000000 1.733670 0.000000 
#    z 0.000000 0.000000 1.698060 
# 
# From -- ./inp_files/22618.got.cif
#   From: 2010.05.17/outbox.cif.g08.bks.cpg/sg55_12_cif.got.tgz:22618.got - 2010.06.03 13:27:54.
