data_PCOD9428307
_publ_section_title
;
Structure prediction by ZEFSAII (Michael W. Deem and Ramdas Pophale) SiO2 
 PCOD9428307
Probable space group: P B A M
;
_chemical_formula_sum "Si O2"
_cell_formula_units_Z 56
_cell_length_a 21.473898
_cell_length_b 14.844506
_cell_length_c 8.136919
_cell_angle_alpha 90.000000
_cell_angle_beta 90.000000
_cell_angle_gamma 90.000000
_cell_volume 2593.800850
_symmetry_space_group_name_H-M "P B A M"
_symmetry_group_IT_number 55
_symmetry_cell_setting 'orthorhombic'
loop_
_space_group_symop_operation_xyz
x,y,z
-x,-y,z
1/2+x,1/2-y,-z
1/2-x,1/2+y,-z
-x,-y,-z
x,y,-z
1/2-x,1/2+y,z
1/2+x,1/2-y,z
loop_
_atom_site_type_symbol
_atom_site_label
_atom_site_fract_x
_atom_site_fract_y
_atom_site_fract_z
Si Si1 0.265083 0.402426 0.192861
Si Si2 0.378278 0.888938 0.198379
Si Si3 0.534972 0.410031 0.701393
Si Si4 0.492910 0.785016 0.307447
Si Si5 0.601082 0.907985 0.808572
Si Si6 0.323439 0.587818 0.695338
Si Si7 0.786982 0.288001 0.307150
O O1 0.193799 0.387343 0.249180
O O2 0.296024 0.488161 0.277374
O O3 0.298846 0.307688 0.222917
O O4 0.262949 0.422966 0.000000
O O5 0.421705 0.815076 0.281253
O O6 0.403639 0.988229 0.243324
O O7 0.381817 0.877978 0.000000
O O8 0.500000 0.500000 0.755396
O O9 0.536028 0.410769 0.500000
O O10 0.500932 0.317845 0.749952
O O11 0.606374 0.407426 0.760253
O O12 0.508568 0.789732 0.500000
O O13 0.537412 0.854076 0.214746
O O14 0.655610 0.855605 0.715528
O O15 0.618855 0.909144 0.000000
O O16 0.326614 0.603242 0.500000
O O17 0.274485 0.661445 0.761557
O O18 0.778438 0.270143 0.500000
#
# Coordination Sequence:
#
# PCOD9428307 Si02
#       7
#     8   8   8   8   8   8   8
#     4  11  23  39  62  91 124 164 205 250 310 373
#     4  10  22  41  62  87 124 168 204 246 311 374
#     4   9  20  39  61  87 123 161 200 248 308 366
#     4  11  23  38  62  93 123 161 210 259 308 364
#     4  11  23  41  62  88 125 163 205 254 315 379
#     4  10  21  39  64  91 120 160 204 255 307 360
#     4  11  23  39  61  92 125 160 209 261 314 367
#
# _framework density 21.589936999999999
#
# number of rings (size 3 to 8) (size 9 to 14) (size 15 to 20)
#    0.000    1.571    1.429    3.000    2.000    5.714 
#    0.000    1.429    0.000    2.143    0.000    0.000 
#    0.000    0.000    0.000    0.000    0.000    0.000 
#
# Total GULP energy -313166.772910 kJ/mol
# GULP energy per Si atom -5592.263802 kJ/mol
# Density = 2.154080 g / cm^3
# Si number density = 21.589937 Si / 1000 Ang^3
#
#
#
# Elastic Constant Matrix: (Units=GPa)
#
#
# Indices 1 2 3 4 5 6 
#
# 1 43.1774 -9.0675 -4.7699 0.0000 0.0000 0.0000
# 2 -9.0675 100.2922 -4.0344 0.0000 0.0000 0.0000
# 3 -4.7699 -4.0344 17.7136 0.0000 0.0000 0.0000
# 4 0.0000 0.0000 0.0000 -14.8562 0.0000 0.0000
# 5 0.0000 0.0000 0.0000 0.0000 24.2210 0.0000
# 6 0.0000 0.0000 0.0000 0.0000 0.0000 20.2421
#
#
#
# Elastic Compliance Matrix: (Units=1/GPa)
#
#
# Indices 1 2 3 4 5 6 
#
# 1 0.024477 0.002501 0.007161 0.000000 0.000000 0.000000
# 2 0.002501 0.010319 0.003024 0.000000 0.000000 0.000000
# 3 0.007161 0.003024 0.059071 0.000000 0.000000 0.000000
# 4 0.000000 0.000000 0.000000 -0.067312 0.000000 0.000000
# 5 0.000000 0.000000 0.000000 0.000000 0.041287 0.000000
# 6 0.000000 0.000000 0.000000 0.000000 0.000000 0.049402
#
#
# Mechanical properties :
#
#
# Convention : Reuss Voigt Hill
#
# Bulk Modulus (GPa) = 8.38670 13.93772 11.16221
# Shear Modulus (GPa) = 37.98902 17.85840 27.92371
#
# Velocity S-wave (km/s) = 4.19927 2.87916 3.60024
# Velocity P-wave (km/s) = 5.23496 4.18598 4.73958
#
# Compressibility (1/GPa) = 0.11923644
#
# Stress axis : x y z
#
# Youngs Moduli (GPa) = 40.85547 96.91224 16.92886
#
# Poissons Ratio (x) = -0.24238 -0.12122
# Poissons Ratio (y) = -0.10218 -0.05119
# Poissons Ratio (z) = -0.29255 -0.29302
#
# Static dielectric constant tensor:
#      x y z
#    x 1.774860 0.000000 0.000000 
#    y 0.000000 1.759450 0.000000 
#    z 0.000000 0.000000 1.772810 
# 
# From -- ./inp_files/6178.got.cif
#   From: 2010.05.17/outbox.cif.g08.bks.cpg/sg55_4_cif.got.tgz:6178.got - 2010.06.03 13:27:54.
