data_PCOD9428812
_publ_section_title
;
Structure prediction by ZEFSAII (Michael W. Deem and Ramdas Pophale) SiO2 
 PCOD9428812
Probable space group: P B A M
;
_chemical_formula_sum "Si O2"
_cell_formula_units_Z 38
_cell_length_a 11.479476
_cell_length_b 5.373797
_cell_length_c 25.083127
_cell_angle_alpha 90.000000
_cell_angle_beta 90.000000
_cell_angle_gamma 90.000000
_cell_volume 1547.337312
_symmetry_space_group_name_H-M "P B A M"
_symmetry_group_IT_number 55
_symmetry_cell_setting 'orthorhombic'
loop_
_space_group_symop_operation_xyz
x,y,z
-x,-y,z
1/2+x,1/2-y,-z
1/2-x,1/2+y,-z
-x,-y,-z
x,y,-z
1/2-x,1/2+y,z
1/2+x,1/2-y,z
loop_
_atom_site_type_symbol
_atom_site_label
_atom_site_fract_x
_atom_site_fract_y
_atom_site_fract_z
Si Si1 0.207299 0.260394 0.862665
Si Si2 0.000000 0.500000 0.500000
Si Si3 0.000000 0.000000 0.092207
Si Si4 0.827284 0.127578 0.000000
Si Si5 0.328832 0.850457 0.403458
Si Si6 0.500000 0.000000 0.310685
Si Si7 0.804503 0.217364 0.742655
O O1 0.275905 0.028847 0.887273
O O2 0.267758 0.294907 0.804736
O O3 0.074215 0.179509 0.869229
O O4 0.915539 0.623203 0.546610
O O5 0.913296 0.134423 0.051072
O O6 0.764136 0.855296 0.000000
O O7 0.256967 0.592110 0.405353
O O8 0.408714 0.873622 0.350944
O O9 0.432733 0.194153 0.272750
O O10 0.774387 0.945712 0.721589
#
# Coordination Sequence:
#
# PCOD9428812 Si02
#       7
#     8   2   4   4   8   4   8
#     4  10  23  40  61  93 126 160 209 257 305 373
#     4  10  24  42  72  96 128 170 204 264 332 366
#     4  11  24  42  70  92 126 168 200 257 322 362
#     4  11  26  45  66  96 126 159 208 255 308 384
#     4  11  25  43  65  97 130 165 215 262 311 383
#     4  11  24  41  66  90 128 177 208 259 320 358
#     4  10  23  40  60  90 125 164 215 259 303 370
#
# _framework density 24.558316999999999
#
# number of rings (size 3 to 8) (size 9 to 14) (size 15 to 20)
#    0.000    1.474    0.000    3.158    0.000   17.684 
#    0.000    0.000    0.000    0.000    0.000    0.000 
#    0.000    0.000    0.000    0.000    0.000    0.000 
#
# Total GULP energy -211806.490202 kJ/mol
# GULP energy per Si atom -5573.855005 kJ/mol
# Density = 2.450242 g / cm^3
# Si number density = 24.558317 Si / 1000 Ang^3
#
#
#
# Elastic Constant Matrix: (Units=GPa)
#
#
# Indices 1 2 3 4 5 6 
#
# 1 116.8139 38.8425 61.8756 0.0000 0.0000 0.0000
# 2 38.8425 162.2634 12.3906 0.0000 0.0000 0.0000
# 3 61.8756 12.3906 151.6948 0.0000 0.0000 0.0000
# 4 0.0000 0.0000 0.0000 2.2614 0.0000 0.0000
# 5 0.0000 0.0000 0.0000 0.0000 64.2531 0.0000
# 6 0.0000 0.0000 0.0000 0.0000 0.0000 19.2621
#
#
#
# Elastic Compliance Matrix: (Units=1/GPa)
#
#
# Indices 1 2 3 4 5 6 
#
# 1 0.011835 -0.002480 -0.004625 0.000000 0.000000 0.000000
# 2 -0.002480 0.006721 0.000463 0.000000 0.000000 0.000000
# 3 -0.004625 0.000463 0.008441 0.000000 0.000000 0.000000
# 4 0.000000 0.000000 0.000000 0.442205 0.000000 0.000000
# 5 0.000000 0.000000 0.000000 0.000000 0.015563 0.000000
# 6 0.000000 0.000000 0.000000 0.000000 0.000000 0.051916
#
#
# Mechanical properties :
#
#
# Convention : Reuss Voigt Hill
#
# Bulk Modulus (GPa) = 72.92589 72.99883 72.96236
# Shear Modulus (GPa) = 9.01653 38.33286 23.67470
#
# Velocity S-wave (km/s) = 1.91819 3.95510 3.10823
# Velocity P-wave (km/s) = 5.88773 7.11662 6.53114
#
# Compressibility (1/GPa) = 0.01371255
#
# Stress axis : x y z
#
# Youngs Moduli (GPa) = 84.49513 148.78437 118.47119
#
# Poissons Ratio (x) = 0.36897 0.54792
# Poissons Ratio (y) = 0.20954 -0.05480
# Poissons Ratio (z) = 0.39078 -0.06882
#
# Static dielectric constant tensor:
#      x y z
#    x 1.999710 0.000000 0.000000 
#    y 0.000000 1.968850 0.000000 
#    z 0.000000 0.000000 2.188550 
# 
# From -- ./inp_files/23924.got.cif
#   From: 2010.05.17/outbox.cif.g08.bks.cpg/sg55_12_cif.got.tgz:23924.got - 2010.06.03 13:27:54.
