data_PCOD9428863
_publ_section_title
;
Structure prediction by ZEFSAII (Michael W. Deem and Ramdas Pophale) SiO2 
 PCOD9428863
Probable space group: P B A M
;
_chemical_formula_sum "Si O2"
_cell_formula_units_Z 48
_cell_length_a 10.238282
_cell_length_b 27.118126
_cell_length_c 8.912084
_cell_angle_alpha 90.000000
_cell_angle_beta 90.000000
_cell_angle_gamma 90.000000
_cell_volume 2474.377928
_symmetry_space_group_name_H-M "P B A M"
_symmetry_group_IT_number 55
_symmetry_cell_setting 'orthorhombic'
loop_
_space_group_symop_operation_xyz
x,y,z
-x,-y,z
1/2+x,1/2-y,-z
1/2-x,1/2+y,-z
-x,-y,-z
x,y,-z
1/2-x,1/2+y,z
1/2+x,1/2-y,z
loop_
_atom_site_type_symbol
_atom_site_label
_atom_site_fract_x
_atom_site_fract_y
_atom_site_fract_z
Si Si1 0.972491 0.146491 0.821815
Si Si2 0.378586 0.465551 0.822133
Si Si3 0.757085 0.709483 0.322001
Si Si4 0.519744 0.143721 0.821046
Si Si5 0.392043 0.958276 0.676864
Si Si6 0.253440 0.672833 0.678126
O O1 0.917492 0.091414 0.798928
O O2 0.871585 0.184442 0.746972
O O3 0.114604 0.151652 0.749259
O O4 0.979750 0.155582 0.000000
O O5 0.500000 0.500000 0.780621
O O6 0.249170 0.476790 0.729413
O O7 0.352719 0.472616 0.000000
O O8 0.761599 0.699696 0.500000
O O9 0.754683 0.768073 0.299365
O O10 0.882935 0.684918 0.245328
O O11 0.574154 0.090937 0.768256
O O12 0.375540 0.151360 0.755180
O O13 0.518763 0.146712 0.000000
O O14 0.390757 0.946546 0.500000
O O15 0.500000 0.000000 0.704045
O O16 0.249710 0.663145 0.500000
#
# Coordination Sequence:
#
# PCOD9428863 Si02
#       6
#     8   8   8   8   8   8
#     4  11  23  40  64  96 129 167 211 260 318 374
#     4  10  23  43  66  95 129 165 206 255 315 380
#     4  11  23  42  66  92 127 171 214 262 320 377
#     4  12  25  42  66  95 129 170 213 264 321 377
#     4  11  25  44  67  97 128 164 212 262 316 380
#     4  11  25  42  63  93 130 172 214 261 318 376
#
# _framework density 19.398816
#
# number of rings (size 3 to 8) (size 9 to 14) (size 15 to 20)
#    0.000    1.000    1.667    4.500    2.333    9.000 
#    0.000    0.000    0.000    0.000    0.000    0.000 
#    0.000    0.000    0.000    0.000    0.000    0.000 
#
# Total GULP energy -268676.890898 kJ/mol
# GULP energy per Si atom -5597.435227 kJ/mol
# Density = 1.935466 g / cm^3
# Si number density = 19.398816 Si / 1000 Ang^3
#
#
#
# Elastic Constant Matrix: (Units=GPa)
#
#
# Indices 1 2 3 4 5 6 
#
# 1 158.0288 22.7421 62.0366 0.0000 0.0000 0.0000
# 2 22.7421 36.7771 47.7426 0.0000 0.0000 0.0000
# 3 62.0366 47.7426 102.7093 0.0000 0.0000 0.0000
# 4 0.0000 0.0000 0.0000 38.8970 0.0000 0.0000
# 5 0.0000 0.0000 0.0000 0.0000 42.6142 0.0000
# 6 0.0000 0.0000 0.0000 0.0000 0.0000 39.6957
#
#
#
# Elastic Compliance Matrix: (Units=1/GPa)
#
#
# Indices 1 2 3 4 5 6 
#
# 1 0.008474 0.003541 -0.006764 0.000000 0.000000 0.000000
# 2 0.003541 0.070044 -0.034698 0.000000 0.000000 0.000000
# 3 -0.006764 -0.034698 0.029950 0.000000 0.000000 0.000000
# 4 0.000000 0.000000 0.000000 0.025709 0.000000 0.000000
# 5 0.000000 0.000000 0.000000 0.000000 0.023466 0.000000
# 6 0.000000 0.000000 0.000000 0.000000 0.000000 0.025192
#
#
# Mechanical properties :
#
#
# Convention : Reuss Voigt Hill
#
# Bulk Modulus (GPa) = 30.64959 62.50643 46.57801
# Shear Modulus (GPa) = 18.54926 35.24098 26.89512
#
# Velocity S-wave (km/s) = 3.09561 4.26685 3.72752
# Velocity P-wave (km/s) = 5.34894 7.52106 6.52601
#
# Compressibility (1/GPa) = 0.03262686
#
# Stress axis : x y z
#
# Youngs Moduli (GPa) = 118.01183 14.27666 33.38864
#
# Poissons Ratio (x) = -0.05055 0.22584
# Poissons Ratio (y) = -0.41787 1.15851
# Poissons Ratio (z) = 0.79824 0.49537
#
# Static dielectric constant tensor:
#      x y z
#    x 1.645920 0.000000 0.000000 
#    y 0.000000 1.652630 0.000000 
#    z 0.000000 0.000000 1.648040 
# 
# From -- ./inp_files/4183.got.cif
#   From: 2010.05.17/outbox.cif.g08.bks.cpg/sg55_3_cif.got.tgz:4183.got - 2010.06.03 13:27:54.
