data_PCOD9428790
_publ_section_title
;
Structure prediction by ZEFSAII (Michael W. Deem and Ramdas Pophale) SiO2 
 PCOD9428790
Probable space group: P B A M
;
_chemical_formula_sum "Si O2"
_cell_formula_units_Z 48
_cell_length_a 8.721983
_cell_length_b 11.995323
_cell_length_c 20.282315
_cell_angle_alpha 90.000000
_cell_angle_beta 90.000000
_cell_angle_gamma 90.000000
_cell_volume 2121.996709
_symmetry_space_group_name_H-M "P B A M"
_symmetry_group_IT_number 55
_symmetry_cell_setting 'orthorhombic'
loop_
_space_group_symop_operation_xyz
x,y,z
-x,-y,z
1/2+x,1/2-y,-z
1/2-x,1/2+y,-z
-x,-y,-z
x,y,-z
1/2-x,1/2+y,z
1/2+x,1/2-y,z
loop_
_atom_site_type_symbol
_atom_site_label
_atom_site_fract_x
_atom_site_fract_y
_atom_site_fract_z
Si Si1 0.757507 0.483135 0.000000
Si Si2 0.090493 0.641752 0.254263
Si Si3 0.549295 0.628079 0.423651
Si Si4 0.244989 0.508805 0.145521
Si Si5 0.478098 0.311963 0.858084
Si Si6 0.673155 0.215896 0.341116
Si Si7 0.990025 0.186413 0.000000
O O1 0.830119 0.490858 0.072586
O O2 0.657204 0.370045 0.000000
O O3 0.632144 0.584491 0.000000
O O4 0.152144 0.538994 0.210903
O O5 0.021957 0.723156 0.198548
O O6 0.232407 0.705774 0.289870
O O7 0.954303 0.637194 0.307319
O O8 0.500000 0.500000 0.420726
O O9 0.572777 0.659496 0.500000
O O10 0.419075 0.703471 0.390252
O O11 0.701816 0.646633 0.381203
O O12 0.377227 0.604741 0.142843
O O13 0.330922 0.391166 0.151628
O O14 0.470965 0.255508 0.930168
#
# Coordination Sequence:
#
# PCOD9428790 Si02
#       7
#     4   8   8   8   8   8   4
#     4   7  12  25  46  75 100 143 212 268 315 357
#     4  11  20  35  54  85 124 163 199 247 307 378
#     4  10  22  45  75 100 128 171 208 248 309 368
#     4   9  17  31  53  75 110 159 210 265 312 373
#     4   9  17  31  52  75 109 158 210 260 318 368
#     4  10  23  39  61  97 136 160 206 257 299 374
#     4   7  12  25  46  73 100 143 210 269 309 362
#
# _framework density 22.620204999999999
#
# number of rings (size 3 to 8) (size 9 to 14) (size 15 to 20)
#    0.000    2.667    1.667    2.500    0.000    3.333 
#    0.000    7.500    0.000    9.000    0.000    3.500 
#    0.000    0.000    0.000    0.333    0.000    0.000 
#
# Total GULP energy -268334.085153 kJ/mol
# GULP energy per Si atom -5590.293441 kJ/mol
# Density = 2.256872 g / cm^3
# Si number density = 22.620205 Si / 1000 Ang^3
#
#
#
# Elastic Constant Matrix: (Units=GPa)
#
#
# Indices 1 2 3 4 5 6 
#
# 1 116.6816 12.1354 48.8780 0.0000 0.0000 0.0000
# 2 12.1354 35.2077 22.2283 0.0000 0.0000 0.0000
# 3 48.8780 22.2283 150.1705 0.0000 0.0000 0.0000
# 4 0.0000 0.0000 0.0000 33.6320 0.0000 0.0000
# 5 0.0000 0.0000 0.0000 0.0000 -5.9910 0.0000
# 6 0.0000 0.0000 0.0000 0.0000 0.0000 15.9546
#
#
#
# Elastic Compliance Matrix: (Units=1/GPa)
#
#
# Indices 1 2 3 4 5 6 
#
# 1 0.009998 -0.001535 -0.003027 0.000000 0.000000 0.000000
# 2 -0.001535 0.031566 -0.004173 0.000000 0.000000 0.000000
# 3 -0.003027 -0.004173 0.008262 0.000000 0.000000 0.000000
# 4 0.000000 0.000000 0.000000 0.029734 0.000000 0.000000
# 5 0.000000 0.000000 0.000000 0.000000 -0.166918 0.000000
# 6 0.000000 0.000000 0.000000 0.000000 0.000000 0.062678
#
#
# Mechanical properties :
#
#
# Convention : Reuss Voigt Hill
#
# Bulk Modulus (GPa) = 30.90544 52.06035 41.48290
# Shear Modulus (GPa) = 1398.67680 23.30700 710.99190
#
# Velocity S-wave (km/s) = 24.89323 3.21341 17.74823
# Velocity P-wave (km/s) = 28.98143 6.06901 20.93748
#
# Compressibility (1/GPa) = 0.03235676
#
# Stress axis : x y z
#
# Youngs Moduli (GPa) = 100.02022 31.67916 121.03620
#
# Poissons Ratio (x) = 0.04863 0.36637
# Poissons Ratio (y) = 0.15354 0.50507
# Poissons Ratio (z) = 0.30276 0.13219
#
# Static dielectric constant tensor:
#      x y z
#    x 1.871180 0.000000 0.000000 
#    y 0.000000 1.855440 0.000000 
#    z 0.000000 0.000000 1.817490 
# 
# From -- ./inp_files/20846.got.cif
#   From: 2010.05.17/outbox.cif.g08.bks.cpg/sg55_11_cif.got.tgz:20846.got - 2010.06.03 13:27:54.
