data_PCOD9428739
_publ_section_title
;
Structure prediction by ZEFSAII (Michael W. Deem and Ramdas Pophale) SiO2 
 PCOD9428739
Probable space group: P B A M
;
_chemical_formula_sum "Si O2"
_cell_formula_units_Z 56
_cell_length_a 12.014646
_cell_length_b 9.075676
_cell_length_c 21.038571
_cell_angle_alpha 90.000000
_cell_angle_beta 90.000000
_cell_angle_gamma 90.000000
_cell_volume 2294.067543
_symmetry_space_group_name_H-M "P B A M"
_symmetry_group_IT_number 55
_symmetry_cell_setting 'orthorhombic'
loop_
_space_group_symop_operation_xyz
x,y,z
-x,-y,z
1/2+x,1/2-y,-z
1/2-x,1/2+y,-z
-x,-y,-z
x,y,-z
1/2-x,1/2+y,z
1/2+x,1/2-y,z
loop_
_atom_site_type_symbol
_atom_site_label
_atom_site_fract_x
_atom_site_fract_y
_atom_site_fract_z
Si Si1 0.971254 0.669974 0.571574
Si Si2 0.316317 0.521017 0.000000
Si Si3 0.480656 0.251815 0.860303
Si Si4 0.846507 0.389059 0.246758
Si Si5 0.792930 0.649270 0.670854
Si Si6 0.878379 0.072690 0.571363
Si Si7 0.816868 0.965755 0.136167
Si Si8 0.025524 0.749520 0.000000
O O1 0.927168 0.695538 0.500000
O O2 0.880822 0.723100 0.622643
O O3 0.000000 0.500000 0.578866
O O4 0.087125 0.755928 0.575735
O O5 0.258761 0.542834 0.067278
O O6 0.420607 0.635173 0.000000
O O7 0.367106 0.356904 0.000000
O O8 0.448454 0.169149 0.795899
O O9 0.391562 0.387126 0.863135
O O10 0.600238 0.328278 0.856020
O O11 0.478164 0.176743 0.930277
O O12 0.779954 0.259195 0.284873
O O13 0.864118 0.527638 0.291761
O O14 0.766105 0.456485 0.193190
O O15 0.709088 0.554453 0.626771
O O16 0.837702 0.038424 0.500000
O O17 0.000000 0.000000 0.578989
#
# Coordination Sequence:
#
# PCOD9428739 Si02
#       8
#     8   4   8   8   8   8   8   4
#     4  10  22  42  66  90 117 153 199 251 303 349
#     4   7  12  27  56  83 104 143 200 253 301 338
#     4   9  18  36  58  82 113 155 201 252 298 349
#     4  12  24  37  56  87 125 162 197 231 297 371
#     4  12  25  40  59  90 128 160 199 247 296 367
#     4  10  22  42  68  93 116 154 205 251 300 352
#     4   9  18  36  58  82 114 154 201 252 296 353
#     4   7  12  27  56  83 104 141 202 255 298 341
#
# _framework density 24.410789000000001
#
# number of rings (size 3 to 8) (size 9 to 14) (size 15 to 20)
#    0.000    2.143    1.429    3.857    0.000    4.000 
#    0.000    5.714    0.000    0.000    0.000    3.000 
#    0.000    0.000    0.000    0.000    0.000    0.000 
#
# Total GULP energy -312989.360381 kJ/mol
# GULP energy per Si atom -5589.095721 kJ/mol
# Density = 2.435523 g / cm^3
# Si number density = 24.410789 Si / 1000 Ang^3
#
#
#
# Elastic Constant Matrix: (Units=GPa)
#
#
# Indices 1 2 3 4 5 6 
#
# 1 30.7561 0.2028 38.3022 0.0000 0.0000 0.0000
# 2 0.2028 65.9559 25.1097 0.0000 0.0000 0.0000
# 3 38.3022 25.1097 186.8849 0.0000 0.0000 0.0000
# 4 0.0000 0.0000 0.0000 -6.1093 0.0000 0.0000
# 5 0.0000 0.0000 0.0000 0.0000 40.8474 0.0000
# 6 0.0000 0.0000 0.0000 0.0000 0.0000 19.0970
#
#
#
# Elastic Compliance Matrix: (Units=1/GPa)
#
#
# Indices 1 2 3 4 5 6 
#
# 1 0.044414 0.003508 -0.009574 0.000000 0.000000 0.000000
# 2 0.003508 0.016256 -0.002903 0.000000 0.000000 0.000000
# 3 -0.009574 -0.002903 0.007703 0.000000 0.000000 0.000000
# 4 0.000000 0.000000 0.000000 -0.163686 0.000000 0.000000
# 5 0.000000 0.000000 0.000000 0.000000 0.024481 0.000000
# 6 0.000000 0.000000 0.000000 0.000000 0.000000 0.052364
#
#
# Mechanical properties :
#
#
# Convention : Reuss Voigt Hill
#
# Bulk Modulus (GPa) = 19.82743 45.64737 32.73740
# Shear Modulus (GPa) = 307.08598 25.43250 166.25924
#
# Velocity S-wave (km/s) = 11.22820 3.23128 8.26177
# Velocity P-wave (km/s) = 13.27541 5.71505 10.22004
#
# Compressibility (1/GPa) = 0.05043518
#
# Stress axis : x y z
#
# Youngs Moduli (GPa) = 22.51558 61.51535 129.81701
#
# Poissons Ratio (x) = -0.21581 1.24287
# Poissons Ratio (y) = -0.07899 0.37688
# Poissons Ratio (z) = 0.21556 0.17859
#
# Static dielectric constant tensor:
#      x y z
#    x 1.925770 0.000000 0.000000 
#    y 0.000000 1.992080 0.000000 
#    z 0.000000 0.000000 1.966040 
# 
# From -- ./inp_files/23002.got.cif
#   From: 2010.05.17/outbox.cif.g08.bks.cpg/sg55_12_cif.got.tgz:23002.got - 2010.06.03 13:27:54.
