data_PCOD9428117
_publ_section_title
;
Structure prediction by ZEFSAII (Michael W. Deem and Ramdas Pophale) SiO2 
 PCOD9428117
Probable space group: P B A M
;
_chemical_formula_sum "Si O2"
_cell_formula_units_Z 64
_cell_length_a 26.592445
_cell_length_b 9.517781
_cell_length_c 13.986526
_cell_angle_alpha 90.000000
_cell_angle_beta 90.000000
_cell_angle_gamma 90.000000
_cell_volume 3540.004665
_symmetry_space_group_name_H-M "P B A M"
_symmetry_group_IT_number 55
_symmetry_cell_setting 'orthorhombic'
loop_
_space_group_symop_operation_xyz
x,y,z
-x,-y,z
1/2+x,1/2-y,-z
1/2-x,1/2+y,-z
-x,-y,-z
x,y,-z
1/2-x,1/2+y,z
1/2+x,1/2-y,z
loop_
_atom_site_type_symbol
_atom_site_label
_atom_site_fract_x
_atom_site_fract_y
_atom_site_fract_z
Si Si1 0.944093 0.672878 0.613743
Si Si2 0.559306 0.004715 0.206238
Si Si3 0.279916 0.984670 0.110579
Si Si4 0.533826 0.641320 0.609560
Si Si5 0.632864 0.784615 0.887417
Si Si6 0.172296 0.000234 0.796504
Si Si7 0.623232 0.453697 0.386893
Si Si8 0.866593 0.724400 0.114453
O O1 0.946890 0.641473 0.500000
O O2 0.932402 0.541853 0.681460
O O3 0.904668 0.802489 0.624560
O O4 0.997743 0.738003 0.649443
O O5 0.586685 0.135641 0.153651
O O6 0.500000 0.000000 0.186106
O O7 0.588461 0.868533 0.166719
O O8 0.229422 0.006517 0.168284
O O9 0.314945 0.855619 0.142992
O O10 0.317893 0.115584 0.113922
O O11 0.265298 0.960316 0.000000
O O12 0.500000 0.500000 0.606485
O O13 0.543355 0.683714 0.500000
O O14 0.585676 0.579345 0.647231
O O15 0.648698 0.644452 0.833480
O O16 0.620237 0.762034 0.000000
O O17 0.169492 0.029373 0.683525
O O18 0.138448 0.121415 0.844291
O O19 0.632502 0.469558 0.500000
O O20 0.868457 0.724326 0.000000
#
# Coordination Sequence:
#
# PCOD9428117 Si02
#       8
#     8   8   8   8   8   8   8   8
#     4   9  17  34  57  81 107 146 200 245 280 325
#     4  11  23  38  56  79 116 162 192 223 290 349
#     4   9  19  37  61  85 114 145 183 240 296 336
#     4   7  12  25  48  73 101 135 175 228 278 313
#     4  10  23  40  57  85 120 150 187 238 290 337
#     4  12  20  33  62  91 110 145 190 244 284 332
#     4   9  18  32  53  84 119 147 180 236 293 338
#     4  10  21  38  59  84 111 148 199 237 279 342
#
# _framework density 18.079073000000001
#
# number of rings (size 3 to 8) (size 9 to 14) (size 15 to 20)
#    0.000    2.375    1.250    4.500    1.750    3.250 
#    0.000    1.250    0.000    7.500    0.000    0.000 
#    0.000    0.000    0.000    0.000    0.000    0.000 
#
# Total GULP energy -356699.349044 kJ/mol
# GULP energy per Si atom -5573.427329 kJ/mol
# Density = 1.803792 g / cm^3
# Si number density = 18.079073 Si / 1000 Ang^3
#
#
#
# Elastic Constant Matrix: (Units=GPa)
#
#
# Indices 1 2 3 4 5 6 
#
# 1 100.7160 19.7415 49.3497 0.0000 0.0000 0.0000
# 2 19.7415 74.6531 28.0194 0.0000 0.0000 0.0000
# 3 49.3497 28.0194 86.0246 0.0000 0.0000 0.0000
# 4 0.0000 0.0000 0.0000 23.4162 0.0000 0.0000
# 5 0.0000 0.0000 0.0000 0.0000 16.9119 0.0000
# 6 0.0000 0.0000 0.0000 0.0000 0.0000 1.5312
#
#
#
# Elastic Compliance Matrix: (Units=1/GPa)
#
#
# Indices 1 2 3 4 5 6 
#
# 1 0.013850 -0.000775 -0.007693 0.000000 0.000000 0.000000
# 2 -0.000775 0.015304 -0.004540 0.000000 0.000000 0.000000
# 3 -0.007693 -0.004540 0.017517 0.000000 0.000000 0.000000
# 4 0.000000 0.000000 0.000000 0.042706 0.000000 0.000000
# 5 0.000000 0.000000 0.000000 0.000000 0.059130 0.000000
# 6 0.000000 0.000000 0.000000 0.000000 0.000000 0.653075
#
#
# Mechanical properties :
#
#
# Convention : Reuss Voigt Hill
#
# Bulk Modulus (GPa) = 48.41543 50.62389 49.51966
# Shear Modulus (GPa) = 5.99173 19.32406 12.65789
#
# Velocity S-wave (km/s) = 1.82246 3.27289 2.64889
# Velocity P-wave (km/s) = 5.59164 6.50727 6.06676
#
# Compressibility (1/GPa) = 0.02065457
#
# Stress axis : x y z
#
# Youngs Moduli (GPa) = 72.20037 65.34097 57.08871
#
# Poissons Ratio (x) = 0.05065 0.43918
# Poissons Ratio (y) = 0.05597 0.25919
# Poissons Ratio (z) = 0.55544 0.29666
#
# Static dielectric constant tensor:
#      x y z
#    x 1.626110 0.000000 0.000000 
#    y 0.000000 1.648000 0.000000 
#    z 0.000000 0.000000 1.636370 
# 
# From -- ./inp_files/19964.got.cif
#   From: 2010.05.17/outbox.cif.g08.bks.cpg/sg55_10_cif.got.tgz:19964.got - 2010.06.03 13:27:54.
