data_PCOD9428722
_publ_section_title
;
Structure prediction by ZEFSAII (Michael W. Deem and Ramdas Pophale) SiO2 
 PCOD9428722
Probable space group: P B A M
;
_chemical_formula_sum "Si O2"
_cell_formula_units_Z 56
_cell_length_a 11.441000
_cell_length_b 15.207793
_cell_length_c 14.245345
_cell_angle_alpha 90.000000
_cell_angle_beta 90.000000
_cell_angle_gamma 90.000000
_cell_volume 2478.581191
_symmetry_space_group_name_H-M "P B A M"
_symmetry_group_IT_number 55
_symmetry_cell_setting 'orthorhombic'
loop_
_space_group_symop_operation_xyz
x,y,z
-x,-y,z
1/2+x,1/2-y,-z
1/2-x,1/2+y,-z
-x,-y,-z
x,y,-z
1/2-x,1/2+y,z
1/2+x,1/2-y,z
loop_
_atom_site_type_symbol
_atom_site_label
_atom_site_fract_x
_atom_site_fract_y
_atom_site_fract_z
Si Si1 0.820674 0.750198 0.894593
Si Si2 0.477426 0.595533 0.827488
Si Si3 0.195293 0.377039 0.392618
Si Si4 0.263369 0.537593 0.713746
Si Si5 0.154350 0.779644 0.742067
Si Si6 0.934570 0.350496 0.388714
Si Si7 0.627836 0.044800 0.890812
O O1 0.917576 0.825802 0.885171
O O2 0.712788 0.773394 0.826746
O O3 0.869554 0.651178 0.873683
O O4 0.776153 0.747384 0.000000
O O5 0.500000 0.500000 0.873163
O O6 0.387095 0.577008 0.742680
O O7 0.597718 0.635314 0.789723
O O8 0.212311 0.353172 0.500000
O O9 0.272176 0.458839 0.360761
O O10 0.237348 0.300286 0.325542
O O11 0.058784 0.398939 0.379177
O O12 0.172476 0.601347 0.661428
O O13 0.205312 0.500706 0.810232
O O14 0.058026 0.736577 0.675068
O O15 0.915193 0.336460 0.500000
O O16 0.500000 0.000000 0.883599
O O17 0.667247 0.031625 0.000000
#
# Coordination Sequence:
#
# PCOD9428722 Si02
#       7
#     8   8   8   8   8   8   8
#     4  11  25  46  73 104 139 188 240 289 353 427
#     4  12  26  46  71 104 147 192 235 289 364 425
#     4  11  23  43  70 100 136 184 238 292 356 422
#     4  12  23  43  69 102 142 184 230 297 359 424
#     4  12  24  46  70  99 147 189 230 296 353 430
#     4  11  25  43  70 104 136 182 243 298 355 421
#     4  10  22  41  70 107 141 180 235 294 354 422
#
# _framework density 22.593571000000001
#
# number of rings (size 3 to 8) (size 9 to 14) (size 15 to 20)
#    0.000    0.714    4.286    3.000    2.000    2.571 
#    0.000    2.857    0.000    0.000    0.000    0.000 
#    0.000    0.000    0.000    0.000    0.000    0.000 
#
# Total GULP energy -312902.025793 kJ/mol
# GULP energy per Si atom -5587.536175 kJ/mol
# Density = 2.254215 g / cm^3
# Si number density = 22.593571 Si / 1000 Ang^3
#
#
#
# Elastic Constant Matrix: (Units=GPa)
#
#
# Indices 1 2 3 4 5 6 
#
# 1 74.7698 8.2227 35.4460 0.0000 0.0000 0.0000
# 2 8.2227 85.9175 28.8547 0.0000 0.0000 0.0000
# 3 35.4460 28.8547 127.0042 0.0000 0.0000 0.0000
# 4 0.0000 0.0000 0.0000 18.9002 0.0000 0.0000
# 5 0.0000 0.0000 0.0000 0.0000 15.1894 0.0000
# 6 0.0000 0.0000 0.0000 0.0000 0.0000 44.2432
#
#
#
# Elastic Compliance Matrix: (Units=1/GPa)
#
#
# Indices 1 2 3 4 5 6 
#
# 1 0.015414 -0.000033 -0.004294 0.000000 0.000000 0.000000
# 2 -0.000033 0.012601 -0.002854 0.000000 0.000000 0.000000
# 3 -0.004294 -0.002854 0.009721 0.000000 0.000000 0.000000
# 4 0.000000 0.000000 0.000000 0.052910 0.000000 0.000000
# 5 0.000000 0.000000 0.000000 0.000000 0.065835 0.000000
# 6 0.000000 0.000000 0.000000 0.000000 0.000000 0.022602
#
#
# Mechanical properties :
#
#
# Convention : Reuss Voigt Hill
#
# Bulk Modulus (GPa) = 42.78412 48.08204 45.43308
# Shear Modulus (GPa) = 24.84656 30.01110 27.42883
#
# Velocity S-wave (km/s) = 3.31980 3.64854 3.48805
# Velocity P-wave (km/s) = 5.80278 6.25113 6.03112
#
# Compressibility (1/GPa) = 0.02337316
#
# Stress axis : x y z
#
# Youngs Moduli (GPa) = 64.87668 79.36144 102.87410
#
# Poissons Ratio (x) = 0.00261 0.44178
# Poissons Ratio (y) = 0.00214 0.29356
# Poissons Ratio (z) = 0.27861 0.22647
#
# Static dielectric constant tensor:
#      x y z
#    x 1.811100 0.000000 0.000000 
#    y 0.000000 1.986710 0.000000 
#    z 0.000000 0.000000 1.786310 
# 
# From -- ./inp_files/18407.got.cif
#   From: 2010.05.17/outbox.cif.g08.bks.cpg/sg55_10_cif.got.tgz:18407.got - 2010.06.03 13:27:54.
