data_PCOD9428282
_publ_section_title
;
Structure prediction by ZEFSAII (Michael W. Deem and Ramdas Pophale) SiO2 
 PCOD9428282
Probable space group: P B A M
;
_chemical_formula_sum "Si O2"
_cell_formula_units_Z 48
_cell_length_a 28.850959
_cell_length_b 9.573783
_cell_length_c 8.550307
_cell_angle_alpha 90.000000
_cell_angle_beta 90.000000
_cell_angle_gamma 90.000000
_cell_volume 2361.704415
_symmetry_space_group_name_H-M "P B A M"
_symmetry_group_IT_number 55
_symmetry_cell_setting 'orthorhombic'
loop_
_space_group_symop_operation_xyz
x,y,z
-x,-y,z
1/2+x,1/2-y,-z
1/2-x,1/2+y,-z
-x,-y,-z
x,y,-z
1/2-x,1/2+y,z
1/2+x,1/2-y,z
loop_
_atom_site_type_symbol
_atom_site_label
_atom_site_fract_x
_atom_site_fract_y
_atom_site_fract_z
Si Si1 0.378498 0.302860 0.688149
Si Si2 0.959369 0.613655 0.181632
Si Si3 0.721234 0.196062 0.314006
Si Si4 0.802608 0.003533 0.186319
Si Si5 0.017128 0.853635 0.314018
Si Si6 0.141310 0.503449 0.187759
O O1 0.376970 0.294944 0.500000
O O2 0.350861 0.439228 0.744326
O O3 0.432033 0.308568 0.744324
O O4 0.355225 0.163292 0.757073
O O5 0.910391 0.549205 0.228924
O O6 0.000000 0.500000 0.192869
O O7 0.977489 0.742131 0.280772
O O8 0.955483 0.656156 0.000000
O O9 0.728136 0.199334 0.500000
O O10 0.764894 0.119928 0.234788
O O11 0.712211 0.352976 0.253582
O O12 0.677861 0.097940 0.269256
O O13 0.805541 0.993478 0.000000
O O14 0.022797 0.868567 0.500000
O O15 0.000000 0.000000 0.246647
O O16 0.147229 0.496786 0.000000
#
# Coordination Sequence:
#
# PCOD9428282 Si02
#       6
#     8   8   8   8   8   8
#     4  11  23  41  64  94 130 172 217 264 320 379
#     4  10  21  39  62  91 126 168 215 262 313 374
#     4  12  26  46  70  98 130 166 209 260 318 381
#     4  12  26  46  70  97 130 167 210 260 318 380
#     4  10  23  40  60  90 128 170 215 264 318 376
#     4  11  23  41  65  95 130 169 216 265 319 380
#
# _framework density 20.324304999999999
#
# number of rings (size 3 to 8) (size 9 to 14) (size 15 to 20)
#    0.000    1.000    1.667    5.000    2.333    2.667 
#    0.000    0.000    0.000    0.000    0.000    0.000 
#    0.000    0.000    0.000    0.000    0.000    0.000 
#
# Total GULP energy -268469.980481 kJ/mol
# GULP energy per Si atom -5593.124593 kJ/mol
# Density = 2.027805 g / cm^3
# Si number density = 20.324305 Si / 1000 Ang^3
#
#
#
# Elastic Constant Matrix: (Units=GPa)
#
#
# Indices 1 2 3 4 5 6 
#
# 1 53.1285 6.4725 -5.8124 0.0000 0.0000 0.0000
# 2 6.4725 109.8026 8.6568 0.0000 0.0000 0.0000
# 3 -5.8124 8.6568 39.7722 0.0000 0.0000 0.0000
# 4 0.0000 0.0000 0.0000 31.7947 0.0000 0.0000
# 5 0.0000 0.0000 0.0000 0.0000 29.3006 0.0000
# 6 0.0000 0.0000 0.0000 0.0000 0.0000 36.3258
#
#
#
# Elastic Compliance Matrix: (Units=1/GPa)
#
#
# Indices 1 2 3 4 5 6 
#
# 1 0.019333 -0.001386 0.003127 0.000000 0.000000 0.000000
# 2 -0.001386 0.009366 -0.002241 0.000000 0.000000 0.000000
# 3 0.003127 -0.002241 0.026088 0.000000 0.000000 0.000000
# 4 0.000000 0.000000 0.000000 0.031452 0.000000 0.000000
# 5 0.000000 0.000000 0.000000 0.000000 0.034129 0.000000
# 6 0.000000 0.000000 0.000000 0.000000 0.000000 0.027529
#
#
# Mechanical properties :
#
#
# Convention : Reuss Voigt Hill
#
# Bulk Modulus (GPa) = 18.59197 24.59300 21.59249
# Shear Modulus (GPa) = 29.97140 32.37661 31.17401
#
# Velocity S-wave (km/s) = 3.84429 3.99557 3.92066
# Velocity P-wave (km/s) = 5.37330 5.78037 5.58055
#
# Compressibility (1/GPa) = 0.05378665
#
# Stress axis : x y z
#
# Youngs Moduli (GPa) = 51.72426 106.77309 38.33177
#
# Poissons Ratio (x) = 0.14801 -0.11987
# Poissons Ratio (y) = 0.07170 0.08591
# Poissons Ratio (z) = -0.16175 0.23929
#
# Static dielectric constant tensor:
#      x y z
#    x 1.733100 0.000000 0.000000 
#    y 0.000000 1.710860 0.000000 
#    z 0.000000 0.000000 1.692310 
# 
# From -- ./inp_files/2819.got.cif
#   From: 2010.05.17/outbox.cif.g08.bks.cpg/sg55_2_cif.got.tgz:2819.got - 2010.06.03 13:27:54.
