data_PCOD9428904
_publ_section_title
;
Structure prediction by ZEFSAII (Michael W. Deem and Ramdas Pophale) SiO2 
 PCOD9428904
Probable space group: P B A M
;
_chemical_formula_sum "Si O2"
_cell_formula_units_Z 32
_cell_length_a 14.727218
_cell_length_b 6.816201
_cell_length_c 11.320772
_cell_angle_alpha 90.000000
_cell_angle_beta 90.000000
_cell_angle_gamma 90.000000
_cell_volume 1136.420732
_symmetry_space_group_name_H-M "P B A M"
_symmetry_group_IT_number 55
_symmetry_cell_setting 'orthorhombic'
loop_
_space_group_symop_operation_xyz
x,y,z
-x,-y,z
1/2+x,1/2-y,-z
1/2-x,1/2+y,-z
-x,-y,-z
x,y,-z
1/2-x,1/2+y,z
1/2+x,1/2-y,z
loop_
_atom_site_type_symbol
_atom_site_label
_atom_site_fract_x
_atom_site_fract_y
_atom_site_fract_z
Si Si1 0.411138 0.273380 0.500000
Si Si2 0.500000 0.500000 0.305706
Si Si3 0.779201 0.880188 0.000000
Si Si4 0.159491 0.247921 0.250305
Si Si5 0.590514 0.757129 0.000000
Si Si6 0.500000 0.000000 0.192716
Si Si7 0.265324 0.629460 0.500000
O O1 0.474794 0.314078 0.388935
O O2 0.338834 0.454536 0.500000
O O3 0.343216 0.092780 0.500000
O O4 0.407182 0.559838 0.246563
O O5 0.788858 0.767169 0.126177
O O6 0.671037 0.917976 0.000000
O O7 0.856107 0.051026 0.000000
O O8 0.093514 0.435530 0.252945
O O9 0.215806 0.229514 0.371318
O O10 0.527383 0.813082 0.110837
#
# Coordination Sequence:
#
# PCOD9428904 Si02
#       7
#     4   4   4   8   4   4   4
#     4   9  20  40  62  89 126 170 214 259 317 384
#     4   9  20  39  62  88 126 172 214 258 318 384
#     4  12  25  44  70  96 130 172 219 270 326 384
#     4  11  24  42  65  98 131 171 217 264 324 385
#     4  11  25  45  68  97 132 171 217 273 326 386
#     4  11  24  41  66 100 134 168 218 270 324 388
#     4  10  24  41  62  93 130 168 214 264 323 383
#
# _framework density 28.158586
#
# number of rings (size 3 to 8) (size 9 to 14) (size 15 to 20)
#    0.000    1.500    0.000    5.250    0.000   14.000 
#    0.000    0.000    0.000    0.000    0.000    0.000 
#    0.000    0.000    0.000    0.000    0.000    0.000 
#
# Total GULP energy -178953.491382 kJ/mol
# GULP energy per Si atom -5592.296606 kJ/mol
# Density = 2.809450 g / cm^3
# Si number density = 28.158586 Si / 1000 Ang^3
#
#
#
# Elastic Constant Matrix: (Units=GPa)
#
#
# Indices 1 2 3 4 5 6 
#
# 1 104.3830 -5.5457 58.2892 0.0000 0.0000 0.0000
# 2 -5.5457 56.8209 20.2366 0.0000 0.0000 0.0000
# 3 58.2892 20.2366 188.8448 0.0000 0.0000 0.0000
# 4 0.0000 0.0000 0.0000 28.1505 0.0000 0.0000
# 5 0.0000 0.0000 0.0000 0.0000 66.0149 0.0000
# 6 0.0000 0.0000 0.0000 0.0000 0.0000 56.2159
#
#
#
# Elastic Compliance Matrix: (Units=1/GPa)
#
#
# Indices 1 2 3 4 5 6 
#
# 1 0.011926 0.002573 -0.003957 0.000000 0.000000 0.000000
# 2 0.002573 0.018853 -0.002815 0.000000 0.000000 0.000000
# 3 -0.003957 -0.002815 0.006818 0.000000 0.000000 0.000000
# 4 0.000000 0.000000 0.000000 0.035523 0.000000 0.000000
# 5 0.000000 0.000000 0.000000 0.000000 0.015148 0.000000
# 6 0.000000 0.000000 0.000000 0.000000 0.000000 0.017789
#
#
# Mechanical properties :
#
#
# Convention : Reuss Voigt Hill
#
# Bulk Modulus (GPa) = 34.24537 55.11211 44.67874
# Shear Modulus (GPa) = 40.26164 48.54749 44.40456
#
# Velocity S-wave (km/s) = 3.78539 4.15670 3.97539
# Velocity P-wave (km/s) = 5.59407 6.53086 6.08053
#
# Compressibility (1/GPa) = 0.02920103
#
# Stress axis : x y z
#
# Youngs Moduli (GPa) = 83.84710 53.04278 146.66335
#
# Poissons Ratio (x) = -0.13649 0.58035
# Poissons Ratio (y) = -0.21576 0.41279
# Poissons Ratio (z) = 0.33178 0.14929
#
# Static dielectric constant tensor:
#      x y z
#    x 1.996620 0.000000 0.000000 
#    y 0.000000 2.338720 0.000000 
#    z 0.000000 0.000000 2.168200 
# 
# From -- ./inp_files/13856.got.cif
#   From: 2010.05.17/outbox.cif.g08.bks.cpg/sg55_7_cif.got.tgz:13856.got - 2010.06.03 13:27:54.
