data_PCOD9428901
_publ_section_title
;
Structure prediction by ZEFSAII (Michael W. Deem and Ramdas Pophale) SiO2 
 PCOD9428901
Probable space group: P B A M
;
_chemical_formula_sum "Si O2"
_cell_formula_units_Z 34
_cell_length_a 4.961283
_cell_length_b 15.209102
_cell_length_c 18.991328
_cell_angle_alpha 90.000000
_cell_angle_beta 90.000000
_cell_angle_gamma 90.000000
_cell_volume 1433.022165
_symmetry_space_group_name_H-M "P B A M"
_symmetry_group_IT_number 55
_symmetry_cell_setting 'orthorhombic'
loop_
_space_group_symop_operation_xyz
x,y,z
-x,-y,z
1/2+x,1/2-y,-z
1/2-x,1/2+y,-z
-x,-y,-z
x,y,-z
1/2-x,1/2+y,z
1/2+x,1/2-y,z
loop_
_atom_site_type_symbol
_atom_site_label
_atom_site_fract_x
_atom_site_fract_y
_atom_site_fract_z
Si Si1 0.000000 0.000000 0.000000
Si Si2 0.391589 0.308435 0.757956
Si Si3 0.106275 0.312056 0.500000
Si Si4 0.123337 0.414135 0.118436
Si Si5 0.249970 0.437288 0.369613
Si Si6 0.665574 0.807824 0.000000
O O1 0.184619 0.954239 0.939702
O O2 0.699829 0.277530 0.753251
O O3 0.292135 0.353161 0.829895
O O4 0.332496 0.376093 0.695592
O O5 0.308976 0.229047 0.500000
O O6 0.163015 0.372569 0.432505
O O7 0.000000 0.500000 0.156623
O O8 0.903864 0.361489 0.070854
O O9 0.500000 0.500000 0.389881
O O10 0.000000 0.500000 0.351685
O O11 0.969196 0.775503 0.000000
#
# Coordination Sequence:
#
# PCOD9428901 Si02
#       6
#     2   8   4   8   8   4
#     4  10  24  40  68  90 132 164 234 274 352 416
#     4  12  27  47  71 102 141 182 233 291 359 417
#     4  12  24  44  72 108 154 194 236 292 352 404
#     4  11  26  42  68  95 131 175 226 283 349 421
#     4  12  25  45  73 107 144 192 243 290 342 417
#     4  11  24  41  62  90 124 163 210 270 337 403
#
# _framework density 23.726082000000002
#
# number of rings (size 3 to 8) (size 9 to 14) (size 15 to 20)
#    0.000    0.471    0.000    8.471   11.529    0.000 
#    0.000    0.000    0.000    0.000    0.000    0.000 
#    0.000    0.000    0.000    0.000    0.000    0.000 
#
# Total GULP energy -190238.764558 kJ/mol
# GULP energy per Si atom -5595.257781 kJ/mol
# Density = 2.367208 g / cm^3
# Si number density = 23.726082 Si / 1000 Ang^3
#
#
#
# Elastic Constant Matrix: (Units=GPa)
#
#
# Indices 1 2 3 4 5 6 
#
# 1 48.6206 -8.6505 -36.0300 0.0000 0.0000 0.0000
# 2 -8.6505 72.7914 5.1353 0.0000 0.0000 0.0000
# 3 -36.0300 5.1353 84.9793 0.0000 0.0000 0.0000
# 4 0.0000 0.0000 0.0000 48.9615 0.0000 0.0000
# 5 0.0000 0.0000 0.0000 0.0000 5.7184 0.0000
# 6 0.0000 0.0000 0.0000 0.0000 0.0000 48.8782
#
#
#
# Elastic Compliance Matrix: (Units=1/GPa)
#
#
# Indices 1 2 3 4 5 6 
#
# 1 0.030519 0.002726 0.012775 0.000000 0.000000 0.000000
# 2 0.002726 0.014040 0.000307 0.000000 0.000000 0.000000
# 3 0.012775 0.000307 0.017165 0.000000 0.000000 0.000000
# 4 0.000000 0.000000 0.000000 0.020424 0.000000 0.000000
# 5 0.000000 0.000000 0.000000 0.000000 0.174875 0.000000
# 6 0.000000 0.000000 0.000000 0.000000 0.000000 0.020459
#
#
# Mechanical properties :
#
#
# Convention : Reuss Voigt Hill
#
# Bulk Modulus (GPa) = 10.71347 14.14454 12.42901
# Shear Modulus (GPa) = 18.05177 37.10738 27.57957
#
# Velocity S-wave (km/s) = 2.76133 3.95902 3.41312
# Velocity P-wave (km/s) = 3.83300 5.18392 4.55878
#
# Compressibility (1/GPa) = 0.09334041
#
# Stress axis : x y z
#
# Youngs Moduli (GPa) = 32.76625 71.22441 58.25658
#
# Poissons Ratio (x) = -0.19413 -0.74423
# Poissons Ratio (y) = -0.08931 -0.01790
# Poissons Ratio (z) = -0.41859 -0.02188
#
# Static dielectric constant tensor:
#      x y z
#    x 1.888840 0.000000 0.000000 
#    y 0.000000 1.952700 0.000000 
#    z 0.000000 0.000000 1.824060 
# 
# From -- ./inp_files/20307.got.cif
#   From: 2010.05.17/outbox.cif.g08.bks.cpg/sg55_11_cif.got.tgz:20307.got - 2010.06.03 13:27:54.
