data_PCOD9428883
_publ_section_title
;
Structure prediction by ZEFSAII (Michael W. Deem and Ramdas Pophale) SiO2 
 PCOD9428883
Probable space group: P B A M
;
_chemical_formula_sum "Si O2"
_cell_formula_units_Z 24
_cell_length_a 4.979310
_cell_length_b 11.998839
_cell_length_c 16.041173
_cell_angle_alpha 90.000000
_cell_angle_beta 90.000000
_cell_angle_gamma 90.000000
_cell_volume 958.394944
_symmetry_space_group_name_H-M "P B A M"
_symmetry_group_IT_number 55
_symmetry_cell_setting 'orthorhombic'
loop_
_space_group_symop_operation_xyz
x,y,z
-x,-y,z
1/2+x,1/2-y,-z
1/2-x,1/2+y,-z
-x,-y,-z
x,y,-z
1/2-x,1/2+y,z
1/2+x,1/2-y,z
loop_
_atom_site_type_symbol
_atom_site_label
_atom_site_fract_x
_atom_site_fract_y
_atom_site_fract_z
Si Si1 0.749478 0.417668 0.000000
Si Si2 0.807372 0.176135 0.401599
Si Si3 0.205241 0.180829 0.181207
Si Si4 0.000000 0.500000 0.708597
O O1 0.500000 0.500000 0.000000
O O2 0.740391 0.345650 0.083615
O O3 0.000000 0.500000 0.000000
O O4 0.786690 0.149985 0.500000
O O5 0.608056 0.281197 0.385245
O O6 0.692693 0.074506 0.349287
O O7 0.400526 0.285409 0.199422
O O8 0.317748 0.077667 0.232694
#
# Coordination Sequence:
#
# PCOD9428883 Si02
#       4
#     4   8   8   4
#     4  12  24  48  74  97 131 186 232 274 342 411
#     4  10  23  44  68  98 136 181 231 281 339 409
#     4  12  27  45  69 101 139 180 226 287 342 405
#     4  12  25  43  70 102 142 178 232 281 353 408
#
# _framework density 25.041868999999998
#
# number of rings (size 3 to 8) (size 9 to 14) (size 15 to 20)
#    0.000    0.667    1.667    5.500    0.000    4.000 
#    0.000    5.000    0.000    0.000    0.000    0.000 
#    0.000    0.000    0.000    0.000    0.000    0.000 
#
# Total GULP energy -134940.253256 kJ/mol
# GULP energy per Si atom -5622.510552 kJ/mol
# Density = 2.498487 g / cm^3
# Si number density = 25.041869 Si / 1000 Ang^3
#
#
#
# Elastic Constant Matrix: (Units=GPa)
#
#
# Indices 1 2 3 4 5 6 
#
# 1 133.6336 21.5400 9.7705 0.0000 0.0000 0.0000
# 2 21.5400 101.3280 51.6055 0.0000 0.0000 0.0000
# 3 9.7705 51.6055 144.5612 0.0000 0.0000 0.0000
# 4 0.0000 0.0000 0.0000 51.3750 0.0000 0.0000
# 5 0.0000 0.0000 0.0000 0.0000 35.0519 0.0000
# 6 0.0000 0.0000 0.0000 0.0000 0.0000 32.9600
#
#
#
# Elastic Compliance Matrix: (Units=1/GPa)
#
#
# Indices 1 2 3 4 5 6 
#
# 1 0.007749 -0.001687 0.000079 0.000000 0.000000 0.000000
# 2 -0.001687 0.012429 -0.004323 0.000000 0.000000 0.000000
# 3 0.000079 -0.004323 0.008455 0.000000 0.000000 0.000000
# 4 0.000000 0.000000 0.000000 0.019465 0.000000 0.000000
# 5 0.000000 0.000000 0.000000 0.000000 0.028529 0.000000
# 6 0.000000 0.000000 0.000000 0.000000 0.000000 0.030340
#
#
# Mechanical properties :
#
#
# Convention : Reuss Voigt Hill
#
# Bulk Modulus (GPa) = 59.62821 60.59496 60.11158
# Shear Modulus (GPa) = 40.18603 43.65117 41.91860
#
# Velocity S-wave (km/s) = 4.01028 4.17961 4.09582
# Velocity P-wave (km/s) = 6.73099 6.89508 6.81353
#
# Compressibility (1/GPa) = 0.01677059
#
# Stress axis : x y z
#
# Youngs Moduli (GPa) = 129.04249 80.45511 118.26774
#
# Poissons Ratio (x) = 0.13576 -0.00930
# Poissons Ratio (y) = 0.21774 0.51127
# Poissons Ratio (z) = -0.01014 0.34781
#
# Static dielectric constant tensor:
#      x y z
#    x 1.899540 0.000000 0.000000 
#    y 0.000000 1.938860 0.000000 
#    z 0.000000 0.000000 2.273130 
# 
# From -- ./inp_files/20238.got.cif
#   From: 2010.05.17/outbox.cif.g08.bks.cpg/sg55_11_cif.got.tgz:20238.got - 2010.06.03 13:27:54.
