data_PCOD9428810
_publ_section_title
;
Structure prediction by ZEFSAII (Michael W. Deem and Ramdas Pophale) SiO2 
 PCOD9428810
Probable space group: P B A M
;
_chemical_formula_sum "Si O2"
_cell_formula_units_Z 48
_cell_length_a 12.525070
_cell_length_b 21.661934
_cell_length_c 9.203971
_cell_angle_alpha 90.000000
_cell_angle_beta 90.000000
_cell_angle_gamma 90.000000
_cell_volume 2497.196006
_symmetry_space_group_name_H-M "P B A M"
_symmetry_group_IT_number 55
_symmetry_cell_setting 'orthorhombic'
loop_
_space_group_symop_operation_xyz
x,y,z
-x,-y,z
1/2+x,1/2-y,-z
1/2-x,1/2+y,-z
-x,-y,-z
x,y,-z
1/2-x,1/2+y,z
1/2+x,1/2-y,z
loop_
_atom_site_type_symbol
_atom_site_label
_atom_site_fract_x
_atom_site_fract_y
_atom_site_fract_z
Si Si1 0.419732 0.415035 0.168414
Si Si2 0.632371 0.938072 0.330260
Si Si3 0.472626 0.708198 0.168363
Si Si4 0.298728 0.927610 0.326807
Si Si5 0.468006 0.850160 0.172957
Si Si6 0.875735 0.895640 0.669065
O O1 0.427794 0.339436 0.176994
O O2 0.318575 0.435773 0.259832
O O3 0.535287 0.431577 0.236270
O O4 0.411732 0.432771 0.000000
O O5 0.601660 0.930024 0.500000
O O6 0.559651 0.895073 0.232268
O O7 0.756135 0.918792 0.314323
O O8 0.631957 0.010776 0.296597
O O9 0.493769 0.778678 0.205847
O O10 0.387705 0.674375 0.272097
O O11 0.436028 0.705641 0.000000
O O12 0.291339 0.920651 0.500000
O O13 0.359609 0.871314 0.251568
O O14 0.456827 0.856715 0.000000
O O15 0.905400 0.899380 0.500000
#
# Coordination Sequence:
#
# PCOD9428810 Si02
#       6
#     8   8   8   8   8   8
#     4   9  19  38  59  85 116 146 184 231 285 338
#     4  10  23  40  57  82 117 151 188 235 283 333
#     4   8  19  38  57  83 116 147 180 232 287 332
#     4  11  23  39  58  82 115 153 189 233 284 333
#     4  11  23  39  59  83 113 151 192 233 282 337
#     4   9  18  36  60  86 112 146 188 230 280 337
#
# _framework density 19.221558000000002
#
# number of rings (size 3 to 8) (size 9 to 14) (size 15 to 20)
#    1.000    1.333    0.000    2.000    0.000    8.000 
#    0.000    8.333    0.000    0.000    0.000    0.000 
#    0.000    0.000    0.000    0.000    0.000    0.000 
#
# Total GULP energy -267612.450479 kJ/mol
# GULP energy per Si atom -5575.259385 kJ/mol
# Density = 1.917781 g / cm^3
# Si number density = 19.221558 Si / 1000 Ang^3
#
#
#
# Elastic Constant Matrix: (Units=GPa)
#
#
# Indices 1 2 3 4 5 6 
#
# 1 49.9018 5.2660 29.0349 0.0000 0.0000 0.0000
# 2 5.2660 71.4030 32.3611 0.0000 0.0000 0.0000
# 3 29.0349 32.3611 72.9935 0.0000 0.0000 0.0000
# 4 0.0000 0.0000 0.0000 26.1466 0.0000 0.0000
# 5 0.0000 0.0000 0.0000 0.0000 -143.9360 0.0000
# 6 0.0000 0.0000 0.0000 0.0000 0.0000 24.0174
#
#
#
# Elastic Compliance Matrix: (Units=1/GPa)
#
#
# Indices 1 2 3 4 5 6 
#
# 1 0.026782 0.003570 -0.012236 0.000000 0.000000 0.000000
# 2 0.003570 0.018003 -0.009402 0.000000 0.000000 0.000000
# 3 -0.012236 -0.009402 0.022735 0.000000 0.000000 0.000000
# 4 0.000000 0.000000 0.000000 0.038246 0.000000 0.000000
# 5 0.000000 0.000000 0.000000 0.000000 -0.006948 0.000000
# 6 0.000000 0.000000 0.000000 0.000000 0.000000 0.041636
#
#
# Mechanical properties :
#
#
# Convention : Reuss Voigt Hill
#
# Bulk Modulus (GPa) = 31.86197 36.40246 34.13222
# Shear Modulus (GPa) = 26.73070 -10.24531 8.24269
#
# Velocity S-wave (km/s) = 3.73320 -2.31121 2.07306
# Velocity P-wave (km/s) = 5.93250 3.44343 4.85035
#
# Compressibility (1/GPa) = 0.03138538
#
# Stress axis : x y z
#
# Youngs Moduli (GPa) = 37.33848 55.54741 43.98474
#
# Poissons Ratio (x) = -0.19833 0.53820
# Poissons Ratio (y) = -0.13331 0.41352
# Poissons Ratio (z) = 0.45688 0.52223
#
# Static dielectric constant tensor:
#      x y z
#    x 1.659520 0.000000 0.000000 
#    y 0.000000 1.702760 0.000000 
#    z 0.000000 0.000000 1.639620 
# 
# From -- ./inp_files/4095.got.cif
#   From: 2010.05.17/outbox.cif.g08.bks.cpg/sg55_3_cif.got.tgz:4095.got - 2010.06.03 13:27:54.
