data_PCOD9428996
_publ_section_title
;
Structure prediction by ZEFSAII (Michael W. Deem and Ramdas Pophale) SiO2 
 PCOD9428996
Probable space group: P B A M
;
_chemical_formula_sum "Si O2"
_cell_formula_units_Z 40
_cell_length_a 16.015078
_cell_length_b 16.313925
_cell_length_c 8.855280
_cell_angle_alpha 90.000000
_cell_angle_beta 90.000000
_cell_angle_gamma 90.000000
_cell_volume 2313.608214
_symmetry_space_group_name_H-M "P B A M"
_symmetry_group_IT_number 55
_symmetry_cell_setting 'orthorhombic'
loop_
_space_group_symop_operation_xyz
x,y,z
-x,-y,z
1/2+x,1/2-y,-z
1/2-x,1/2+y,-z
-x,-y,-z
x,y,-z
1/2-x,1/2+y,z
1/2+x,1/2-y,z
loop_
_atom_site_type_symbol
_atom_site_label
_atom_site_fract_x
_atom_site_fract_y
_atom_site_fract_z
Si Si1 0.310085 0.937636 0.321114
Si Si2 0.941176 0.689428 0.816645
Si Si3 0.923647 0.434541 0.172676
Si Si4 0.540953 0.374968 0.816751
Si Si5 0.130879 0.960360 0.182650
O O1 0.310071 0.930654 0.500000
O O2 0.368078 0.866346 0.250955
O O3 0.217358 0.934415 0.255299
O O4 0.352612 0.023807 0.271649
O O5 0.937315 0.783545 0.766939
O O6 0.030563 0.648295 0.775786
O O7 0.936000 0.684823 0.000000
O O8 0.000000 0.500000 0.170100
O O9 0.893585 0.425162 0.000000
O O10 0.604037 0.447281 0.771417
O O11 0.447549 0.403103 0.774018
O O12 0.541804 0.374183 0.000000
O O13 0.138276 0.958410 0.000000
#
# Coordination Sequence:
#
# PCOD9428996 Si02
#       5
#     8   8   8   8   8
#     4  11  21  32  48  74 108 141 170 201 246 302
#     4   9  17  33  55  78 101 127 168 216 258 296
#     4   8  15  29  50  72  97 129 165 208 252 292
#     4   8  16  33  58  80  96 125 170 216 257 297
#     4   9  17  34  57  77 100 130 168 211 254 299
#
# _framework density 17.289012
#
# number of rings (size 3 to 8) (size 9 to 14) (size 15 to 20)
#    0.000    3.000    0.000    4.200    0.000    3.600 
#    3.600    4.000    0.000    0.000    0.000    0.000 
#    0.000    0.000    0.000    0.000    0.000    0.000 
#
# Total GULP energy -222836.976167 kJ/mol
# GULP energy per Si atom -5570.924404 kJ/mol
# Density = 1.724966 g / cm^3
# Si number density = 17.289012 Si / 1000 Ang^3
#
#
#
# Elastic Constant Matrix: (Units=GPa)
#
#
# Indices 1 2 3 4 5 6 
#
# 1 105.1047 58.5743 38.4355 0.0000 0.0000 0.0000
# 2 58.5743 127.0413 31.0681 0.0000 0.0000 0.0000
# 3 38.4355 31.0681 40.7759 0.0000 0.0000 0.0000
# 4 0.0000 0.0000 0.0000 1.4292 0.0000 0.0000
# 5 0.0000 0.0000 0.0000 0.0000 -24.5593 0.0000
# 6 0.0000 0.0000 0.0000 0.0000 0.0000 10.9826
#
#
#
# Elastic Compliance Matrix: (Units=1/GPa)
#
#
# Indices 1 2 3 4 5 6 
#
# 1 0.016508 -0.004678 -0.011997 0.000000 0.000000 0.000000
# 2 -0.004678 0.010999 -0.003972 0.000000 0.000000 0.000000
# 3 -0.011997 -0.003972 0.038859 0.000000 0.000000 0.000000
# 4 0.000000 0.000000 0.000000 0.699674 0.000000 0.000000
# 5 0.000000 0.000000 0.000000 0.000000 -0.040718 0.000000
# 6 0.000000 0.000000 0.000000 0.000000 0.000000 0.091053
#
#
# Mechanical properties :
#
#
# Convention : Reuss Voigt Hill
#
# Bulk Modulus (GPa) = 39.88150 58.78644 49.33397
# Shear Modulus (GPa) = 5.77351 7.22677 6.50014
#
# Velocity S-wave (km/s) = 1.82939 2.04672 1.94110
# Velocity P-wave (km/s) = 5.25165 6.29773 5.79833
#
# Compressibility (1/GPa) = 0.02507428
#
# Stress axis : x y z
#
# Youngs Moduli (GPa) = 60.57615 90.91436 25.73436
#
# Poissons Ratio (x) = 0.42525 0.30873
# Poissons Ratio (y) = 0.28335 0.10221
# Poissons Ratio (z) = 0.72672 0.36108
#
# Static dielectric constant tensor:
#      x y z
#    x 1.568000 0.000000 0.000000 
#    y 0.000000 1.611720 0.000000 
#    z 0.000000 0.000000 1.572180 
# 
# From -- ./inp_files/5188.got.cif
#   From: 2010.05.17/outbox.cif.g08.bks.cpg/sg55_3_cif.got.tgz:5188.got - 2010.06.03 13:27:54.
