data_PCOD9428507
_publ_section_title
;
Structure prediction by ZEFSAII (Michael W. Deem and Ramdas Pophale) SiO2 
 PCOD9428507
Probable space group: P B A M
;
_chemical_formula_sum "Si O2"
_cell_formula_units_Z 44
_cell_length_a 6.761290
_cell_length_b 17.166534
_cell_length_c 15.694338
_cell_angle_alpha 90.000000
_cell_angle_beta 90.000000
_cell_angle_gamma 90.000000
_cell_volume 1821.609084
_symmetry_space_group_name_H-M "P B A M"
_symmetry_group_IT_number 55
_symmetry_cell_setting 'orthorhombic'
loop_
_space_group_symop_operation_xyz
x,y,z
-x,-y,z
1/2+x,1/2-y,-z
1/2-x,1/2+y,-z
-x,-y,-z
x,y,-z
1/2-x,1/2+y,z
1/2+x,1/2-y,z
loop_
_atom_site_type_symbol
_atom_site_label
_atom_site_fract_x
_atom_site_fract_y
_atom_site_fract_z
Si Si1 0.089979 0.189633 0.500000
Si Si2 0.839975 0.311207 0.812237
Si Si3 0.601800 0.632128 0.000000
Si Si4 0.846957 0.314199 0.000000
Si Si5 0.500000 0.500000 0.309594
Si Si6 0.851635 0.629748 0.500000
Si Si7 0.348987 0.108987 0.637541
Si Si8 0.107358 0.868657 0.183155
O O1 0.068382 0.281566 0.500000
O O2 0.884843 0.140465 0.500000
O O3 0.215554 0.170334 0.584344
O O4 0.937448 0.326711 0.905334
O O5 0.916131 0.354773 0.728042
O O6 0.623465 0.346856 0.821747
O O7 0.808992 0.218142 0.799041
O O8 0.363890 0.642553 0.000000
O O9 0.662972 0.597317 0.909691
O O10 0.683118 0.720818 0.000000
O O11 0.683917 0.458305 0.355217
O O12 0.388690 0.434437 0.253414
O O13 0.957415 0.592086 0.418293
#
# Coordination Sequence:
#
# PCOD9428507 Si02
#       8
#     4   8   4   4   4   4   8   8
#     4  11  23  40  66  96 122 151 213 263 312 382
#     4   9  18  32  58  87 116 165 198 250 292 360
#     4   8  14  27  48  82 116 160 201 258 293 354
#     4   8  14  28  48  84 122 145 206 245 289 340
#     4  10  22  38  56  88 126 164 196 253 322 371
#     4  11  23  40  66  98 118 155 213 259 318 374
#     4  10  23  41  64  90 129 164 201 260 318 370
#     4   9  18  32  56  84 123 160 210 250 308 359
#
# _framework density 24.154468000000001
#
# number of rings (size 3 to 8) (size 9 to 14) (size 15 to 20)
#    0.000    2.545    1.818    0.000    5.091    1.818 
#    0.000    2.727    4.000    0.000    0.000    0.000 
#    0.000   40.000    0.000    0.182    0.000    0.000 
#
# Total GULP energy -245382.055840 kJ/mol
# GULP energy per Si atom -5576.864905 kJ/mol
# Density = 2.409949 g / cm^3
# Si number density = 24.154468 Si / 1000 Ang^3
#
#
#
# Elastic Constant Matrix: (Units=GPa)
#
#
# Indices 1 2 3 4 5 6 
#
# 1 91.7668 11.7400 43.2715 0.0000 0.0000 0.0000
# 2 11.7400 73.6468 35.4086 0.0000 0.0000 0.0000
# 3 43.2715 35.4086 145.8943 0.0000 0.0000 0.0000
# 4 0.0000 0.0000 0.0000 52.1205 0.0000 0.0000
# 5 0.0000 0.0000 0.0000 0.0000 5.1157 0.0000
# 6 0.0000 0.0000 0.0000 0.0000 0.0000 16.7551
#
#
#
# Elastic Compliance Matrix: (Units=1/GPa)
#
#
# Indices 1 2 3 4 5 6 
#
# 1 0.012673 -0.000241 -0.003700 0.000000 0.000000 0.000000
# 2 -0.000241 0.015377 -0.003660 0.000000 0.000000 0.000000
# 3 -0.003700 -0.003660 0.008840 0.000000 0.000000 0.000000
# 4 0.000000 0.000000 0.000000 0.019186 0.000000 0.000000
# 5 0.000000 0.000000 0.000000 0.000000 0.195475 0.000000
# 6 0.000000 0.000000 0.000000 0.000000 0.000000 0.059683
#
#
# Mechanical properties :
#
#
# Convention : Reuss Voigt Hill
#
# Bulk Modulus (GPa) = 46.11245 54.68312 50.39778
# Shear Modulus (GPa) = 14.98503 29.52412 22.25457
#
# Velocity S-wave (km/s) = 2.49345 3.49994 3.03866
# Velocity P-wave (km/s) = 5.23659 6.24667 5.76380
#
# Compressibility (1/GPa) = 0.02168612
#
# Stress axis : x y z
#
# Youngs Moduli (GPa) = 78.90917 65.03372 113.12094
#
# Poissons Ratio (x) = 0.01568 0.41856
# Poissons Ratio (y) = 0.01903 0.41407
# Poissons Ratio (z) = 0.29198 0.23805
#
# Static dielectric constant tensor:
#      x y z
#    x 1.969270 0.000000 0.000000 
#    y 0.000000 0.759940 0.000000 
#    z 0.000000 0.000000 2.011410 
# 
# From -- ./inp_files/17297.got.cif
#   From: 2010.05.17/outbox.cif.g08.bks.cpg/sg55_9_cif.got.tgz:17297.got - 2010.06.03 13:27:54.
