data_PCOD9428352
_publ_section_title
;
Structure prediction by ZEFSAII (Michael W. Deem and Ramdas Pophale) SiO2 
 PCOD9428352
Probable space group: P B A M
;
_chemical_formula_sum "Si O2"
_cell_formula_units_Z 64
_cell_length_a 20.391814
_cell_length_b 11.811304
_cell_length_c 13.154445
_cell_angle_alpha 90.000000
_cell_angle_beta 90.000000
_cell_angle_gamma 90.000000
_cell_volume 3168.299568
_symmetry_space_group_name_H-M "P B A M"
_symmetry_group_IT_number 55
_symmetry_cell_setting 'orthorhombic'
loop_
_space_group_symop_operation_xyz
x,y,z
-x,-y,z
1/2+x,1/2-y,-z
1/2-x,1/2+y,-z
-x,-y,-z
x,y,-z
1/2-x,1/2+y,z
1/2+x,1/2-y,z
loop_
_atom_site_type_symbol
_atom_site_label
_atom_site_fract_x
_atom_site_fract_y
_atom_site_fract_z
Si Si1 0.938612 0.072697 0.332927
Si Si2 0.047570 0.667373 0.613992
Si Si3 0.929622 0.165456 0.887346
Si Si4 0.824810 0.486003 0.617572
Si Si5 0.714881 0.606761 0.884389
Si Si6 0.186244 0.064906 0.704669
Si Si7 0.516575 0.126709 0.824791
Si Si8 0.658015 0.187983 0.222389
O O1 0.939399 0.198639 0.377285
O O2 0.946465 0.089771 0.210432
O O3 0.870020 0.009101 0.349821
O O4 0.000000 0.000000 0.370099
O O5 0.024387 0.640111 0.500000
O O6 0.115518 0.601372 0.633612
O O7 0.997731 0.635022 0.703249
O O8 0.851192 0.181628 0.879008
O O9 0.968821 0.281698 0.874922
O O10 0.942368 0.116820 0.000000
O O11 0.825409 0.520247 0.500000
O O12 0.754473 0.430964 0.644096
O O13 0.835029 0.593099 0.690347
O O14 0.702878 0.501682 0.809095
O O15 0.777792 0.674571 0.846718
O O16 0.723197 0.568596 0.000000
O O17 0.157592 0.187629 0.729657
O O18 0.591750 0.161388 0.838622
O O19 0.500000 0.000000 0.858120
#
# Coordination Sequence:
#
# PCOD9428352 Si02
#       8
#     8   8   8   8   8   8   8   8
#     4  10  21  40  63  90 122 161 202 252 312 363
#     4  10  22  40  63  84 118 163 203 248 305 368
#     4   9  20  38  62  88 119 162 204 246 301 362
#     4  10  23  40  61  88 119 163 206 252 311 364
#     4   9  21  41  63  89 122 163 207 251 305 364
#     4  10  22  37  62  91 122 156 204 259 306 359
#     4  11  22  38  61  89 127 162 201 251 306 366
#     4  11  23  39  62  93 125 160 203 257 307 363
#
# _framework density 20.200109999999999
#
# number of rings (size 3 to 8) (size 9 to 14) (size 15 to 20)
#    0.000    2.000    1.250    1.500    7.000    3.500 
#    0.000    5.000    0.000    0.000    0.000    0.000 
#    0.000    0.000    0.000    0.000    0.000    0.000 
#
# Total GULP energy -357532.019215 kJ/mol
# GULP energy per Si atom -5586.437800 kJ/mol
# Density = 2.015413 g / cm^3
# Si number density = 20.200110 Si / 1000 Ang^3
#
#
#
# Elastic Constant Matrix: (Units=GPa)
#
#
# Indices 1 2 3 4 5 6 
#
# 1 100.6579 33.2673 13.0445 0.0000 0.0000 0.0000
# 2 33.2673 77.8252 -16.5317 0.0000 0.0000 0.0000
# 3 13.0445 -16.5317 60.5959 0.0000 0.0000 0.0000
# 4 0.0000 0.0000 0.0000 0.0503 0.0000 0.0000
# 5 0.0000 0.0000 0.0000 0.0000 10.2372 0.0000
# 6 0.0000 0.0000 0.0000 0.0000 0.0000 33.8783
#
#
#
# Elastic Compliance Matrix: (Units=1/GPa)
#
#
# Indices 1 2 3 4 5 6 
#
# 1 0.012602 -0.006330 -0.004440 0.000000 0.000000 0.000000
# 2 -0.006330 0.016819 0.005951 0.000000 0.000000 0.000000
# 3 -0.004440 0.005951 0.019082 0.000000 0.000000 0.000000
# 4 0.000000 0.000000 0.000000 19.871194 0.000000 0.000000
# 5 0.000000 0.000000 0.000000 0.000000 0.097683 0.000000
# 6 0.000000 0.000000 0.000000 0.000000 0.000000 0.029517
#
#
# Mechanical properties :
#
#
# Convention : Reuss Voigt Hill
#
# Bulk Modulus (GPa) = 25.72907 33.18212 29.45560
# Shear Modulus (GPa) = 0.24913 22.78643 11.51778
#
# Velocity S-wave (km/s) = 0.35157 3.36227 2.39044
# Velocity P-wave (km/s) = 3.59577 5.61565 4.71514
#
# Compressibility (1/GPa) = 0.03886654
#
# Stress axis : x y z
#
# Youngs Moduli (GPa) = 79.35212 59.45541 52.40497
#
# Poissons Ratio (x) = 0.37635 0.23267
# Poissons Ratio (y) = 0.50230 -0.31188
# Poissons Ratio (z) = 0.35231 -0.35384
#
# Static dielectric constant tensor:
#      x y z
#    x 1.704120 0.000000 0.000000 
#    y 0.000000 1.676960 0.000000 
#    z 0.000000 0.000000 1.727140 
# 
# From -- ./inp_files/19541.got.cif
#   From: 2010.05.17/outbox.cif.g08.bks.cpg/sg55_10_cif.got.tgz:19541.got - 2010.06.03 13:27:54.
