data_PCOD9428681
_publ_section_title
;
Structure prediction by ZEFSAII (Michael W. Deem and Ramdas Pophale) SiO2 
 PCOD9428681
Probable space group: P B A M
;
_chemical_formula_sum "Si O2"
_cell_formula_units_Z 56
_cell_length_a 8.714864
_cell_length_b 13.795330
_cell_length_c 21.657698
_cell_angle_alpha 90.000000
_cell_angle_beta 90.000000
_cell_angle_gamma 90.000000
_cell_volume 2603.784284
_symmetry_space_group_name_H-M "P B A M"
_symmetry_group_IT_number 55
_symmetry_cell_setting 'orthorhombic'
loop_
_space_group_symop_operation_xyz
x,y,z
-x,-y,z
1/2+x,1/2-y,-z
1/2-x,1/2+y,-z
-x,-y,-z
x,y,-z
1/2-x,1/2+y,z
1/2+x,1/2-y,z
loop_
_atom_site_type_symbol
_atom_site_label
_atom_site_fract_x
_atom_site_fract_y
_atom_site_fract_z
Si Si1 0.357367 0.714894 0.572372
Si Si2 0.569391 0.891744 0.071314
Si Si3 0.261681 0.874057 0.772013
Si Si4 0.841032 0.125881 0.367288
Si Si5 0.846044 0.945095 0.150650
Si Si6 0.002053 0.250979 0.180377
Si Si7 0.167165 0.531446 0.572054
O O1 0.398557 0.725583 0.500000
O O2 0.499922 0.670016 0.609255
O O3 0.297464 0.812708 0.602382
O O4 0.209175 0.643967 0.575586
O O5 0.741704 0.908215 0.095145
O O6 0.494560 0.811087 0.116131
O O7 0.500000 0.000000 0.078194
O O8 0.558599 0.863272 0.000000
O O9 0.182513 0.876452 0.705698
O O10 0.433544 0.830635 0.771474
O O11 0.166975 0.792471 0.809862
O O12 0.243600 0.977365 0.806212
O O13 0.806281 0.020017 0.393116
O O14 0.901707 0.848510 0.185041
O O15 0.000000 0.000000 0.129643
O O16 0.173127 0.502644 0.500000
O O17 0.000000 0.500000 0.596096
#
# Coordination Sequence:
#
# PCOD9428681 Si02
#       7
#     8   8   8   8   8   8   8
#     4  11  23  40  64  92 129 169 219 283 342 400
#     4  11  23  42  70 101 131 172 226 273 329 401
#     4  11  24  41  65  94 132 179 226 279 333 410
#     4  12  24  40  63  97 125 173 223 275 337 414
#     4  10  23  43  66  96 136 177 220 276 338 392
#     4  11  22  43  65  94 134 181 216 275 341 387
#     4  10  22  41  62  88 126 168 214 273 340 401
#
# _framework density 21.507159000000001
#
# number of rings (size 3 to 8) (size 9 to 14) (size 15 to 20)
#    0.000    1.143    2.857    3.429    0.000    7.714 
#    2.571    2.143    0.000    0.000    0.000    0.000 
#    0.000    0.000    0.000    0.000    0.000    0.000 
#
# Total GULP energy -312667.784586 kJ/mol
# GULP energy per Si atom -5583.353296 kJ/mol
# Density = 2.145821 g / cm^3
# Si number density = 21.507159 Si / 1000 Ang^3
#
#
#
# Elastic Constant Matrix: (Units=GPa)
#
#
# Indices 1 2 3 4 5 6 
#
# 1 55.0842 21.2885 3.1837 0.0000 0.0000 0.0000
# 2 21.2885 101.3466 26.9332 0.0000 0.0000 0.0000
# 3 3.1837 26.9332 94.0582 0.0000 0.0000 0.0000
# 4 0.0000 0.0000 0.0000 116.9427 0.0000 0.0000
# 5 0.0000 0.0000 0.0000 0.0000 23.7044 0.0000
# 6 0.0000 0.0000 0.0000 0.0000 0.0000 12.1969
#
#
#
# Elastic Compliance Matrix: (Units=1/GPa)
#
#
# Indices 1 2 3 4 5 6 
#
# 1 0.019786 -0.004306 0.000563 0.000000 0.000000 0.000000
# 2 -0.004306 0.011617 -0.003181 0.000000 0.000000 0.000000
# 3 0.000563 -0.003181 0.011523 0.000000 0.000000 0.000000
# 4 0.000000 0.000000 0.000000 0.008551 0.000000 0.000000
# 5 0.000000 0.000000 0.000000 0.000000 0.042186 0.000000
# 6 0.000000 0.000000 0.000000 0.000000 0.000000 0.081988
#
#
# Mechanical properties :
#
#
# Convention : Reuss Voigt Hill
#
# Bulk Modulus (GPa) = 34.38865 39.25554 36.82210
# Shear Modulus (GPa) = 25.10151 43.84102 34.47127
#
# Velocity S-wave (km/s) = 3.42003 4.51981 4.00782
# Velocity P-wave (km/s) = 5.62313 6.74760 6.21086
#
# Compressibility (1/GPa) = 0.02907936
#
# Stress axis : x y z
#
# Youngs Moduli (GPa) = 50.54200 86.08178 86.77973
#
# Poissons Ratio (x) = 0.37065 -0.04888
# Poissons Ratio (y) = 0.21762 0.27602
# Poissons Ratio (z) = -0.02847 0.27380
#
# Static dielectric constant tensor:
#      x y z
#    x 1.871930 0.000000 0.000000 
#    y 0.000000 1.956260 0.000000 
#    z 0.000000 0.000000 1.735970 
# 
# From -- ./inp_files/22623.got.cif
#   From: 2010.05.17/outbox.cif.g08.bks.cpg/sg55_12_cif.got.tgz:22623.got - 2010.06.03 13:27:54.
