data_PCOD9428899
_publ_section_title
;
Structure prediction by ZEFSAII (Michael W. Deem and Ramdas Pophale) SiO2 
 PCOD9428899
Probable space group: P B A M
;
_chemical_formula_sum "Si O2"
_cell_formula_units_Z 64
_cell_length_a 14.408046
_cell_length_b 9.904093
_cell_length_c 20.733245
_cell_angle_alpha 90.000000
_cell_angle_beta 90.000000
_cell_angle_gamma 90.000000
_cell_volume 2958.605606
_symmetry_space_group_name_H-M "P B A M"
_symmetry_group_IT_number 55
_symmetry_cell_setting 'orthorhombic'
loop_
_space_group_symop_operation_xyz
x,y,z
-x,-y,z
1/2+x,1/2-y,-z
1/2-x,1/2+y,-z
-x,-y,-z
x,y,-z
1/2-x,1/2+y,z
1/2+x,1/2-y,z
loop_
_atom_site_type_symbol
_atom_site_label
_atom_site_fract_x
_atom_site_fract_y
_atom_site_fract_z
Si Si1 0.034587 0.352763 0.398396
Si Si2 0.774754 0.626052 0.355224
Si Si3 0.717292 0.867789 0.267548
Si Si4 0.079900 0.903413 0.573093
Si Si5 0.773696 0.959343 0.129148
Si Si6 0.846859 0.232433 0.076097
Si Si7 0.534978 0.353297 0.859195
Si Si8 0.490691 0.155064 0.753020
O O1 0.145041 0.340631 0.406901
O O2 0.000000 0.500000 0.417313
O O3 0.969913 0.240881 0.428951
O O4 0.020937 0.336887 0.321030
O O5 0.769086 0.748024 0.304204
O O6 0.801247 0.487708 0.318633
O O7 0.673930 0.605610 0.386643
O O8 0.766354 0.933901 0.205857
O O9 0.618254 0.809644 0.244496
O O10 0.100152 0.950263 0.500000
O O11 0.000000 0.000000 0.602006
O O12 0.688784 0.879552 0.097318
O O13 0.868110 0.884460 0.106477
O O14 0.786008 0.115887 0.111578
O O15 0.953103 0.206179 0.096829
O O16 0.836764 0.215300 0.000000
O O17 0.500000 0.500000 0.835289
O O18 0.546275 0.252364 0.799746
O O19 0.500000 0.000000 0.774224
#
# Coordination Sequence:
#
# PCOD9428899 Si02
#       8
#     8   8   8   8   8   8   8   8
#     4  11  22  42  65  95 127 167 212 260 326 387
#     4  12  23  42  67  97 131 172 208 267 326 384
#     4  12  23  39  66  97 131 163 210 259 330 389
#     4  11  26  45  65  94 131 172 222 269 310 372
#     4  11  24  40  64  93 127 165 207 267 320 378
#     4  11  24  43  63  89 124 168 219 261 311 377
#     4  10  24  40  62  91 124 166 211 256 318 380
#     4  11  21  40  63  94 134 161 199 264 324 383
#
# _framework density 21.631812
#
# number of rings (size 3 to 8) (size 9 to 14) (size 15 to 20)
#    0.000    0.875    5.000    2.625    3.500    4.000 
#    0.000    3.125    0.000    1.875    0.000    0.000 
#    0.000    0.000    0.000    0.000    0.000    0.000 
#
# Total GULP energy -357972.549551 kJ/mol
# GULP energy per Si atom -5593.321087 kJ/mol
# Density = 2.158258 g / cm^3
# Si number density = 21.631812 Si / 1000 Ang^3
#
#
#
# Elastic Constant Matrix: (Units=GPa)
#
#
# Indices 1 2 3 4 5 6 
#
# 1 85.0656 -18.0376 5.4689 0.0000 0.0000 0.0000
# 2 -18.0376 31.5207 0.2534 0.0000 0.0000 0.0000
# 3 5.4689 0.2534 61.2103 0.0000 0.0000 0.0000
# 4 0.0000 0.0000 0.0000 10.1784 0.0000 0.0000
# 5 0.0000 0.0000 0.0000 0.0000 4.6869 0.0000
# 6 0.0000 0.0000 0.0000 0.0000 0.0000 34.6035
#
#
#
# Elastic Compliance Matrix: (Units=1/GPa)
#
#
# Indices 1 2 3 4 5 6 
#
# 1 0.013472 0.007719 -0.001236 0.000000 0.000000 0.000000
# 2 0.007719 0.036149 -0.000839 0.000000 0.000000 0.000000
# 3 -0.001236 -0.000839 0.016451 0.000000 0.000000 0.000000
# 4 0.000000 0.000000 0.000000 0.098248 0.000000 0.000000
# 5 0.000000 0.000000 0.000000 0.000000 0.213360 0.000000
# 6 0.000000 0.000000 0.000000 0.000000 0.000000 0.028899
#
#
# Mechanical properties :
#
#
# Convention : Reuss Voigt Hill
#
# Bulk Modulus (GPa) = 12.92648 17.01843 14.97245
# Shear Modulus (GPa) = 11.87433 22.56787 17.22110
#
# Velocity S-wave (km/s) = 2.34546 3.23348 2.82459
# Velocity P-wave (km/s) = 3.65015 4.67171 4.19216
#
# Compressibility (1/GPa) = 0.07736058
#
# Stress axis : x y z
#
# Youngs Moduli (GPa) = 74.22872 27.66310 60.78657
#
# Poissons Ratio (x) = -0.21354 0.07511
# Poissons Ratio (y) = -0.57298 0.05102
# Poissons Ratio (z) = 0.09172 0.02322
#
# Static dielectric constant tensor:
#      x y z
#    x 1.829200 0.000000 0.000000 
#    y 0.000000 1.758860 0.000000 
#    z 0.000000 0.000000 1.787750 
# 
# From -- ./inp_files/23617.got.cif
#   From: 2010.05.17/outbox.cif.g08.bks.cpg/sg55_12_cif.got.tgz:23617.got - 2010.06.03 13:27:54.
