data_PCOD9428797
_publ_section_title
;
Structure prediction by ZEFSAII (Michael W. Deem and Ramdas Pophale) SiO2 
 PCOD9428797
Probable space group: P B A M
;
_chemical_formula_sum "Si O2"
_cell_formula_units_Z 24
_cell_length_a 8.054915
_cell_length_b 17.387325
_cell_length_c 7.927020
_cell_angle_alpha 90.000000
_cell_angle_beta 90.000000
_cell_angle_gamma 90.000000
_cell_volume 1110.206301
_symmetry_space_group_name_H-M "P B A M"
_symmetry_group_IT_number 55
_symmetry_cell_setting 'orthorhombic'
loop_
_space_group_symop_operation_xyz
x,y,z
-x,-y,z
1/2+x,1/2-y,-z
1/2-x,1/2+y,-z
-x,-y,-z
x,y,-z
1/2-x,1/2+y,z
1/2+x,1/2-y,z
loop_
_atom_site_type_symbol
_atom_site_label
_atom_site_fract_x
_atom_site_fract_y
_atom_site_fract_z
Si Si1 0.086497 0.377016 0.688703
Si Si2 0.730456 0.972242 0.196061
Si Si3 0.217299 0.286021 0.000000
Si Si4 0.431870 0.629933 0.000000
O O1 0.091560 0.345634 0.500000
O O2 0.217540 0.447481 0.708481
O O3 0.909260 0.417289 0.724700
O O4 0.125040 0.315840 0.832827
O O5 0.683862 0.990888 0.000000
O O6 0.898073 0.924194 0.162303
O O7 0.396888 0.325673 0.000000
O O8 0.212302 0.194185 0.000000
#
# Coordination Sequence:
#
# PCOD9428797 Si02
#       4
#     8   8   4   4
#     4  11  20  35  63  89 119 150 187 236 282 346
#     4   9  17  37  60  90 108 154 189 225 288 330
#     4  12  21  42  55  85 115 151 201 228 299 334
#     4  10  23  36  67  75 115 161 185 250 279 344
#
# _framework density 21.617602999999999
#
# number of rings (size 3 to 8) (size 9 to 14) (size 15 to 20)
#    1.000    0.667    3.333    5.000    0.000    2.667 
#    0.000   13.333    0.000    0.000    0.000    0.000 
#    0.000    0.000    0.000    0.000    0.000    0.000 
#
# Total GULP energy -133895.233350 kJ/mol
# GULP energy per Si atom -5578.968056 kJ/mol
# Density = 2.156840 g / cm^3
# Si number density = 21.617603 Si / 1000 Ang^3
#
#
#
# Elastic Constant Matrix: (Units=GPa)
#
#
# Indices 1 2 3 4 5 6 
#
# 1 57.0452 6.3513 8.9457 0.0000 0.0000 0.0000
# 2 6.3513 78.8097 17.0721 0.0000 0.0000 0.0000
# 3 8.9457 17.0721 147.0891 0.0000 0.0000 0.0000
# 4 0.0000 0.0000 0.0000 -3.1874 0.0000 0.0000
# 5 0.0000 0.0000 0.0000 0.0000 -8.2001 0.0000
# 6 0.0000 0.0000 0.0000 0.0000 0.0000 38.9677
#
#
#
# Elastic Compliance Matrix: (Units=1/GPa)
#
#
# Indices 1 2 3 4 5 6 
#
# 1 0.017815 -0.001232 -0.000940 0.000000 0.000000 0.000000
# 2 -0.001232 0.013101 -0.001446 0.000000 0.000000 0.000000
# 3 -0.000940 -0.001446 0.007024 0.000000 0.000000 0.000000
# 4 0.000000 0.000000 0.000000 -0.313737 0.000000 0.000000
# 5 0.000000 0.000000 0.000000 0.000000 -0.121950 0.000000
# 6 0.000000 0.000000 0.000000 0.000000 0.000000 0.025662
#
#
# Mechanical properties :
#
#
# Convention : Reuss Voigt Hill
#
# Bulk Modulus (GPa) = 32.56988 38.63137 35.60063
# Shear Modulus (GPa) = -14.09982 22.22104 4.06061
#
# Velocity S-wave (km/s) = -2.55667 3.20959 1.37203
# Velocity P-wave (km/s) = 2.52660 5.62534 4.36051
#
# Compressibility (1/GPa) = 0.03070321
#
# Stress axis : x y z
#
# Youngs Moduli (GPa) = 56.13374 76.32856 142.37729
#
# Poissons Ratio (x) = 0.09403 0.13390
# Poissons Ratio (y) = 0.06915 0.20583
# Poissons Ratio (z) = 0.05279 0.11035
#
# Static dielectric constant tensor:
#      x y z
#    x 1.880770 0.000000 0.000000 
#    y 0.000000 1.786620 0.000000 
#    z 0.000000 0.000000 1.748530 
# 
# From -- ./inp_files/1758.got.cif
#   From: 2010.05.17/outbox.cif.g08.bks.cpg/sg55_1_cif.got.tgz:1758.got - 2010.06.03 13:27:54.
