data_PCOD9428101
_publ_section_title
;
Structure prediction by ZEFSAII (Michael W. Deem and Ramdas Pophale) SiO2 
 PCOD9428101
Probable space group: P B A M
;
_chemical_formula_sum "Si O2"
_cell_formula_units_Z 40
_cell_length_a 7.502690
_cell_length_b 30.023574
_cell_length_c 8.382678
_cell_angle_alpha 90.000000
_cell_angle_beta 90.000000
_cell_angle_gamma 90.000000
_cell_volume 1888.261663
_symmetry_space_group_name_H-M "P B A M"
_symmetry_group_IT_number 55
_symmetry_cell_setting 'orthorhombic'
loop_
_space_group_symop_operation_xyz
x,y,z
-x,-y,z
1/2+x,1/2-y,-z
1/2-x,1/2+y,-z
-x,-y,-z
x,y,-z
1/2-x,1/2+y,z
1/2+x,1/2-y,z
loop_
_atom_site_type_symbol
_atom_site_label
_atom_site_fract_x
_atom_site_fract_y
_atom_site_fract_z
Si Si1 0.073162 0.047687 0.809509
Si Si2 0.711354 0.619479 0.693223
Si Si3 0.223224 0.284013 0.316296
Si Si4 0.877366 0.395943 0.689947
Si Si5 0.852750 0.304711 0.183810
O O1 0.264765 0.061138 0.739035
O O2 0.930968 0.085254 0.759858
O O3 0.088299 0.046580 0.000000
O O4 0.000000 0.000000 0.753071
O O5 0.703978 0.619376 0.500000
O O6 0.678262 0.671160 0.742602
O O7 0.914067 0.605257 0.739573
O O8 0.272734 0.275421 0.500000
O O9 0.238239 0.239131 0.215568
O O10 0.018555 0.298258 0.302454
O O11 0.870419 0.390812 0.500000
O O12 0.781704 0.353239 0.771120
O O13 0.910421 0.305312 0.000000
#
# Coordination Sequence:
#
# PCOD9428101 Si02
#       5
#     8   8   8   8   8
#     4  11  25  42  63  93 126 162 205 257 319 378
#     4   9  21  41  64  89 119 161 208 256 308 365
#     4  10  21  38  58  84 120 162 204 247 302 365
#     4  10  22  42  65  89 122 162 207 257 311 371
#     4  11  22  36  57  88 122 159 203 250 304 364
#
# _framework density 21.183505
#
# number of rings (size 3 to 8) (size 9 to 14) (size 15 to 20)
#    0.000    1.800    0.000    4.800    2.800    7.200 
#    0.000    4.000    0.000    0.000    0.000    0.000 
#    0.000    0.000    0.000    0.000    0.000    0.000 
#
# Total GULP energy -223350.692566 kJ/mol
# GULP energy per Si atom -5583.767314 kJ/mol
# Density = 2.113529 g / cm^3
# Si number density = 21.183505 Si / 1000 Ang^3
#
#
#
# Elastic Constant Matrix: (Units=GPa)
#
#
# Indices 1 2 3 4 5 6 
#
# 1 45.2324 3.3984 2.0661 0.0000 0.0000 0.0000
# 2 3.3984 52.7965 13.2896 0.0000 0.0000 0.0000
# 3 2.0661 13.2896 54.9496 0.0000 0.0000 0.0000
# 4 0.0000 0.0000 0.0000 37.0215 0.0000 0.0000
# 5 0.0000 0.0000 0.0000 0.0000 8.9613 0.0000
# 6 0.0000 0.0000 0.0000 0.0000 0.0000 35.7852
#
#
#
# Elastic Compliance Matrix: (Units=1/GPa)
#
#
# Indices 1 2 3 4 5 6 
#
# 1 0.022230 -0.001300 -0.000522 0.000000 0.000000 0.000000
# 2 -0.001300 0.020244 -0.004847 0.000000 0.000000 0.000000
# 3 -0.000522 -0.004847 0.019390 0.000000 0.000000 0.000000
# 4 0.000000 0.000000 0.000000 0.027011 0.000000 0.000000
# 5 0.000000 0.000000 0.000000 0.000000 0.111590 0.000000
# 6 0.000000 0.000000 0.000000 0.000000 0.000000 0.027945
#
#
# Mechanical properties :
#
#
# Convention : Reuss Voigt Hill
#
# Bulk Modulus (GPa) = 20.60682 21.16518 20.88600
# Shear Modulus (GPa) = 19.38561 25.30190 22.34375
#
# Velocity S-wave (km/s) = 3.02839 3.45978 3.25125
# Velocity P-wave (km/s) = 4.68797 5.09639 4.89644
#
# Compressibility (1/GPa) = 0.04852762
#
# Stress axis : x y z
#
# Youngs Moduli (GPa) = 44.98523 49.39636 51.57185
#
# Poissons Ratio (x) = 0.06420 0.02690
# Poissons Ratio (y) = 0.05846 0.24998
# Poissons Ratio (z) = 0.02346 0.23944
#
# Static dielectric constant tensor:
#      x y z
#    x 1.786410 0.000000 0.000000 
#    y 0.000000 1.863580 0.000000 
#    z 0.000000 0.000000 1.709230 
# 
# From -- ./inp_files/2512.got.cif
#   From: 2010.05.17/outbox.cif.g08.bks.cpg/sg55_2_cif.got.tgz:2512.got - 2010.06.03 13:27:54.
