data_PCOD9428864
_publ_section_title
;
Structure prediction by ZEFSAII (Michael W. Deem and Ramdas Pophale) SiO2 
 PCOD9428864
Probable space group: P B A M
;
_chemical_formula_sum "Si O2"
_cell_formula_units_Z 40
_cell_length_a 9.698175
_cell_length_b 16.736575
_cell_length_c 12.169304
_cell_angle_alpha 90.000000
_cell_angle_beta 90.000000
_cell_angle_gamma 90.000000
_cell_volume 1975.251248
_symmetry_space_group_name_H-M "P B A M"
_symmetry_group_IT_number 55
_symmetry_cell_setting 'orthorhombic'
loop_
_space_group_symop_operation_xyz
x,y,z
-x,-y,z
1/2+x,1/2-y,-z
1/2-x,1/2+y,-z
-x,-y,-z
x,y,-z
1/2-x,1/2+y,z
1/2+x,1/2-y,z
loop_
_atom_site_type_symbol
_atom_site_label
_atom_site_fract_x
_atom_site_fract_y
_atom_site_fract_z
Si Si1 0.017616 0.658386 0.000000
Si Si2 0.631562 0.550799 0.826594
Si Si3 0.613069 0.940380 0.789760
Si Si4 0.197260 0.816145 0.000000
Si Si5 0.073805 0.843175 0.370373
Si Si6 0.754141 0.812765 0.630685
O O1 0.044012 0.606147 0.891246
O O2 0.124120 0.731364 0.000000
O O3 0.862002 0.690486 0.000000
O O4 0.500000 0.500000 0.862637
O O5 0.763904 0.494968 0.835725
O O6 0.608956 0.580200 0.702135
O O7 0.651038 0.630627 0.896627
O O8 0.677008 0.878864 0.703006
O O9 0.500000 0.000000 0.739323
O O10 0.079292 0.860545 0.500000
O O11 0.182346 0.772355 0.346967
O O12 0.917562 0.814591 0.344005
O O13 0.738397 0.828329 0.500000
#
# Coordination Sequence:
#
# PCOD9428864 Si02
#       6
#     4   8   8   4   8   8
#     4  12  28  47  68  93 131 172 213 267 321 386
#     4  12  25  43  68  99 128 170 214 266 325 381
#     4  12  25  44  68  94 133 169 212 268 326 379
#     4  12  28  46  68  95 129 171 217 263 321 390
#     4  10  23  43  66  95 133 173 216 263 316 381
#     4  10  23  43  66  95 131 173 218 263 316 382
#
# _framework density 20.250589000000002
#
# number of rings (size 3 to 8) (size 9 to 14) (size 15 to 20)
#    0.000    0.800    4.000    2.400    5.600    4.800 
#    0.000    0.000    0.000    0.000    0.000    0.000 
#    0.000    0.000    0.000    0.000    0.000    0.000 
#
# Total GULP energy -223843.260186 kJ/mol
# GULP energy per Si atom -5596.081505 kJ/mol
# Density = 2.020450 g / cm^3
# Si number density = 20.250589 Si / 1000 Ang^3
#
#
#
# Elastic Constant Matrix: (Units=GPa)
#
#
# Indices 1 2 3 4 5 6 
#
# 1 123.8183 37.0495 12.1291 0.0000 0.0000 0.0000
# 2 37.0495 78.7947 28.5371 0.0000 0.0000 0.0000
# 3 12.1291 28.5371 43.3439 0.0000 0.0000 0.0000
# 4 0.0000 0.0000 0.0000 -0.1793 0.0000 0.0000
# 5 0.0000 0.0000 0.0000 0.0000 15.4635 0.0000
# 6 0.0000 0.0000 0.0000 0.0000 0.0000 35.7819
#
#
#
# Elastic Compliance Matrix: (Units=1/GPa)
#
#
# Indices 1 2 3 4 5 6 
#
# 1 0.009403 -0.004554 0.000367 0.000000 0.000000 0.000000
# 2 -0.004554 0.018871 -0.011150 0.000000 0.000000 0.000000
# 3 0.000367 -0.011150 0.030309 0.000000 0.000000 0.000000
# 4 0.000000 0.000000 0.000000 -5.576929 0.000000 0.000000
# 5 0.000000 0.000000 0.000000 0.000000 0.064668 0.000000
# 6 0.000000 0.000000 0.000000 0.000000 0.000000 0.027947
#
#
# Mechanical properties :
#
#
# Convention : Reuss Voigt Hill
#
# Bulk Modulus (GPa) = 35.83020 44.59870 40.21445
# Shear Modulus (GPa) = -0.92838 21.42930 10.25046
#
# Velocity S-wave (km/s) = -0.67782 3.25654 2.25229
# Velocity P-wave (km/s) = 4.13754 6.01758 5.16384
#
# Compressibility (1/GPa) = 0.02790941
#
# Stress axis : x y z
#
# Youngs Moduli (GPa) = 106.34715 52.99175 32.99301
#
# Poissons Ratio (x) = 0.24135 -0.01212
# Poissons Ratio (y) = 0.48435 0.36787
# Poissons Ratio (z) = -0.03905 0.59085
#
# Static dielectric constant tensor:
#      x y z
#    x 1.702180 0.000000 0.000000 
#    y 0.000000 1.675140 0.000000 
#    z 0.000000 0.000000 1.718240 
# 
# From -- ./inp_files/11900.got.cif
#   From: 2010.05.17/outbox.cif.g08.bks.cpg/sg55_6_cif.got.tgz:11900.got - 2010.06.03 13:27:54.
