data_PCOD9428869
_publ_section_title
;
Structure prediction by ZEFSAII (Michael W. Deem and Ramdas Pophale) SiO2 
 PCOD9428869
Probable space group: P B A M
;
_chemical_formula_sum "Si O2"
_cell_formula_units_Z 56
_cell_length_a 21.148093
_cell_length_b 14.481169
_cell_length_c 8.314946
_cell_angle_alpha 90.000000
_cell_angle_beta 90.000000
_cell_angle_gamma 90.000000
_cell_volume 2546.444802
_symmetry_space_group_name_H-M "P B A M"
_symmetry_group_IT_number 55
_symmetry_cell_setting 'orthorhombic'
loop_
_space_group_symop_operation_xyz
x,y,z
-x,-y,z
1/2+x,1/2-y,-z
1/2-x,1/2+y,-z
-x,-y,-z
x,y,-z
1/2-x,1/2+y,z
1/2+x,1/2-y,z
loop_
_atom_site_type_symbol
_atom_site_label
_atom_site_fract_x
_atom_site_fract_y
_atom_site_fract_z
Si Si1 0.953098 0.585914 0.689950
Si Si2 0.252031 0.803403 0.187348
Si Si3 0.258622 0.506598 0.315485
Si Si4 0.488027 0.715710 0.188127
Si Si5 0.352779 0.644330 0.194949
Si Si6 0.366445 0.056639 0.816553
Si Si7 0.879902 0.252496 0.317055
O O1 0.952266 0.606307 0.500000
O O2 0.970742 0.676666 0.786263
O O3 0.887773 0.542520 0.750743
O O4 0.000000 0.500000 0.719755
O O5 0.304960 0.728800 0.241429
O O6 0.180453 0.765598 0.205493
O O7 0.248617 0.898378 0.285203
O O8 0.265056 0.824226 0.000000
O O9 0.243229 0.528764 0.500000
O O10 0.325631 0.550476 0.269683
O O11 0.208723 0.557327 0.200282
O O12 0.424917 0.663592 0.245762
O O13 0.555363 0.700684 0.273056
O O14 0.496654 0.696743 0.000000
O O15 0.351441 0.639513 0.000000
O O16 0.393168 0.138345 0.706432
O O17 0.386795 0.069468 0.000000
O O18 0.861898 0.233417 0.500000
#
# Coordination Sequence:
#
# PCOD9428869 Si02
#       7
#     8   8   8   8   8   8   8
#     4  11  22  35  55  87 125 162 204 257 318 381
#     4  11  23  43  70  97 129 171 218 268 322 386
#     4  12  25  41  66  97 130 166 211 269 327 381
#     4  11  23  40  63  92 127 171 215 263 324 389
#     4  10  23  43  67  95 128 168 217 266 320 386
#     4  12  23  38  61  88 123 167 212 258 315 384
#     4  12  24  40  62  93 129 167 212 263 319 380
#
# _framework density 21.991446
#
# number of rings (size 3 to 8) (size 9 to 14) (size 15 to 20)
#    0.000    0.714    2.857    6.000    0.000    3.429 
#    0.000    0.714    0.000    4.286    0.000    0.000 
#    0.000    0.000    0.000    0.000    0.000    0.000 
#
# Total GULP energy -313158.261392 kJ/mol
# GULP energy per Si atom -5592.111811 kJ/mol
# Density = 2.194139 g / cm^3
# Si number density = 21.991446 Si / 1000 Ang^3
#
#
#
# Elastic Constant Matrix: (Units=GPa)
#
#
# Indices 1 2 3 4 5 6 
#
# 1 74.6527 -4.0515 -8.0089 0.0000 0.0000 0.0000
# 2 -4.0515 28.7059 2.1276 0.0000 0.0000 0.0000
# 3 -8.0089 2.1276 50.6445 0.0000 0.0000 0.0000
# 4 0.0000 0.0000 0.0000 17.2252 0.0000 0.0000
# 5 0.0000 0.0000 0.0000 0.0000 14.1326 0.0000
# 6 0.0000 0.0000 0.0000 0.0000 0.0000 25.2578
#
#
#
# Elastic Compliance Matrix: (Units=1/GPa)
#
#
# Indices 1 2 3 4 5 6 
#
# 1 0.013717 0.001781 0.002094 0.000000 0.000000 0.000000
# 2 0.001781 0.035176 -0.001196 0.000000 0.000000 0.000000
# 3 0.002094 -0.001196 0.020127 0.000000 0.000000 0.000000
# 4 0.000000 0.000000 0.000000 0.058055 0.000000 0.000000
# 5 0.000000 0.000000 0.000000 0.000000 0.070758 0.000000
# 6 0.000000 0.000000 0.000000 0.000000 0.000000 0.039592
#
#
# Mechanical properties :
#
#
# Convention : Reuss Voigt Hill
#
# Bulk Modulus (GPa) = 13.44493 14.90416 14.17454
# Shear Modulus (GPa) = 19.46593 22.25218 20.85906
#
# Velocity S-wave (km/s) = 2.97839 3.18442 3.08313
# Velocity P-wave (km/s) = 4.23730 4.50696 4.37421
#
# Compressibility (1/GPa) = 0.07437750
#
# Stress axis : x y z
#
# Youngs Moduli (GPa) = 72.90391 28.42846 49.68463
#
# Poissons Ratio (x) = -0.05062 -0.10406
# Poissons Ratio (y) = -0.12982 0.05943
# Poissons Ratio (z) = -0.15269 0.03400
#
# Static dielectric constant tensor:
#      x y z
#    x 1.885520 0.000000 0.000000 
#    y 0.000000 1.806840 0.000000 
#    z 0.000000 0.000000 1.729640 
# 
# From -- ./inp_files/8695.got.cif
#   From: 2010.05.17/outbox.cif.g08.bks.cpg/sg55_5_cif.got.tgz:8695.got - 2010.06.03 13:27:54.
