data_PCOD9428496
_publ_section_title
;
Structure prediction by ZEFSAII (Michael W. Deem and Ramdas Pophale) SiO2 
 PCOD9428496
Probable space group: P B A M
;
_chemical_formula_sum "Si O2"
_cell_formula_units_Z 40
_cell_length_a 10.831522
_cell_length_b 8.594655
_cell_length_c 17.235626
_cell_angle_alpha 90.000000
_cell_angle_beta 90.000000
_cell_angle_gamma 90.000000
_cell_volume 1604.519487
_symmetry_space_group_name_H-M "P B A M"
_symmetry_group_IT_number 55
_symmetry_cell_setting 'orthorhombic'
loop_
_space_group_symop_operation_xyz
x,y,z
-x,-y,z
1/2+x,1/2-y,-z
1/2-x,1/2+y,-z
-x,-y,-z
x,y,-z
1/2-x,1/2+y,z
1/2+x,1/2-y,z
loop_
_atom_site_type_symbol
_atom_site_label
_atom_site_fract_x
_atom_site_fract_y
_atom_site_fract_z
Si Si1 0.435819 0.327690 0.087874
Si Si2 0.584178 0.134827 0.785796
Si Si3 0.763380 0.452067 0.913022
Si Si4 0.845010 0.836570 0.354705
Si Si5 0.112681 0.831871 0.588646
O O1 0.504461 0.245955 0.158470
O O2 0.380752 0.502910 0.094502
O O3 0.305542 0.226155 0.089159
O O4 0.483166 0.297911 0.000000
O O5 0.668365 0.034348 0.842736
O O6 0.653280 0.247291 0.726664
O O7 0.500000 0.000000 0.745912
O O8 0.801307 0.504104 0.000000
O O9 0.718256 0.793906 0.397000
O O10 0.972041 0.780768 0.396173
O O11 0.859141 0.022680 0.354565
O O12 0.121654 0.888615 0.500000
#
# Coordination Sequence:
#
# PCOD9428496 Si02
#       5
#     8   8   8   8   8
#     4   9  18  35  57  82 120 172 223 273 328 389
#     4  10  22  37  58  91 131 170 221 276 335 395
#     4   9  18  34  57  81 116 169 222 267 321 385
#     4  11  26  43  74 105 139 176 225 282 345 411
#     4  11  25  50  74 103 137 177 225 277 342 427
#
# _framework density 24.929583000000001
#
# number of rings (size 3 to 8) (size 9 to 14) (size 15 to 20)
#    0.000    2.000    0.000    3.000    5.600    4.000 
#    3.600    2.000    0.000    4.800    0.000    0.000 
#    0.000    0.000    0.000    0.000    0.000    0.000 
#
# Total GULP energy -223705.707640 kJ/mol
# GULP energy per Si atom -5592.642691 kJ/mol
# Density = 2.487284 g / cm^3
# Si number density = 24.929583 Si / 1000 Ang^3
#
#
#
# Elastic Constant Matrix: (Units=GPa)
#
#
# Indices 1 2 3 4 5 6 
#
# 1 80.5975 -22.9975 -8.6225 0.0000 0.0000 0.0000
# 2 -22.9975 37.0013 16.2513 0.0000 0.0000 0.0000
# 3 -8.6225 16.2513 70.8693 0.0000 0.0000 0.0000
# 4 0.0000 0.0000 0.0000 -4.9895 0.0000 0.0000
# 5 0.0000 0.0000 0.0000 0.0000 29.8661 0.0000
# 6 0.0000 0.0000 0.0000 0.0000 0.0000 3.5397
#
#
#
# Elastic Compliance Matrix: (Units=1/GPa)
#
#
# Indices 1 2 3 4 5 6 
#
# 1 0.015090 0.009533 -0.000350 0.000000 0.000000 0.000000
# 2 0.009533 0.036075 -0.007113 0.000000 0.000000 0.000000
# 3 -0.000350 -0.007113 0.015699 0.000000 0.000000 0.000000
# 4 0.000000 0.000000 0.000000 -0.200423 0.000000 0.000000
# 5 0.000000 0.000000 0.000000 0.000000 0.033483 0.000000
# 6 0.000000 0.000000 0.000000 0.000000 0.000000 0.282512
#
#
# Mechanical properties :
#
#
# Convention : Reuss Voigt Hill
#
# Bulk Modulus (GPa) = 14.08382 17.52564 15.80473
# Shear Modulus (GPa) = 24.75691 19.27239 22.01465
#
# Velocity S-wave (km/s) = 3.15473 2.78344 2.97488
# Velocity P-wave (km/s) = 4.35103 4.16837 4.26068
#
# Compressibility (1/GPa) = 0.07100347
#
# Stress axis : x y z
#
# Youngs Moduli (GPa) = 66.26958 27.72018 63.69866
#
# Poissons Ratio (x) = -0.26424 0.02229
# Poissons Ratio (y) = -0.63172 0.45307
# Poissons Ratio (z) = 0.02319 0.19716
#
# Static dielectric constant tensor:
#      x y z
#    x 2.127500 0.000000 0.000000 
#    y 0.000000 2.046790 0.000000 
#    z 0.000000 0.000000 1.936960 
# 
# From -- ./inp_files/20605.got.cif
#   From: 2010.05.17/outbox.cif.g08.bks.cpg/sg55_11_cif.got.tgz:20605.got - 2010.06.03 13:27:54.
