data_PCOD9428474
_publ_section_title
;
Structure prediction by ZEFSAII (Michael W. Deem and Ramdas Pophale) SiO2 
 PCOD9428474
Probable space group: P B A M
;
_chemical_formula_sum "Si O2"
_cell_formula_units_Z 48
_cell_length_a 16.599363
_cell_length_b 5.209839
_cell_length_c 26.898920
_cell_angle_alpha 90.000000
_cell_angle_beta 90.000000
_cell_angle_gamma 90.000000
_cell_volume 2326.218836
_symmetry_space_group_name_H-M "P B A M"
_symmetry_group_IT_number 55
_symmetry_cell_setting 'orthorhombic'
loop_
_space_group_symop_operation_xyz
x,y,z
-x,-y,z
1/2+x,1/2-y,-z
1/2-x,1/2+y,-z
-x,-y,-z
x,y,-z
1/2-x,1/2+y,z
1/2+x,1/2-y,z
loop_
_atom_site_type_symbol
_atom_site_label
_atom_site_fract_x
_atom_site_fract_y
_atom_site_fract_z
Si Si1 0.573548 0.352672 0.763984
Si Si2 0.000000 0.500000 0.319892
Si Si3 0.698578 0.489056 0.308815
Si Si4 0.306466 0.903516 0.836997
Si Si5 0.304408 0.831283 0.053652
Si Si6 0.443110 0.250328 0.500000
Si Si7 0.585447 0.654102 0.391607
O O1 0.500000 0.500000 0.790119
O O2 0.637542 0.536656 0.736867
O O3 0.623298 0.158639 0.798122
O O4 0.533881 0.213130 0.716732
O O5 0.068279 0.602888 0.356605
O O6 0.734777 0.207113 0.304333
O O7 0.653954 0.506795 0.361817
O O8 0.239271 0.675494 0.831992
O O9 0.343425 0.877697 0.892740
O O10 0.266410 0.546496 0.053972
O O11 0.347019 0.864322 0.000000
O O12 0.500000 0.500000 0.500000
O O13 0.396034 0.265906 0.447957
O O14 0.500000 0.000000 0.500000
O O15 0.500000 0.500000 0.391671
#
# Coordination Sequence:
#
# PCOD9428474 Si02
#       7
#     8   4   8   8   8   4   8
#     4  12  25  38  59  86 118 163 201 249 296 362
#     4  12  20  39  66  82 123 152 212 240 296 348
#     4  12  25  40  61  88 120 157 195 243 301 358
#     4  10  22  38  57  87 123 154 195 250 300 350
#     4   8  14  28  52  80 110 148 193 240 289 343
#     4  10  22  36  68  94 116 148 195 250 285 346
#     4  11  22  42  64  93 118 155 201 246 297 355
#
# _framework density 20.634343999999999
#
# number of rings (size 3 to 8) (size 9 to 14) (size 15 to 20)
#    0.000    1.333    4.167    2.000    2.333    0.000 
#    0.000    0.833    0.000    0.500    0.000    0.583 
#    0.000    0.000    0.000    0.000    0.000    0.000 
#
# Total GULP energy -267926.527096 kJ/mol
# GULP energy per Si atom -5581.802648 kJ/mol
# Density = 2.058738 g / cm^3
# Si number density = 20.634344 Si / 1000 Ang^3
#
#
#
# Elastic Constant Matrix: (Units=GPa)
#
#
# Indices 1 2 3 4 5 6 
#
# 1 40.1960 0.7372 17.0646 0.0000 0.0000 0.0000
# 2 0.7372 68.9398 -4.0378 0.0000 0.0000 0.0000
# 3 17.0646 -4.0378 130.5018 0.0000 0.0000 0.0000
# 4 0.0000 0.0000 0.0000 16.8120 0.0000 0.0000
# 5 0.0000 0.0000 0.0000 0.0000 9.6873 0.0000
# 6 0.0000 0.0000 0.0000 0.0000 0.0000 20.0795
#
#
#
# Elastic Compliance Matrix: (Units=1/GPa)
#
#
# Indices 1 2 3 4 5 6 
#
# 1 0.026356 -0.000485 -0.003461 0.000000 0.000000 0.000000
# 2 -0.000485 0.014541 0.000513 0.000000 0.000000 0.000000
# 3 -0.003461 0.000513 0.008131 0.000000 0.000000 0.000000
# 4 0.000000 0.000000 0.000000 0.059481 0.000000 0.000000
# 5 0.000000 0.000000 0.000000 0.000000 0.103228 0.000000
# 6 0.000000 0.000000 0.000000 0.000000 0.000000 0.049802
#
#
# Mechanical properties :
#
#
# Convention : Reuss Voigt Hill
#
# Bulk Modulus (GPa) = 23.71753 29.68507 26.70130
# Shear Modulus (GPa) = 17.70166 24.37399 21.03783
#
# Velocity S-wave (km/s) = 2.93213 3.44064 3.19651
# Velocity P-wave (km/s) = 4.79399 5.49559 5.15673
#
# Compressibility (1/GPa) = 0.04216292
#
# Stress axis : x y z
#
# Youngs Moduli (GPa) = 37.94131 68.77272 122.98258
#
# Poissons Ratio (x) = 0.03333 0.42569
# Poissons Ratio (y) = 0.01839 -0.06312
# Poissons Ratio (z) = 0.13133 -0.03530
#
# Static dielectric constant tensor:
#      x y z
#    x 1.764960 0.000000 0.000000 
#    y 0.000000 1.785210 0.000000 
#    z 0.000000 0.000000 1.787820 
# 
# From -- ./inp_files/23823.got.cif
#   From: 2010.05.17/outbox.cif.g08.bks.cpg/sg55_12_cif.got.tgz:23823.got - 2010.06.03 13:27:54.
