data_PCOD9428499
_publ_section_title
;
Structure prediction by ZEFSAII (Michael W. Deem and Ramdas Pophale) SiO2 
 PCOD9428499
Probable space group: P B A M
;
_chemical_formula_sum "Si O2"
_cell_formula_units_Z 48
_cell_length_a 5.089221
_cell_length_b 24.109373
_cell_length_c 15.701794
_cell_angle_alpha 90.000000
_cell_angle_beta 90.000000
_cell_angle_gamma 90.000000
_cell_volume 1926.577580
_symmetry_space_group_name_H-M "P B A M"
_symmetry_group_IT_number 55
_symmetry_cell_setting 'orthorhombic'
loop_
_space_group_symop_operation_xyz
x,y,z
-x,-y,z
1/2+x,1/2-y,-z
1/2-x,1/2+y,-z
-x,-y,-z
x,y,-z
1/2-x,1/2+y,z
1/2+x,1/2-y,z
loop_
_atom_site_type_symbol
_atom_site_label
_atom_site_fract_x
_atom_site_fract_y
_atom_site_fract_z
Si Si1 0.065951 0.855776 0.164109
Si Si2 0.872328 0.788868 0.000000
Si Si3 0.694691 0.215084 0.314360
Si Si4 0.513931 0.433141 0.305292
Si Si5 0.008577 0.432947 0.405638
Si Si6 0.767235 0.534199 0.899376
Si Si7 0.821970 0.213237 0.500000
O O1 0.925416 0.824882 0.085754
O O2 0.215258 0.815188 0.228528
O O3 0.896305 0.896109 0.225606
O O4 0.259130 0.902363 0.127262
O O5 0.086190 0.738990 0.000000
O O6 0.388895 0.231111 0.313576
O O7 0.759778 0.188388 0.406830
O O8 0.500000 0.500000 0.293185
O O9 0.714777 0.417763 0.379806
O O10 0.218927 0.418657 0.333639
O O11 0.080208 0.413876 0.500000
O O12 0.000000 0.500000 0.408341
O O13 0.500000 0.500000 0.886384
O O14 0.000000 0.500000 0.856561
O O15 0.805906 0.535819 0.000000
O O16 0.622572 0.266439 0.500000
#
# Coordination Sequence:
#
# PCOD9428499 Si02
#       7
#     8   4   8   8   8   8   4
#     4  12  25  46  71 105 138 182 230 284 349 413
#     4  12  30  52  74 104 140 180 228 290 360 428
#     4  10  22  41  67  96 130 173 223 281 342 405
#     4  10  22  37  62  98 136 179 230 280 332 400
#     4   9  18  37  61  89 134 186 227 274 332 389
#     4  10  23  43  67  99 136 178 224 274 332 400
#     4   8  16  36  62  88 124 166 214 278 338 386
#
# _framework density 24.914645
#
# number of rings (size 3 to 8) (size 9 to 14) (size 15 to 20)
#    0.000    1.833    0.833    2.000    0.000   10.667 
#    3.000    0.000    3.667    0.000    0.000    0.000 
#    0.000    0.000    0.000    0.000    0.000    0.000 
#
# Total GULP energy -268324.832950 kJ/mol
# GULP energy per Si atom -5590.100686 kJ/mol
# Density = 2.485794 g / cm^3
# Si number density = 24.914645 Si / 1000 Ang^3
#
#
#
# Elastic Constant Matrix: (Units=GPa)
#
#
# Indices 1 2 3 4 5 6 
#
# 1 46.5537 -4.5613 20.4579 0.0000 0.0000 0.0000
# 2 -4.5613 78.7460 33.7150 0.0000 0.0000 0.0000
# 3 20.4579 33.7150 137.6463 0.0000 0.0000 0.0000
# 4 0.0000 0.0000 0.0000 44.8229 0.0000 0.0000
# 5 0.0000 0.0000 0.0000 0.0000 7.9392 0.0000
# 6 0.0000 0.0000 0.0000 0.0000 0.0000 9.6371
#
#
#
# Elastic Compliance Matrix: (Units=1/GPa)
#
#
# Indices 1 2 3 4 5 6 
#
# 1 0.023689 0.003217 -0.004309 0.000000 0.000000 0.000000
# 2 0.003217 0.014624 -0.004060 0.000000 0.000000 0.000000
# 3 -0.004309 -0.004060 0.008900 0.000000 0.000000 0.000000
# 4 0.000000 0.000000 0.000000 0.022310 0.000000 0.000000
# 5 0.000000 0.000000 0.000000 0.000000 0.125957 0.000000
# 6 0.000000 0.000000 0.000000 0.000000 0.000000 0.103765
#
#
# Mechanical properties :
#
#
# Convention : Reuss Voigt Hill
#
# Bulk Modulus (GPa) = 27.09359 40.24100 33.66730
# Shear Modulus (GPa) = 15.53510 26.70214 21.11862
#
# Velocity S-wave (km/s) = 2.49977 3.27730 2.91458
# Velocity P-wave (km/s) = 4.38520 5.52337 4.98686
#
# Compressibility (1/GPa) = 0.03690910
#
# Stress axis : x y z
#
# Youngs Moduli (GPa) = 42.21322 68.38208 112.36115
#
# Poissons Ratio (x) = -0.21999 0.48414
# Poissons Ratio (y) = -0.13580 0.45619
# Poissons Ratio (z) = 0.18189 0.27764
#
# Static dielectric constant tensor:
#      x y z
#    x 1.909490 0.000000 0.000000 
#    y 0.000000 1.966620 0.000000 
#    z 0.000000 0.000000 1.985590 
# 
# From -- ./inp_files/16686.got.cif
#   From: 2010.05.17/outbox.cif.g08.bks.cpg/sg55_9_cif.got.tgz:16686.got - 2010.06.03 13:27:54.
