data_PCOD9428329
_publ_section_title
;
Structure prediction by ZEFSAII (Michael W. Deem and Ramdas Pophale) SiO2 
 PCOD9428329
Probable space group: P B A M
;
_chemical_formula_sum "Si O2"
_cell_formula_units_Z 48
_cell_length_a 8.508150
_cell_length_b 14.752551
_cell_length_c 14.888898
_cell_angle_alpha 90.000000
_cell_angle_beta 90.000000
_cell_angle_gamma 90.000000
_cell_volume 1868.808571
_symmetry_space_group_name_H-M "P B A M"
_symmetry_group_IT_number 55
_symmetry_cell_setting 'orthorhombic'
loop_
_space_group_symop_operation_xyz
x,y,z
-x,-y,z
1/2+x,1/2-y,-z
1/2-x,1/2+y,-z
-x,-y,-z
x,y,-z
1/2-x,1/2+y,z
1/2+x,1/2-y,z
loop_
_atom_site_type_symbol
_atom_site_label
_atom_site_fract_x
_atom_site_fract_y
_atom_site_fract_z
Si Si1 0.154597 0.119510 0.656685
Si Si2 0.360747 0.214241 0.102270
Si Si3 0.846602 0.545881 0.603734
Si Si4 0.671939 0.118530 0.889596
Si Si5 0.148261 0.054589 0.145098
Si Si6 0.662057 0.717455 0.606417
O O1 0.109896 0.085967 0.754938
O O2 0.300357 0.189608 0.656765
O O3 0.010332 0.175465 0.616503
O O4 0.210286 0.029637 0.605633
O O5 0.305072 0.309751 0.140512
O O6 0.508138 0.161377 0.142251
O O7 0.214008 0.145150 0.100139
O O8 0.406427 0.234459 0.000000
O O9 0.886878 0.567050 0.500000
O O10 0.780308 0.639336 0.641130
O O11 0.000000 0.500000 0.646256
O O12 0.713038 0.019569 0.855119
O O13 0.669884 0.112578 0.000000
O O14 0.000000 0.000000 0.105642
O O15 0.687900 0.734656 0.500000
#
# Coordination Sequence:
#
# PCOD9428329 Si02
#       6
#     8   8   8   8   8   8
#     4  12  26  43  65  96 133 170 216 271 337 404
#     4  10  22  42  71 102 134 179 234 285 328 385
#     4  10  21  39  65  96 127 162 208 261 321 394
#     4  10  22  43  70 100 133 176 232 284 330 388
#     4  12  26  41  62  94 138 182 221 272 340 405
#     4  11  23  43  71  96 125 169 219 273 330 398
#
# _framework density 25.684815
#
# number of rings (size 3 to 8) (size 9 to 14) (size 15 to 20)
#    0.000    1.167    0.000    6.000    0.000   12.000 
#    0.000    1.667    0.000    0.000    0.000    0.000 
#    0.000    0.000    0.000    0.000    0.000    0.000 
#
# Total GULP energy -268956.467479 kJ/mol
# GULP energy per Si atom -5603.259739 kJ/mol
# Density = 2.562636 g / cm^3
# Si number density = 25.684815 Si / 1000 Ang^3
#
#
#
# Elastic Constant Matrix: (Units=GPa)
#
#
# Indices 1 2 3 4 5 6 
#
# 1 78.6670 11.1437 15.8712 0.0000 0.0000 0.0000
# 2 11.1437 150.6372 16.9324 0.0000 0.0000 0.0000
# 3 15.8712 16.9324 60.7253 0.0000 0.0000 0.0000
# 4 0.0000 0.0000 0.0000 24.4465 0.0000 0.0000
# 5 0.0000 0.0000 0.0000 0.0000 25.1173 0.0000
# 6 0.0000 0.0000 0.0000 0.0000 0.0000 54.7463
#
#
#
# Elastic Compliance Matrix: (Units=1/GPa)
#
#
# Indices 1 2 3 4 5 6 
#
# 1 0.013475 -0.000620 -0.003349 0.000000 0.000000 0.000000
# 2 -0.000620 0.006882 -0.001757 0.000000 0.000000 0.000000
# 3 -0.003349 -0.001757 0.017833 0.000000 0.000000 0.000000
# 4 0.000000 0.000000 0.000000 0.040906 0.000000 0.000000
# 5 0.000000 0.000000 0.000000 0.000000 0.039813 0.000000
# 6 0.000000 0.000000 0.000000 0.000000 0.000000 0.018266
#
#
# Mechanical properties :
#
#
# Convention : Reuss Voigt Hill
#
# Bulk Modulus (GPa) = 37.40039 41.99157 39.69598
# Shear Modulus (GPa) = 31.73805 37.26750 34.50277
#
# Velocity S-wave (km/s) = 3.51903 3.81327 3.66910
# Velocity P-wave (km/s) = 5.57712 5.98100 5.78259
#
# Compressibility (1/GPa) = 0.02673769
#
# Stress axis : x y z
#
# Youngs Moduli (GPa) = 74.20958 145.31014 56.07665
#
# Poissons Ratio (x) = 0.09015 0.18780
# Poissons Ratio (y) = 0.04604 0.09851
# Poissons Ratio (z) = 0.24852 0.25527
#
# Static dielectric constant tensor:
#      x y z
#    x 2.077340 0.000000 0.000000 
#    y 0.000000 1.932790 0.000000 
#    z 0.000000 0.000000 1.992500 
# 
# From -- ./inp_files/20794.got.cif
#   From: 2010.05.17/outbox.cif.g08.bks.cpg/sg55_11_cif.got.tgz:20794.got - 2010.06.03 13:27:54.
