data_PCOD9428592
_publ_section_title
;
Structure prediction by ZEFSAII (Michael W. Deem and Ramdas Pophale) SiO2 
 PCOD9428592
Probable space group: P B A M
;
_chemical_formula_sum "Si O2"
_cell_formula_units_Z 48
_cell_length_a 8.099923
_cell_length_b 14.363426
_cell_length_c 19.647744
_cell_angle_alpha 90.000000
_cell_angle_beta 90.000000
_cell_angle_gamma 90.000000
_cell_volume 2285.870498
_symmetry_space_group_name_H-M "P B A M"
_symmetry_group_IT_number 55
_symmetry_cell_setting 'orthorhombic'
loop_
_space_group_symop_operation_xyz
x,y,z
-x,-y,z
1/2+x,1/2-y,-z
1/2-x,1/2+y,-z
-x,-y,-z
x,y,-z
1/2-x,1/2+y,z
1/2+x,1/2-y,z
loop_
_atom_site_type_symbol
_atom_site_label
_atom_site_fract_x
_atom_site_fract_y
_atom_site_fract_z
Si Si1 0.551701 0.394112 0.500000
Si Si2 0.553890 0.893637 0.500000
Si Si3 0.189169 0.611632 0.831057
Si Si4 0.811128 0.611905 0.170467
Si Si5 0.958300 0.247718 0.612738
Si Si6 0.499215 0.386407 0.077674
Si Si7 0.707912 0.255207 0.286907
O O1 0.500000 0.500000 0.500000
O O2 0.748518 0.387661 0.500000
O O3 0.481123 0.341146 0.434352
O O4 0.496984 0.837273 0.432902
O O5 0.500000 0.000000 0.500000
O O6 0.196269 0.499855 0.823533
O O7 0.331786 0.640762 0.884044
O O8 0.237074 0.660026 0.760232
O O9 0.000043 0.635836 0.850771
O O10 0.665158 0.641133 0.119193
O O11 0.779421 0.662424 0.242065
O O12 0.766081 0.257985 0.634352
O O13 0.015016 0.237397 0.691590
O O14 0.500000 0.500000 0.076338
O O15 0.495073 0.353309 0.000000
#
# Coordination Sequence:
#
# PCOD9428592 Si02
#       7
#     4   4   8   8   8   8   8
#     4  11  26  44  65  95 125 163 215 259 310 378
#     4  11  26  44  65  91 127 163 207 261 308 376
#     4  10  22  39  62  94 125 163 215 261 315 380
#     4  10  22  39  63  92 126 166 210 263 317 378
#     4  11  25  42  64  90 125 166 206 253 318 377
#     4   9  19  38  63  90 125 167 211 263 318 372
#     4  12  22  41  65  90 127 163 203 261 314 372
#
# _framework density 20.998566
#
# number of rings (size 3 to 8) (size 9 to 14) (size 15 to 20)
#    0.000    1.500    3.333    1.000    2.333    3.333 
#    0.000    4.167    0.000    0.000    0.000    0.000 
#    0.000    0.000    0.000    0.000    0.000    0.000 
#
# Total GULP energy -267706.785898 kJ/mol
# GULP energy per Si atom -5577.224706 kJ/mol
# Density = 2.095077 g / cm^3
# Si number density = 20.998566 Si / 1000 Ang^3
#
#
#
# Elastic Constant Matrix: (Units=GPa)
#
#
# Indices 1 2 3 4 5 6 
#
# 1 90.3971 46.4061 84.2867 0.0000 0.0000 0.0000
# 2 46.4061 95.9780 55.2736 0.0000 0.0000 0.0000
# 3 84.2867 55.2736 157.3398 0.0000 0.0000 0.0000
# 4 0.0000 0.0000 0.0000 14.0432 0.0000 0.0000
# 5 0.0000 0.0000 0.0000 0.0000 34.3328 0.0000
# 6 0.0000 0.0000 0.0000 0.0000 0.0000 31.8187
#
#
#
# Elastic Compliance Matrix: (Units=1/GPa)
#
#
# Indices 1 2 3 4 5 6 
#
# 1 0.024062 -0.005279 -0.011035 0.000000 0.000000 0.000000
# 2 -0.005279 0.014220 -0.002168 0.000000 0.000000 0.000000
# 3 -0.011035 -0.002168 0.013029 0.000000 0.000000 0.000000
# 4 0.000000 0.000000 0.000000 0.071209 0.000000 0.000000
# 5 0.000000 0.000000 0.000000 0.000000 0.029127 0.000000
# 6 0.000000 0.000000 0.000000 0.000000 0.000000 0.031428
#
#
# Mechanical properties :
#
#
# Convention : Reuss Voigt Hill
#
# Bulk Modulus (GPa) = 69.70230 79.51642 74.60936
# Shear Modulus (GPa) = 22.24011 26.55550 24.39780
#
# Velocity S-wave (km/s) = 3.25795 3.56003 3.41233
# Velocity P-wave (km/s) = 6.88609 7.40595 7.15075
#
# Compressibility (1/GPa) = 0.01434673
#
# Stress axis : x y z
#
# Youngs Moduli (GPa) = 41.56007 70.32515 76.75336
#
# Poissons Ratio (x) = 0.37123 0.84700
# Poissons Ratio (y) = 0.21938 0.16637
# Poissons Ratio (z) = 0.45863 0.15244
#
# Static dielectric constant tensor:
#      x y z
#    x 1.904290 0.000000 0.000000 
#    y 0.000000 1.710090 0.000000 
#    z 0.000000 0.000000 1.689810 
# 
# From -- ./inp_files/20805.got.cif
#   From: 2010.05.17/outbox.cif.g08.bks.cpg/sg55_11_cif.got.tgz:20805.got - 2010.06.03 13:27:54.
