data_PCOD9428677
_publ_section_title
;
Structure prediction by ZEFSAII (Michael W. Deem and Ramdas Pophale) SiO2 
 PCOD9428677
Probable space group: P B A M
;
_chemical_formula_sum "Si O2"
_cell_formula_units_Z 58
_cell_length_a 17.014128
_cell_length_b 18.933913
_cell_length_c 7.892901
_cell_angle_alpha 90.000000
_cell_angle_beta 90.000000
_cell_angle_gamma 90.000000
_cell_volume 2542.650852
_symmetry_space_group_name_H-M "P B A M"
_symmetry_group_IT_number 55
_symmetry_cell_setting 'orthorhombic'
loop_
_space_group_symop_operation_xyz
x,y,z
-x,-y,z
1/2+x,1/2-y,-z
1/2-x,1/2+y,-z
-x,-y,-z
x,y,-z
1/2-x,1/2+y,z
1/2+x,1/2-y,z
loop_
_atom_site_type_symbol
_atom_site_label
_atom_site_fract_x
_atom_site_fract_y
_atom_site_fract_z
Si Si1 0.515041 0.141800 0.196000
Si Si2 0.849521 0.408735 0.688601
Si Si3 0.175827 0.432424 0.205408
Si Si4 0.573870 0.424697 0.303281
Si Si5 0.500000 0.500000 0.000000
Si Si6 0.533607 0.707299 0.301572
Si Si7 0.289429 0.673001 0.191118
Si Si8 0.713613 0.687699 0.794478
O O1 0.441197 0.106972 0.288856
O O2 0.598452 0.112177 0.254797
O O3 0.505780 0.226040 0.210870
O O4 0.507225 0.121439 0.000000
O O5 0.826200 0.387219 0.500000
O O6 0.830740 0.490167 0.719424
O O7 0.796850 0.361748 0.811431
O O8 0.252085 0.387808 0.257720
O O9 0.176738 0.438164 0.000000
O O10 0.565823 0.447991 0.500000
O O11 0.564731 0.481381 0.153628
O O12 0.506476 0.366887 0.257481
O O13 0.653717 0.379639 0.288838
O O14 0.520583 0.718805 0.500000
O O15 0.626120 0.703138 0.266408
O O16 0.274050 0.751037 0.261975
O O17 0.320903 0.679317 0.000000
O O18 0.712615 0.690615 0.000000
#
# Coordination Sequence:
#
# PCOD9428677 Si02
#       8
#     8   8   8   8   2   8   8   8
#     4  11  22  40  68  95 129 175 226 275 332 410
#     4  12  25  40  62  96 138 179 220 275 342 408
#     4  10  23  42  63  95 130 169 221 277 331 402
#     4  11  26  46  71 104 137 180 237 289 346 419
#     4  12  26  48  72  94 136 184 222 296 352 410
#     4  11  24  41  66 100 136 171 219 283 342 403
#     4  11  22  43  71  99 129 178 230 277 342 410
#     4  10  22  40  68  98 131 172 225 279 336 411
#
# _framework density 22.810839000000001
#
# number of rings (size 3 to 8) (size 9 to 14) (size 15 to 20)
#    0.000    1.103    2.069    3.931    1.931    6.069 
#    2.483    1.379    0.000    0.000    0.000    0.000 
#    0.000    0.000    0.000    0.000    0.000    0.000 
#
# Total GULP energy -323970.484744 kJ/mol
# GULP energy per Si atom -5585.698013 kJ/mol
# Density = 2.275892 g / cm^3
# Si number density = 22.810839 Si / 1000 Ang^3
#
#
#
# Elastic Constant Matrix: (Units=GPa)
#
#
# Indices 1 2 3 4 5 6 
#
# 1 44.2558 -3.5538 -3.0569 0.0000 0.0000 0.0000
# 2 -3.5538 51.8141 14.4164 0.0000 0.0000 0.0000
# 3 -3.0569 14.4164 65.0291 0.0000 0.0000 0.0000
# 4 0.0000 0.0000 0.0000 16.8067 0.0000 0.0000
# 5 0.0000 0.0000 0.0000 0.0000 127.3251 0.0000
# 6 0.0000 0.0000 0.0000 0.0000 0.0000 10.2013
#
#
#
# Elastic Compliance Matrix: (Units=1/GPa)
#
#
# Indices 1 2 3 4 5 6 
#
# 1 0.022757 0.001346 0.000771 0.000000 0.000000 0.000000
# 2 0.001346 0.020648 -0.004514 0.000000 0.000000 0.000000
# 3 0.000771 -0.004514 0.016415 0.000000 0.000000 0.000000
# 4 0.000000 0.000000 0.000000 0.059500 0.000000 0.000000
# 5 0.000000 0.000000 0.000000 0.000000 0.007854 0.000000
# 6 0.000000 0.000000 0.000000 0.000000 0.000000 0.098027
#
#
# Mechanical properties :
#
#
# Convention : Reuss Voigt Hill
#
# Bulk Modulus (GPa) = 18.17295 19.63450 18.90372
# Shear Modulus (GPa) = 20.13394 41.08616 30.61005
#
# Velocity S-wave (km/s) = 2.97416 4.24862 3.66718
# Velocity P-wave (km/s) = 4.44728 5.71786 5.12212
#
# Compressibility (1/GPa) = 0.05502685
#
# Stress axis : x y z
#
# Youngs Moduli (GPa) = 43.94194 48.43062 60.92079
#
# Poissons Ratio (x) = -0.06520 -0.04699
# Poissons Ratio (y) = -0.05916 0.27501
# Poissons Ratio (z) = -0.03389 0.21863
#
# Static dielectric constant tensor:
#      x y z
#    x 1.845080 0.000000 0.000000 
#    y 0.000000 1.860680 0.000000 
#    z 0.000000 0.000000 6.430940 
# 
# From -- ./inp_files/7682.got.cif
#   From: 2010.05.17/outbox.cif.g08.bks.cpg/sg55_4_cif.got.tgz:7682.got - 2010.06.03 13:27:54.
