data_PCOD9428713
_publ_section_title
;
Structure prediction by ZEFSAII (Michael W. Deem and Ramdas Pophale) SiO2 
 PCOD9428713
Probable space group: P B A M
;
_chemical_formula_sum "Si O2"
_cell_formula_units_Z 58
_cell_length_a 9.224315
_cell_length_b 25.444589
_cell_length_c 12.061439
_cell_angle_alpha 90.000000
_cell_angle_beta 90.000000
_cell_angle_gamma 90.000000
_cell_volume 2830.927128
_symmetry_space_group_name_H-M "P B A M"
_symmetry_group_IT_number 55
_symmetry_cell_setting 'orthorhombic'
loop_
_space_group_symop_operation_xyz
x,y,z
-x,-y,z
1/2+x,1/2-y,-z
1/2-x,1/2+y,-z
-x,-y,-z
x,y,-z
1/2-x,1/2+y,z
1/2+x,1/2-y,z
loop_
_atom_site_type_symbol
_atom_site_label
_atom_site_fract_x
_atom_site_fract_y
_atom_site_fract_z
Si Si1 0.470898 0.862312 0.131278
Si Si2 0.000000 0.500000 0.000000
Si Si3 0.207055 0.461883 0.192120
Si Si4 0.871591 0.187345 0.374311
Si Si5 0.513862 0.599475 0.214453
Si Si6 0.156901 0.028851 0.374060
Si Si7 0.213707 0.170330 0.878138
Si Si8 0.390020 0.762192 0.272630
O O1 0.390028 0.909007 0.194439
O O2 0.644253 0.864798 0.140179
O O3 0.430378 0.805716 0.180810
O O4 0.433979 0.867946 0.000000
O O5 0.872952 0.504630 0.902311
O O6 0.372281 0.442410 0.166302
O O7 0.229159 0.492523 0.307926
O O8 0.906975 0.173374 0.500000
O O9 0.895690 0.137833 0.294804
O O10 0.710052 0.208684 0.360953
O O11 0.976127 0.233449 0.330178
O O12 0.386918 0.575762 0.291777
O O13 0.430604 0.635492 0.127412
O O14 0.200642 0.042359 0.500000
O O15 0.000000 0.000000 0.382260
O O16 0.198048 0.215851 0.788302
O O17 0.230277 0.194563 0.000000
#
# Coordination Sequence:
#
# PCOD9428713 Si02
#       8
#     8   2   8   8   8   8   8   8
#     4  11  22  40  62  88 129 172 212 265 332 386
#     4  12  28  44  68  92 144 164 214 286 344 392
#     4  11  24  42  66  96 125 179 215 274 347 401
#     4  11  22  38  64  93 129 172 215 270 322 384
#     4  10  22  41  67  95 127 166 229 263 327 403
#     4   9  20  42  68  94 126 165 222 282 331 398
#     4  10  23  38  63  94 128 168 213 265 312 386
#     4  11  21  41  59  91 132 168 218 258 319 395
#
# _framework density 20.487988000000001
#
# number of rings (size 3 to 8) (size 9 to 14) (size 15 to 20)
#    0.000    1.517    3.448    1.241    2.897    0.552 
#    0.000    1.379    0.000    0.000    0.000    0.000 
#    0.000    0.000    0.000    0.000    0.000    0.000 
#
# Total GULP energy -323050.714606 kJ/mol
# GULP energy per Si atom -5569.839907 kJ/mol
# Density = 2.044136 g / cm^3
# Si number density = 20.487988 Si / 1000 Ang^3
#
#
#
# Elastic Constant Matrix: (Units=GPa)
#
#
# Indices 1 2 3 4 5 6 
#
# 1 78.5280 19.1298 47.7470 0.0000 0.0000 0.0000
# 2 19.1298 41.7375 17.6857 0.0000 0.0000 0.0000
# 3 47.7470 17.6857 100.6723 0.0000 0.0000 0.0000
# 4 0.0000 0.0000 0.0000 6.9720 0.0000 0.0000
# 5 0.0000 0.0000 0.0000 0.0000 29.1289 0.0000
# 6 0.0000 0.0000 0.0000 0.0000 0.0000 31.3784
#
#
#
# Elastic Compliance Matrix: (Units=1/GPa)
#
#
# Indices 1 2 3 4 5 6 
#
# 1 0.018905 -0.005257 -0.008043 0.000000 0.000000 0.000000
# 2 -0.005257 0.027348 -0.002311 0.000000 0.000000 0.000000
# 3 -0.008043 -0.002311 0.014154 0.000000 0.000000 0.000000
# 4 0.000000 0.000000 0.000000 0.143431 0.000000 0.000000
# 5 0.000000 0.000000 0.000000 0.000000 0.034330 0.000000
# 6 0.000000 0.000000 0.000000 0.000000 0.000000 0.031869
#
#
# Mechanical properties :
#
#
# Convention : Reuss Voigt Hill
#
# Bulk Modulus (GPa) = 34.26392 43.34031 38.80211
# Shear Modulus (GPa) = 16.07780 22.58754 19.33267
#
# Velocity S-wave (km/s) = 2.80437 3.32396 3.07516
# Velocity P-wave (km/s) = 5.21979 5.99429 5.62040
#
# Compressibility (1/GPa) = 0.02918522
#
# Stress axis : x y z
#
# Youngs Moduli (GPa) = 52.89559 36.56573 70.65237
#
# Poissons Ratio (x) = 0.19222 0.56825
# Poissons Ratio (y) = 0.27807 0.16329
# Poissons Ratio (z) = 0.42543 0.08451
#
# Static dielectric constant tensor:
#      x y z
#    x 1.729310 0.000000 0.000000 
#    y 0.000000 1.766180 0.000000 
#    z 0.000000 0.000000 1.698810 
# 
# From -- ./inp_files/12490.got.cif
#   From: 2010.05.17/outbox.cif.g08.bks.cpg/sg55_7_cif.got.tgz:12490.got - 2010.06.03 13:27:54.
