data_PCOD9428063
_publ_section_title
;
Structure prediction by ZEFSAII (Michael W. Deem and Ramdas Pophale) SiO2 
 PCOD9428063
Probable space group: P B A M
;
_chemical_formula_sum "Si O2"
_cell_formula_units_Z 58
_cell_length_a 29.335197
_cell_length_b 12.022507
_cell_length_c 7.747602
_cell_angle_alpha 90.000000
_cell_angle_beta 90.000000
_cell_angle_gamma 90.000000
_cell_volume 2732.444505
_symmetry_space_group_name_H-M "P B A M"
_symmetry_group_IT_number 55
_symmetry_cell_setting 'orthorhombic'
loop_
_space_group_symop_operation_xyz
x,y,z
-x,-y,z
1/2+x,1/2-y,-z
1/2-x,1/2+y,-z
-x,-y,-z
x,y,-z
1/2-x,1/2+y,z
1/2+x,1/2-y,z
loop_
_atom_site_type_symbol
_atom_site_label
_atom_site_fract_x
_atom_site_fract_y
_atom_site_fract_z
Si Si1 0.889582 0.290814 0.296293
Si Si2 0.378398 0.953737 0.209011
Si Si3 0.792949 0.687521 0.203922
Si Si4 0.151628 0.104137 0.299678
Si Si5 0.000000 0.000000 0.500000
Si Si6 0.310090 0.369248 0.708521
Si Si7 0.972276 0.141253 0.798356
Si Si8 0.934080 0.753719 0.799380
O O1 0.893926 0.270465 0.500000
O O2 0.887566 0.421945 0.266388
O O3 0.843307 0.230424 0.236257
O O4 0.932192 0.230753 0.209376
O O5 0.329051 0.906149 0.263690
O O6 0.414952 0.862282 0.273327
O O7 0.379544 0.952541 0.000000
O O8 0.808194 0.804250 0.285978
O O9 0.741455 0.652066 0.235455
O O10 0.800106 0.701976 0.000000
O O11 0.139772 0.089942 0.500000
O O12 0.107441 0.159270 0.213105
O O13 0.168897 0.986372 0.229320
O O14 0.965338 0.045584 0.656390
O O15 0.309459 0.373518 0.500000
O O16 0.019101 0.198008 0.727576
O O17 0.976806 0.106663 0.000000
O O18 0.944268 0.733997 0.000000
#
# Coordination Sequence:
#
# PCOD9428063 Si02
#       8
#     8   8   8   8   2   8   8   8
#     4  11  24  42  61  95 133 170 217 273 327 398
#     4   9  20  41  64  89 127 166 213 271 327 391
#     4  10  22  40  61  88 120 161 211 263 321 392
#     4  10  21  37  62  89 120 158 205 262 319 379
#     4  12  26  44  68  96 140 168 230 264 314 410
#     4  10  24  40  59  85 124 164 208 265 325 384
#     4  11  25  44  69  98 134 180 221 275 337 383
#     4   9  21  41  65  94 124 167 219 266 321 387
#
# _framework density 21.226414999999999
#
# number of rings (size 3 to 8) (size 9 to 14) (size 15 to 20)
#    0.000    1.931    0.690    2.276    4.828    5.517 
#    0.000    2.759    0.000    0.000    0.000    0.000 
#    0.000    0.000    0.000    0.000    0.000    0.000 
#
# Total GULP energy -323531.174874 kJ/mol
# GULP energy per Si atom -5578.123705 kJ/mol
# Density = 2.117810 g / cm^3
# Si number density = 21.226415 Si / 1000 Ang^3
#
#
#
# Elastic Constant Matrix: (Units=GPa)
#
#
# Indices 1 2 3 4 5 6 
#
# 1 102.7699 42.4321 8.3536 0.0000 0.0000 0.0000
# 2 42.4321 109.9137 20.4812 0.0000 0.0000 0.0000
# 3 8.3536 20.4812 74.0278 0.0000 0.0000 0.0000
# 4 0.0000 0.0000 0.0000 14.1723 0.0000 0.0000
# 5 0.0000 0.0000 0.0000 0.0000 25.0051 0.0000
# 6 0.0000 0.0000 0.0000 0.0000 0.0000 23.3352
#
#
#
# Elastic Compliance Matrix: (Units=1/GPa)
#
#
# Indices 1 2 3 4 5 6 
#
# 1 0.011576 -0.004455 -0.000074 0.000000 0.000000 0.000000
# 2 -0.004455 0.011307 -0.002626 0.000000 0.000000 0.000000
# 3 -0.000074 -0.002626 0.014243 0.000000 0.000000 0.000000
# 4 0.000000 0.000000 0.000000 0.070560 0.000000 0.000000
# 5 0.000000 0.000000 0.000000 0.000000 0.039992 0.000000
# 6 0.000000 0.000000 0.000000 0.000000 0.000000 0.042854
#
#
# Mechanical properties :
#
#
# Convention : Reuss Voigt Hill
#
# Bulk Modulus (GPa) = 43.82614 47.69393 45.76004
# Shear Modulus (GPa) = 23.53534 26.86550 25.20042
#
# Velocity S-wave (km/s) = 3.33344 3.56148 3.44934
# Velocity P-wave (km/s) = 5.95882 6.27934 6.12118
#
# Compressibility (1/GPa) = 0.02281743
#
# Stress axis : x y z
#
# Youngs Moduli (GPa) = 86.38615 88.43917 70.20901
#
# Poissons Ratio (x) = 0.39401 0.00517
# Poissons Ratio (y) = 0.38486 0.18434
# Poissons Ratio (z) = 0.00636 0.23221
#
# Static dielectric constant tensor:
#      x y z
#    x 1.754630 0.000000 0.000000 
#    y 0.000000 1.781320 0.000000 
#    z 0.000000 0.000000 1.792570 
# 
# From -- ./inp_files/10213.got.cif
#   From: 2010.05.17/outbox.cif.g08.bks.cpg/sg55_6_cif.got.tgz:10213.got - 2010.06.03 13:27:54.
