data_PCOD9428088
_publ_section_title
;
Structure prediction by ZEFSAII (Michael W. Deem and Ramdas Pophale) SiO2 
 PCOD9428088
Probable space group: P B A M
;
_chemical_formula_sum "Si O2"
_cell_formula_units_Z 64
_cell_length_a 11.079738
_cell_length_b 25.930110
_cell_length_c 9.924476
_cell_angle_alpha 90.000000
_cell_angle_beta 90.000000
_cell_angle_gamma 90.000000
_cell_volume 2851.290295
_symmetry_space_group_name_H-M "P B A M"
_symmetry_group_IT_number 55
_symmetry_cell_setting 'orthorhombic'
loop_
_space_group_symop_operation_xyz
x,y,z
-x,-y,z
1/2+x,1/2-y,-z
1/2-x,1/2+y,-z
-x,-y,-z
x,y,-z
1/2-x,1/2+y,z
1/2+x,1/2-y,z
loop_
_atom_site_type_symbol
_atom_site_label
_atom_site_fract_x
_atom_site_fract_y
_atom_site_fract_z
Si Si1 0.739724 0.272973 0.345732
Si Si2 0.459098 0.740007 0.141575
Si Si3 0.641097 0.017123 0.652182
Si Si4 0.392675 0.543370 0.344528
Si Si5 0.136145 0.662330 0.854885
Si Si6 0.481949 0.380817 0.846687
Si Si7 0.285657 0.340334 0.658511
Si Si8 0.894802 0.609052 0.156913
O O1 0.724802 0.284322 0.500000
O O2 0.617185 0.256581 0.275288
O O3 0.819386 0.220488 0.333377
O O4 0.781207 0.324155 0.269235
O O5 0.559665 0.784118 0.137064
O O6 0.495932 0.680315 0.137535
O O7 0.386735 0.749230 0.000000
O O8 0.657688 0.039755 0.500000
O O9 0.645731 0.056193 0.776532
O O10 0.500000 0.000000 0.653147
O O11 0.755945 0.978971 0.667233
O O12 0.500000 0.500000 0.329052
O O13 0.404832 0.562918 0.500000
O O14 0.417097 0.585350 0.228025
O O15 0.038709 0.617656 0.835364
O O16 0.197900 0.654742 0.000000
O O17 0.375571 0.378855 0.735359
O O18 0.456105 0.399792 0.000000
O O19 0.273348 0.351264 0.500000
O O20 0.165359 0.348924 0.745898
O O21 0.860788 0.615062 0.000000
#
# Coordination Sequence:
#
# PCOD9428088 Si02
#       8
#     8   8   8   8   8   8   8   8
#     4  11  23  35  55  85 119 161 209 259 302 357
#     4  10  21  38  57  81 120 164 200 241 300 370
#     4  10  23  44  68  94 129 171 213 266 335 397
#     4  10  22  42  67  95 129 169 211 264 331 392
#     4  10  21  38  58  82 120 163 199 242 301 367
#     4  11  23  38  62  92 122 162 209 259 315 375
#     4  11  22  36  57  88 125 163 204 256 315 377
#     4  11  23  39  64  93 119 160 214 264 313 372
#
# _framework density 22.445979000000001
#
# number of rings (size 3 to 8) (size 9 to 14) (size 15 to 20)
#    0.000    1.500    2.500    2.250    0.000    6.500 
#    0.000    2.500    0.000    0.000    0.000    0.000 
#    0.000    0.000    0.000    0.000    0.000    0.000 
#
# Total GULP energy -356690.952156 kJ/mol
# GULP energy per Si atom -5573.296127 kJ/mol
# Density = 2.239489 g / cm^3
# Si number density = 22.445979 Si / 1000 Ang^3
#
#
#
# Elastic Constant Matrix: (Units=GPa)
#
#
# Indices 1 2 3 4 5 6 
#
# 1 57.6186 3.5761 25.1801 0.0000 0.0000 0.0000
# 2 3.5761 35.2313 21.6742 0.0000 0.0000 0.0000
# 3 25.1801 21.6742 188.6751 0.0000 0.0000 0.0000
# 4 0.0000 0.0000 0.0000 -27.4857 0.0000 0.0000
# 5 0.0000 0.0000 0.0000 0.0000 20.4038 0.0000
# 6 0.0000 0.0000 0.0000 0.0000 0.0000 32.7081
#
#
#
# Elastic Compliance Matrix: (Units=1/GPa)
#
#
# Indices 1 2 3 4 5 6 
#
# 1 0.018435 -0.000385 -0.002416 0.000000 0.000000 0.000000
# 2 -0.000385 0.030550 -0.003458 0.000000 0.000000 0.000000
# 3 -0.002416 -0.003458 0.006020 0.000000 0.000000 0.000000
# 4 0.000000 0.000000 0.000000 -0.036383 0.000000 0.000000
# 5 0.000000 0.000000 0.000000 0.000000 0.049010 0.000000
# 6 0.000000 0.000000 0.000000 0.000000 0.000000 0.030573
#
#
# Mechanical properties :
#
#
# Convention : Reuss Voigt Hill
#
# Bulk Modulus (GPa) = 23.53649 42.48730 33.01190
# Shear Modulus (GPa) = 40.03606 20.53155 30.28381
#
# Velocity S-wave (km/s) = 4.22793 3.02770 3.67711
# Velocity P-wave (km/s) = 5.86024 5.58501 5.72428
#
# Compressibility (1/GPa) = 0.04248722
#
# Stress axis : x y z
#
# Youngs Moduli (GPa) = 54.24385 32.73284 166.11791
#
# Poissons Ratio (x) = 0.01260 0.40136
# Poissons Ratio (y) = 0.02088 0.57446
# Poissons Ratio (z) = 0.13106 0.11319
#
# Static dielectric constant tensor:
#      x y z
#    x 1.936600 0.000000 0.000000 
#    y 0.000000 1.875940 0.000000 
#    z 0.000000 0.000000 1.829000 
# 
# From -- ./inp_files/4639.got.cif
#   From: 2010.05.17/outbox.cif.g08.bks.cpg/sg55_3_cif.got.tgz:4639.got - 2010.06.03 13:27:54.
