data_PCOD9428495
_publ_section_title
;
Structure prediction by ZEFSAII (Michael W. Deem and Ramdas Pophale) SiO2 
 PCOD9428495
Probable space group: P B A M
;
_chemical_formula_sum "Si O2"
_cell_formula_units_Z 48
_cell_length_a 12.594201
_cell_length_b 14.627524
_cell_length_c 13.131742
_cell_angle_alpha 90.000000
_cell_angle_beta 90.000000
_cell_angle_gamma 90.000000
_cell_volume 2419.155478
_symmetry_space_group_name_H-M "P B A M"
_symmetry_group_IT_number 55
_symmetry_cell_setting 'orthorhombic'
loop_
_space_group_symop_operation_xyz
x,y,z
-x,-y,z
1/2+x,1/2-y,-z
1/2-x,1/2+y,-z
-x,-y,-z
x,y,-z
1/2-x,1/2+y,z
1/2+x,1/2-y,z
loop_
_atom_site_type_symbol
_atom_site_label
_atom_site_fract_x
_atom_site_fract_y
_atom_site_fract_z
Si Si1 0.287654 0.801475 0.614473
Si Si2 0.557714 0.593424 0.122162
Si Si3 0.565121 0.236636 0.783388
Si Si4 0.626322 0.001020 0.323057
Si Si5 0.190963 0.423915 0.118056
Si Si6 0.596354 0.815460 0.385788
O O1 0.319253 0.776387 0.500000
O O2 0.343839 0.741362 0.701208
O O3 0.164391 0.776703 0.621462
O O4 0.318667 0.906868 0.635035
O O5 0.500000 0.500000 0.156278
O O6 0.494740 0.678967 0.167722
O O7 0.684406 0.593476 0.143180
O O8 0.548162 0.598086 0.000000
O O9 0.621167 0.167466 0.862178
O O10 0.482382 0.184960 0.709495
O O11 0.666131 0.906926 0.371683
O O12 0.500000 0.000000 0.347132
O O13 0.646598 0.005340 0.201651
O O14 0.183296 0.452104 0.000000
O O15 0.549994 0.819887 0.500000
#
# Coordination Sequence:
#
# PCOD9428495 Si02
#       6
#     8   8   8   8   8   8
#     4  10  22  37  58  90 124 159 204 251 301 364
#     4  10  23  43  64  88 125 169 205 248 311 376
#     4  11  20  38  63  90 119 160 205 255 303 357
#     4  11  21  39  64  89 119 164 207 251 311 363
#     4  10  22  40  60  91 125 153 205 256 301 367
#     4  11  23  39  61  90 125 163 203 253 311 366
#
# _framework density 19.841635
#
# number of rings (size 3 to 8) (size 9 to 14) (size 15 to 20)
#    0.000    1.500    3.333    3.500    2.333    1.000 
#    0.000    0.000    0.000    1.000    0.000    0.000 
#    0.000    0.000    0.000    0.000    0.000    0.000 
#
# Total GULP energy -267535.767966 kJ/mol
# GULP energy per Si atom -5573.661833 kJ/mol
# Density = 1.979647 g / cm^3
# Si number density = 19.841635 Si / 1000 Ang^3
#
#
#
# Elastic Constant Matrix: (Units=GPa)
#
#
# Indices 1 2 3 4 5 6 
#
# 1 72.0287 39.9024 15.0227 0.0000 0.0000 0.0000
# 2 39.9024 95.9829 8.9896 0.0000 0.0000 0.0000
# 3 15.0227 8.9896 75.2558 0.0000 0.0000 0.0000
# 4 0.0000 0.0000 0.0000 15.3276 0.0000 0.0000
# 5 0.0000 0.0000 0.0000 0.0000 46.7904 0.0000
# 6 0.0000 0.0000 0.0000 0.0000 0.0000 26.1532
#
#
#
# Elastic Compliance Matrix: (Units=1/GPa)
#
#
# Indices 1 2 3 4 5 6 
#
# 1 0.018612 -0.007473 -0.002823 0.000000 0.000000 0.000000
# 2 -0.007473 0.013537 -0.000125 0.000000 0.000000 0.000000
# 3 -0.002823 -0.000125 0.013866 0.000000 0.000000 0.000000
# 4 0.000000 0.000000 0.000000 0.065242 0.000000 0.000000
# 5 0.000000 0.000000 0.000000 0.000000 0.021372 0.000000
# 6 0.000000 0.000000 0.000000 0.000000 0.000000 0.038236
#
#
# Mechanical properties :
#
#
# Convention : Reuss Voigt Hill
#
# Bulk Modulus (GPa) = 39.72445 41.23297 40.47871
# Shear Modulus (GPa) = 24.98766 29.61107 27.29937
#
# Velocity S-wave (km/s) = 3.55259 3.86731 3.71329
# Velocity P-wave (km/s) = 6.07388 6.38495 6.23136
#
# Compressibility (1/GPa) = 0.02517342
#
# Stress axis : x y z
#
# Youngs Moduli (GPa) = 53.72878 73.87158 72.11653
#
# Poissons Ratio (x) = 0.55205 0.20356
# Poissons Ratio (y) = 0.40152 0.00903
# Poissons Ratio (z) = 0.15166 0.00925
#
# Static dielectric constant tensor:
#      x y z
#    x 1.764210 0.000000 0.000000 
#    y 0.000000 1.731980 0.000000 
#    z 0.000000 0.000000 1.715650 
# 
# From -- ./inp_files/18274.got.cif
#   From: 2010.05.17/outbox.cif.g08.bks.cpg/sg55_10_cif.got.tgz:18274.got - 2010.06.03 13:27:54.
