data_PCOD9428105
_publ_section_title
;
Structure prediction by ZEFSAII (Michael W. Deem and Ramdas Pophale) SiO2 
 PCOD9428105
Probable space group: P B A M
;
_chemical_formula_sum "Si O2"
_cell_formula_units_Z 56
_cell_length_a 13.827707
_cell_length_b 11.874957
_cell_length_c 15.147798
_cell_angle_alpha 90.000000
_cell_angle_beta 90.000000
_cell_angle_gamma 90.000000
_cell_volume 2487.320328
_symmetry_space_group_name_H-M "P B A M"
_symmetry_group_IT_number 55
_symmetry_cell_setting 'orthorhombic'
loop_
_space_group_symop_operation_xyz
x,y,z
-x,-y,z
1/2+x,1/2-y,-z
1/2-x,1/2+y,-z
-x,-y,-z
x,y,-z
1/2-x,1/2+y,z
1/2+x,1/2-y,z
loop_
_atom_site_type_symbol
_atom_site_label
_atom_site_fract_x
_atom_site_fract_y
_atom_site_fract_z
Si Si1 0.155083 0.518641 0.600121
Si Si2 0.525001 0.190578 0.601356
Si Si3 0.796640 0.834292 0.902392
Si Si4 0.733055 0.505199 0.762905
Si Si5 0.605924 0.090183 0.101574
Si Si6 0.045756 0.877473 0.737255
Si Si7 0.429250 0.224669 0.898043
O O1 0.192672 0.516333 0.500000
O O2 0.066300 0.605449 0.602475
O O3 0.229330 0.553321 0.674849
O O4 0.114357 0.393235 0.622472
O O5 0.536889 0.230390 0.500000
O O6 0.501470 0.290115 0.668603
O O7 0.854360 0.718703 0.902089
O O8 0.684000 0.801248 0.888340
O O9 0.824690 0.920374 0.826263
O O10 0.806289 0.886463 0.000000
O O11 0.824548 0.538683 0.824192
O O12 0.662081 0.603931 0.730800
O O13 0.492995 0.113592 0.122524
O O14 0.616586 0.045345 0.000000
O O15 0.038042 0.822749 0.833686
O O16 0.000000 0.000000 0.725553
O O17 0.446072 0.253281 0.000000
#
# Coordination Sequence:
#
# PCOD9428105 Si02
#       7
#     8   8   8   8   8   8   8
#     4   9  20  40  69  95 114 152 207 265 316 363
#     4   9  20  44  69  89 120 157 203 259 314 371
#     4  10  21  38  58  86 123 163 212 261 306 361
#     4  12  23  35  61  88 126 159 200 258 311 369
#     4  10  21  38  59  86 121 162 209 254 304 359
#     4  12  25  39  59  91 131 171 206 240 309 388
#     4  10  21  39  61  83 120 168 213 258 302 356
#
# _framework density 22.514188000000001
#
# number of rings (size 3 to 8) (size 9 to 14) (size 15 to 20)
#    0.000    1.714    1.429    3.857    0.000    3.429 
#    0.000    2.143    0.000    0.000    0.000    0.000 
#    0.000    0.000    0.000    0.000    0.000    0.000 
#
# Total GULP energy -313052.087113 kJ/mol
# GULP energy per Si atom -5590.215841 kJ/mol
# Density = 2.246294 g / cm^3
# Si number density = 22.514188 Si / 1000 Ang^3
#
#
#
# Elastic Constant Matrix: (Units=GPa)
#
#
# Indices 1 2 3 4 5 6 
#
# 1 56.8874 -16.0062 7.4898 0.0000 0.0000 0.0000
# 2 -16.0062 74.0009 47.1531 0.0000 0.0000 0.0000
# 3 7.4898 47.1531 105.5727 0.0000 0.0000 0.0000
# 4 0.0000 0.0000 0.0000 21.9483 0.0000 0.0000
# 5 0.0000 0.0000 0.0000 0.0000 15.8506 0.0000
# 6 0.0000 0.0000 0.0000 0.0000 0.0000 21.1307
#
#
#
# Elastic Compliance Matrix: (Units=1/GPa)
#
#
# Indices 1 2 3 4 5 6 
#
# 1 0.020291 0.007417 -0.004752 0.000000 0.000000 0.000000
# 2 0.007417 0.021600 -0.010174 0.000000 0.000000 0.000000
# 3 -0.004752 -0.010174 0.014353 0.000000 0.000000 0.000000
# 4 0.000000 0.000000 0.000000 0.045562 0.000000 0.000000
# 5 0.000000 0.000000 0.000000 0.000000 0.063089 0.000000
# 6 0.000000 0.000000 0.000000 0.000000 0.000000 0.047325
#
#
# Mechanical properties :
#
#
# Convention : Reuss Voigt Hill
#
# Bulk Modulus (GPa) = 24.25608 34.85938 29.55773
# Shear Modulus (GPa) = 20.74857 24.97420 22.86139
#
# Velocity S-wave (km/s) = 3.03904 3.33418 3.19002
# Velocity P-wave (km/s) = 4.80744 5.50810 5.16966
#
# Compressibility (1/GPa) = 0.04122678
#
# Stress axis : x y z
#
# Youngs Moduli (GPa) = 49.28249 46.29560 69.67030
#
# Poissons Ratio (x) = -0.34338 0.33109
# Poissons Ratio (y) = -0.36553 0.70881
# Poissons Ratio (z) = 0.23421 0.47100
#
# Static dielectric constant tensor:
#      x y z
#    x 1.926680 0.000000 0.000000 
#    y 0.000000 1.864980 0.000000 
#    z 0.000000 0.000000 1.808710 
# 
# From -- ./inp_files/18947.got.cif
#   From: 2010.05.17/outbox.cif.g08.bks.cpg/sg55_10_cif.got.tgz:18947.got - 2010.06.03 13:27:54.
