data_PCOD9428112
_publ_section_title
;
Structure prediction by ZEFSAII (Michael W. Deem and Ramdas Pophale) SiO2 
 PCOD9428112
Probable space group: P B A M
;
_chemical_formula_sum "Si O2"
_cell_formula_units_Z 56
_cell_length_a 5.049801
_cell_length_b 33.795992
_cell_length_c 13.606816
_cell_angle_alpha 90.000000
_cell_angle_beta 90.000000
_cell_angle_gamma 90.000000
_cell_volume 2322.180504
_symmetry_space_group_name_H-M "P B A M"
_symmetry_group_IT_number 55
_symmetry_cell_setting 'orthorhombic'
loop_
_space_group_symop_operation_xyz
x,y,z
-x,-y,z
1/2+x,1/2-y,-z
1/2-x,1/2+y,-z
-x,-y,-z
x,y,-z
1/2-x,1/2+y,z
1/2+x,1/2-y,z
loop_
_atom_site_type_symbol
_atom_site_label
_atom_site_fract_x
_atom_site_fract_y
_atom_site_fract_z
Si Si1 0.812669 0.903071 0.883005
Si Si2 0.803776 0.646041 0.881696
Si Si3 0.250682 0.025843 0.253361
Si Si4 0.488201 0.357791 0.380399
Si Si5 0.734939 0.726609 0.619695
Si Si6 0.012394 0.594041 0.382404
Si Si7 0.435322 0.227131 0.880274
O O1 0.515149 0.888554 0.863546
O O2 0.855925 0.944246 0.829394
O O3 0.016988 0.868938 0.849339
O O4 0.845460 0.907291 0.000000
O O5 0.934141 0.686530 0.845351
O O6 0.782156 0.651225 0.000000
O O7 0.377809 0.054053 0.336179
O O8 0.500000 0.000000 0.216751
O O9 0.000000 0.000000 0.287408
O O10 0.485856 0.356064 0.500000
O O11 0.381135 0.315341 0.347414
O O12 0.782475 0.371071 0.353980
O O13 0.279182 0.391962 0.352436
O O14 0.737886 0.725304 0.500000
O O15 0.530835 0.761353 0.648508
O O16 0.014882 0.590506 0.500000
O O17 0.136992 0.237669 0.852815
O O18 0.430432 0.225236 0.000000
#
# Coordination Sequence:
#
# PCOD9428112 Si02
#       7
#     8   8   8   8   8   8   8
#     4  10  21  38  59  83 112 146 183 224 271 327
#     4   9  17  31  52  79 112 150 190 226 267 323
#     4  12  26  42  62  88 112 138 178 224 280 344
#     4   9  17  31  52  79 112 150 190 226 267 323
#     4   9  15  23  40  72 111 145 182 229 269 304
#     4  10  21  38  59  83 112 146 183 224 271 327
#     4   9  15  23  40  72 111 145 182 229 269 304
#
# _framework density 24.115265999999998
#
# number of rings (size 3 to 8) (size 9 to 14) (size 15 to 20)
#    0.000    2.286    0.000    3.429    0.000    8.000 
#    0.000    0.000    0.000    0.000    0.000   20.000 
#    0.000    0.000    0.000    0.000    0.000    0.000 
#
# Total GULP energy -313571.329910 kJ/mol
# GULP energy per Si atom -5599.488034 kJ/mol
# Density = 2.406038 g / cm^3
# Si number density = 24.115266 Si / 1000 Ang^3
#
#
#
# Elastic Constant Matrix: (Units=GPa)
#
#
# Indices 1 2 3 4 5 6 
#
# 1 62.2819 -11.3628 -7.4511 0.0000 0.0000 0.0000
# 2 -11.3628 76.7760 0.7582 0.0000 0.0000 0.0000
# 3 -7.4511 0.7582 88.6669 0.0000 0.0000 0.0000
# 4 0.0000 0.0000 0.0000 23.0595 0.0000 0.0000
# 5 0.0000 0.0000 0.0000 0.0000 29.6104 0.0000
# 6 0.0000 0.0000 0.0000 0.0000 0.0000 36.2820
#
#
#
# Elastic Compliance Matrix: (Units=1/GPa)
#
#
# Indices 1 2 3 4 5 6 
#
# 1 0.016669 0.002453 0.001380 0.000000 0.000000 0.000000
# 2 0.002453 0.013387 0.000092 0.000000 0.000000 0.000000
# 3 0.001380 0.000092 0.011393 0.000000 0.000000 0.000000
# 4 0.000000 0.000000 0.000000 0.043366 0.000000 0.000000
# 5 0.000000 0.000000 0.000000 0.000000 0.033772 0.000000
# 6 0.000000 0.000000 0.000000 0.000000 0.000000 0.027562
#
#
# Mechanical properties :
#
#
# Convention : Reuss Voigt Hill
#
# Bulk Modulus (GPa) = 20.28449 21.29035 20.78742
# Shear Modulus (GPa) = 32.31385 34.17573 33.24479
#
# Velocity S-wave (km/s) = 3.66454 3.76863 3.71695
# Velocity P-wave (km/s) = 5.13175 5.27110 5.20189
#
# Compressibility (1/GPa) = 0.04929875
#
# Stress axis : x y z
#
# Youngs Moduli (GPa) = 59.99269 74.69878 87.77068
#
# Poissons Ratio (x) = -0.18326 -0.12110
# Poissons Ratio (y) = -0.14718 -0.00805
# Poissons Ratio (z) = -0.08278 -0.00685
#
# Static dielectric constant tensor:
#      x y z
#    x 1.845170 0.000000 0.000000 
#    y 0.000000 1.893090 0.000000 
#    z 0.000000 0.000000 2.000990 
# 
# From -- ./inp_files/16763.got.cif
#   From: 2010.05.17/outbox.cif.g08.bks.cpg/sg55_9_cif.got.tgz:16763.got - 2010.06.03 13:27:54.
