data_PCOD9428694
_publ_section_title
;
Structure prediction by ZEFSAII (Michael W. Deem and Ramdas Pophale) SiO2 
 PCOD9428694
Probable space group: P B A M
;
_chemical_formula_sum "Si O2"
_cell_formula_units_Z 48
_cell_length_a 17.171008
_cell_length_b 9.331771
_cell_length_c 14.426041
_cell_angle_alpha 90.000000
_cell_angle_beta 90.000000
_cell_angle_gamma 90.000000
_cell_volume 2311.569872
_symmetry_space_group_name_H-M "P B A M"
_symmetry_group_IT_number 55
_symmetry_cell_setting 'orthorhombic'
loop_
_space_group_symop_operation_xyz
x,y,z
-x,-y,z
1/2+x,1/2-y,-z
1/2-x,1/2+y,-z
-x,-y,-z
x,y,-z
1/2-x,1/2+y,z
1/2+x,1/2-y,z
loop_
_atom_site_type_symbol
_atom_site_label
_atom_site_fract_x
_atom_site_fract_y
_atom_site_fract_z
Si Si1 0.420704 0.429226 0.892592
Si Si2 0.825921 0.781577 0.106543
Si Si3 0.118108 0.894199 0.607651
Si Si4 0.061864 0.206308 0.391570
Si Si5 0.326979 0.218398 0.229499
Si Si6 0.415847 0.928955 0.229695
O O1 0.500000 0.500000 0.856512
O O2 0.357702 0.556442 0.890095
O O3 0.392679 0.298455 0.831568
O O4 0.433058 0.387007 0.000000
O O5 0.752245 0.769136 0.173026
O O6 0.890961 0.673654 0.145317
O O7 0.805880 0.747376 0.000000
O O8 0.140489 0.885146 0.500000
O O9 0.173298 0.804605 0.674415
O O10 0.030214 0.830903 0.615970
O O11 0.109164 0.061601 0.633238
O O12 0.076656 0.239050 0.500000
O O13 0.081178 0.332290 0.321718
O O14 0.353239 0.055387 0.241109
O O15 0.500000 0.000000 0.215500
#
# Coordination Sequence:
#
# PCOD9428694 Si02
#       6
#     8   8   8   8   8   8
#     4  10  22  41  65  89 118 168 224 265 306 381
#     4  11  26  46  64  89 129 173 215 263 332 399
#     4   9  19  37  65  96 130 175 220 260 309 382
#     4   9  19  38  64  96 132 170 216 265 317 377
#     4  12  23  37  64  93 131 171 211 265 328 388
#     4  12  24  39  64 102 134 163 213 277 335 376
#
# _framework density 20.765108000000001
#
# number of rings (size 3 to 8) (size 9 to 14) (size 15 to 20)
#    0.000    1.500    1.667    4.500    2.333    4.000 
#    0.000    0.833    0.000    3.000    0.000    0.000 
#    0.000    0.000    0.000    0.000    0.000    0.000 
#
# Total GULP energy -268651.235623 kJ/mol
# GULP energy per Si atom -5596.900742 kJ/mol
# Density = 2.071785 g / cm^3
# Si number density = 20.765108 Si / 1000 Ang^3
#
#
#
# Elastic Constant Matrix: (Units=GPa)
#
#
# Indices 1 2 3 4 5 6 
#
# 1 44.0979 21.0315 35.7720 0.0000 0.0000 0.0000
# 2 21.0315 116.6884 66.4214 0.0000 0.0000 0.0000
# 3 35.7720 66.4214 113.5337 0.0000 0.0000 0.0000
# 4 0.0000 0.0000 0.0000 26.2676 0.0000 0.0000
# 5 0.0000 0.0000 0.0000 0.0000 25.2789 0.0000
# 6 0.0000 0.0000 0.0000 0.0000 0.0000 16.3216
#
#
#
# Elastic Compliance Matrix: (Units=1/GPa)
#
#
# Indices 1 2 3 4 5 6 
#
# 1 0.030463 -0.000041 -0.009574 0.000000 0.000000 0.000000
# 2 -0.000041 0.012849 -0.007504 0.000000 0.000000 0.000000
# 3 -0.009574 -0.007504 0.016215 0.000000 0.000000 0.000000
# 4 0.000000 0.000000 0.000000 0.038070 0.000000 0.000000
# 5 0.000000 0.000000 0.000000 0.000000 0.039559 0.000000
# 6 0.000000 0.000000 0.000000 0.000000 0.000000 0.061268
#
#
# Mechanical properties :
#
#
# Convention : Reuss Voigt Hill
#
# Bulk Modulus (GPa) = 39.54432 57.86331 48.70382
# Shear Modulus (GPa) = 20.73905 23.64663 22.19284
#
# Velocity S-wave (km/s) = 3.16372 3.37822 3.27273
# Velocity P-wave (km/s) = 5.69478 6.56831 6.14708
#
# Compressibility (1/GPa) = 0.02528808
#
# Stress axis : x y z
#
# Youngs Moduli (GPa) = 32.82681 77.82902 61.67167
#
# Poissons Ratio (x) = 0.00315 0.59047
# Poissons Ratio (y) = 0.00133 0.46280
# Poissons Ratio (z) = 0.31430 0.58404
#
# Static dielectric constant tensor:
#      x y z
#    x 1.751690 0.000000 0.000000 
#    y 0.000000 1.718280 0.000000 
#    z 0.000000 0.000000 1.733090 
# 
# From -- ./inp_files/19339.got.cif
#   From: 2010.05.17/outbox.cif.g08.bks.cpg/sg55_10_cif.got.tgz:19339.got - 2010.06.03 13:27:54.
