data_PCOD9428469
_publ_section_title
;
Structure prediction by ZEFSAII (Michael W. Deem and Ramdas Pophale) SiO2 
 PCOD9428469
Probable space group: P B A M
;
_chemical_formula_sum "Si O2"
_cell_formula_units_Z 48
_cell_length_a 7.531061
_cell_length_b 36.944680
_cell_length_c 7.428570
_cell_angle_alpha 90.000000
_cell_angle_beta 90.000000
_cell_angle_gamma 90.000000
_cell_volume 2066.870633
_symmetry_space_group_name_H-M "P B A M"
_symmetry_group_IT_number 55
_symmetry_cell_setting 'orthorhombic'
loop_
_space_group_symop_operation_xyz
x,y,z
-x,-y,z
1/2+x,1/2-y,-z
1/2-x,1/2+y,-z
-x,-y,-z
x,y,-z
1/2-x,1/2+y,z
1/2+x,1/2-y,z
loop_
_atom_site_type_symbol
_atom_site_label
_atom_site_fract_x
_atom_site_fract_y
_atom_site_fract_z
Si Si1 0.365792 0.030892 0.780270
Si Si2 0.953960 0.664897 0.792080
Si Si3 0.483563 0.562462 0.781516
Si Si4 0.057974 0.198327 0.500000
Si Si5 0.127184 0.143916 0.793568
Si Si6 0.853581 0.587810 0.780792
Si Si7 0.971852 0.280397 0.500000
O O1 0.162494 0.033616 0.719007
O O2 0.465014 0.068095 0.731731
O O3 0.500000 0.000000 0.718129
O O4 0.360708 0.028273 0.000000
O O5 0.849306 0.629480 0.723497
O O6 0.938010 0.700444 0.671732
O O7 0.161761 0.652232 0.785896
O O8 0.909403 0.671861 0.000000
O O9 0.411682 0.602748 0.738616
O O10 0.686804 0.563717 0.721005
O O11 0.488604 0.559153 0.000000
O O12 0.028065 0.173171 0.672306
O O13 0.970684 0.237365 0.500000
O O14 0.268010 0.207246 0.500000
O O15 0.069859 0.147185 0.000000
O O16 0.850453 0.588888 0.000000
#
# Coordination Sequence:
#
# PCOD9428469 Si02
#       7
#     8   8   8   4   8   8   4
#     4   9  16  26  42  69 109 147 178 227 281 318
#     4   9  17  33  54  73 101 141 180 222 269 319
#     4   9  16  27  46  72 100 137 186 226 264 323
#     4  10  22  36  52  78 108 137 174 219 271 331
#     4   9  17  33  54  73 101 141 180 222 269 319
#     4   9  16  27  46  72 100 137 186 226 264 323
#     4  10  22  36  52  78 108 137 174 219 271 331
#
# _framework density 23.223514000000002
#
# number of rings (size 3 to 8) (size 9 to 14) (size 15 to 20)
#    0.000    2.833    1.667    0.000    0.000    2.667 
#    0.000    3.333    0.000    0.000    0.000    2.333 
#    0.000    2.667    0.000    0.333    0.000    0.000 
#
# Total GULP energy -268143.696817 kJ/mol
# GULP energy per Si atom -5586.327017 kJ/mol
# Density = 2.317066 g / cm^3
# Si number density = 23.223514 Si / 1000 Ang^3
#
#
#
# Elastic Constant Matrix: (Units=GPa)
#
#
# Indices 1 2 3 4 5 6 
#
# 1 79.4578 -1.0744 -1.0121 0.0000 0.0000 0.0000
# 2 -1.0744 44.3079 11.2982 0.0000 0.0000 0.0000
# 3 -1.0121 11.2982 68.1086 0.0000 0.0000 0.0000
# 4 0.0000 0.0000 0.0000 28.0701 0.0000 0.0000
# 5 0.0000 0.0000 0.0000 0.0000 -3.2612 0.0000
# 6 0.0000 0.0000 0.0000 0.0000 0.0000 30.5443
#
#
#
# Elastic Compliance Matrix: (Units=1/GPa)
#
#
# Indices 1 2 3 4 5 6 
#
# 1 0.012591 0.000269 0.000142 0.000000 0.000000 0.000000
# 2 0.000269 0.023572 -0.003906 0.000000 0.000000 0.000000
# 3 0.000142 -0.003906 0.015333 0.000000 0.000000 0.000000
# 4 0.000000 0.000000 0.000000 0.035625 0.000000 0.000000
# 5 0.000000 0.000000 0.000000 0.000000 -0.306635 0.000000
# 6 0.000000 0.000000 0.000000 0.000000 0.000000 0.032739
#
#
# Mechanical properties :
#
#
# Convention : Reuss Voigt Hill
#
# Bulk Modulus (GPa) = 22.46905 23.36641 22.91773
# Shear Modulus (GPa) = -30.31205 23.24813 -3.53196
#
# Velocity S-wave (km/s) = -3.61672 3.16739 -1.23457
# Velocity P-wave (km/s) = 2.78294 4.84353 2.80313
#
# Compressibility (1/GPa) = 0.04450566
#
# Stress axis : x y z
#
# Youngs Moduli (GPa) = 79.42338 42.42330 65.22078
#
# Poissons Ratio (x) = -0.01141 -0.00929
# Poissons Ratio (y) = -0.02136 0.25477
# Poissons Ratio (z) = -0.01132 0.16572
#
# Static dielectric constant tensor:
#      x y z
#    x 1.901620 0.000000 0.000000 
#    y 0.000000 1.842390 0.000000 
#    z 0.000000 0.000000 1.883100 
# 
# From -- ./inp_files/2921.got.cif
#   From: 2010.05.17/outbox.cif.g08.bks.cpg/sg55_2_cif.got.tgz:2921.got - 2010.06.03 13:27:54.
