data_PCOD9428473
_publ_section_title
;
Structure prediction by ZEFSAII (Michael W. Deem and Ramdas Pophale) SiO2 
 PCOD9428473
Probable space group: P B A M
;
_chemical_formula_sum "Si O2"
_cell_formula_units_Z 40
_cell_length_a 8.164538
_cell_length_b 15.878227
_cell_length_c 15.202434
_cell_angle_alpha 90.000000
_cell_angle_beta 90.000000
_cell_angle_gamma 90.000000
_cell_volume 1970.819033
_symmetry_space_group_name_H-M "P B A M"
_symmetry_group_IT_number 55
_symmetry_cell_setting 'orthorhombic'
loop_
_space_group_symop_operation_xyz
x,y,z
-x,-y,z
1/2+x,1/2-y,-z
1/2-x,1/2+y,-z
-x,-y,-z
x,y,-z
1/2-x,1/2+y,z
1/2+x,1/2-y,z
loop_
_atom_site_type_symbol
_atom_site_label
_atom_site_fract_x
_atom_site_fract_y
_atom_site_fract_z
Si Si1 0.522366 0.353185 0.500000
Si Si2 0.000000 0.500000 0.344788
Si Si3 0.918304 0.662208 0.754454
Si Si4 0.820669 0.544847 0.102125
Si Si5 0.000000 0.000000 0.215122
Si Si6 0.250676 0.499314 0.500000
Si Si7 0.936169 0.174179 0.310279
O O1 0.389615 0.428837 0.500000
O O2 0.690186 0.404438 0.500000
O O3 0.497657 0.306183 0.591459
O O4 0.018181 0.583183 0.285536
O O5 0.850245 0.512004 0.411012
O O6 0.853596 0.633353 0.849353
O O7 0.758732 0.670818 0.693622
O O8 0.010525 0.749753 0.752326
O O9 0.667433 0.504702 0.156673
O O10 0.000000 0.500000 0.106041
O O11 0.775166 0.550967 0.000000
O O12 0.999280 0.916139 0.275645
#
# Coordination Sequence:
#
# PCOD9428473 Si02
#       7
#     4   4   8   8   4   4   8
#     4  11  22  38  58  92 129 165 233 260 314 386
#     4  11  22  42  61  88 128 172 215 272 322 375
#     4  11  25  42  64  94 131 169 221 263 335 395
#     4  10  22  42  72  99 126 168 213 270 333 396
#     4  10  23  45  68  96 136 174 220 269 333 388
#     4  10  22  36  64  87 121 171 221 270 317 371
#     4  11  26  40  66  94 129 181 213 272 324 384
#
# _framework density 20.296130999999999
#
# number of rings (size 3 to 8) (size 9 to 14) (size 15 to 20)
#    0.000    1.400    3.000    1.500    8.400    2.400 
#    0.000    5.000    0.000    0.000    0.000    0.000 
#    0.000    0.000    0.000    0.000    0.000    0.000 
#
# Total GULP energy -223302.652866 kJ/mol
# GULP energy per Si atom -5582.566322 kJ/mol
# Density = 2.024994 g / cm^3
# Si number density = 20.296131 Si / 1000 Ang^3
#
#
#
# Elastic Constant Matrix: (Units=GPa)
#
#
# Indices 1 2 3 4 5 6 
#
# 1 68.6073 25.4971 24.4018 0.0000 0.0000 0.0000
# 2 25.4971 106.4158 21.0394 0.0000 0.0000 0.0000
# 3 24.4018 21.0394 109.5665 0.0000 0.0000 0.0000
# 4 0.0000 0.0000 0.0000 20.2056 0.0000 0.0000
# 5 0.0000 0.0000 0.0000 0.0000 31.7580 0.0000
# 6 0.0000 0.0000 0.0000 0.0000 0.0000 26.6061
#
#
#
# Elastic Compliance Matrix: (Units=1/GPa)
#
#
# Indices 1 2 3 4 5 6 
#
# 1 0.016966 -0.003449 -0.003116 0.000000 0.000000 0.000000
# 2 -0.003449 0.010469 -0.001242 0.000000 0.000000 0.000000
# 3 -0.003116 -0.001242 0.010059 0.000000 0.000000 0.000000
# 4 0.000000 0.000000 0.000000 0.049491 0.000000 0.000000
# 5 0.000000 0.000000 0.000000 0.000000 0.031488 0.000000
# 6 0.000000 0.000000 0.000000 0.000000 0.000000 0.037585
#
#
# Mechanical properties :
#
#
# Convention : Reuss Voigt Hill
#
# Bulk Modulus (GPa) = 45.70455 47.38515 46.54485
# Shear Modulus (GPa) = 27.93813 29.95735 28.94774
#
# Velocity S-wave (km/s) = 3.71418 3.84606 3.78069
# Velocity P-wave (km/s) = 6.40010 6.56662 6.48389
#
# Compressibility (1/GPa) = 0.02187966
#
# Stress axis : x y z
#
# Youngs Moduli (GPa) = 58.94212 95.51967 99.40922
#
# Poissons Ratio (x) = 0.32944 0.30978
# Poissons Ratio (y) = 0.20328 0.12349
# Poissons Ratio (z) = 0.18368 0.11865
#
# Static dielectric constant tensor:
#      x y z
#    x 1.759490 0.000000 0.000000 
#    y 0.000000 1.719360 0.000000 
#    z 0.000000 0.000000 1.725700 
# 
# From -- ./inp_files/17151.got.cif
#   From: 2010.05.17/outbox.cif.g08.bks.cpg/sg55_9_cif.got.tgz:17151.got - 2010.06.03 13:27:54.
