data_PCOD9428804
_publ_section_title
;
Structure prediction by ZEFSAII (Michael W. Deem and Ramdas Pophale) SiO2 
 PCOD9428804
Probable space group: P B A M
;
_chemical_formula_sum "Si O2"
_cell_formula_units_Z 48
_cell_length_a 7.485151
_cell_length_b 15.141234
_cell_length_c 21.351282
_cell_angle_alpha 90.000000
_cell_angle_beta 90.000000
_cell_angle_gamma 90.000000
_cell_volume 2419.835222
_symmetry_space_group_name_H-M "P B A M"
_symmetry_group_IT_number 55
_symmetry_cell_setting 'orthorhombic'
loop_
_space_group_symop_operation_xyz
x,y,z
-x,-y,z
1/2+x,1/2-y,-z
1/2-x,1/2+y,-z
-x,-y,-z
x,y,-z
1/2-x,1/2+y,z
1/2+x,1/2-y,z
loop_
_atom_site_type_symbol
_atom_site_label
_atom_site_fract_x
_atom_site_fract_y
_atom_site_fract_z
Si Si1 0.793617 0.522970 0.592635
Si Si2 0.222668 0.157114 0.823264
Si Si3 0.146402 0.329388 0.500000
Si Si4 0.273270 0.623776 0.500000
Si Si5 0.285980 0.500415 0.263451
Si Si6 0.199055 0.853260 0.835024
Si Si7 0.005087 0.393901 0.928914
O O1 0.765413 0.617837 0.558999
O O2 0.689438 0.441698 0.558969
O O3 0.771098 0.521870 0.666740
O O4 0.000000 0.500000 0.580352
O O5 0.250899 0.258723 0.806896
O O6 0.350523 0.138006 0.882064
O O7 0.015157 0.140236 0.840898
O O8 0.271532 0.094072 0.765243
O O9 0.149334 0.222908 0.500000
O O10 0.937567 0.353589 0.500000
O O11 0.500000 0.500000 0.264783
O O12 0.232339 0.428340 0.211974
O O13 0.306488 0.863720 0.899515
O O14 0.000000 0.500000 0.929209
O O15 0.981586 0.362144 0.000000
#
# Coordination Sequence:
#
# PCOD9428804 Si02
#       7
#     8   8   4   4   8   8   8
#     4   9  20  36  58  82 113 159 196 235 295 355
#     4  11  23  41  62  89 124 160 202 256 306 362
#     4   9  19  37  56  84 118 151 195 241 290 349
#     4   9  19  37  56  84 118 151 195 241 290 349
#     4  10  23  39  59  87 120 153 204 249 294 360
#     4  11  23  41  62  89 124 160 202 256 306 362
#     4  11  24  42  66  91 119 161 207 245 311 374
#
# _framework density 19.836061000000001
#
# number of rings (size 3 to 8) (size 9 to 14) (size 15 to 20)
#    0.000    1.833    3.333    1.000    2.333    4.000 
#    0.000   10.000    0.000    0.000    0.000    0.000 
#    0.000    0.000    0.000    0.000    0.000    0.000 
#
# Total GULP energy -267818.874427 kJ/mol
# GULP energy per Si atom -5579.559884 kJ/mol
# Density = 1.979091 g / cm^3
# Si number density = 19.836061 Si / 1000 Ang^3
#
#
#
# Elastic Constant Matrix: (Units=GPa)
#
#
# Indices 1 2 3 4 5 6 
#
# 1 65.4572 -10.1493 5.8738 0.0000 0.0000 0.0000
# 2 -10.1493 92.6963 5.2235 0.0000 0.0000 0.0000
# 3 5.8738 5.2235 93.7612 0.0000 0.0000 0.0000
# 4 0.0000 0.0000 0.0000 -98.2727 0.0000 0.0000
# 5 0.0000 0.0000 0.0000 0.0000 41.8372 0.0000
# 6 0.0000 0.0000 0.0000 0.0000 0.0000 24.4474
#
#
#
# Elastic Compliance Matrix: (Units=1/GPa)
#
#
# Indices 1 2 3 4 5 6 
#
# 1 0.015649 0.001774 -0.001079 0.000000 0.000000 0.000000
# 2 0.001774 0.011023 -0.000725 0.000000 0.000000 0.000000
# 3 -0.001079 -0.000725 0.010773 0.000000 0.000000 0.000000
# 4 0.000000 0.000000 0.000000 -0.010176 0.000000 0.000000
# 5 0.000000 0.000000 0.000000 0.000000 0.023902 0.000000
# 6 0.000000 0.000000 0.000000 0.000000 0.000000 0.040904
#
#
# Mechanical properties :
#
#
# Convention : Reuss Voigt Hill
#
# Bulk Modulus (GPa) = 26.74864 28.20120 27.47492
# Shear Modulus (GPa) = 47.80198 10.33351 29.06774
#
# Velocity S-wave (km/s) = 4.91435 2.28490 3.83221
# Velocity P-wave (km/s) = 6.76131 4.60533 5.78465
#
# Compressibility (1/GPa) = 0.03738508
#
# Stress axis : x y z
#
# Youngs Moduli (GPa) = 63.90148 90.71906 92.82116
#
# Poissons Ratio (x) = -0.16096 0.10017
# Poissons Ratio (y) = -0.11338 0.06732
# Poissons Ratio (z) = 0.06896 0.06579
#
# Static dielectric constant tensor:
#      x y z
#    x 1.739400 0.000000 0.000000 
#    y 0.000000 1.717910 0.000000 
#    z 0.000000 0.000000 1.682090 
# 
# From -- ./inp_files/20851.got.cif
#   From: 2010.05.17/outbox.cif.g08.bks.cpg/sg55_11_cif.got.tgz:20851.got - 2010.06.03 13:27:54.
