data_PCOD9428441
_publ_section_title
;
Structure prediction by ZEFSAII (Michael W. Deem and Ramdas Pophale) SiO2 
 PCOD9428441
Probable space group: P B A M
;
_chemical_formula_sum "Si O2"
_cell_formula_units_Z 58
_cell_length_a 24.875539
_cell_length_b 12.935016
_cell_length_c 7.465813
_cell_angle_alpha 90.000000
_cell_angle_beta 90.000000
_cell_angle_gamma 90.000000
_cell_volume 2402.241015
_symmetry_space_group_name_H-M "P B A M"
_symmetry_group_IT_number 55
_symmetry_cell_setting 'orthorhombic'
loop_
_space_group_symop_operation_xyz
x,y,z
-x,-y,z
1/2+x,1/2-y,-z
1/2-x,1/2+y,-z
-x,-y,-z
x,y,-z
1/2-x,1/2+y,z
1/2+x,1/2-y,z
loop_
_atom_site_type_symbol
_atom_site_label
_atom_site_fract_x
_atom_site_fract_y
_atom_site_fract_z
Si Si1 0.484477 0.163370 0.282437
Si Si2 0.454371 0.642688 0.715166
Si Si3 0.719981 0.771996 0.283124
Si Si4 0.314514 0.436142 0.698362
Si Si5 0.084049 0.480114 0.284071
Si Si6 0.835879 0.834841 0.283125
Si Si7 0.500000 0.500000 0.000000
Si Si8 0.201955 0.493002 0.799604
O O1 0.483653 0.164855 0.500000
O O2 0.497015 0.280221 0.229147
O O3 0.433492 0.095793 0.224624
O O4 0.536415 0.095864 0.228140
O O5 0.456663 0.622671 0.500000
O O6 0.396859 0.697988 0.751420
O O7 0.460071 0.544890 0.840902
O O8 0.719395 0.764232 0.500000
O O9 0.683647 0.677023 0.215763
O O10 0.782709 0.774313 0.220366
O O11 0.698039 0.884500 0.235293
O O12 0.339953 0.431614 0.500000
O O13 0.331840 0.545346 0.779861
O O14 0.249844 0.449998 0.681412
O O15 0.084545 0.479863 0.500000
O O16 0.142985 0.448679 0.225866
O O17 0.830329 0.837346 0.500000
O O18 0.220572 0.475299 0.000000
#
# Coordination Sequence:
#
# PCOD9428441 Si02
#       8
#     8   8   8   8   8   8   2   8
#     4   8  17  35  62  87 109 145 196 248 298 342
#     4  10  21  42  64  87 118 153 201 256 299 356
#     4   9  18  35  58  82 107 145 195 237 278 339
#     4   9  18  35  58  82 108 146 195 240 281 339
#     4   9  17  35  59  84 112 149 195 240 289 353
#     4   8  16  33  57  83 110 142 184 237 293 341
#     4  12  26  44  60  92 112 156 202 240 308 354
#     4  11  22  34  48  81 121 154 182 224 294 350
#
# _framework density 24.144121999999999
#
# number of rings (size 3 to 8) (size 9 to 14) (size 15 to 20)
#    0.000    2.759    0.000    3.103    1.931    0.552 
#    9.931    0.690    0.000    0.000    0.000    0.000 
#    0.000    0.000    0.000    0.000    0.000    0.000 
#
# Total GULP energy -323046.679109 kJ/mol
# GULP energy per Si atom -5569.770329 kJ/mol
# Density = 2.408917 g / cm^3
# Si number density = 24.144122 Si / 1000 Ang^3
#
#
#
# Elastic Constant Matrix: (Units=GPa)
#
#
# Indices 1 2 3 4 5 6 
#
# 1 55.1093 -18.7356 4.9505 0.0000 0.0000 0.0000
# 2 -18.7356 48.3032 0.0565 0.0000 0.0000 0.0000
# 3 4.9505 0.0565 100.2010 0.0000 0.0000 0.0000
# 4 0.0000 0.0000 0.0000 8.9613 0.0000 0.0000
# 5 0.0000 0.0000 0.0000 0.0000 50.8647 0.0000
# 6 0.0000 0.0000 0.0000 0.0000 0.0000 24.4959
#
#
#
# Elastic Compliance Matrix: (Units=1/GPa)
#
#
# Indices 1 2 3 4 5 6 
#
# 1 0.021010 0.008151 -0.001043 0.000000 0.000000 0.000000
# 2 0.008151 0.023864 -0.000416 0.000000 0.000000 0.000000
# 3 -0.001043 -0.000416 0.010032 0.000000 0.000000 0.000000
# 4 0.000000 0.000000 0.000000 0.111591 0.000000 0.000000
# 5 0.000000 0.000000 0.000000 0.000000 0.019660 0.000000
# 6 0.000000 0.000000 0.000000 0.000000 0.000000 0.040823
#
#
# Mechanical properties :
#
#
# Convention : Reuss Voigt Hill
#
# Bulk Modulus (GPa) = 14.64337 19.57291 17.10814
# Shear Modulus (GPa) = 21.15409 31.35383 26.25396
#
# Velocity S-wave (km/s) = 2.96321 3.60753 3.30113
# Velocity P-wave (km/s) = 4.21730 5.04745 4.65093
#
# Compressibility (1/GPa) = 0.06829031
#
# Stress axis : x y z
#
# Youngs Moduli (GPa) = 47.59544 41.90329 99.68409
#
# Poissons Ratio (x) = -0.34154 0.10393
# Poissons Ratio (y) = -0.38793 0.04148
# Poissons Ratio (z) = 0.04962 0.01744
#
# Static dielectric constant tensor:
#      x y z
#    x 1.907680 0.000000 0.000000 
#    y 0.000000 1.995700 0.000000 
#    z 0.000000 0.000000 1.944880 
# 
# From -- ./inp_files/9620.got.cif
#   From: 2010.05.17/outbox.cif.g08.bks.cpg/sg55_5_cif.got.tgz:9620.got - 2010.06.03 13:27:54.
