data_PCOD9428919
_publ_section_title
;
Structure prediction by ZEFSAII (Michael W. Deem and Ramdas Pophale) SiO2 
 PCOD9428919
Probable space group: P B A M
;
_chemical_formula_sum "Si O2"
_cell_formula_units_Z 40
_cell_length_a 9.913150
_cell_length_b 24.757813
_cell_length_c 7.761692
_cell_angle_alpha 90.000000
_cell_angle_beta 90.000000
_cell_angle_gamma 90.000000
_cell_volume 1904.935876
_symmetry_space_group_name_H-M "P B A M"
_symmetry_group_IT_number 55
_symmetry_cell_setting 'orthorhombic'
loop_
_space_group_symop_operation_xyz
x,y,z
-x,-y,z
1/2+x,1/2-y,-z
1/2-x,1/2+y,-z
-x,-y,-z
x,y,-z
1/2-x,1/2+y,z
1/2+x,1/2-y,z
loop_
_atom_site_type_symbol
_atom_site_label
_atom_site_fract_x
_atom_site_fract_y
_atom_site_fract_z
Si Si1 0.039672 0.138791 0.800980
Si Si2 0.417746 0.186203 0.500000
Si Si3 0.702280 0.467026 0.801891
Si Si4 0.973042 0.415888 0.697172
Si Si5 0.379481 0.719413 0.500000
Si Si6 0.225535 0.914622 0.301137
O O1 0.119579 0.084951 0.739197
O O2 0.073739 0.186114 0.668692
O O3 0.882731 0.122666 0.791548
O O4 0.077821 0.149761 0.000000
O O5 0.421331 0.145172 0.337378
O O6 0.548584 0.223147 0.500000
O O7 0.282238 0.220633 0.500000
O O8 0.859410 0.450432 0.789044
O O9 0.678953 0.523074 0.706755
O O10 0.664133 0.475944 0.000000
O O11 0.985239 0.437650 0.500000
O O12 0.122643 0.414276 0.772400
O O13 0.233178 0.896916 0.500000
#
# Coordination Sequence:
#
# PCOD9428919 Si02
#       6
#     8   4   8   8   4   8
#     4  11  24  42  63  95 131 165 213 259 310 380
#     4  10  24  42  73  91 118 158 215 265 325 380
#     4  11  22  37  58  90 132 174 211 255 310 377
#     4   9  20  40  58  90 122 163 208 259 310 376
#     4  12  24  46  73  91 120 166 203 269 333 364
#     4  11  22  34  62  93 132 169 216 247 307 373
#
# _framework density 20.998080999999999
#
# number of rings (size 3 to 8) (size 9 to 14) (size 15 to 20)
#    0.600    0.800    3.000    2.400    4.200    6.400 
#    0.000    2.000    0.000    0.000    0.000    0.000 
#    0.000    0.000    0.000    0.000    0.000    0.000 
#
# Total GULP energy -223445.183647 kJ/mol
# GULP energy per Si atom -5586.129591 kJ/mol
# Density = 2.095029 g / cm^3
# Si number density = 20.998081 Si / 1000 Ang^3
#
#
#
# Elastic Constant Matrix: (Units=GPa)
#
#
# Indices 1 2 3 4 5 6 
#
# 1 73.0814 2.2672 -9.2323 0.0000 0.0000 0.0000
# 2 2.2672 46.3404 6.1558 0.0000 0.0000 0.0000
# 3 -9.2323 6.1558 54.2875 0.0000 0.0000 0.0000
# 4 0.0000 0.0000 0.0000 -20.2429 0.0000 0.0000
# 5 0.0000 0.0000 0.0000 0.0000 34.5234 0.0000
# 6 0.0000 0.0000 0.0000 0.0000 0.0000 37.9874
#
#
#
# Elastic Compliance Matrix: (Units=1/GPa)
#
#
# Indices 1 2 3 4 5 6 
#
# 1 0.014031 -0.001019 0.002502 0.000000 0.000000 0.000000
# 2 -0.001019 0.021983 -0.002666 0.000000 0.000000 0.000000
# 3 0.002502 -0.002666 0.019148 0.000000 0.000000 0.000000
# 4 0.000000 0.000000 0.000000 -0.049400 0.000000 0.000000
# 5 0.000000 0.000000 0.000000 0.000000 0.028966 0.000000
# 6 0.000000 0.000000 0.000000 0.000000 0.000000 0.026325
#
#
# Mechanical properties :
#
#
# Convention : Reuss Voigt Hill
#
# Bulk Modulus (GPa) = 18.94071 19.12122 19.03096
# Shear Modulus (GPa) = 61.71468 22.08816 41.90142
#
# Velocity S-wave (km/s) = 5.42719 3.24684 4.47193
# Velocity P-wave (km/s) = 6.95071 4.81476 5.97889
#
# Compressibility (1/GPa) = 0.05279633
#
# Stress axis : x y z
#
# Youngs Moduli (GPa) = 71.27071 45.48878 52.22426
#
# Poissons Ratio (x) = 0.04634 -0.13065
# Poissons Ratio (y) = 0.07261 0.13923
# Poissons Ratio (z) = -0.17830 0.12127
#
# Static dielectric constant tensor:
#      x y z
#    x 1.790180 0.000000 0.000000 
#    y 0.000000 1.728210 0.000000 
#    z 0.000000 0.000000 1.728890 
# 
# From -- ./inp_files/2641.got.cif
#   From: 2010.05.17/outbox.cif.g08.bks.cpg/sg55_2_cif.got.tgz:2641.got - 2010.06.03 13:27:54.
