data_PCOD9428824
_publ_section_title
;
Structure prediction by ZEFSAII (Michael W. Deem and Ramdas Pophale) SiO2 
 PCOD9428824
Probable space group: P B A M
;
_chemical_formula_sum "Si O2"
_cell_formula_units_Z 48
_cell_length_a 15.242387
_cell_length_b 11.115218
_cell_length_c 14.219933
_cell_angle_alpha 90.000000
_cell_angle_beta 90.000000
_cell_angle_gamma 90.000000
_cell_volume 2409.175949
_symmetry_space_group_name_H-M "P B A M"
_symmetry_group_IT_number 55
_symmetry_cell_setting 'orthorhombic'
loop_
_space_group_symop_operation_xyz
x,y,z
-x,-y,z
1/2+x,1/2-y,-z
1/2-x,1/2+y,-z
-x,-y,-z
x,y,-z
1/2-x,1/2+y,z
1/2+x,1/2-y,z
loop_
_atom_site_type_symbol
_atom_site_label
_atom_site_fract_x
_atom_site_fract_y
_atom_site_fract_z
Si Si1 0.703043 0.262768 0.891925
Si Si2 0.101119 0.029402 0.807901
Si Si3 0.377690 0.265758 0.199028
Si Si4 0.815097 0.216993 0.603970
Si Si5 0.678975 0.439372 0.606458
Si Si6 0.461320 0.870560 0.886604
O O1 0.637172 0.373999 0.879714
O O2 0.790061 0.299933 0.835807
O O3 0.638920 0.155593 0.855779
O O4 0.727102 0.241185 0.000000
O O5 0.146389 0.902205 0.827241
O O6 0.119217 0.068356 0.699635
O O7 0.000000 0.000000 0.818449
O O8 0.382407 0.263319 0.311452
O O9 0.467098 0.221524 0.153880
O O10 0.854410 0.226504 0.500000
O O11 0.744310 0.324850 0.611739
O O12 0.781853 0.077206 0.612460
O O13 0.639512 0.433676 0.500000
O O14 0.500000 0.000000 0.860092
O O15 0.460662 0.861608 0.000000
#
# Coordination Sequence:
#
# PCOD9428824 Si02
#       6
#     8   8   8   8   8   8
#     4  11  24  39  58  86 116 154 202 242 290 351
#     4  11  22  39  59  87 120 151 195 246 298 351
#     4  11  22  39  63  84 116 157 195 240 298 356
#     4   9  18  33  57  87 116 150 193 243 292 350
#     4   9  18  34  57  85 118 153 194 243 296 354
#     4  10  23  41  59  84 118 155 196 244 294 347
#
# _framework density 19.923825000000001
#
# number of rings (size 3 to 8) (size 9 to 14) (size 15 to 20)
#    0.000    1.833    3.333    0.500    2.333    2.000 
#    0.000    0.000    0.000    1.500    0.000    0.000 
#    0.000    0.000    0.000    0.000    0.000    0.000 
#
# Total GULP energy -267220.440505 kJ/mol
# GULP energy per Si atom -5567.092511 kJ/mol
# Density = 1.987848 g / cm^3
# Si number density = 19.923825 Si / 1000 Ang^3
#
#
#
# Elastic Constant Matrix: (Units=GPa)
#
#
# Indices 1 2 3 4 5 6 
#
# 1 54.9075 -9.5644 6.8282 0.0000 0.0000 0.0000
# 2 -9.5644 49.8231 0.7979 0.0000 0.0000 0.0000
# 3 6.8282 0.7979 38.2183 0.0000 0.0000 0.0000
# 4 0.0000 0.0000 0.0000 25.5848 0.0000 0.0000
# 5 0.0000 0.0000 0.0000 0.0000 4.6420 0.0000
# 6 0.0000 0.0000 0.0000 0.0000 0.0000 22.3724
#
#
#
# Elastic Compliance Matrix: (Units=1/GPa)
#
#
# Indices 1 2 3 4 5 6 
#
# 1 0.019307 0.003763 -0.003528 0.000000 0.000000 0.000000
# 2 0.003763 0.020811 -0.001107 0.000000 0.000000 0.000000
# 3 -0.003528 -0.001107 0.026819 0.000000 0.000000 0.000000
# 4 0.000000 0.000000 0.000000 0.039086 0.000000 0.000000
# 5 0.000000 0.000000 0.000000 0.000000 0.215424 0.000000
# 6 0.000000 0.000000 0.000000 0.000000 0.000000 0.044698
#
#
# Mechanical properties :
#
#
# Convention : Reuss Voigt Hill
#
# Bulk Modulus (GPa) = 15.33915 15.45248 15.39581
# Shear Modulus (GPa) = 12.83304 20.17900 16.50602
#
# Velocity S-wave (km/s) = 2.54068 3.18592 2.88141
# Velocity P-wave (km/s) = 4.04009 4.61585 4.33753
#
# Compressibility (1/GPa) = 0.06519266
#
# Stress axis : x y z
#
# Youngs Moduli (GPa) = 51.79571 48.05136 37.28718
#
# Poissons Ratio (x) = -0.18081 0.13155
# Poissons Ratio (y) = -0.19489 0.04127
# Poissons Ratio (z) = 0.18273 0.05318
#
# Static dielectric constant tensor:
#      x y z
#    x 1.728780 0.000000 0.000000 
#    y 0.000000 1.805390 0.000000 
#    z 0.000000 0.000000 1.703280 
# 
# From -- ./inp_files/18256.got.cif
#   From: 2010.05.17/outbox.cif.g08.bks.cpg/sg55_10_cif.got.tgz:18256.got - 2010.06.03 13:27:54.
