data_PCOD9428500
_publ_section_title
;
Structure prediction by ZEFSAII (Michael W. Deem and Ramdas Pophale) SiO2 
 PCOD9428500
Probable space group: P B A M
;
_chemical_formula_sum "Si O2"
_cell_formula_units_Z 32
_cell_length_a 10.002153
_cell_length_b 18.196985
_cell_length_c 8.517705
_cell_angle_alpha 90.000000
_cell_angle_beta 90.000000
_cell_angle_gamma 90.000000
_cell_volume 1550.299209
_symmetry_space_group_name_H-M "P B A M"
_symmetry_group_IT_number 55
_symmetry_cell_setting 'orthorhombic'
loop_
_space_group_symop_operation_xyz
x,y,z
-x,-y,z
1/2+x,1/2-y,-z
1/2-x,1/2+y,-z
-x,-y,-z
x,y,-z
1/2-x,1/2+y,z
1/2+x,1/2-y,z
loop_
_atom_site_type_symbol
_atom_site_label
_atom_site_fract_x
_atom_site_fract_y
_atom_site_fract_z
Si Si1 0.758640 0.306330 0.821244
Si Si2 0.598594 0.567354 0.500000
Si Si3 0.512043 0.911941 0.823798
Si Si4 0.526061 0.705503 0.326544
Si Si5 0.904464 0.571298 0.500000
O O1 0.629175 0.293934 0.716471
O O2 0.836578 0.383581 0.798762
O O3 0.875208 0.247413 0.788488
O O4 0.713057 0.301987 0.000000
O O5 0.500000 0.500000 0.500000
O O6 0.569462 0.621015 0.352545
O O7 0.752273 0.546043 0.500000
O O8 0.433123 0.888069 0.666157
O O9 0.500000 0.000000 0.829917
O O10 0.471354 0.884657 0.000000
O O11 0.546731 0.739384 0.500000
O O12 0.000000 0.500000 0.500000
#
# Coordination Sequence:
#
# PCOD9428500 Si02
#       5
#     8   4   8   8   4
#     4  11  23  42  64  94 132 173 218 275 336 404
#     4  10  26  43  63  99 134 170 224 280 332 409
#     4   9  21  37  62  96 128 165 225 277 325 397
#     4  10  25  40  67  91 133 171 220 271 333 398
#     4  10  22  37  71  93 123 172 217 270 341 393
#
# _framework density 20.641178
#
# number of rings (size 3 to 8) (size 9 to 14) (size 15 to 20)
#    0.750    1.250    0.000    1.500   14.000    0.000 
#    0.000    1.250    0.000    3.750    0.000    0.000 
#    0.000    0.000    0.000    0.000    0.000    0.000 
#
# Total GULP energy -178386.689149 kJ/mol
# GULP energy per Si atom -5574.584036 kJ/mol
# Density = 2.059420 g / cm^3
# Si number density = 20.641178 Si / 1000 Ang^3
#
#
#
# Elastic Constant Matrix: (Units=GPa)
#
#
# Indices 1 2 3 4 5 6 
#
# 1 130.7396 29.2948 15.5246 0.0000 0.0000 0.0000
# 2 29.2948 82.9710 -9.1688 0.0000 0.0000 0.0000
# 3 15.5246 -9.1688 106.8659 0.0000 0.0000 0.0000
# 4 0.0000 0.0000 0.0000 18.3925 0.0000 0.0000
# 5 0.0000 0.0000 0.0000 0.0000 4.4613 0.0000
# 6 0.0000 0.0000 0.0000 0.0000 0.0000 27.3858
#
#
#
# Elastic Compliance Matrix: (Units=1/GPa)
#
#
# Indices 1 2 3 4 5 6 
#
# 1 0.008542 -0.003183 -0.001514 0.000000 0.000000 0.000000
# 2 -0.003183 0.013354 0.001608 0.000000 0.000000 0.000000
# 3 -0.001514 0.001608 0.009715 0.000000 0.000000 0.000000
# 4 0.000000 0.000000 0.000000 0.054370 0.000000 0.000000
# 5 0.000000 0.000000 0.000000 0.000000 0.224150 0.000000
# 6 0.000000 0.000000 0.000000 0.000000 0.000000 0.036515
#
#
# Mechanical properties :
#
#
# Convention : Reuss Voigt Hill
#
# Bulk Modulus (GPa) = 39.31864 43.54198 41.43031
# Shear Modulus (GPa) = 13.83883 29.04298 21.44091
#
# Velocity S-wave (km/s) = 2.59211 3.75512 3.22645
# Velocity P-wave (km/s) = 5.29610 6.31995 5.83054
#
# Compressibility (1/GPa) = 0.02543323
#
# Stress axis : x y z
#
# Youngs Moduli (GPa) = 117.07096 74.88388 102.92897
#
# Poissons Ratio (x) = 0.23837 0.15583
# Poissons Ratio (y) = 0.37266 -0.16553
# Poissons Ratio (z) = 0.17725 -0.12043
#
# Static dielectric constant tensor:
#      x y z
#    x 1.661280 0.000000 0.000000 
#    y 0.000000 1.801330 0.000000 
#    z 0.000000 0.000000 1.784200 
# 
# From -- ./inp_files/2244.got.cif
#   From: 2010.05.17/outbox.cif.g08.bks.cpg/sg55_2_cif.got.tgz:2244.got - 2010.06.03 13:27:54.
