data_PCOD9428407
_publ_section_title
;
Structure prediction by ZEFSAII (Michael W. Deem and Ramdas Pophale) SiO2 
 PCOD9428407
Probable space group: P B A M
;
_chemical_formula_sum "Si O2"
_cell_formula_units_Z 48
_cell_length_a 8.897580
_cell_length_b 13.663947
_cell_length_c 17.879915
_cell_angle_alpha 90.000000
_cell_angle_beta 90.000000
_cell_angle_gamma 90.000000
_cell_volume 2173.769647
_symmetry_space_group_name_H-M "P B A M"
_symmetry_group_IT_number 55
_symmetry_cell_setting 'orthorhombic'
loop_
_space_group_symop_operation_xyz
x,y,z
-x,-y,z
1/2+x,1/2-y,-z
1/2-x,1/2+y,-z
-x,-y,-z
x,y,-z
1/2-x,1/2+y,z
1/2+x,1/2-y,z
loop_
_atom_site_type_symbol
_atom_site_label
_atom_site_fract_x
_atom_site_fract_y
_atom_site_fract_z
Si Si1 0.297018 0.005366 0.854952
Si Si2 0.959664 0.661145 0.913759
Si Si3 0.860579 0.209216 0.586813
Si Si4 0.559721 0.345818 0.193656
Si Si5 0.718994 0.572219 0.708647
Si Si6 0.675814 0.357521 0.346780
O O1 0.409879 0.086952 0.886781
O O2 0.141106 0.063520 0.847016
O O3 0.311445 0.907401 0.904187
O O4 0.334599 0.964844 0.771393
O O5 0.960299 0.755790 0.861596
O O6 0.979863 0.687379 0.000000
O O7 0.832712 0.192623 0.500000
O O8 0.751865 0.147191 0.641966
O O9 0.821426 0.319779 0.610061
O O10 0.028599 0.177397 0.608482
O O11 0.412090 0.380646 0.238892
O O12 0.670285 0.315859 0.261974
O O13 0.669785 0.473172 0.666691
#
# Coordination Sequence:
#
# PCOD9428407 Si02
#       6
#     8   8   8   8   8   8
#     4  10  21  41  62  89 126 160 210 267 312 389
#     4  11  25  40  63  95 128 167 206 267 343 383
#     4  11  22  38  62  95 132 168 210 271 330 387
#     4  10  22  40  69  93 120 167 224 260 314 393
#     4  10  23  42  67  95 119 170 225 265 316 390
#     4  10  22  39  65  92 126 168 222 264 322 386
#
# _framework density 22.081455999999999
#
# number of rings (size 3 to 8) (size 9 to 14) (size 15 to 20)
#    0.000    1.667    0.000    7.000   11.667    3.333 
#    0.000    0.833    0.000   11.000    0.000    0.000 
#    0.000    0.000    0.000    0.000    0.000    0.000 
#
# Total GULP energy -267849.832546 kJ/mol
# GULP energy per Si atom -5580.204845 kJ/mol
# Density = 2.203120 g / cm^3
# Si number density = 22.081456 Si / 1000 Ang^3
#
#
#
# Elastic Constant Matrix: (Units=GPa)
#
#
# Indices 1 2 3 4 5 6 
#
# 1 36.1528 31.3253 24.0089 0.0000 0.0000 0.0000
# 2 31.3253 133.7018 79.3021 0.0000 0.0000 0.0000
# 3 24.0089 79.3021 147.3158 0.0000 0.0000 0.0000
# 4 0.0000 0.0000 0.0000 14.8468 0.0000 0.0000
# 5 0.0000 0.0000 0.0000 0.0000 28.7225 0.0000
# 6 0.0000 0.0000 0.0000 0.0000 0.0000 26.7874
#
#
#
# Elastic Compliance Matrix: (Units=1/GPa)
#
#
# Indices 1 2 3 4 5 6 
#
# 1 0.035064 -0.007089 -0.001898 0.000000 0.000000 0.000000
# 2 -0.007089 0.012421 -0.005531 0.000000 0.000000 0.000000
# 3 -0.001898 -0.005531 0.010075 0.000000 0.000000 0.000000
# 4 0.000000 0.000000 0.000000 0.067354 0.000000 0.000000
# 5 0.000000 0.000000 0.000000 0.000000 0.034816 0.000000
# 6 0.000000 0.000000 0.000000 0.000000 0.000000 0.037331
#
#
# Mechanical properties :
#
#
# Convention : Reuss Voigt Hill
#
# Bulk Modulus (GPa) = 35.06013 65.16033 50.11023
# Shear Modulus (GPa) = 21.22197 26.24029 23.73113
#
# Velocity S-wave (km/s) = 3.10349 3.45097 3.28183
# Velocity P-wave (km/s) = 5.36230 6.74182 6.09124
#
# Compressibility (1/GPa) = 0.02852243
#
# Stress axis : x y z
#
# Youngs Moduli (GPa) = 28.51965 80.51008 99.25668
#
# Poissons Ratio (x) = 0.57075 0.18842
# Poissons Ratio (y) = 0.20218 0.54898
# Poissons Ratio (z) = 0.05414 0.44530
#
# Static dielectric constant tensor:
#      x y z
#    x 1.919970 0.000000 0.000000 
#    y 0.000000 1.858650 0.000000 
#    z 0.000000 0.000000 1.798710 
# 
# From -- ./inp_files/20765.got.cif
#   From: 2010.05.17/outbox.cif.g08.bks.cpg/sg55_11_cif.got.tgz:20765.got - 2010.06.03 13:27:54.
