data_PCOD9428224
_publ_section_title
;
Structure prediction by ZEFSAII (Michael W. Deem and Ramdas Pophale) SiO2 
 PCOD9428224
Probable space group: P B A M
;
_chemical_formula_sum "Si O2"
_cell_formula_units_Z 56
_cell_length_a 14.566934
_cell_length_b 12.076551
_cell_length_c 14.489298
_cell_angle_alpha 90.000000
_cell_angle_beta 90.000000
_cell_angle_gamma 90.000000
_cell_volume 2548.932982
_symmetry_space_group_name_H-M "P B A M"
_symmetry_group_IT_number 55
_symmetry_cell_setting 'orthorhombic'
loop_
_space_group_symop_operation_xyz
x,y,z
-x,-y,z
1/2+x,1/2-y,-z
1/2-x,1/2+y,-z
-x,-y,-z
x,y,-z
1/2-x,1/2+y,z
1/2+x,1/2-y,z
loop_
_atom_site_type_symbol
_atom_site_label
_atom_site_fract_x
_atom_site_fract_y
_atom_site_fract_z
Si Si1 0.766700 0.147414 0.825978
Si Si2 0.537381 0.210769 0.601071
Si Si3 0.666689 0.027281 0.669515
Si Si4 0.351070 0.565210 0.398876
Si Si5 0.599007 0.463112 0.194218
Si Si6 0.581936 0.826726 0.775826
Si Si7 0.086166 0.270113 0.895824
O O1 0.837436 0.248676 0.814651
O O2 0.681333 0.164732 0.892476
O O3 0.721356 0.120611 0.726755
O O4 0.824524 0.039112 0.851358
O O5 0.492999 0.214166 0.500000
O O6 0.613441 0.308303 0.603220
O O7 0.465005 0.224896 0.683559
O O8 0.589287 0.093843 0.614792
O O9 0.742236 0.957184 0.613048
O O10 0.621525 0.943646 0.742811
O O11 0.378883 0.519809 0.500000
O O12 0.393169 0.516911 0.304509
O O13 0.500000 0.500000 0.161823
O O14 0.608046 0.336090 0.167843
O O15 0.499258 0.832279 0.849038
O O16 0.063253 0.237370 0.000000
#
# Coordination Sequence:
#
# PCOD9428224 Si02
#       7
#     8   8   8   8   8   8   8
#     4  11  23  44  72  96 135 179 219 282 346 402
#     4  11  22  39  65  98 139 183 230 273 330 407
#     4  11  22  39  68  95 138 181 225 274 339 406
#     4  10  21  38  64 101 140 179 228 276 326 401
#     4  11  21  44  72  97 139 182 225 277 344 405
#     4  12  24  45  68  96 137 175 221 285 347 394
#     4  12  27  47  71 103 134 174 233 285 347 413
#
# _framework density 21.969977
#
# number of rings (size 3 to 8) (size 9 to 14) (size 15 to 20)
#    0.000    0.857    4.286    3.429    0.000    3.429 
#    0.000    6.429    0.000    0.000    0.000    0.000 
#    0.000    0.000    0.000    0.000    0.000    0.000 
#
# Total GULP energy -312902.606816 kJ/mol
# GULP energy per Si atom -5587.546550 kJ/mol
# Density = 2.191997 g / cm^3
# Si number density = 21.969977 Si / 1000 Ang^3
#
#
#
# Elastic Constant Matrix: (Units=GPa)
#
#
# Indices 1 2 3 4 5 6 
#
# 1 110.7473 24.1026 27.9616 0.0000 0.0000 0.0000
# 2 24.1026 50.0842 -9.5010 0.0000 0.0000 0.0000
# 3 27.9616 -9.5010 88.7855 0.0000 0.0000 0.0000
# 4 0.0000 0.0000 0.0000 26.7025 0.0000 0.0000
# 5 0.0000 0.0000 0.0000 0.0000 3.7352 0.0000
# 6 0.0000 0.0000 0.0000 0.0000 0.0000 27.3045
#
#
#
# Elastic Compliance Matrix: (Units=1/GPa)
#
#
# Indices 1 2 3 4 5 6 
#
# 1 0.011497 -0.006349 -0.004300 0.000000 0.000000 0.000000
# 2 -0.006349 0.023886 0.004555 0.000000 0.000000 0.000000
# 3 -0.004300 0.004555 0.013105 0.000000 0.000000 0.000000
# 4 0.000000 0.000000 0.000000 0.037450 0.000000 0.000000
# 5 0.000000 0.000000 0.000000 0.000000 0.267721 0.000000
# 6 0.000000 0.000000 0.000000 0.000000 0.000000 0.036624
#
#
# Mechanical properties :
#
#
# Convention : Reuss Voigt Hill
#
# Bulk Modulus (GPa) = 27.54748 37.19371 32.37060
# Shear Modulus (GPa) = 12.06070 25.35202 18.70636
#
# Velocity S-wave (km/s) = 2.34554 3.40065 2.92113
# Velocity P-wave (km/s) = 4.46109 5.69081 5.11305
#
# Compressibility (1/GPa) = 0.03630095
#
# Stress axis : x y z
#
# Youngs Moduli (GPa) = 86.97966 41.86601 76.30761
#
# Poissons Ratio (x) = 0.26579 0.32813
# Poissons Ratio (y) = 0.55219 -0.34761
# Poissons Ratio (z) = 0.37403 -0.19072
#
# Static dielectric constant tensor:
#      x y z
#    x 1.852390 0.000000 0.000000 
#    y 0.000000 1.355490 0.000000 
#    z 0.000000 0.000000 1.807810 
# 
# From -- ./inp_files/18976.got.cif
#   From: 2010.05.17/outbox.cif.g08.bks.cpg/sg55_10_cif.got.tgz:18976.got - 2010.06.03 13:27:54.
