data_PCOD9428052
_publ_section_title
;
Structure prediction by ZEFSAII (Michael W. Deem and Ramdas Pophale) SiO2 
 PCOD9428052
Probable space group: P B A M
;
_chemical_formula_sum "Si O2"
_cell_formula_units_Z 58
_cell_length_a 17.214995
_cell_length_b 18.553010
_cell_length_c 9.876077
_cell_angle_alpha 90.000000
_cell_angle_beta 90.000000
_cell_angle_gamma 90.000000
_cell_volume 3154.319980
_symmetry_space_group_name_H-M "P B A M"
_symmetry_group_IT_number 55
_symmetry_cell_setting 'orthorhombic'
loop_
_space_group_symop_operation_xyz
x,y,z
-x,-y,z
1/2+x,1/2-y,-z
1/2-x,1/2+y,-z
-x,-y,-z
x,y,-z
1/2-x,1/2+y,z
1/2+x,1/2-y,z
loop_
_atom_site_type_symbol
_atom_site_label
_atom_site_fract_x
_atom_site_fract_y
_atom_site_fract_z
Si Si1 0.014718 0.420064 0.664131
Si Si2 0.311336 0.873878 0.663432
Si Si3 0.946970 0.166776 0.849424
Si Si4 0.405455 0.586210 0.259853
Si Si5 0.396460 0.203407 0.663871
Si Si6 0.310939 0.451460 0.847381
Si Si7 0.218470 0.208836 0.337572
Si Si8 0.000000 0.000000 0.500000
O O1 0.011193 0.422529 0.500000
O O2 0.100526 0.393537 0.697553
O O3 0.000000 0.500000 0.716388
O O4 0.949091 0.363868 0.705310
O O5 0.300442 0.878815 0.500000
O O6 0.253126 0.927998 0.738324
O O7 0.297378 0.791105 0.706862
O O8 0.931420 0.226110 0.735033
O O9 0.877184 0.109693 0.841156
O O10 0.026302 0.123398 0.825996
O O11 0.946750 0.199481 0.000000
O O12 0.353850 0.525959 0.185806
O O13 0.346040 0.650583 0.297968
O O14 0.450041 0.544904 0.382012
O O15 0.399697 0.212158 0.500000
O O16 0.306847 0.191240 0.703945
O O17 0.278840 0.452873 0.000000
O O18 0.217771 0.210522 0.500000
#
# Coordination Sequence:
#
# PCOD9428052 Si02
#       8
#     8   8   8   8   8   8   8   2
#     4   9  19  36  59  89 119 157 199 248 311 364
#     4  10  21  38  62  90 119 157 204 257 302 361
#     4  11  23  41  62  86 125 169 204 245 307 380
#     4  12  24  39  63  96 132 162 203 257 318 382
#     4  10  21  38  64  92 121 158 205 258 307 366
#     4  11  24  41  60  88 128 166 201 248 311 374
#     4  10  21  37  60  96 126 154 201 259 315 363
#     4  12  24  36  58 104 132 158 200 262 304 370
#
# _framework density 18.387483
#
# number of rings (size 3 to 8) (size 9 to 14) (size 15 to 20)
#    0.000    1.517    3.448    1.241    3.862    2.207 
#    0.000    4.828    0.000    0.828    0.000    0.000 
#    0.000    0.000    0.000    0.000    0.000    0.000 
#
# Total GULP energy -323105.282794 kJ/mol
# GULP energy per Si atom -5570.780738 kJ/mol
# Density = 1.834563 g / cm^3
# Si number density = 18.387483 Si / 1000 Ang^3
#
#
#
# Elastic Constant Matrix: (Units=GPa)
#
#
# Indices 1 2 3 4 5 6 
#
# 1 128.1228 43.3745 32.3695 0.0000 0.0000 0.0000
# 2 43.3745 58.9780 21.1958 0.0000 0.0000 0.0000
# 3 32.3695 21.1958 50.2665 0.0000 0.0000 0.0000
# 4 0.0000 0.0000 0.0000 5.7790 0.0000 0.0000
# 5 0.0000 0.0000 0.0000 0.0000 11.2796 0.0000
# 6 0.0000 0.0000 0.0000 0.0000 0.0000 44.5601
#
#
#
# Elastic Compliance Matrix: (Units=1/GPa)
#
#
# Indices 1 2 3 4 5 6 
#
# 1 0.011158 -0.006628 -0.004390 0.000000 0.000000 0.000000
# 2 -0.006628 0.023921 -0.005818 0.000000 0.000000 0.000000
# 3 -0.004390 -0.005818 0.025175 0.000000 0.000000 0.000000
# 4 0.000000 0.000000 0.000000 0.173040 0.000000 0.000000
# 5 0.000000 0.000000 0.000000 0.000000 0.088656 0.000000
# 6 0.000000 0.000000 0.000000 0.000000 0.000000 0.022442
#
#
# Mechanical properties :
#
#
# Convention : Reuss Voigt Hill
#
# Bulk Modulus (GPa) = 37.62275 47.91631 42.76953
# Shear Modulus (GPa) = 12.92238 21.68558 17.30398
#
# Velocity S-wave (km/s) = 2.65388 3.43792 3.07102
# Velocity P-wave (km/s) = 5.46775 6.47107 5.99045
#
# Compressibility (1/GPa) = 0.02657966
#
# Stress axis : x y z
#
# Youngs Moduli (GPa) = 89.62067 41.80397 39.72242
#
# Poissons Ratio (x) = 0.27709 0.17440
# Poissons Ratio (y) = 0.59403 0.23112
# Poissons Ratio (z) = 0.39348 0.24324
#
# Static dielectric constant tensor:
#      x y z
#    x 1.619230 0.000000 0.000000 
#    y 0.000000 1.625460 0.000000 
#    z 0.000000 0.000000 1.624440 
# 
# From -- ./inp_files/7749.got.cif
#   From: 2010.05.17/outbox.cif.g08.bks.cpg/sg55_4_cif.got.tgz:7749.got - 2010.06.03 13:27:54.
