data_PCOD9428871
_publ_section_title
;
Structure prediction by ZEFSAII (Michael W. Deem and Ramdas Pophale) SiO2 
 PCOD9428871
Probable space group: P B A M
;
_chemical_formula_sum "Si O2"
_cell_formula_units_Z 34
_cell_length_a 20.442858
_cell_length_b 9.409055
_cell_length_c 7.665095
_cell_angle_alpha 90.000000
_cell_angle_beta 90.000000
_cell_angle_gamma 90.000000
_cell_volume 1474.365504
_symmetry_space_group_name_H-M "P B A M"
_symmetry_group_IT_number 55
_symmetry_cell_setting 'orthorhombic'
loop_
_space_group_symop_operation_xyz
x,y,z
-x,-y,z
1/2+x,1/2-y,-z
1/2-x,1/2+y,-z
-x,-y,-z
x,y,-z
1/2-x,1/2+y,z
1/2+x,1/2-y,z
loop_
_atom_site_type_symbol
_atom_site_label
_atom_site_fract_x
_atom_site_fract_y
_atom_site_fract_z
Si Si1 0.695579 0.003108 0.799678
Si Si2 0.184041 0.179684 0.300710
Si Si3 0.934593 0.348437 0.202647
Si Si4 0.500000 0.000000 0.500000
Si Si5 0.074568 0.968225 0.288931
O O1 0.699784 0.172215 0.789763
O O2 0.753833 0.924533 0.702088
O O3 0.624410 0.951915 0.737725
O O4 0.700471 0.956099 0.000000
O O5 0.168050 0.218287 0.500000
O O6 0.123683 0.089979 0.225450
O O7 0.909034 0.187764 0.219475
O O8 0.990504 0.378625 0.343850
O O9 0.951738 0.374200 0.000000
O O10 0.079781 0.963983 0.500000
O O11 0.000000 0.000000 0.240440
#
# Coordination Sequence:
#
# PCOD9428871 Si02
#       5
#     8   8   8   2   8
#     4  11  25  44  67  98 137 174 224 284 341 401
#     4  11  24  40  70 100 132 179 231 277 338 410
#     4  11  26  44  70 102 135 182 230 277 341 409
#     4  12  26  44  74  94 148 176 222 288 332 406
#     4  10  23  43  67  98 138 183 227 280 342 403
#
# _framework density 23.060770000000002
#
# number of rings (size 3 to 8) (size 9 to 14) (size 15 to 20)
#    0.000    1.176    1.176    3.176    6.588    6.118 
#    0.000    0.000    0.000    0.000    0.000    0.000 
#    0.000    0.000    0.000    0.000    0.000    0.000 
#
# Total GULP energy -189768.534263 kJ/mol
# GULP energy per Si atom -5581.427478 kJ/mol
# Density = 2.300828 g / cm^3
# Si number density = 23.060770 Si / 1000 Ang^3
#
#
#
# Elastic Constant Matrix: (Units=GPa)
#
#
# Indices 1 2 3 4 5 6 
#
# 1 83.3196 41.6454 17.1418 0.0000 0.0000 0.0000
# 2 41.6454 144.6057 3.1419 0.0000 0.0000 0.0000
# 3 17.1418 3.1419 89.1588 0.0000 0.0000 0.0000
# 4 0.0000 0.0000 0.0000 22.7600 0.0000 0.0000
# 5 0.0000 0.0000 0.0000 0.0000 -1.8709 0.0000
# 6 0.0000 0.0000 0.0000 0.0000 0.0000 44.2627
#
#
#
# Elastic Compliance Matrix: (Units=1/GPa)
#
#
# Indices 1 2 3 4 5 6 
#
# 1 0.014627 -0.004155 -0.002666 0.000000 0.000000 0.000000
# 2 -0.004155 0.008101 0.000513 0.000000 0.000000 0.000000
# 3 -0.002666 0.000513 0.011710 0.000000 0.000000 0.000000
# 4 0.000000 0.000000 0.000000 0.043937 0.000000 0.000000
# 5 0.000000 0.000000 0.000000 0.000000 -0.534502 0.000000
# 6 0.000000 0.000000 0.000000 0.000000 0.000000 0.022592
#
#
# Mechanical properties :
#
#
# Convention : Reuss Voigt Hill
#
# Bulk Modulus (GPa) = 45.82122 48.99359 47.40741
# Shear Modulus (GPa) = -12.08762 30.04070 8.97654
#
# Velocity S-wave (km/s) = -2.29195 3.61318 1.97510
# Velocity P-wave (km/s) = 3.59289 6.22079 5.07972
#
# Compressibility (1/GPa) = 0.02182395
#
# Stress axis : x y z
#
# Youngs Moduli (GPa) = 68.36680 123.44639 85.39430
#
# Poissons Ratio (x) = 0.51286 0.22764
# Poissons Ratio (y) = 0.28403 -0.04383
# Poissons Ratio (z) = 0.18225 -0.06337
#
# Static dielectric constant tensor:
#      x y z
#    x 1.925580 0.000000 0.000000 
#    y 0.000000 1.831910 0.000000 
#    z 0.000000 0.000000 1.843160 
# 
# From -- ./inp_files/2113.got.cif
#   From: 2010.05.17/outbox.cif.g08.bks.cpg/sg55_2_cif.got.tgz:2113.got - 2010.06.03 13:27:54.
