data_PCOD9428890
_publ_section_title
;
Structure prediction by ZEFSAII (Michael W. Deem and Ramdas Pophale) SiO2 
 PCOD9428890
Probable space group: P B A M
;
_chemical_formula_sum "Si O2"
_cell_formula_units_Z 40
_cell_length_a 22.271930
_cell_length_b 7.840797
_cell_length_c 9.545563
_cell_angle_alpha 90.000000
_cell_angle_beta 90.000000
_cell_angle_gamma 90.000000
_cell_volume 1666.938631
_symmetry_space_group_name_H-M "P B A M"
_symmetry_group_IT_number 55
_symmetry_cell_setting 'orthorhombic'
loop_
_space_group_symop_operation_xyz
x,y,z
-x,-y,z
1/2+x,1/2-y,-z
1/2-x,1/2+y,-z
-x,-y,-z
x,y,-z
1/2-x,1/2+y,z
1/2+x,1/2-y,z
loop_
_atom_site_type_symbol
_atom_site_label
_atom_site_fract_x
_atom_site_fract_y
_atom_site_fract_z
Si Si1 0.246716 0.629835 0.658859
Si Si2 0.565328 0.543350 0.778294
Si Si3 0.933117 0.426341 0.162284
Si Si4 0.618678 0.218815 0.347671
Si Si5 0.806299 0.122953 0.152756
O O1 0.236513 0.565580 0.500000
O O2 0.311753 0.722802 0.653894
O O3 0.256393 0.503870 0.788488
O O4 0.193765 0.748525 0.715173
O O5 0.500000 0.500000 0.841664
O O6 0.563303 0.747358 0.754095
O O7 0.577835 0.389837 0.669136
O O8 0.629296 0.533061 0.856877
O O9 0.894482 0.576580 0.231734
O O10 0.000000 0.500000 0.157247
O O11 0.914366 0.389700 0.000000
O O12 0.605418 0.142969 0.500000
O O13 0.790332 0.191231 0.000000
#
# Coordination Sequence:
#
# PCOD9428890 Si02
#       5
#     8   8   8   8   8
#     4  10  23  45  67  93 133 177 221 277 351 416
#     4  11  24  46  68 103 142 187 228 287 349 417
#     4  11  24  41  67 101 136 181 228 279 346 413
#     4  10  24  46  70  99 133 180 232 286 345 411
#     4  11  24  41  69 103 133 175 231 288 339 408
#
# _framework density 23.996085000000001
#
# number of rings (size 3 to 8) (size 9 to 14) (size 15 to 20)
#    0.000    1.400    2.000    1.800    2.800    8.800 
#    0.000    0.000    0.000    0.000    0.000    0.000 
#    0.000    0.000    0.000    0.000    0.000    0.000 
#
# Total GULP energy -222763.233939 kJ/mol
# GULP energy per Si atom -5569.080848 kJ/mol
# Density = 2.394147 g / cm^3
# Si number density = 23.996085 Si / 1000 Ang^3
#
#
#
# Elastic Constant Matrix: (Units=GPa)
#
#
# Indices 1 2 3 4 5 6 
#
# 1 91.4085 28.2180 49.2504 0.0000 0.0000 0.0000
# 2 28.2180 112.1203 33.1807 0.0000 0.0000 0.0000
# 3 49.2504 33.1807 120.7687 0.0000 0.0000 0.0000
# 4 0.0000 0.0000 0.0000 -41.1844 0.0000 0.0000
# 5 0.0000 0.0000 0.0000 0.0000 5.1858 0.0000
# 6 0.0000 0.0000 0.0000 0.0000 0.0000 51.5478
#
#
#
# Elastic Compliance Matrix: (Units=1/GPa)
#
#
# Indices 1 2 3 4 5 6 
#
# 1 0.014445 -0.002060 -0.005325 0.000000 0.000000 0.000000
# 2 -0.002060 0.010002 -0.001908 0.000000 0.000000 0.000000
# 3 -0.005325 -0.001908 0.010976 0.000000 0.000000 0.000000
# 4 0.000000 0.000000 0.000000 -0.024281 0.000000 0.000000
# 5 0.000000 0.000000 0.000000 0.000000 0.192835 0.000000
# 6 0.000000 0.000000 0.000000 0.000000 0.000000 0.019399
#
#
# Mechanical properties :
#
#
# Convention : Reuss Voigt Hill
#
# Bulk Modulus (GPa) = 59.39023 60.62174 60.00598
# Shear Modulus (GPa) = 20.19599 17.35307 18.77453
#
# Velocity S-wave (km/s) = 2.90425 2.69209 2.80018
# Velocity P-wave (km/s) = 6.00416 5.91448 5.95949
#
# Compressibility (1/GPa) = 0.01683779
#
# Stress axis : x y z
#
# Youngs Moduli (GPa) = 69.22973 99.97982 91.10771
#
# Poissons Ratio (x) = 0.20592 0.48513
# Poissons Ratio (y) = 0.14258 0.17384
# Poissons Ratio (z) = 0.36863 0.19077
#
# Static dielectric constant tensor:
#      x y z
#    x 1.904640 0.000000 0.000000 
#    y 0.000000 2.067020 0.000000 
#    z 0.000000 0.000000 1.906710 
# 
# From -- ./inp_files/9310.got.cif
#   From: 2010.05.17/outbox.cif.g08.bks.cpg/sg55_5_cif.got.tgz:9310.got - 2010.06.03 13:27:54.
