data_PCOD9428558
_publ_section_title
;
Structure prediction by ZEFSAII (Michael W. Deem and Ramdas Pophale) SiO2 
 PCOD9428558
Probable space group: P B A M
;
_chemical_formula_sum "Si O2"
_cell_formula_units_Z 64
_cell_length_a 8.868570
_cell_length_b 15.166094
_cell_length_c 23.537518
_cell_angle_alpha 90.000000
_cell_angle_beta 90.000000
_cell_angle_gamma 90.000000
_cell_volume 3165.833037
_symmetry_space_group_name_H-M "P B A M"
_symmetry_group_IT_number 55
_symmetry_cell_setting 'orthorhombic'
loop_
_space_group_symop_operation_xyz
x,y,z
-x,-y,z
1/2+x,1/2-y,-z
1/2-x,1/2+y,-z
-x,-y,-z
x,y,-z
1/2-x,1/2+y,z
1/2+x,1/2-y,z
loop_
_atom_site_type_symbol
_atom_site_label
_atom_site_fract_x
_atom_site_fract_y
_atom_site_fract_z
Si Si1 0.932230 0.098599 0.560877
Si Si2 0.823097 0.105881 0.935628
Si Si3 0.951702 0.753703 0.769935
Si Si4 0.799395 0.256572 0.850757
Si Si5 0.433624 0.401512 0.314257
Si Si6 0.187932 0.098610 0.064486
Si Si7 0.069768 0.402381 0.314022
Si Si8 0.068394 0.401588 0.560827
O O1 0.979093 0.139703 0.500000
O O2 0.976043 0.135236 0.622607
O O3 0.750320 0.093475 0.560685
O O4 0.000000 0.000000 0.560687
O O5 0.761519 0.171355 0.888422
O O6 0.006057 0.108057 0.933104
O O7 0.777813 0.004554 0.926500
O O8 0.779257 0.131695 0.000000
O O9 0.028373 0.750330 0.831642
O O10 0.001464 0.837860 0.733712
O O11 0.778815 0.759225 0.789092
O O12 0.979826 0.666201 0.733606
O O13 0.764103 0.340847 0.888737
O O14 0.500000 0.500000 0.308799
O O15 0.252018 0.407599 0.311309
O O16 0.234481 0.122459 0.000000
O O17 0.025319 0.366314 0.377049
O O18 0.000000 0.500000 0.307256
O O19 0.021735 0.360132 0.500000
O O20 0.000000 0.500000 0.560392
#
# Coordination Sequence:
#
# PCOD9428558 Si02
#       8
#     8   8   8   8   8   8   8   8
#     4   8  14  28  52  80 107 138 184 240 296 353
#     4   9  19  38  64  92 119 149 190 235 284 344
#     4  12  26  40  56  84 121 161 203 242 279 346
#     4  12  23  40  60  86 120 158 197 238 285 335
#     4  10  22  39  60  84 114 156 198 244 301 351
#     4   9  19  38  65  92 117 150 189 234 289 343
#     4  10  22  39  59  85 116 153 197 248 299 347
#     4   8  14  28  52  79 107 141 184 236 296 355
#
# _framework density 20.215847
#
# number of rings (size 3 to 8) (size 9 to 14) (size 15 to 20)
#    0.000    2.250    2.500    1.125    1.750    2.000 
#    0.000    0.625    0.000    1.500    0.000    0.000 
#    0.000    0.000    0.000    0.000    0.000    0.000 
#
# Total GULP energy -356666.027307 kJ/mol
# GULP energy per Si atom -5572.906677 kJ/mol
# Density = 2.016984 g / cm^3
# Si number density = 20.215847 Si / 1000 Ang^3
#
#
#
# Elastic Constant Matrix: (Units=GPa)
#
#
# Indices 1 2 3 4 5 6 
#
# 1 11.5536 14.7344 20.2091 0.0000 0.0000 0.0000
# 2 14.7344 94.1420 76.4499 0.0000 0.0000 0.0000
# 3 20.2091 76.4499 148.1536 0.0000 0.0000 0.0000
# 4 0.0000 0.0000 0.0000 -74.0668 0.0000 0.0000
# 5 0.0000 0.0000 0.0000 0.0000 -9.4970 0.0000
# 6 0.0000 0.0000 0.0000 0.0000 0.0000 21.3513
#
#
#
# Elastic Compliance Matrix: (Units=1/GPa)
#
#
# Indices 1 2 3 4 5 6 
#
# 1 0.118232 -0.009309 -0.011324 0.000000 0.000000 0.000000
# 2 -0.009309 0.019017 -0.008543 0.000000 0.000000 0.000000
# 3 -0.011324 -0.008543 0.012703 0.000000 0.000000 0.000000
# 4 0.000000 0.000000 0.000000 -0.013501 0.000000 0.000000
# 5 0.000000 0.000000 0.000000 0.000000 -0.105296 0.000000
# 6 0.000000 0.000000 0.000000 0.000000 0.000000 0.046836
#
#
# Mechanical properties :
#
#
# Convention : Reuss Voigt Hill
#
# Bulk Modulus (GPa) = 10.91707 52.95954 31.93831
# Shear Modulus (GPa) = 29.96240 -2.94544 13.50848
#
# Velocity S-wave (km/s) = 3.85401 -1.20837 2.58779
# Velocity P-wave (km/s) = 5.02161 4.93022 4.97612
#
# Compressibility (1/GPa) = 0.09159963
#
# Stress axis : x y z
#
# Youngs Moduli (GPa) = 8.45794 52.58466 78.72198
#
# Poissons Ratio (x) = 0.48950 0.89145
# Poissons Ratio (y) = 0.07873 0.67255
# Poissons Ratio (z) = 0.09578 0.44925
#
# Static dielectric constant tensor:
#      x y z
#    x 1.694870 0.000000 0.000000 
#    y 0.000000 1.684060 0.000000 
#    z 0.000000 0.000000 1.746520 
# 
# From -- ./inp_files/23500.got.cif
#   From: 2010.05.17/outbox.cif.g08.bks.cpg/sg55_12_cif.got.tgz:23500.got - 2010.06.03 13:27:54.
