data_PCOD9428462
_publ_section_title
;
Structure prediction by ZEFSAII (Michael W. Deem and Ramdas Pophale) SiO2 
 PCOD9428462
Probable space group: P B A M
;
_chemical_formula_sum "Si O2"
_cell_formula_units_Z 40
_cell_length_a 12.819356
_cell_length_b 9.090376
_cell_length_c 13.997690
_cell_angle_alpha 90.000000
_cell_angle_beta 90.000000
_cell_angle_gamma 90.000000
_cell_volume 1631.189535
_symmetry_space_group_name_H-M "P B A M"
_symmetry_group_IT_number 55
_symmetry_cell_setting 'orthorhombic'
loop_
_space_group_symop_operation_xyz
x,y,z
-x,-y,z
1/2+x,1/2-y,-z
1/2-x,1/2+y,-z
-x,-y,-z
x,y,-z
1/2-x,1/2+y,z
1/2+x,1/2-y,z
loop_
_atom_site_type_symbol
_atom_site_label
_atom_site_fract_x
_atom_site_fract_y
_atom_site_fract_z
Si Si1 0.889494 0.415523 0.302348
Si Si2 0.294693 0.994000 0.500000
Si Si3 0.937869 0.770621 0.000000
Si Si4 0.322465 0.847148 0.166030
Si Si5 0.898486 0.827851 0.500000
Si Si6 0.163031 0.910348 0.000000
Si Si7 0.028055 0.161394 0.286410
O O1 0.837980 0.427041 0.405429
O O2 0.822878 0.504350 0.226244
O O3 0.000000 0.500000 0.311194
O O4 0.925243 0.257988 0.266569
O O5 0.172670 0.026560 0.500000
O O6 0.330898 0.824259 0.500000
O O7 0.917396 0.670463 0.091430
O O8 0.050867 0.837692 0.000000
O O9 0.857585 0.911926 0.000000
O O10 0.225737 0.855447 0.093677
O O11 0.363296 0.724051 0.242319
O O12 0.960103 0.829558 0.401038
O O13 0.000000 0.000000 0.252024
#
# Coordination Sequence:
#
# PCOD9428462 Si02
#       7
#     8   4   4   8   4   4   8
#     4  10  21  47  73  99 144 198 243 317 375 450
#     4  12  24  43  66 105 153 192 257 306 378 457
#     4  10  24  50  77 112 151 198 245 310 394 453
#     4  10  23  49  74 116 141 198 255 308 389 455
#     4  12  26  44  66 113 151 205 253 308 378 461
#     4  10  24  50  78 109 157 187 244 325 377 465
#     4  11  25  47  74 106 150 200 263 310 384 460
#
# _framework density 24.521979999999999
#
# number of rings (size 3 to 8) (size 9 to 14) (size 15 to 20)
#    0.000    1.400    4.000    1.200    5.600    1.600 
#   28.800    9.000    0.000    0.000    0.000    0.000 
#    0.000    0.000    0.000    0.000    0.000    0.000 
#
# Total GULP energy -223765.881308 kJ/mol
# GULP energy per Si atom -5594.147033 kJ/mol
# Density = 2.446617 g / cm^3
# Si number density = 24.521980 Si / 1000 Ang^3
#
#
#
# Elastic Constant Matrix: (Units=GPa)
#
#
# Indices 1 2 3 4 5 6 
#
# 1 82.5101 42.3353 55.8115 0.0000 0.0000 0.0000
# 2 42.3353 150.4330 33.4622 0.0000 0.0000 0.0000
# 3 55.8115 33.4622 165.0111 0.0000 0.0000 0.0000
# 4 0.0000 0.0000 0.0000 -28.2407 0.0000 0.0000
# 5 0.0000 0.0000 0.0000 0.0000 24.2106 0.0000
# 6 0.0000 0.0000 0.0000 0.0000 0.0000 36.2465
#
#
#
# Elastic Compliance Matrix: (Units=1/GPa)
#
#
# Indices 1 2 3 4 5 6 
#
# 1 0.017564 -0.003793 -0.005171 0.000000 0.000000 0.000000
# 2 -0.003793 0.007780 -0.000295 0.000000 0.000000 0.000000
# 3 -0.005171 -0.000295 0.007869 0.000000 0.000000 0.000000
# 4 0.000000 0.000000 0.000000 -0.035410 0.000000 0.000000
# 5 0.000000 0.000000 0.000000 0.000000 0.041304 0.000000
# 6 0.000000 0.000000 0.000000 0.000000 0.000000 0.027589
#
#
# Mechanical properties :
#
#
# Convention : Reuss Voigt Hill
#
# Bulk Modulus (GPa) = 68.04916 73.46360 70.75638
# Shear Modulus (GPa) = 55.48590 24.19962 39.84276
#
# Velocity S-wave (km/s) = 4.76195 3.14483 4.03523
# Velocity P-wave (km/s) = 7.61875 6.57343 7.11531
#
# Compressibility (1/GPa) = 0.01469526
#
# Stress axis : x y z
#
# Youngs Moduli (GPa) = 56.93549 128.52802 127.07807
#
# Poissons Ratio (x) = 0.48744 0.65718
# Poissons Ratio (y) = 0.21593 0.03749
# Poissons Ratio (z) = 0.29444 0.03792
#
# Static dielectric constant tensor:
#      x y z
#    x 1.924220 0.000000 0.000000 
#    y 0.000000 2.032560 0.000000 
#    z 0.000000 0.000000 1.957210 
# 
# From -- ./inp_files/18799.got.cif
#   From: 2010.05.17/outbox.cif.g08.bks.cpg/sg55_10_cif.got.tgz:18799.got - 2010.06.03 13:27:54.
