data_PCOD9428054
_publ_section_title
;
Structure prediction by ZEFSAII (Michael W. Deem and Ramdas Pophale) SiO2 
 PCOD9428054
Probable space group: P B A M
;
_chemical_formula_sum "Si O2"
_cell_formula_units_Z 40
_cell_length_a 18.509937
_cell_length_b 5.187929
_cell_length_c 16.897520
_cell_angle_alpha 90.000000
_cell_angle_beta 90.000000
_cell_angle_gamma 90.000000
_cell_volume 1622.639088
_symmetry_space_group_name_H-M "P B A M"
_symmetry_group_IT_number 55
_symmetry_cell_setting 'orthorhombic'
loop_
_space_group_symop_operation_xyz
x,y,z
-x,-y,z
1/2+x,1/2-y,-z
1/2-x,1/2+y,-z
-x,-y,-z
x,y,-z
1/2-x,1/2+y,z
1/2+x,1/2-y,z
loop_
_atom_site_type_symbol
_atom_site_label
_atom_site_fract_x
_atom_site_fract_y
_atom_site_fract_z
Si Si1 0.298366 0.767697 0.081191
Si Si2 0.300669 0.696905 0.746022
Si Si3 0.550715 0.750021 0.910310
Si Si4 0.449147 0.254123 0.584442
Si Si5 0.916124 0.424971 0.741937
O O1 0.262678 0.047231 0.080276
O O2 0.332448 0.713165 0.164320
O O3 0.341773 0.744265 0.000000
O O4 0.238198 0.921283 0.736721
O O5 0.369608 0.834092 0.707935
O O6 0.500000 0.500000 0.898292
O O7 0.597842 0.801595 0.829797
O O8 0.500000 0.000000 0.914663
O O9 0.583937 0.730447 0.000000
O O10 0.500000 0.500000 0.582241
O O11 0.407596 0.246118 0.500000
O O12 0.408178 0.268197 0.667991
O O13 0.500000 0.000000 0.585565
O O14 0.000000 0.500000 0.747909
#
# Coordination Sequence:
#
# PCOD9428054 Si02
#       5
#     8   8   8   8   8
#     4   8  14  27  46  66  91 129 176 220 263 316
#     4  10  22  37  53  77 111 146 182 230 285 336
#     4   9  18  32  50  77 112 145 180 227 280 331
#     4   9  18  33  55  85 115 141 179 233 282 325
#     4  10  21  37  61  86 112 150 195 236 283 342
#
# _framework density 24.651198999999998
#
# number of rings (size 3 to 8) (size 9 to 14) (size 15 to 20)
#    0.000    2.800    0.000    0.600    0.000    7.200 
#    0.000    0.000    0.000   18.000    0.000    0.000 
#    0.000    0.000    0.000    0.000    0.000    0.000 
#
# Total GULP energy -222725.005668 kJ/mol
# GULP energy per Si atom -5568.125142 kJ/mol
# Density = 2.459509 g / cm^3
# Si number density = 24.651199 Si / 1000 Ang^3
#
#
#
# Elastic Constant Matrix: (Units=GPa)
#
#
# Indices 1 2 3 4 5 6 
#
# 1 71.0198 42.2153 -1.5829 0.0000 0.0000 0.0000
# 2 42.2153 159.9020 18.6520 0.0000 0.0000 0.0000
# 3 -1.5829 18.6520 155.6171 0.0000 0.0000 0.0000
# 4 0.0000 0.0000 0.0000 -1.4246 0.0000 0.0000
# 5 0.0000 0.0000 0.0000 0.0000 6.5239 0.0000
# 6 0.0000 0.0000 0.0000 0.0000 0.0000 56.1520
#
#
#
# Elastic Compliance Matrix: (Units=1/GPa)
#
#
# Indices 1 2 3 4 5 6 
#
# 1 0.016779 -0.004513 0.000712 0.000000 0.000000 0.000000
# 2 -0.004513 0.007556 -0.000952 0.000000 0.000000 0.000000
# 3 0.000712 -0.000952 0.006547 0.000000 0.000000 0.000000
# 4 0.000000 0.000000 0.000000 -0.701966 0.000000 0.000000
# 5 0.000000 0.000000 0.000000 0.000000 0.153282 0.000000
# 6 0.000000 0.000000 0.000000 0.000000 0.000000 0.017809
#
#
# Mechanical properties :
#
#
# Convention : Reuss Voigt Hill
#
# Bulk Modulus (GPa) = 46.77946 56.12307 51.45126
# Shear Modulus (GPa) = -10.34421 34.06724 11.86152
#
# Velocity S-wave (km/s) = -2.05069 3.72152 2.19595
# Velocity P-wave (km/s) = 3.66205 6.42515 5.22940
#
# Compressibility (1/GPa) = 0.02137690
#
# Stress axis : x y z
#
# Youngs Moduli (GPa) = 59.59874 132.34117 152.73420
#
# Poissons Ratio (x) = 0.59722 -0.10868
# Poissons Ratio (y) = 0.26895 0.14534
# Poissons Ratio (z) = -0.04241 0.12593
#
# Static dielectric constant tensor:
#      x y z
#    x 2.063310 0.000000 0.000000 
#    y 0.000000 2.049000 0.000000 
#    z 0.000000 0.000000 3.602880 
# 
# From -- ./inp_files/21710.got.cif
#   From: 2010.05.17/outbox.cif.g08.bks.cpg/sg55_11_cif.got.tgz:21710.got - 2010.06.03 13:27:54.
