data_PCOD9428238
_publ_section_title
;
Structure prediction by ZEFSAII (Michael W. Deem and Ramdas Pophale) SiO2 
 PCOD9428238
Probable space group: P B A M
;
_chemical_formula_sum "Si O2"
_cell_formula_units_Z 56
_cell_length_a 9.274056
_cell_length_b 20.486703
_cell_length_c 15.215610
_cell_angle_alpha 90.000000
_cell_angle_beta 90.000000
_cell_angle_gamma 90.000000
_cell_volume 2890.887249
_symmetry_space_group_name_H-M "P B A M"
_symmetry_group_IT_number 55
_symmetry_cell_setting 'orthorhombic'
loop_
_space_group_symop_operation_xyz
x,y,z
-x,-y,z
1/2+x,1/2-y,-z
1/2-x,1/2+y,-z
-x,-y,-z
x,y,-z
1/2-x,1/2+y,z
1/2+x,1/2-y,z
loop_
_atom_site_type_symbol
_atom_site_label
_atom_site_fract_x
_atom_site_fract_y
_atom_site_fract_z
Si Si1 0.414937 0.835647 0.399541
Si Si2 0.368082 0.550144 0.600063
Si Si3 0.183616 0.739839 0.676232
Si Si4 0.073665 0.071291 0.901830
Si Si5 0.331108 0.985788 0.095729
Si Si6 0.058129 0.161126 0.736420
Si Si7 0.151196 0.462613 0.713158
O O1 0.415903 0.857125 0.500000
O O2 0.572567 0.808527 0.372869
O O3 0.295263 0.779022 0.385904
O O4 0.369557 0.895663 0.338431
O O5 0.500000 0.500000 0.594038
O O6 0.317898 0.564050 0.500000
O O7 0.421298 0.614140 0.651679
O O8 0.253490 0.512069 0.660278
O O9 0.291677 0.701154 0.740451
O O10 0.076584 0.791297 0.721837
O O11 0.036201 0.117906 0.822483
O O12 0.242861 0.053159 0.897321
O O13 0.041093 0.095908 0.000000
O O14 0.000000 0.000000 0.892150
O O15 0.298027 0.949351 0.186771
O O16 0.500000 0.000000 0.093245
O O17 0.290616 0.956421 0.000000
O O18 0.000000 0.500000 0.719167
#
# Coordination Sequence:
#
# PCOD9428238 Si02
#       7
#     8   8   8   8   8   8   8
#     4  11  23  40  60  84 118 157 204 252 292 354
#     4  11  23  37  58  88 119 153 191 245 314 364
#     4  10  25  40  60  81 112 166 216 241 288 341
#     4  10  21  38  66  97 121 152 192 243 307 365
#     4   9  19  35  57  91 124 152 184 224 293 367
#     4  11  22  42  60  84 121 159 202 252 288 353
#     4  11  22  35  58  91 122 149 187 242 310 361
#
# _framework density 19.371216
#
# number of rings (size 3 to 8) (size 9 to 14) (size 15 to 20)
#    0.000    1.571    1.429    3.000    4.000    6.857 
#    0.000    0.714    0.000    3.429    0.000    0.000 
#    0.000    0.000    0.000    0.000    0.000    0.000 
#
# Total GULP energy -312609.119555 kJ/mol
# GULP energy per Si atom -5582.305706 kJ/mol
# Density = 1.932713 g / cm^3
# Si number density = 19.371216 Si / 1000 Ang^3
#
#
#
# Elastic Constant Matrix: (Units=GPa)
#
#
# Indices 1 2 3 4 5 6 
#
# 1 96.5594 16.1341 27.4015 0.0000 0.0000 0.0000
# 2 16.1341 76.3439 54.8633 0.0000 0.0000 0.0000
# 3 27.4015 54.8633 188.0742 0.0000 0.0000 0.0000
# 4 0.0000 0.0000 0.0000 -0.1738 0.0000 0.0000
# 5 0.0000 0.0000 0.0000 0.0000 8.5995 0.0000
# 6 0.0000 0.0000 0.0000 0.0000 0.0000 33.2532
#
#
#
# Elastic Compliance Matrix: (Units=1/GPa)
#
#
# Indices 1 2 3 4 5 6 
#
# 1 0.010933 -0.001475 -0.001163 0.000000 0.000000 0.000000
# 2 -0.001475 0.016772 -0.004678 0.000000 0.000000 0.000000
# 3 -0.001163 -0.004678 0.006851 0.000000 0.000000 0.000000
# 4 0.000000 0.000000 0.000000 -5.753617 0.000000 0.000000
# 5 0.000000 0.000000 0.000000 0.000000 0.116286 0.000000
# 6 0.000000 0.000000 0.000000 0.000000 0.000000 0.030072
#
#
# Mechanical properties :
#
#
# Convention : Reuss Voigt Hill
#
# Bulk Modulus (GPa) = 50.18796 61.97505 56.08151
# Shear Modulus (GPa) = -0.90067 25.84102 12.47018
#
# Velocity S-wave (km/s) = -0.68261 3.65635 2.53997
# Velocity P-wave (km/s) = 5.03423 7.06314 6.13317
#
# Compressibility (1/GPa) = 0.01992510
#
# Stress axis : x y z
#
# Youngs Moduli (GPa) = 91.46882 59.62369 145.96516
#
# Poissons Ratio (x) = 0.08794 0.16969
# Poissons Ratio (y) = 0.13492 0.68277
# Poissons Ratio (z) = 0.10634 0.27890
#
# Static dielectric constant tensor:
#      x y z
#    x 1.720640 0.000000 0.000000 
#    y 0.000000 1.651620 0.000000 
#    z 0.000000 0.000000 1.700130 
# 
# From -- ./inp_files/17666.got.cif
#   From: 2010.05.17/outbox.cif.g08.bks.cpg/sg55_9_cif.got.tgz:17666.got - 2010.06.03 13:27:54.
