data_PCOD9428667
_publ_section_title
;
Structure prediction by ZEFSAII (Michael W. Deem and Ramdas Pophale) SiO2 
 PCOD9428667
Probable space group: P B A M
;
_chemical_formula_sum "Si O2"
_cell_formula_units_Z 64
_cell_length_a 12.065887
_cell_length_b 30.989840
_cell_length_c 9.000950
_cell_angle_alpha 90.000000
_cell_angle_beta 90.000000
_cell_angle_gamma 90.000000
_cell_volume 3365.634392
_symmetry_space_group_name_H-M "P B A M"
_symmetry_group_IT_number 55
_symmetry_cell_setting 'orthorhombic'
loop_
_space_group_symop_operation_xyz
x,y,z
-x,-y,z
1/2+x,1/2-y,-z
1/2-x,1/2+y,-z
-x,-y,-z
x,y,-z
1/2-x,1/2+y,z
1/2+x,1/2-y,z
loop_
_atom_site_type_symbol
_atom_site_label
_atom_site_fract_x
_atom_site_fract_y
_atom_site_fract_z
Si Si1 0.585582 0.623702 0.177835
Si Si2 0.345570 0.627272 0.322806
Si Si3 0.258161 0.951059 0.823311
Si Si4 0.765083 0.696378 0.176479
Si Si5 0.492324 0.931681 0.327025
Si Si6 0.507009 0.170966 0.672594
Si Si7 0.784079 0.451991 0.175939
Si Si8 0.790786 0.295873 0.823699
O O1 0.471036 0.624711 0.264741
O O2 0.660889 0.582143 0.216180
O O3 0.660380 0.665808 0.209315
O O4 0.563433 0.622515 0.000000
O O5 0.340247 0.627412 0.500000
O O6 0.278715 0.586166 0.259902
O O7 0.288216 0.670402 0.259564
O O8 0.370752 0.940586 0.736624
O O9 0.229913 0.001169 0.798132
O O10 0.279913 0.945580 0.000000
O O11 0.871160 0.681086 0.267634
O O12 0.740434 0.746367 0.206517
O O13 0.788349 0.691414 0.000000
O O14 0.498896 0.944017 0.500000
O O15 0.512659 0.880299 0.315723
O O16 0.589803 0.954062 0.234554
O O17 0.496423 0.183141 0.500000
O O18 0.414996 0.195031 0.768926
O O19 0.783988 0.443180 0.000000
O O20 0.782431 0.303293 0.000000
#
# Coordination Sequence:
#
# PCOD9428667 Si02
#       8
#     8   8   8   8   8   8   8   8
#     4  10  22  43  66  89 121 160 203 254 302 362
#     4  12  26  43  62  89 124 164 205 253 312 370
#     4  10  22  40  65  93 121 159 208 253 305 365
#     4  10  23  42  67  94 122 161 210 254 302 362
#     4  11  22  37  60  93 130 163 200 249 307 366
#     4  11  23  39  63  95 130 164 201 250 309 366
#     4  11  23  40  64  92 121 161 208 255 303 364
#     4  11  24  42  66  94 123 163 211 257 302 362
#
# _framework density 19.015730999999999
#
# number of rings (size 3 to 8) (size 9 to 14) (size 15 to 20)
#    0.000    1.250    2.500    3.000    1.750    6.000 
#    0.000    2.500    0.000    0.000    0.000    0.000 
#    0.000    0.000    0.000    0.000    0.000    0.000 
#
# Total GULP energy -357930.980737 kJ/mol
# GULP energy per Si atom -5592.671574 kJ/mol
# Density = 1.897245 g / cm^3
# Si number density = 19.015731 Si / 1000 Ang^3
#
#
#
# Elastic Constant Matrix: (Units=GPa)
#
#
# Indices 1 2 3 4 5 6 
#
# 1 103.3936 37.0128 52.9737 0.0000 0.0000 0.0000
# 2 37.0128 93.6536 58.5824 0.0000 0.0000 0.0000
# 3 52.9737 58.5824 85.6077 0.0000 0.0000 0.0000
# 4 0.0000 0.0000 0.0000 14.3354 0.0000 0.0000
# 5 0.0000 0.0000 0.0000 0.0000 129.2806 0.0000
# 6 0.0000 0.0000 0.0000 0.0000 0.0000 9.7898
#
#
#
# Elastic Compliance Matrix: (Units=1/GPa)
#
#
# Indices 1 2 3 4 5 6 
#
# 1 0.014164 -0.000202 -0.008627 0.000000 0.000000 0.000000
# 2 -0.000202 0.018672 -0.012653 0.000000 0.000000 0.000000
# 3 -0.008627 -0.012653 0.025678 0.000000 0.000000 0.000000
# 4 0.000000 0.000000 0.000000 0.069757 0.000000 0.000000
# 5 0.000000 0.000000 0.000000 0.000000 0.007735 0.000000
# 6 0.000000 0.000000 0.000000 0.000000 0.000000 0.102147
#
#
# Mechanical properties :
#
#
# Convention : Reuss Voigt Hill
#
# Bulk Modulus (GPa) = 64.30160 64.42142 64.36151
# Shear Modulus (GPa) = 17.46432 39.62023 28.54227
#
# Velocity S-wave (km/s) = 3.03382 4.56954 3.87845
# Velocity P-wave (km/s) = 6.79415 7.86082 7.34687
#
# Compressibility (1/GPa) = 0.01555171
#
# Stress axis : x y z
#
# Youngs Moduli (GPa) = 70.60282 53.55677 38.94445
#
# Poissons Ratio (x) = 0.01079 0.33596
# Poissons Ratio (y) = 0.01423 0.49275
# Poissons Ratio (z) = 0.60906 0.67763
#
# Static dielectric constant tensor:
#      x y z
#    x 1.619280 0.000000 0.000000 
#    y 0.000000 1.662370 0.000000 
#    z 0.000000 0.000000 1.635020 
# 
# From -- ./inp_files/4533.got.cif
#   From: 2010.05.17/outbox.cif.g08.bks.cpg/sg55_3_cif.got.tgz:4533.got - 2010.06.03 13:27:54.
