data_PCOD9428047
_publ_section_title
;
Structure prediction by ZEFSAII (Michael W. Deem and Ramdas Pophale) SiO2 
 PCOD9428047
Probable space group: P B A M
;
_chemical_formula_sum "Si O2"
_cell_formula_units_Z 56
_cell_length_a 5.479568
_cell_length_b 30.272100
_cell_length_c 13.449402
_cell_angle_alpha 90.000000
_cell_angle_beta 90.000000
_cell_angle_gamma 90.000000
_cell_volume 2230.960315
_symmetry_space_group_name_H-M "P B A M"
_symmetry_group_IT_number 55
_symmetry_cell_setting 'orthorhombic'
loop_
_space_group_symop_operation_xyz
x,y,z
-x,-y,z
1/2+x,1/2-y,-z
1/2-x,1/2+y,-z
-x,-y,-z
x,y,-z
1/2-x,1/2+y,z
1/2+x,1/2-y,z
loop_
_atom_site_type_symbol
_atom_site_label
_atom_site_fract_x
_atom_site_fract_y
_atom_site_fract_z
Si Si1 0.883878 0.045788 0.881406
Si Si2 0.241059 0.523139 0.380674
Si Si3 0.188330 0.702469 0.611692
Si Si4 0.468756 0.611152 0.387388
Si Si5 0.615708 0.904100 0.118178
Si Si6 0.685578 0.736572 0.190698
Si Si7 0.661883 0.149556 0.266932
O O1 0.107770 0.079928 0.865268
O O2 0.606604 0.061190 0.857780
O O3 0.867444 0.040330 0.000000
O O4 0.000000 0.000000 0.843098
O O5 0.500000 0.500000 0.358714
O O6 0.219755 0.520740 0.500000
O O7 0.266776 0.575217 0.358144
O O8 0.000000 0.500000 0.338406
O O9 0.186067 0.721573 0.500000
O O10 0.377570 0.661662 0.613125
O O11 0.216296 0.736759 0.702634
O O12 0.942436 0.676278 0.638856
O O13 0.546266 0.600225 0.500000
O O14 0.690730 0.609151 0.312057
O O15 0.549243 0.863983 0.191083
O O16 0.592092 0.893917 0.000000
O O17 0.443434 0.753982 0.140184
O O18 0.670794 0.684566 0.209350
#
# Coordination Sequence:
#
# PCOD9428047 Si02
#       7
#     8   8   8   8   8   8   8
#     4   9  18  37  66  99 129 163 209 269 337 397
#     4   9  19  35  56  79 110 156 203 249 303 366
#     4  10  22  38  61  91 124 166 216 269 332 393
#     4  10  21  37  60  89 120 164 215 267 325 385
#     4  10  22  38  65  96 130 173 215 262 326 400
#     4  10  21  38  58  87 121 163 203 260 323 385
#     4  11  23  38  62  89 133 167 217 266 336 391
#
# _framework density 25.101299000000001
#
# number of rings (size 3 to 8) (size 9 to 14) (size 15 to 20)
#    0.000    2.143    1.429    0.857    4.000    4.571 
#    0.000    0.714    3.143    3.429    0.000    0.000 
#    0.000    0.571    0.000    0.000    0.000    0.000 
#
# Total GULP energy -312854.717274 kJ/mol
# GULP energy per Si atom -5586.691380 kJ/mol
# Density = 2.504417 g / cm^3
# Si number density = 25.101299 Si / 1000 Ang^3
#
#
#
# Elastic Constant Matrix: (Units=GPa)
#
#
# Indices 1 2 3 4 5 6 
#
# 1 78.5749 0.3191 -7.6572 0.0000 0.0000 0.0000
# 2 0.3191 60.8654 6.9891 0.0000 0.0000 0.0000
# 3 -7.6572 6.9891 73.3910 0.0000 0.0000 0.0000
# 4 0.0000 0.0000 0.0000 9.8953 0.0000 0.0000
# 5 0.0000 0.0000 0.0000 0.0000 -31.6401 0.0000
# 6 0.0000 0.0000 0.0000 0.0000 0.0000 37.9289
#
#
#
# Elastic Compliance Matrix: (Units=1/GPa)
#
#
# Indices 1 2 3 4 5 6 
#
# 1 0.012860 -0.000224 0.001363 0.000000 0.000000 0.000000
# 2 -0.000224 0.016615 -0.001606 0.000000 0.000000 0.000000
# 3 0.001363 -0.001606 0.013921 0.000000 0.000000 0.000000
# 4 0.000000 0.000000 0.000000 0.101058 0.000000 0.000000
# 5 0.000000 0.000000 0.000000 0.000000 -0.031606 0.000000
# 6 0.000000 0.000000 0.000000 0.000000 0.000000 0.026365
#
#
# Mechanical properties :
#
#
# Convention : Reuss Voigt Hill
#
# Bulk Modulus (GPa) = 23.54962 23.57035 23.55998
# Shear Modulus (GPa) = 32.40402 17.44884 24.92643
#
# Velocity S-wave (km/s) = 3.59685 2.63941 3.15466
# Velocity P-wave (km/s) = 5.16255 4.32424 4.76188
#
# Compressibility (1/GPa) = 0.04246354
#
# Stress axis : x y z
#
# Youngs Moduli (GPa) = 77.75773 60.18567 71.83512
#
# Poissons Ratio (x) = 0.01348 -0.09792
# Poissons Ratio (y) = 0.01741 0.11534
# Poissons Ratio (z) = -0.10599 0.09664
#
# Static dielectric constant tensor:
#      x y z
#    x 2.019640 0.000000 0.000000 
#    y 0.000000 3.669850 0.000000 
#    z 0.000000 0.000000 1.963510 
# 
# From -- ./inp_files/16766.got.cif
#   From: 2010.05.17/outbox.cif.g08.bks.cpg/sg55_9_cif.got.tgz:16766.got - 2010.06.03 13:27:54.
