data_PCOD9428583
_publ_section_title
;
Structure prediction by ZEFSAII (Michael W. Deem and Ramdas Pophale) SiO2 
 PCOD9428583
Probable space group: P B A M
;
_chemical_formula_sum "Si O2"
_cell_formula_units_Z 56
_cell_length_a 8.443452
_cell_length_b 13.342397
_cell_length_c 19.258110
_cell_angle_alpha 90.000000
_cell_angle_beta 90.000000
_cell_angle_gamma 90.000000
_cell_volume 2169.539495
_symmetry_space_group_name_H-M "P B A M"
_symmetry_group_IT_number 55
_symmetry_cell_setting 'orthorhombic'
loop_
_space_group_symop_operation_xyz
x,y,z
-x,-y,z
1/2+x,1/2-y,-z
1/2-x,1/2+y,-z
-x,-y,-z
x,y,-z
1/2-x,1/2+y,z
1/2+x,1/2-y,z
loop_
_atom_site_type_symbol
_atom_site_label
_atom_site_fract_x
_atom_site_fract_y
_atom_site_fract_z
Si Si1 0.844366 0.938406 0.823488
Si Si2 0.538275 0.225783 0.639073
Si Si3 0.827329 0.451193 0.677778
Si Si4 0.379473 0.794091 0.204631
Si Si5 0.109132 0.649629 0.101523
Si Si6 0.821925 0.112157 0.579881
Si Si7 0.749628 0.134365 0.925345
O O1 0.776135 0.956921 0.747257
O O2 0.880359 0.818898 0.824587
O O3 0.725908 0.944691 0.890375
O O4 0.000000 0.000000 0.839466
O O5 0.382982 0.155199 0.647749
O O6 0.626800 0.215040 0.713425
O O7 0.663599 0.181835 0.584898
O O8 0.466523 0.332696 0.619185
O O9 0.734321 0.513643 0.620046
O O10 0.000000 0.500000 0.692999
O O11 0.551739 0.834835 0.182069
O O12 0.255300 0.864631 0.162709
O O13 0.183295 0.750347 0.072150
O O14 0.940620 0.630968 0.068288
O O15 0.862406 0.095452 0.500000
O O16 0.814170 0.092128 0.000000
#
# Coordination Sequence:
#
# PCOD9428583 Si02
#       7
#     8   8   8   8   8   8   8
#     4  11  20  38  58  89 126 161 196 260 319 363
#     4  11  21  39  65  85 125 162 207 269 315 363
#     4  10  22  39  61  90 122 161 205 259 319 381
#     4   9  20  35  61  90 121 153 217 252 300 370
#     4   9  19  33  56  89 119 154 210 251 301 359
#     4  11  25  40  60  90 121 166 212 256 321 386
#     4   9  17  31  56  88 126 159 200 256 306 360
#
# _framework density 25.811928000000002
#
# number of rings (size 3 to 8) (size 9 to 14) (size 15 to 20)
#    0.857    1.143    1.429    2.571    2.000    3.143 
#    2.571    0.000    0.000   15.429    0.000    1.000 
#    0.000    0.000    0.000    0.000    0.000    0.000 
#
# Total GULP energy -312214.233067 kJ/mol
# GULP energy per Si atom -5575.254162 kJ/mol
# Density = 2.575318 g / cm^3
# Si number density = 25.811928 Si / 1000 Ang^3
#
#
#
# Elastic Constant Matrix: (Units=GPa)
#
#
# Indices 1 2 3 4 5 6 
#
# 1 90.3218 30.2673 24.0973 0.0000 0.0000 0.0000
# 2 30.2673 44.6282 20.2038 0.0000 0.0000 0.0000
# 3 24.0973 20.2038 158.0238 0.0000 0.0000 0.0000
# 4 0.0000 0.0000 0.0000 2.8242 0.0000 0.0000
# 5 0.0000 0.0000 0.0000 0.0000 26.1937 0.0000
# 6 0.0000 0.0000 0.0000 0.0000 0.0000 -307.1507
#
#
#
# Elastic Compliance Matrix: (Units=1/GPa)
#
#
# Indices 1 2 3 4 5 6 
#
# 1 0.014478 -0.009362 -0.001011 0.000000 0.000000 0.000000
# 2 -0.009362 0.029837 -0.002387 0.000000 0.000000 0.000000
# 3 -0.001011 -0.002387 0.006788 0.000000 0.000000 0.000000
# 4 0.000000 0.000000 0.000000 0.354087 0.000000 0.000000
# 5 0.000000 0.000000 0.000000 0.000000 0.038177 0.000000
# 6 0.000000 0.000000 0.000000 0.000000 0.000000 -0.003256
#
#
# Mechanical properties :
#
#
# Convention : Reuss Voigt Hill
#
# Bulk Modulus (GPa) = 39.08766 49.12340 44.10553
# Shear Modulus (GPa) = 10.54497 -41.06621 -15.26062
#
# Velocity S-wave (km/s) = 2.02341 -3.99303 -2.43415
# Velocity P-wave (km/s) = 4.54258 1.47868 3.03715
#
# Compressibility (1/GPa) = 0.02558352
#
# Stress axis : x y z
#
# Youngs Moduli (GPa) = 69.06843 33.51514 147.32908
#
# Poissons Ratio (x) = 0.31376 0.14894
# Poissons Ratio (y) = 0.64660 0.35170
# Poissons Ratio (z) = 0.06982 0.08001
#
# Static dielectric constant tensor:
#      x y z
#    x 2.048250 0.000000 0.000000 
#    y 0.000000 2.153650 0.000000 
#    z 0.000000 0.000000 2.016880 
# 
# From -- ./inp_files/22630.got.cif
#   From: 2010.05.17/outbox.cif.g08.bks.cpg/sg55_12_cif.got.tgz:22630.got - 2010.06.03 13:27:54.
