data_PCOD9428719
_publ_section_title
;
Structure prediction by ZEFSAII (Michael W. Deem and Ramdas Pophale) SiO2 
 PCOD9428719
Probable space group: P B A M
;
_chemical_formula_sum "Si O2"
_cell_formula_units_Z 58
_cell_length_a 14.231863
_cell_length_b 9.120462
_cell_length_c 18.917546
_cell_angle_alpha 90.000000
_cell_angle_beta 90.000000
_cell_angle_gamma 90.000000
_cell_volume 2455.519523
_symmetry_space_group_name_H-M "P B A M"
_symmetry_group_IT_number 55
_symmetry_cell_setting 'orthorhombic'
loop_
_space_group_symop_operation_xyz
x,y,z
-x,-y,z
1/2+x,1/2-y,-z
1/2-x,1/2+y,-z
-x,-y,-z
x,y,-z
1/2-x,1/2+y,z
1/2+x,1/2-y,z
loop_
_atom_site_type_symbol
_atom_site_label
_atom_site_fract_x
_atom_site_fract_y
_atom_site_fract_z
Si Si1 0.963693 0.660510 0.231565
Si Si2 0.348106 0.310761 0.364286
Si Si3 0.755955 0.929627 0.423283
Si Si4 0.500000 0.000000 0.500000
Si Si5 0.437630 0.754590 0.385788
Si Si6 0.350395 0.340117 0.208165
Si Si7 0.264776 0.600200 0.877705
Si Si8 0.121906 0.365097 0.074996
O O1 0.911959 0.712168 0.303122
O O2 0.044836 0.778523 0.215412
O O3 0.000000 0.500000 0.252187
O O4 0.920308 0.637017 0.153979
O O5 0.314917 0.142593 0.367791
O O6 0.280912 0.400920 0.415783
O O7 0.457873 0.318063 0.382030
O O8 0.325328 0.377046 0.288261
O O9 0.711922 0.901467 0.500000
O O10 0.856984 0.851612 0.414672
O O11 0.453680 0.892122 0.437437
O O12 0.288989 0.205078 0.178146
O O13 0.331641 0.481838 0.160617
O O14 0.321382 0.713567 0.924638
O O15 0.190240 0.504590 0.920666
O O16 0.067598 0.370668 0.000000
#
# Coordination Sequence:
#
# PCOD9428719 Si02
#       8
#     8   8   8   2   8   8   8   8
#     4  11  23  43  65 100 133 170 225 274 339 399
#     4  11  27  43  69  95 138 177 230 281 352 403
#     4  12  27  43  67 101 134 180 231 285 347 417
#     4  12  24  44  74  96 134 186 230 284 356 396
#     4  11  27  44  69  97 141 178 227 290 347 411
#     4  10  22  42  66  98 127 173 219 280 329 402
#     4  10  22  41  68  98 134 170 223 270 332 398
#     4  11  24  43  70  99 138 177 218 273 336 408
#
# _framework density 23.620256999999999
#
# number of rings (size 3 to 8) (size 9 to 14) (size 15 to 20)
#    0.000    1.103    2.759    2.069    9.655    1.379 
#    0.000    2.069    0.000    0.000    0.000    0.000 
#    0.000    0.000    0.000    0.000    0.000    0.000 
#
# Total GULP energy -323654.190070 kJ/mol
# GULP energy per Si atom -5580.244656 kJ/mol
# Density = 2.356650 g / cm^3
# Si number density = 23.620257 Si / 1000 Ang^3
#
#
#
# Elastic Constant Matrix: (Units=GPa)
#
#
# Indices 1 2 3 4 5 6 
#
# 1 41.4634 15.0899 -0.0853 0.0000 0.0000 0.0000
# 2 15.0899 100.1693 10.5703 0.0000 0.0000 0.0000
# 3 -0.0853 10.5703 138.4336 0.0000 0.0000 0.0000
# 4 0.0000 0.0000 0.0000 -24.4204 0.0000 0.0000
# 5 0.0000 0.0000 0.0000 0.0000 13.8682 0.0000
# 6 0.0000 0.0000 0.0000 0.0000 0.0000 35.0195
#
#
#
# Elastic Compliance Matrix: (Units=1/GPa)
#
#
# Indices 1 2 3 4 5 6 
#
# 1 0.025530 -0.003879 0.000312 0.000000 0.000000 0.000000
# 2 -0.003879 0.010654 -0.000816 0.000000 0.000000 0.000000
# 3 0.000312 -0.000816 0.007286 0.000000 0.000000 0.000000
# 4 0.000000 0.000000 0.000000 -0.040949 0.000000 0.000000
# 5 0.000000 0.000000 0.000000 0.000000 0.072108 0.000000
# 6 0.000000 0.000000 0.000000 0.000000 0.000000 0.028556
#
#
# Mechanical properties :
#
#
# Convention : Reuss Voigt Hill
#
# Bulk Modulus (GPa) = 28.81512 36.80181 32.80846
# Shear Modulus (GPa) = 40.48024 21.85953 31.16989
#
# Velocity S-wave (km/s) = 4.14429 3.04543 3.63661
# Velocity P-wave (km/s) = 5.92672 5.28967 5.61723
#
# Compressibility (1/GPa) = 0.03470400
#
# Stress axis : x y z
#
# Youngs Moduli (GPa) = 39.16975 93.86570 137.24637
#
# Poissons Ratio (x) = 0.36409 -0.04281
# Poissons Ratio (y) = 0.15193 0.11197
# Poissons Ratio (z) = -0.01222 0.07658
#
# Static dielectric constant tensor:
#      x y z
#    x 1.971260 0.000000 0.000000 
#    y 0.000000 1.853940 0.000000 
#    z 0.000000 0.000000 1.597570 
# 
# From -- ./inp_files/21795.got.cif
#   From: 2010.05.17/outbox.cif.g08.bks.cpg/sg55_11_cif.got.tgz:21795.got - 2010.06.03 13:27:54.
