data_PCOD9428428
_publ_section_title
;
Structure prediction by ZEFSAII (Michael W. Deem and Ramdas Pophale) SiO2 
 PCOD9428428
Probable space group: P B A M
;
_chemical_formula_sum "Si O2"
_cell_formula_units_Z 56
_cell_length_a 14.706770
_cell_length_b 15.248503
_cell_length_c 11.759121
_cell_angle_alpha 90.000000
_cell_angle_beta 90.000000
_cell_angle_gamma 90.000000
_cell_volume 2637.056102
_symmetry_space_group_name_H-M "P B A M"
_symmetry_group_IT_number 55
_symmetry_cell_setting 'orthorhombic'
loop_
_space_group_symop_operation_xyz
x,y,z
-x,-y,z
1/2+x,1/2-y,-z
1/2-x,1/2+y,-z
-x,-y,-z
x,y,-z
1/2-x,1/2+y,z
1/2+x,1/2-y,z
loop_
_atom_site_type_symbol
_atom_site_label
_atom_site_fract_x
_atom_site_fract_y
_atom_site_fract_z
Si Si1 0.713645 0.037112 0.319237
Si Si2 0.651109 0.224817 0.622104
Si Si3 0.508606 0.769050 0.201600
Si Si4 0.896127 0.968542 0.632200
Si Si5 0.553744 0.408419 0.126501
Si Si6 0.921143 0.557767 0.872984
Si Si7 0.835592 0.334704 0.630603
O O1 0.669806 0.120958 0.378462
O O2 0.673328 0.049821 0.193005
O O3 0.820762 0.042489 0.343391
O O4 0.685317 0.938829 0.356851
O O5 0.616230 0.251493 0.500000
O O6 0.571837 0.241723 0.708382
O O7 0.743421 0.278240 0.644091
O O8 0.513481 0.674992 0.141213
O O9 0.466258 0.846364 0.125275
O O10 0.595309 0.802397 0.272227
O O11 0.876585 0.938237 0.500000
O O12 0.889979 0.915693 0.753808
O O13 0.000000 0.000000 0.628639
O O14 0.500000 0.500000 0.122442
O O15 0.599004 0.398403 0.000000
O O16 0.000000 0.500000 0.813351
O O17 0.907641 0.524459 0.000000
O O18 0.868380 0.320241 0.500000
#
# Coordination Sequence:
#
# PCOD9428428 Si02
#       7
#     8   8   8   8   8   8   8
#     4  11  22  41  65  97 136 175 220 278 340 402
#     4  10  23  39  60  92 133 175 217 274 335 399
#     4  11  22  40  65  92 127 170 220 277 338 400
#     4  10  22  39  66  99 134 177 224 272 330 399
#     4  10  23  42  65  94 131 172 219 272 331 398
#     4  10  21  41  67  94 126 171 224 276 334 400
#     4  11  23  38  61  95 131 173 222 274 334 404
#
# _framework density 21.235800999999999
#
# number of rings (size 3 to 8) (size 9 to 14) (size 15 to 20)
#    0.000    1.571    1.429    3.000    4.000    2.857 
#    0.000    2.143    0.000    2.571    0.000    0.000 
#    0.000    0.000    0.000    0.000    0.000    0.000 
#
# Total GULP energy -311743.146843 kJ/mol
# GULP energy per Si atom -5566.841908 kJ/mol
# Density = 2.118747 g / cm^3
# Si number density = 21.235801 Si / 1000 Ang^3
#
#
#
# Elastic Constant Matrix: (Units=GPa)
#
#
# Indices 1 2 3 4 5 6 
#
# 1 57.8615 13.4488 34.6214 0.0000 0.0000 0.0000
# 2 13.4488 121.7116 9.4355 0.0000 0.0000 0.0000
# 3 34.6214 9.4355 142.3865 0.0000 0.0000 0.0000
# 4 0.0000 0.0000 0.0000 23.1959 0.0000 0.0000
# 5 0.0000 0.0000 0.0000 0.0000 18.9161 0.0000
# 6 0.0000 0.0000 0.0000 0.0000 0.0000 26.3139
#
#
#
# Elastic Compliance Matrix: (Units=1/GPa)
#
#
# Indices 1 2 3 4 5 6 
#
# 1 0.020654 -0.001903 -0.004896 0.000000 0.000000 0.000000
# 2 -0.001903 0.008434 -0.000096 0.000000 0.000000 0.000000
# 3 -0.004896 -0.000096 0.008220 0.000000 0.000000 0.000000
# 4 0.000000 0.000000 0.000000 0.043111 0.000000 0.000000
# 5 0.000000 0.000000 0.000000 0.000000 0.052865 0.000000
# 6 0.000000 0.000000 0.000000 0.000000 0.000000 0.038003
#
#
# Mechanical properties :
#
#
# Convention : Reuss Voigt Hill
#
# Bulk Modulus (GPa) = 42.52009 48.55233 45.53621
# Shear Modulus (GPa) = 25.91794 31.31543 28.61669
#
# Velocity S-wave (km/s) = 3.49733 3.84429 3.67491
# Velocity P-wave (km/s) = 6.03115 6.52823 6.28461
#
# Compressibility (1/GPa) = 0.02351829
#
# Stress axis : x y z
#
# Youngs Moduli (GPa) = 48.41569 118.56978 121.65456
#
# Poissons Ratio (x) = 0.22560 0.59563
# Poissons Ratio (y) = 0.09212 0.01171
# Poissons Ratio (z) = 0.23705 0.01141
#
# Static dielectric constant tensor:
#      x y z
#    x 1.740510 0.000000 0.000000 
#    y 0.000000 1.852120 0.000000 
#    z 0.000000 0.000000 1.796590 
# 
# From -- ./inp_files/14252.got.cif
#   From: 2010.05.17/outbox.cif.g08.bks.cpg/sg55_8_cif.got.tgz:14252.got - 2010.06.03 13:27:54.
