data_PCOD9428205
_publ_section_title
;
Structure prediction by ZEFSAII (Michael W. Deem and Ramdas Pophale) SiO2 
 PCOD9428205
Probable space group: P B A M
;
_chemical_formula_sum "Si O2"
_cell_formula_units_Z 48
_cell_length_a 16.297861
_cell_length_b 9.679554
_cell_length_c 15.464761
_cell_angle_alpha 90.000000
_cell_angle_beta 90.000000
_cell_angle_gamma 90.000000
_cell_volume 2439.659233
_symmetry_space_group_name_H-M "P B A M"
_symmetry_group_IT_number 55
_symmetry_cell_setting 'orthorhombic'
loop_
_space_group_symop_operation_xyz
x,y,z
-x,-y,z
1/2+x,1/2-y,-z
1/2-x,1/2+y,-z
-x,-y,-z
x,y,-z
1/2-x,1/2+y,z
1/2+x,1/2-y,z
loop_
_atom_site_type_symbol
_atom_site_label
_atom_site_fract_x
_atom_site_fract_y
_atom_site_fract_z
Si Si1 0.695063 0.241060 0.000000
Si Si2 0.185782 0.237034 0.190584
Si Si3 0.351712 0.060012 0.190404
Si Si4 0.060681 0.112946 0.328508
Si Si5 0.850509 0.428349 0.000000
Si Si6 0.814469 0.293605 0.500000
Si Si7 0.946978 0.372326 0.360703
Si Si8 0.345628 0.524756 0.500000
O O1 0.656495 0.286662 0.908847
O O2 0.785720 0.304345 0.000000
O O3 0.697426 0.075059 0.000000
O O4 0.275742 0.167605 0.197058
O O5 0.182805 0.403480 0.202459
O O6 0.127791 0.166671 0.261049
O O7 0.391366 0.073147 0.094343
O O8 0.416100 0.091807 0.264803
O O9 0.101774 0.046655 0.413406
O O10 0.005596 0.240810 0.358714
O O11 0.000000 0.000000 0.287947
O O12 0.867551 0.341827 0.417949
O O13 0.726613 0.363787 0.500000
O O14 0.809086 0.128692 0.500000
O O15 0.000000 0.500000 0.394668
#
# Coordination Sequence:
#
# PCOD9428205 Si02
#       8
#     4   8   8   8   4   4   8   4
#     4   8  16  34  58  86 120 159 205 253 299 349
#     4  10  21  38  63  91 123 163 209 255 300 359
#     4  10  21  38  62  93 123 163 211 251 301 359
#     4  12  25  44  65  88 127 164 199 250 310 366
#     4   8  16  34  58  85 122 161 203 254 295 349
#     4  12  28  46  68  93 121 159 205 253 301 366
#     4  12  25  43  64  93 127 160 202 250 308 366
#     4  12  28  47  68  93 119 160 207 249 305 366
#
# _framework density 19.674880000000002
#
# number of rings (size 3 to 8) (size 9 to 14) (size 15 to 20)
#    0.000    1.333    3.333    2.000    4.667    2.667 
#    0.000    1.667    0.000    0.000    0.000    0.000 
#    0.000    0.000    0.000    0.000    0.000    0.000 
#
# Total GULP energy -268037.336487 kJ/mol
# GULP energy per Si atom -5584.111177 kJ/mol
# Density = 1.963010 g / cm^3
# Si number density = 19.674880 Si / 1000 Ang^3
#
#
#
# Elastic Constant Matrix: (Units=GPa)
#
#
# Indices 1 2 3 4 5 6 
#
# 1 53.1717 18.1639 19.1180 0.0000 0.0000 0.0000
# 2 18.1639 96.6837 15.9483 0.0000 0.0000 0.0000
# 3 19.1180 15.9483 104.0587 0.0000 0.0000 0.0000
# 4 0.0000 0.0000 0.0000 23.2174 0.0000 0.0000
# 5 0.0000 0.0000 0.0000 0.0000 -177.5181 0.0000
# 6 0.0000 0.0000 0.0000 0.0000 0.0000 28.8677
#
#
#
# Elastic Compliance Matrix: (Units=1/GPa)
#
#
# Indices 1 2 3 4 5 6 
#
# 1 0.021188 -0.003425 -0.003368 0.000000 0.000000 0.000000
# 2 -0.003425 0.011165 -0.001082 0.000000 0.000000 0.000000
# 3 -0.003368 -0.001082 0.010395 0.000000 0.000000 0.000000
# 4 0.000000 0.000000 0.000000 0.043071 0.000000 0.000000
# 5 0.000000 0.000000 0.000000 0.000000 -0.005633 0.000000
# 6 0.000000 0.000000 0.000000 0.000000 0.000000 0.034641
#
#
# Mechanical properties :
#
#
# Convention : Reuss Voigt Hill
#
# Bulk Modulus (GPa) = 37.03990 40.04161 38.54076
# Shear Modulus (GPa) = 35.82311 -11.70767 12.05772
#
# Velocity S-wave (km/s) = 4.27166 -2.44202 2.47826
# Velocity P-wave (km/s) = 6.57239 3.52768 5.27450
#
# Compressibility (1/GPa) = 0.02699791
#
# Stress axis : x y z
#
# Youngs Moduli (GPa) = 47.19679 89.56624 96.20456
#
# Poissons Ratio (x) = 0.30677 0.32399
# Poissons Ratio (y) = 0.16165 0.10409
# Poissons Ratio (z) = 0.15895 0.09690
#
# Static dielectric constant tensor:
#      x y z
#    x 1.640830 0.000000 0.000000 
#    y 0.000000 1.799660 0.000000 
#    z 0.000000 0.000000 1.723950 
# 
# From -- ./inp_files/17422.got.cif
#   From: 2010.05.17/outbox.cif.g08.bks.cpg/sg55_9_cif.got.tgz:17422.got - 2010.06.03 13:27:54.
