data_PCOD9428272
_publ_section_title
;
Structure prediction by ZEFSAII (Michael W. Deem and Ramdas Pophale) SiO2 
 PCOD9428272
Probable space group: P B A M
;
_chemical_formula_sum "Si O2"
_cell_formula_units_Z 58
_cell_length_a 29.130536
_cell_length_b 12.058391
_cell_length_c 7.666725
_cell_angle_alpha 90.000000
_cell_angle_beta 90.000000
_cell_angle_gamma 90.000000
_cell_volume 2693.070505
_symmetry_space_group_name_H-M "P B A M"
_symmetry_group_IT_number 55
_symmetry_cell_setting 'orthorhombic'
loop_
_space_group_symop_operation_xyz
x,y,z
-x,-y,z
1/2+x,1/2-y,-z
1/2-x,1/2+y,-z
-x,-y,-z
x,y,-z
1/2-x,1/2+y,z
1/2+x,1/2-y,z
loop_
_atom_site_type_symbol
_atom_site_label
_atom_site_fract_x
_atom_site_fract_y
_atom_site_fract_z
Si Si1 0.882111 0.298010 0.208206
Si Si2 0.378791 0.950686 0.213494
Si Si3 0.794390 0.695974 0.202654
Si Si4 0.150424 0.098813 0.299357
Si Si5 0.000000 0.000000 0.500000
Si Si6 0.306325 0.374764 0.701158
Si Si7 0.969387 0.142633 0.790934
Si Si8 0.935303 0.755067 0.797448
O O1 0.885252 0.423980 0.272843
O O2 0.840616 0.228334 0.287135
O O3 0.928819 0.230131 0.233669
O O4 0.873721 0.302323 0.000000
O O5 0.329497 0.899586 0.263718
O O6 0.416190 0.860784 0.275976
O O7 0.380910 0.951485 0.000000
O O8 0.808497 0.810832 0.292686
O O9 0.742337 0.657912 0.219125
O O10 0.804932 0.715531 0.000000
O O11 0.137499 0.080381 0.500000
O O12 0.106568 0.158194 0.214117
O O13 0.168212 0.983048 0.221618
O O14 0.964407 0.041983 0.657171
O O15 0.296732 0.402004 0.500000
O O16 0.017388 0.197306 0.725407
O O17 0.971341 0.114467 0.000000
O O18 0.945766 0.735211 0.000000
#
# Coordination Sequence:
#
# PCOD9428272 Si02
#       8
#     8   8   8   8   2   8   8   8
#     4  10  22  40  61  92 126 162 209 257 311 379
#     4   8  17  37  64  90 120 157 203 259 315 368
#     4  10  21  39  62  88 115 155 205 253 311 375
#     4  10  22  38  59  86 119 156 202 252 309 369
#     4  12  26  40  68  84 140 168 214 268 306 374
#     4  11  25  39  57  84 122 161 203 253 315 372
#     4  10  24  41  65  97 127 173 219 259 323 378
#     4   9  19  38  63  92 121 159 211 258 303 372
#
# _framework density 21.536754999999999
#
# number of rings (size 3 to 8) (size 9 to 14) (size 15 to 20)
#    0.000    2.207    0.000    2.276    5.793    2.759 
#    0.000    5.517    0.000    0.828    0.000    0.000 
#    0.000    0.000    0.000    0.000    0.000    0.000 
#
# Total GULP energy -323388.065048 kJ/mol
# GULP energy per Si atom -5575.656294 kJ/mol
# Density = 2.148774 g / cm^3
# Si number density = 21.536755 Si / 1000 Ang^3
#
#
#
# Elastic Constant Matrix: (Units=GPa)
#
#
# Indices 1 2 3 4 5 6 
#
# 1 90.2587 34.5067 10.8640 0.0000 0.0000 0.0000
# 2 34.5067 116.2533 16.9117 0.0000 0.0000 0.0000
# 3 10.8640 16.9117 65.0444 0.0000 0.0000 0.0000
# 4 0.0000 0.0000 0.0000 15.1210 0.0000 0.0000
# 5 0.0000 0.0000 0.0000 0.0000 -16.8302 0.0000
# 6 0.0000 0.0000 0.0000 0.0000 0.0000 21.4380
#
#
#
# Elastic Compliance Matrix: (Units=1/GPa)
#
#
# Indices 1 2 3 4 5 6 
#
# 1 0.012583 -0.003564 -0.001175 0.000000 0.000000 0.000000
# 2 -0.003564 0.009950 -0.001992 0.000000 0.000000 0.000000
# 3 -0.001175 -0.001992 0.016088 0.000000 0.000000 0.000000
# 4 0.000000 0.000000 0.000000 0.066133 0.000000 0.000000
# 5 0.000000 0.000000 0.000000 0.000000 -0.059417 0.000000
# 6 0.000000 0.000000 0.000000 0.000000 0.000000 0.046646
#
#
# Mechanical properties :
#
#
# Convention : Reuss Voigt Hill
#
# Bulk Modulus (GPa) = 39.74635 44.01346 41.87991
# Shear Modulus (GPa) = 43.92468 17.89737 30.91103
#
# Velocity S-wave (km/s) = 4.52101 2.88586 3.79260
# Velocity P-wave (km/s) = 6.76372 5.62006 6.21824
#
# Compressibility (1/GPa) = 0.02515954
#
# Stress axis : x y z
#
# Youngs Moduli (GPa) = 79.47058 100.50725 62.15736
#
# Poissons Ratio (x) = 0.35822 0.07304
# Poissons Ratio (y) = 0.28324 0.12379
# Poissons Ratio (z) = 0.09338 0.20017
#
# Static dielectric constant tensor:
#      x y z
#    x 1.761280 0.000000 0.000000 
#    y 0.000000 1.819190 0.000000 
#    z 0.000000 0.000000 1.772950 
# 
# From -- ./inp_files/10212.got.cif
#   From: 2010.05.17/outbox.cif.g08.bks.cpg/sg55_6_cif.got.tgz:10212.got - 2010.06.03 13:27:54.
