data_PCOD9428406
_publ_section_title
;
Structure prediction by ZEFSAII (Michael W. Deem and Ramdas Pophale) SiO2 
 PCOD9428406
Probable space group: P B A M
;
_chemical_formula_sum "Si O2"
_cell_formula_units_Z 34
_cell_length_a 23.406397
_cell_length_b 7.009291
_cell_length_c 7.894005
_cell_angle_alpha 90.000000
_cell_angle_beta 90.000000
_cell_angle_gamma 90.000000
_cell_volume 1295.108205
_symmetry_space_group_name_H-M "P B A M"
_symmetry_group_IT_number 55
_symmetry_cell_setting 'orthorhombic'
loop_
_space_group_symop_operation_xyz
x,y,z
-x,-y,z
1/2+x,1/2-y,-z
1/2-x,1/2+y,-z
-x,-y,-z
x,y,-z
1/2-x,1/2+y,z
1/2+x,1/2-y,z
loop_
_atom_site_type_symbol
_atom_site_label
_atom_site_fract_x
_atom_site_fract_y
_atom_site_fract_z
Si Si1 0.500000 0.000000 0.500000
Si Si2 0.699444 0.828659 0.191064
Si Si3 0.914476 0.488910 0.197020
Si Si4 0.680608 0.427536 0.315160
Si Si5 0.061730 0.966531 0.802665
O O1 0.546029 0.062191 0.652156
O O2 0.654502 0.999723 0.223682
O O3 0.687509 0.657598 0.317135
O O4 0.766118 0.872710 0.199210
O O5 0.685396 0.762513 0.000000
O O6 0.925430 0.258632 0.209841
O O7 0.927860 0.543829 0.000000
O O8 0.690203 0.344866 0.500000
O O9 0.614925 0.410391 0.261997
O O10 0.057542 0.013599 0.000000
O O11 0.000000 0.000000 0.720070
#
# Coordination Sequence:
#
# PCOD9428406 Si02
#       5
#     2   8   8   8   8
#     4  12  22  36  62  82 120 156 196 242 290 364
#     4  10  21  41  62  83 118 160 200 240 300 363
#     4   9  21  39  60  85 118 160 197 242 298 355
#     4  11  22  36  61  91 120 150 195 253 300 352
#     4   9  19  39  62  83 114 155 198 239 293 358
#
# _framework density 26.252632999999999
#
# number of rings (size 3 to 8) (size 9 to 14) (size 15 to 20)
#    0.000    2.118    0.000    4.588    8.235    0.471 
#    4.235    0.000    0.000    0.000    0.000    0.000 
#    0.000    0.000    0.000    0.000    0.000    0.000 
#
# Total GULP energy -189568.419225 kJ/mol
# GULP energy per Si atom -5575.541742 kJ/mol
# Density = 2.619288 g / cm^3
# Si number density = 26.252633 Si / 1000 Ang^3
#
#
#
# Elastic Constant Matrix: (Units=GPa)
#
#
# Indices 1 2 3 4 5 6 
#
# 1 241.7180 23.8803 62.3202 0.0000 0.0000 0.0000
# 2 23.8803 51.5560 -2.1914 0.0000 0.0000 0.0000
# 3 62.3202 -2.1914 153.5742 0.0000 0.0000 0.0000
# 4 0.0000 0.0000 0.0000 -110.6332 0.0000 0.0000
# 5 0.0000 0.0000 0.0000 0.0000 21.8056 0.0000
# 6 0.0000 0.0000 0.0000 0.0000 0.0000 36.5399
#
#
#
# Elastic Compliance Matrix: (Units=1/GPa)
#
#
# Indices 1 2 3 4 5 6 
#
# 1 0.004889 -0.002351 -0.002018 0.000000 0.000000 0.000000
# 2 -0.002351 0.020538 0.001247 0.000000 0.000000 0.000000
# 3 -0.002018 0.001247 0.007348 0.000000 0.000000 0.000000
# 4 0.000000 0.000000 0.000000 -0.009039 0.000000 0.000000
# 5 0.000000 0.000000 0.000000 0.000000 0.045860 0.000000
# 6 0.000000 0.000000 0.000000 0.000000 0.000000 0.027367
#
#
# Mechanical properties :
#
#
# Convention : Reuss Voigt Hill
#
# Bulk Modulus (GPa) = 37.68879 68.31849 53.00364
# Shear Modulus (GPa) = 44.62263 13.73175 29.17719
#
# Velocity S-wave (km/s) = 4.12726 2.28954 3.33738
# Velocity P-wave (km/s) = 6.09096 5.75059 5.92322
#
# Compressibility (1/GPa) = 0.02653309
#
# Stress axis : x y z
#
# Youngs Moduli (GPa) = 204.52107 48.68992 136.09004
#
# Poissons Ratio (x) = 0.11445 0.27459
# Poissons Ratio (y) = 0.48073 -0.16969
# Poissons Ratio (z) = 0.41266 -0.06071
#
# Static dielectric constant tensor:
#      x y z
#    x 2.167830 0.000000 0.000000 
#    y 0.000000 2.145580 0.000000 
#    z 0.000000 0.000000 1.915260 
# 
# From -- ./inp_files/2117.got.cif
#   From: 2010.05.17/outbox.cif.g08.bks.cpg/sg55_2_cif.got.tgz:2117.got - 2010.06.03 13:27:54.
