data_PCOD9428295
_publ_section_title
;
Structure prediction by ZEFSAII (Michael W. Deem and Ramdas Pophale) SiO2 
 PCOD9428295
Probable space group: P B A M
;
_chemical_formula_sum "Si O2"
_cell_formula_units_Z 44
_cell_length_a 18.131916
_cell_length_b 14.667238
_cell_length_c 7.199422
_cell_angle_alpha 90.000000
_cell_angle_beta 90.000000
_cell_angle_gamma 90.000000
_cell_volume 1914.651201
_symmetry_space_group_name_H-M "P B A M"
_symmetry_group_IT_number 55
_symmetry_cell_setting 'orthorhombic'
loop_
_space_group_symop_operation_xyz
x,y,z
-x,-y,z
1/2+x,1/2-y,-z
1/2-x,1/2+y,-z
-x,-y,-z
x,y,-z
1/2-x,1/2+y,z
1/2+x,1/2-y,z
loop_
_atom_site_type_symbol
_atom_site_label
_atom_site_fract_x
_atom_site_fract_y
_atom_site_fract_z
Si Si1 0.119081 0.137189 0.222138
Si Si2 0.821807 0.572532 0.222613
Si Si3 0.538181 0.722328 0.225990
Si Si4 0.848887 0.068351 0.224283
Si Si5 0.159255 0.271325 0.500000
Si Si6 0.562312 0.928409 0.224504
O O1 0.177360 0.194970 0.336891
O O2 0.041200 0.182267 0.280778
O O3 0.120078 0.030872 0.273546
O O4 0.128402 0.144382 0.000000
O O5 0.736213 0.575562 0.278812
O O6 0.859123 0.652590 0.337346
O O7 0.859944 0.476238 0.266116
O O8 0.828720 0.587015 0.000000
O O9 0.601183 0.652071 0.287764
O O10 0.551330 0.825395 0.289500
O O11 0.538297 0.722256 0.000000
O O12 0.849627 0.071042 0.000000
O O13 0.500000 0.000000 0.286017
O O14 0.556622 0.923974 0.000000
#
# Coordination Sequence:
#
# PCOD9428295 Si02
#       6
#     8   8   8   8   4   8
#     4  10  21  39  63  91 123 158 203 258 313 374
#     4  10  22  40  60  86 122 163 210 260 309 370
#     4   9  17  34  63  93 121 160 206 255 316 378
#     4   9  19  37  62  90 122 162 205 255 316 375
#     4  12  24  38  60  88 119 162 207 250 306 366
#     4   9  17  32  56  84 116 155 199 250 304 358
#
# _framework density 22.980685000000001
#
# number of rings (size 3 to 8) (size 9 to 14) (size 15 to 20)
#    0.000    2.364    0.000    2.182    0.000    7.273 
#    0.000   12.273    0.000    0.000    0.000    0.000 
#    0.000    0.000    0.000    0.000    0.000    0.000 
#
# Total GULP energy -244951.739856 kJ/mol
# GULP energy per Si atom -5567.084997 kJ/mol
# Density = 2.292838 g / cm^3
# Si number density = 22.980685 Si / 1000 Ang^3
#
#
#
# Elastic Constant Matrix: (Units=GPa)
#
#
# Indices 1 2 3 4 5 6 
#
# 1 62.0772 19.2675 9.7110 0.0000 0.0000 0.0000
# 2 19.2675 152.8534 32.9657 0.0000 0.0000 0.0000
# 3 9.7110 32.9657 135.4993 0.0000 0.0000 0.0000
# 4 0.0000 0.0000 0.0000 -82.8560 0.0000 0.0000
# 5 0.0000 0.0000 0.0000 0.0000 -27.3171 0.0000
# 6 0.0000 0.0000 0.0000 0.0000 0.0000 -1.4410
#
#
#
# Elastic Compliance Matrix: (Units=1/GPa)
#
#
# Indices 1 2 3 4 5 6 
#
# 1 0.016833 -0.001965 -0.000728 0.000000 0.000000 0.000000
# 2 -0.001965 0.007134 -0.001595 0.000000 0.000000 0.000000
# 3 -0.000728 -0.001595 0.007820 0.000000 0.000000 0.000000
# 4 0.000000 0.000000 0.000000 -0.012069 0.000000 0.000000
# 5 0.000000 0.000000 0.000000 0.000000 -0.036607 0.000000
# 6 0.000000 0.000000 0.000000 0.000000 0.000000 -0.693961
#
#
# Mechanical properties :
#
#
# Convention : Reuss Voigt Hill
#
# Bulk Modulus (GPa) = 43.08284 52.70204 47.89244
# Shear Modulus (GPa) = -7.19903 -3.09044 -5.14474
#
# Velocity S-wave (km/s) = -1.77185 -1.16091 -1.49786
# Velocity P-wave (km/s) = 3.82128 4.60283 4.23014
#
# Compressibility (1/GPa) = 0.02321110
#
# Stress axis : x y z
#
# Youngs Moduli (GPa) = 59.40813 140.17744 127.87215
#
# Poissons Ratio (x) = 0.27541 0.09314
# Poissons Ratio (y) = 0.11672 0.20393
# Poissons Ratio (z) = 0.04327 0.22355
#
# Static dielectric constant tensor:
#      x y z
#    x 1.928430 0.000000 0.000000 
#    y 0.000000 1.835530 0.000000 
#    z 0.000000 0.000000 1.786960 
# 
# From -- ./inp_files/7322.got.cif
#   From: 2010.05.17/outbox.cif.g08.bks.cpg/sg55_4_cif.got.tgz:7322.got - 2010.06.03 13:27:54.
