data_PCOD9428014
_publ_section_title
;
Structure prediction by ZEFSAII (Michael W. Deem and Ramdas Pophale) SiO2 
 PCOD9428014
Probable space group: P B A M
;
_chemical_formula_sum "Si O2"
_cell_formula_units_Z 64
_cell_length_a 13.143495
_cell_length_b 26.670370
_cell_length_c 9.254331
_cell_angle_alpha 90.000000
_cell_angle_beta 90.000000
_cell_angle_gamma 90.000000
_cell_volume 3244.030538
_symmetry_space_group_name_H-M "P B A M"
_symmetry_group_IT_number 55
_symmetry_cell_setting 'orthorhombic'
loop_
_space_group_symop_operation_xyz
x,y,z
-x,-y,z
1/2+x,1/2-y,-z
1/2-x,1/2+y,-z
-x,-y,-z
x,y,-z
1/2-x,1/2+y,z
1/2+x,1/2-y,z
loop_
_atom_site_type_symbol
_atom_site_label
_atom_site_fract_x
_atom_site_fract_y
_atom_site_fract_z
Si Si1 0.236282 0.946216 0.673571
Si Si2 0.140432 0.631908 0.173058
Si Si3 0.006316 0.912334 0.328677
Si Si4 0.313201 0.775922 0.167111
Si Si5 0.911043 0.617023 0.829021
Si Si6 0.642470 0.762951 0.335793
Si Si7 0.809573 0.951002 0.826368
Si Si8 0.938658 0.798916 0.663697
O O1 0.245120 0.950076 0.500000
O O2 0.123998 0.923282 0.706251
O O3 0.328307 0.913419 0.737806
O O4 0.236249 0.000110 0.750242
O O5 0.147958 0.685546 0.248703
O O6 0.234934 0.595805 0.208833
O O7 0.029258 0.608968 0.211423
O O8 0.139548 0.639169 0.000000
O O9 0.992311 0.923578 0.500000
O O10 0.922508 0.942314 0.237154
O O11 0.979819 0.854025 0.304902
O O12 0.385194 0.823851 0.188257
O O13 0.213926 0.779089 0.264995
O O14 0.363330 0.724071 0.219391
O O15 0.285749 0.773432 0.000000
O O16 0.899046 0.605177 0.000000
O O17 0.672691 0.771983 0.500000
O O18 0.530808 0.740139 0.335720
O O19 0.812623 0.956460 0.000000
O O20 0.896231 0.799736 0.500000
#
# Coordination Sequence:
#
# PCOD9428014 Si02
#       8
#     8   8   8   8   8   8   8   8
#     4  11  24  42  65  90 121 160 204 258 317 375
#     4  10  22  42  63  88 125 165 207 254 309 368
#     4  10  22  41  62  88 124 161 200 252 312 371
#     4  11  22  36  58  86 120 161 201 244 294 355
#     4  10  22  41  63  88 123 163 205 254 304 364
#     4  11  22  36  58  88 123 161 202 249 298 356
#     4  11  24  41  64  91 120 158 206 260 314 371
#     4  10  21  37  58  86 119 156 196 239 294 356
#
# _framework density 19.728543999999999
#
# number of rings (size 3 to 8) (size 9 to 14) (size 15 to 20)
#    0.000    1.500    1.250    3.375    0.000    9.500 
#    0.000    2.500    0.000    0.000    0.000    0.000 
#    0.000    0.000    0.000    0.000    0.000    0.000 
#
# Total GULP energy -357515.607314 kJ/mol
# GULP energy per Si atom -5586.181364 kJ/mol
# Density = 1.968364 g / cm^3
# Si number density = 19.728544 Si / 1000 Ang^3
#
#
#
# Elastic Constant Matrix: (Units=GPa)
#
#
# Indices 1 2 3 4 5 6 
#
# 1 92.6521 3.2110 30.2696 0.0000 0.0000 0.0000
# 2 3.2110 57.9039 22.3237 0.0000 0.0000 0.0000
# 3 30.2696 22.3237 47.4745 0.0000 0.0000 0.0000
# 4 0.0000 0.0000 0.0000 21.9823 0.0000 0.0000
# 5 0.0000 0.0000 0.0000 0.0000 33.3832 0.0000
# 6 0.0000 0.0000 0.0000 0.0000 0.0000 33.0985
#
#
#
# Elastic Compliance Matrix: (Units=1/GPa)
#
#
# Indices 1 2 3 4 5 6 
#
# 1 0.014126 0.003285 -0.010551 0.000000 0.000000 0.000000
# 2 0.003285 0.021858 -0.012372 0.000000 0.000000 0.000000
# 3 -0.010551 -0.012372 0.033609 0.000000 0.000000 0.000000
# 4 0.000000 0.000000 0.000000 0.045491 0.000000 0.000000
# 5 0.000000 0.000000 0.000000 0.000000 0.029955 0.000000
# 6 0.000000 0.000000 0.000000 0.000000 0.000000 0.030213
#
#
# Mechanical properties :
#
#
# Convention : Reuss Voigt Hill
#
# Bulk Modulus (GPa) = 32.98689 34.40435 33.69562
# Shear Modulus (GPa) = 22.25823 27.17457 24.71640
#
# Velocity S-wave (km/s) = 3.36255 3.71539 3.54337
# Velocity P-wave (km/s) = 5.64202 5.99018 5.81870
#
# Compressibility (1/GPa) = 0.03031508
#
# Stress axis : x y z
#
# Youngs Moduli (GPa) = 70.78939 45.75034 29.75365
#
# Poissons Ratio (x) = -0.15027 0.31394
# Poissons Ratio (y) = -0.23251 0.36812
# Poissons Ratio (z) = 0.74693 0.56604
#
# Static dielectric constant tensor:
#      x y z
#    x 1.722380 0.000000 0.000000 
#    y 0.000000 1.673870 0.000000 
#    z 0.000000 0.000000 1.688720 
# 
# From -- ./inp_files/6493.got.cif
#   From: 2010.05.17/outbox.cif.g08.bks.cpg/sg55_4_cif.got.tgz:6493.got - 2010.06.03 13:27:54.
