data_PCOD9428099
_publ_section_title
;
Structure prediction by ZEFSAII (Michael W. Deem and Ramdas Pophale) SiO2 
 PCOD9428099
Probable space group: P B A M
;
_chemical_formula_sum "Si O2"
_cell_formula_units_Z 32
_cell_length_a 29.405542
_cell_length_b 5.224471
_cell_length_c 8.385225
_cell_angle_alpha 90.000000
_cell_angle_beta 90.000000
_cell_angle_gamma 90.000000
_cell_volume 1288.208712
_symmetry_space_group_name_H-M "P B A M"
_symmetry_group_IT_number 55
_symmetry_cell_setting 'orthorhombic'
loop_
_space_group_symop_operation_xyz
x,y,z
-x,-y,z
1/2+x,1/2-y,-z
1/2-x,1/2+y,-z
-x,-y,-z
x,y,-z
1/2-x,1/2+y,z
1/2+x,1/2-y,z
loop_
_atom_site_type_symbol
_atom_site_label
_atom_site_fract_x
_atom_site_fract_y
_atom_site_fract_z
Si Si1 0.724648 0.613816 0.809239
Si Si2 0.628909 0.108236 0.500000
Si Si3 0.431043 0.403428 0.500000
Si Si4 0.854658 0.473036 0.823581
Si Si5 0.541605 0.802348 0.826673
O O1 0.754475 0.852011 0.745795
O O2 0.672479 0.707857 0.794891
O O3 0.731251 0.594980 0.000000
O O4 0.589252 0.315442 0.500000
O O5 0.654735 0.137268 0.333386
O O6 0.607835 0.819986 0.500000
O O7 0.457311 0.358801 0.665115
O O8 0.908992 0.439672 0.827998
O O9 0.840434 0.569940 0.000000
O O10 0.500000 0.000000 0.819671
O O11 0.539940 0.666499 0.000000
#
# Coordination Sequence:
#
# PCOD9428099 Si02
#       5
#     8   4   4   8   8
#     4   9  18  33  55  82 110 145 189 234 287 348
#     4  10  22  38  59  87 114 150 198 235 285 354
#     4  10  21  38  58  83 118 154 192 241 288 338
#     4   9  19  37  59  84 118 154 191 243 295 345
#     4   9  18  35  60  89 120 158 202 245 297 358
#
# _framework density 24.840696000000001
#
# number of rings (size 3 to 8) (size 9 to 14) (size 15 to 20)
#    0.000    2.750    0.000    0.375    0.000    5.000 
#    0.000   18.750    0.000   13.500    0.000    0.000 
#    0.000    0.000    0.000    0.000    0.000    0.000 
#
# Total GULP energy -178611.984156 kJ/mol
# GULP energy per Si atom -5581.624505 kJ/mol
# Density = 2.478416 g / cm^3
# Si number density = 24.840696 Si / 1000 Ang^3
#
#
#
# Elastic Constant Matrix: (Units=GPa)
#
#
# Indices 1 2 3 4 5 6 
#
# 1 153.6314 35.6442 -0.3843 0.0000 0.0000 0.0000
# 2 35.6442 68.3296 24.3274 0.0000 0.0000 0.0000
# 3 -0.3843 24.3274 224.0232 0.0000 0.0000 0.0000
# 4 0.0000 0.0000 0.0000 36.7905 0.0000 0.0000
# 5 0.0000 0.0000 0.0000 0.0000 14.7112 0.0000
# 6 0.0000 0.0000 0.0000 0.0000 0.0000 49.6463
#
#
#
# Elastic Compliance Matrix: (Units=1/GPa)
#
#
# Indices 1 2 3 4 5 6 
#
# 1 0.007449 -0.004047 0.000452 0.000000 0.000000 0.000000
# 2 -0.004047 0.017422 -0.001899 0.000000 0.000000 0.000000
# 3 0.000452 -0.001899 0.004671 0.000000 0.000000 0.000000
# 4 0.000000 0.000000 0.000000 0.027181 0.000000 0.000000
# 5 0.000000 0.000000 0.000000 0.000000 0.067975 0.000000
# 6 0.000000 0.000000 0.000000 0.000000 0.000000 0.020142
#
#
# Mechanical properties :
#
#
# Convention : Reuss Voigt Hill
#
# Bulk Modulus (GPa) = 53.89372 62.79540 58.34456
# Shear Modulus (GPa) = 30.86176 45.98938 38.42557
#
# Velocity S-wave (km/s) = 3.52857 4.30743 3.93731
# Velocity P-wave (km/s) = 6.19225 7.07621 6.64893
#
# Compressibility (1/GPa) = 0.01855504
#
# Stress axis : x y z
#
# Youngs Moduli (GPa) = 134.24378 57.39853 214.09598
#
# Poissons Ratio (x) = 0.23228 -0.09682
# Poissons Ratio (y) = 0.54327 0.40654
# Poissons Ratio (z) = -0.06071 0.10899
#
# Static dielectric constant tensor:
#      x y z
#    x 1.987370 0.000000 0.000000 
#    y 0.000000 1.948980 0.000000 
#    z 0.000000 0.000000 2.021890 
# 
# From -- ./inp_files/1330.got.cif
#   From: 2010.05.17/outbox.cif.g08.bks.cpg/sg55_1_cif.got.tgz:1330.got - 2010.06.03 13:27:54.
