data_PCOD9428696
_publ_section_title
;
Structure prediction by ZEFSAII (Michael W. Deem and Ramdas Pophale) SiO2 
 PCOD9428696
Probable space group: P B A M
;
_chemical_formula_sum "Si O2"
_cell_formula_units_Z 48
_cell_length_a 9.426930
_cell_length_b 18.231620
_cell_length_c 12.467324
_cell_angle_alpha 90.000000
_cell_angle_beta 90.000000
_cell_angle_gamma 90.000000
_cell_volume 2142.736604
_symmetry_space_group_name_H-M "P B A M"
_symmetry_group_IT_number 55
_symmetry_cell_setting 'orthorhombic'
loop_
_space_group_symop_operation_xyz
x,y,z
-x,-y,z
1/2+x,1/2-y,-z
1/2-x,1/2+y,-z
-x,-y,-z
x,y,-z
1/2-x,1/2+y,z
1/2+x,1/2-y,z
loop_
_atom_site_type_symbol
_atom_site_label
_atom_site_fract_x
_atom_site_fract_y
_atom_site_fract_z
Si Si1 0.026918 0.730280 0.376258
Si Si2 0.358702 0.462410 0.814640
Si Si3 0.295226 0.714844 0.000000
Si Si4 0.399688 0.347341 0.000000
Si Si5 0.303965 0.097080 0.164748
Si Si6 0.315162 0.658890 0.625500
Si Si7 0.567846 0.075169 0.283704
O O1 0.988301 0.737410 0.500000
O O2 0.957992 0.803695 0.329829
O O3 0.963395 0.652573 0.339693
O O4 0.195254 0.722677 0.368553
O O5 0.500000 0.500000 0.766942
O O6 0.402904 0.398736 0.895807
O O7 0.278356 0.527310 0.879511
O O8 0.234087 0.434612 0.736492
O O9 0.239269 0.796891 0.000000
O O10 0.233484 0.670249 0.101847
O O11 0.463610 0.705299 0.000000
O O12 0.244285 0.102682 0.287241
O O13 0.471519 0.083747 0.175799
O O14 0.321028 0.633684 0.500000
O O15 0.500000 0.000000 0.333688
#
# Coordination Sequence:
#
# PCOD9428696 Si02
#       7
#     8   8   4   4   8   8   8
#     4   9  18  34  57  87 125 162 206 258 316 376
#     4  11  22  43  65  85 123 173 209 256 312 375
#     4  12  27  42  63  99 124 166 205 264 310 378
#     4  12  28  43  64  93 129 164 214 253 324 377
#     4  10  22  41  65  91 131 163 212 258 314 379
#     4   9  19  35  59  90 126 167 208 261 315 373
#     4   9  21  37  59  89 118 166 210 254 313 369
#
# _framework density 22.401260000000001
#
# number of rings (size 3 to 8) (size 9 to 14) (size 15 to 20)
#    0.000    2.000    1.667    0.750    4.667    3.000 
#    0.000    5.000    0.000    1.000    0.000    0.000 
#    0.000    0.000    0.000    0.000    0.000    0.000 
#
# Total GULP energy -267628.508223 kJ/mol
# GULP energy per Si atom -5575.593921 kJ/mol
# Density = 2.235027 g / cm^3
# Si number density = 22.401260 Si / 1000 Ang^3
#
#
#
# Elastic Constant Matrix: (Units=GPa)
#
#
# Indices 1 2 3 4 5 6 
#
# 1 107.0866 11.0182 4.6199 0.0000 0.0000 0.0000
# 2 11.0182 50.5195 8.6767 0.0000 0.0000 0.0000
# 3 4.6199 8.6767 55.0985 0.0000 0.0000 0.0000
# 4 0.0000 0.0000 0.0000 23.6245 0.0000 0.0000
# 5 0.0000 0.0000 0.0000 0.0000 18.9229 0.0000
# 6 0.0000 0.0000 0.0000 0.0000 0.0000 54.5896
#
#
#
# Elastic Compliance Matrix: (Units=1/GPa)
#
#
# Indices 1 2 3 4 5 6 
#
# 1 0.009565 -0.002003 -0.000487 0.000000 0.000000 0.000000
# 2 -0.002003 0.020764 -0.003102 0.000000 0.000000 0.000000
# 3 -0.000487 -0.003102 0.018679 0.000000 0.000000 0.000000
# 4 0.000000 0.000000 0.000000 0.042329 0.000000 0.000000
# 5 0.000000 0.000000 0.000000 0.000000 0.052846 0.000000
# 6 0.000000 0.000000 0.000000 0.000000 0.000000 0.018319
#
#
# Mechanical properties :
#
#
# Convention : Reuss Voigt Hill
#
# Bulk Modulus (GPa) = 26.43724 29.03712 27.73718
# Shear Modulus (GPa) = 26.83957 31.98671 29.41314
#
# Velocity S-wave (km/s) = 3.46515 3.78285 3.62748
# Velocity P-wave (km/s) = 5.27608 5.66307 5.47300
#
# Compressibility (1/GPa) = 0.03782543
#
# Stress axis : x y z
#
# Youngs Moduli (GPa) = 104.54475 48.16065 53.53717
#
# Poissons Ratio (x) = 0.09645 0.02605
# Poissons Ratio (y) = 0.20936 0.16607
# Poissons Ratio (z) = 0.05088 0.14939
#
# Static dielectric constant tensor:
#      x y z
#    x 1.901620 0.000000 0.000000 
#    y 0.000000 1.847620 0.000000 
#    z 0.000000 0.000000 1.847870 
# 
# From -- ./inp_files/17412.got.cif
#   From: 2010.05.17/outbox.cif.g08.bks.cpg/sg55_9_cif.got.tgz:17412.got - 2010.06.03 13:27:54.
