data_PCOD9428048
_publ_section_title
;
Structure prediction by ZEFSAII (Michael W. Deem and Ramdas Pophale) SiO2 
 PCOD9428048
Probable space group: P B A M
;
_chemical_formula_sum "Si O2"
_cell_formula_units_Z 40
_cell_length_a 13.898049
_cell_length_b 5.331609
_cell_length_c 24.379931
_cell_angle_alpha 90.000000
_cell_angle_beta 90.000000
_cell_angle_gamma 90.000000
_cell_volume 1806.527608
_symmetry_space_group_name_H-M "P B A M"
_symmetry_group_IT_number 55
_symmetry_cell_setting 'orthorhombic'
loop_
_space_group_symop_operation_xyz
x,y,z
-x,-y,z
1/2+x,1/2-y,-z
1/2-x,1/2+y,-z
-x,-y,-z
x,y,-z
1/2-x,1/2+y,z
1/2+x,1/2-y,z
loop_
_atom_site_type_symbol
_atom_site_label
_atom_site_fract_x
_atom_site_fract_y
_atom_site_fract_z
Si Si1 0.813766 0.838718 0.438159
Si Si2 0.141671 0.364480 0.780912
Si Si3 0.358487 0.363618 0.174545
Si Si4 0.438404 0.745726 0.668400
Si Si5 0.065035 0.748786 0.061105
O O1 0.855051 0.824499 0.500000
O O2 0.739359 0.606447 0.433030
O O3 0.889026 0.806495 0.389670
O O4 0.096624 0.637547 0.790335
O O5 0.250229 0.396764 0.802950
O O6 0.137055 0.288605 0.717621
O O7 0.097360 0.137839 0.816200
O O8 0.362672 0.279090 0.111633
O O9 0.500000 0.500000 0.682671
O O10 0.500000 0.000000 0.664905
O O11 0.000000 0.500000 0.068938
O O12 0.108929 0.730351 0.000000
O O13 0.000000 0.000000 0.061892
#
# Coordination Sequence:
#
# PCOD9428048 Si02
#       5
#     8   8   8   8   8
#     4  10  23  43  70  97 128 175 217 258 316 383
#     4  10  23  38  58  87 122 161 208 254 310 373
#     4  10  21  39  60  85 117 171 201 255 311 373
#     4  12  26  41  64  98 130 168 213 271 325 370
#     4  10  21  37  60  89 121 157 201 258 316 371
#
# _framework density 22.141925000000001
#
# number of rings (size 3 to 8) (size 9 to 14) (size 15 to 20)
#    0.000    1.600    0.000    3.600    5.600    5.600 
#    0.000    4.000    0.000    0.000    0.000    0.000 
#    0.000    0.000    0.000    0.000    0.000    0.000 
#
# Total GULP energy -223586.134556 kJ/mol
# GULP energy per Si atom -5589.653364 kJ/mol
# Density = 2.209153 g / cm^3
# Si number density = 22.141925 Si / 1000 Ang^3
#
#
#
# Elastic Constant Matrix: (Units=GPa)
#
#
# Indices 1 2 3 4 5 6 
#
# 1 59.0848 9.9256 38.8136 0.0000 0.0000 0.0000
# 2 9.9256 156.5231 -4.0744 0.0000 0.0000 0.0000
# 3 38.8136 -4.0744 145.7912 0.0000 0.0000 0.0000
# 4 0.0000 0.0000 0.0000 35.5934 0.0000 0.0000
# 5 0.0000 0.0000 0.0000 0.0000 14.6064 0.0000
# 6 0.0000 0.0000 0.0000 0.0000 0.0000 21.5046
#
#
#
# Elastic Compliance Matrix: (Units=1/GPa)
#
#
# Indices 1 2 3 4 5 6 
#
# 1 0.020844 -0.001467 -0.005590 0.000000 0.000000 0.000000
# 2 -0.001467 0.006497 0.000572 0.000000 0.000000 0.000000
# 3 -0.005590 0.000572 0.008363 0.000000 0.000000 0.000000
# 4 0.000000 0.000000 0.000000 0.028095 0.000000 0.000000
# 5 0.000000 0.000000 0.000000 0.000000 0.068463 0.000000
# 6 0.000000 0.000000 0.000000 0.000000 0.000000 0.046502
#
#
# Mechanical properties :
#
#
# Convention : Reuss Voigt Hill
#
# Bulk Modulus (GPa) = 43.98839 50.08098 47.03469
# Shear Modulus (GPa) = 25.08632 35.45650 30.27141
#
# Velocity S-wave (km/s) = 3.36963 4.00600 3.70152
# Velocity P-wave (km/s) = 5.92021 6.63812 6.28942
#
# Compressibility (1/GPa) = 0.02273327
#
# Stress axis : x y z
#
# Youngs Moduli (GPa) = 47.97643 153.92253 119.56915
#
# Poissons Ratio (x) = 0.22585 0.66841
# Poissons Ratio (y) = 0.07039 -0.06842
# Poissons Ratio (z) = 0.26819 -0.08807
#
# Static dielectric constant tensor:
#      x y z
#    x 1.647490 0.000000 0.000000 
#    y 0.000000 1.887420 0.000000 
#    z 0.000000 0.000000 1.794450 
# 
# From -- ./inp_files/23578.got.cif
#   From: 2010.05.17/outbox.cif.g08.bks.cpg/sg55_12_cif.got.tgz:23578.got - 2010.06.03 13:27:54.
