data_PCOD9428041
_publ_section_title
;
Structure prediction by ZEFSAII (Michael W. Deem and Ramdas Pophale) SiO2 
 PCOD9428041
Probable space group: P B A M
;
_chemical_formula_sum "Si O2"
_cell_formula_units_Z 64
_cell_length_a 31.629731
_cell_length_b 12.268249
_cell_length_c 7.627371
_cell_angle_alpha 90.000000
_cell_angle_beta 90.000000
_cell_angle_gamma 90.000000
_cell_volume 2959.735841
_symmetry_space_group_name_H-M "P B A M"
_symmetry_group_IT_number 55
_symmetry_cell_setting 'orthorhombic'
loop_
_space_group_symop_operation_xyz
x,y,z
-x,-y,z
1/2+x,1/2-y,-z
1/2-x,1/2+y,-z
-x,-y,-z
x,y,-z
1/2-x,1/2+y,z
1/2+x,1/2-y,z
loop_
_atom_site_type_symbol
_atom_site_label
_atom_site_fract_x
_atom_site_fract_y
_atom_site_fract_z
Si Si1 0.046049 0.982291 0.701498
Si Si2 0.043016 0.444409 0.711097
Si Si3 0.195718 0.991323 0.211520
Si Si4 0.879681 0.172497 0.289571
Si Si5 0.074476 0.217122 0.207253
Si Si6 0.374802 0.078272 0.289307
Si Si7 0.331676 0.728875 0.213691
Si Si8 0.289946 0.945364 0.788939
O O1 0.038648 0.946292 0.500000
O O2 0.080041 0.897470 0.778283
O O3 0.065547 0.102809 0.702789
O O4 0.000000 0.000000 0.786031
O O5 0.043458 0.452272 0.500000
O O6 0.043518 0.316796 0.756730
O O7 0.085548 0.505592 0.776292
O O8 0.000000 0.500000 0.775120
O O9 0.163095 0.895278 0.255203
O O10 0.243621 0.977414 0.276301
O O11 0.178624 0.107770 0.274876
O O12 0.197011 0.996069 0.000000
O O13 0.884079 0.177195 0.500000
O O14 0.877525 0.296776 0.224297
O O15 0.120665 0.257538 0.264110
O O16 0.075429 0.194906 0.000000
O O17 0.378393 0.081761 0.500000
O O18 0.329423 0.024071 0.250413
O O19 0.301316 0.824344 0.275506
O O20 0.329816 0.728055 0.000000
O O21 0.287245 0.941474 0.000000
#
# Coordination Sequence:
#
# PCOD9428041 Si02
#       8
#     8   8   8   8   8   8   8   8
#     4  10  22  39  62  86 113 153 198 238 282 342
#     4  10  22  39  62  86 113 153 198 238 282 342
#     4  10  21  37  60  85 112 150 193 233 281 342
#     4  10  22  39  57  82 117 151 188 238 288 334
#     4  11  21  37  61  86 119 150 186 243 293 339
#     4  10  22  39  57  82 117 151 188 238 288 334
#     4   9  18  35  55  82 115 144 182 237 285 327
#     4  10  21  37  60  85 112 150 193 233 281 342
#
# _framework density 21.623550999999999
#
# number of rings (size 3 to 8) (size 9 to 14) (size 15 to 20)
#    0.000    2.000    2.500    0.375    3.500    1.500 
#    0.000    0.625    0.000    0.000    0.000    0.000 
#    0.000    0.000    0.000    0.000    0.000    0.000 
#
# Total GULP energy -357376.459169 kJ/mol
# GULP energy per Si atom -5584.007175 kJ/mol
# Density = 2.157433 g / cm^3
# Si number density = 21.623551 Si / 1000 Ang^3
#
#
#
# Elastic Constant Matrix: (Units=GPa)
#
#
# Indices 1 2 3 4 5 6 
#
# 1 106.6790 23.8504 1.2265 0.0000 0.0000 0.0000
# 2 23.8504 117.4934 -5.6188 0.0000 0.0000 0.0000
# 3 1.2265 -5.6188 46.3812 0.0000 0.0000 0.0000
# 4 0.0000 0.0000 0.0000 25.7725 0.0000 0.0000
# 5 0.0000 0.0000 0.0000 0.0000 325.4075 0.0000
# 6 0.0000 0.0000 0.0000 0.0000 0.0000 37.3775
#
#
#
# Elastic Compliance Matrix: (Units=1/GPa)
#
#
# Indices 1 2 3 4 5 6 
#
# 1 0.009831 -0.002020 -0.000505 0.000000 0.000000 0.000000
# 2 -0.002020 0.008976 0.001141 0.000000 0.000000 0.000000
# 3 -0.000505 0.001141 0.021712 0.000000 0.000000 0.000000
# 4 0.000000 0.000000 0.000000 0.038801 0.000000 0.000000
# 5 0.000000 0.000000 0.000000 0.000000 0.003073 0.000000
# 6 0.000000 0.000000 0.000000 0.000000 0.000000 0.026754
#
#
# Mechanical properties :
#
#
# Convention : Reuss Voigt Hill
#
# Bulk Modulus (GPa) = 26.48900 34.38553 30.43727
# Shear Modulus (GPa) = 40.16112 94.45118 67.30615
#
# Velocity S-wave (km/s) = 4.31430 6.61624 5.58515
# Velocity P-wave (km/s) = 6.09050 8.61989 7.46314
#
# Compressibility (1/GPa) = 0.03775151
#
# Stress axis : x y z
#
# Youngs Moduli (GPa) = 101.71606 111.41218 46.05747
#
# Poissons Ratio (x) = 0.22503 0.02324
# Poissons Ratio (y) = 0.20545 -0.05254
# Poissons Ratio (z) = 0.05133 -0.12709
#
# Static dielectric constant tensor:
#      x y z
#    x 1.799310 0.000000 0.000000 
#    y 0.000000 1.762550 0.000000 
#    z 0.000000 0.000000 1.816450 
# 
# From -- ./inp_files/4620.got.cif
#   From: 2010.05.17/outbox.cif.g08.bks.cpg/sg55_3_cif.got.tgz:4620.got - 2010.06.03 13:27:54.
