data_PCOD9428623
_publ_section_title
;
Structure prediction by ZEFSAII (Michael W. Deem and Ramdas Pophale) SiO2 
 PCOD9428623
Probable space group: P B A M
;
_chemical_formula_sum "Si O2"
_cell_formula_units_Z 40
_cell_length_a 29.423212
_cell_length_b 7.236489
_cell_length_c 9.199276
_cell_angle_alpha 90.000000
_cell_angle_beta 90.000000
_cell_angle_gamma 90.000000
_cell_volume 1958.716745
_symmetry_space_group_name_H-M "P B A M"
_symmetry_group_IT_number 55
_symmetry_cell_setting 'orthorhombic'
loop_
_space_group_symop_operation_xyz
x,y,z
-x,-y,z
1/2+x,1/2-y,-z
1/2-x,1/2+y,-z
-x,-y,-z
x,y,-z
1/2-x,1/2+y,z
1/2+x,1/2-y,z
loop_
_atom_site_type_symbol
_atom_site_label
_atom_site_fract_x
_atom_site_fract_y
_atom_site_fract_z
Si Si1 0.600026 0.872004 0.829344
Si Si2 0.710815 0.227310 0.665083
Si Si3 0.378126 0.694007 0.172120
Si Si4 0.449462 0.425643 0.327432
Si Si5 0.688547 0.795301 0.334591
O O1 0.559630 0.775682 0.741185
O O2 0.606170 0.091666 0.807053
O O3 0.645801 0.773562 0.769617
O O4 0.594697 0.838704 0.000000
O O5 0.712514 0.303880 0.500000
O O6 0.672382 0.325880 0.759833
O O7 0.762651 0.224776 0.719650
O O8 0.695570 0.015742 0.656157
O O9 0.413835 0.564344 0.252869
O O10 0.377088 0.657770 0.000000
O O11 0.500000 0.500000 0.300042
O O12 0.441795 0.419239 0.500000
O O13 0.679714 0.728080 0.500000
#
# Coordination Sequence:
#
# PCOD9428623 Si02
#       5
#     8   8   8   8   8
#     4  10  22  40  61  88 123 160 197 244 302 361
#     4   9  18  32  52  81 116 157 201 242 288 346
#     4  10  22  40  61  88 123 160 197 244 302 361
#     4  11  25  43  65  91 117 153 203 255 306 361
#     4   9  18  32  52  81 116 157 201 242 288 346
#
# _framework density 20.421534000000001
#
# number of rings (size 3 to 8) (size 9 to 14) (size 15 to 20)
#    0.000    2.200    0.000    1.800    2.800    5.600 
#    0.000    4.000    0.000    0.000    0.000    0.000 
#    0.000    0.000    0.000    0.000    0.000    0.000 
#
# Total GULP energy -223441.402094 kJ/mol
# GULP energy per Si atom -5586.035052 kJ/mol
# Density = 2.037505 g / cm^3
# Si number density = 20.421534 Si / 1000 Ang^3
#
#
#
# Elastic Constant Matrix: (Units=GPa)
#
#
# Indices 1 2 3 4 5 6 
#
# 1 72.3095 17.0436 40.1726 0.0000 0.0000 0.0000
# 2 17.0436 49.4248 24.7285 0.0000 0.0000 0.0000
# 3 40.1726 24.7285 75.8879 0.0000 0.0000 0.0000
# 4 0.0000 0.0000 0.0000 23.8423 0.0000 0.0000
# 5 0.0000 0.0000 0.0000 0.0000 123.7776 0.0000
# 6 0.0000 0.0000 0.0000 0.0000 0.0000 30.3564
#
#
#
# Elastic Compliance Matrix: (Units=1/GPa)
#
#
# Indices 1 2 3 4 5 6 
#
# 1 0.019737 -0.001886 -0.009834 0.000000 0.000000 0.000000
# 2 -0.001886 0.024354 -0.006937 0.000000 0.000000 0.000000
# 3 -0.009834 -0.006937 0.020644 0.000000 0.000000 0.000000
# 4 0.000000 0.000000 0.000000 0.041942 0.000000 0.000000
# 5 0.000000 0.000000 0.000000 0.000000 0.008079 0.000000
# 6 0.000000 0.000000 0.000000 0.000000 0.000000 0.032942
#
#
# Mechanical properties :
#
#
# Convention : Reuss Voigt Hill
#
# Bulk Modulus (GPa) = 36.46915 40.16795 38.31855
# Shear Modulus (GPa) = 25.75289 43.30708 34.52998
#
# Velocity S-wave (km/s) = 3.55500 4.61006 4.11647
# Velocity P-wave (km/s) = 5.89471 6.93173 6.43415
#
# Compressibility (1/GPa) = 0.02742044
#
# Stress axis : x y z
#
# Youngs Moduli (GPa) = 50.66564 41.06070 48.44130
#
# Poissons Ratio (x) = 0.07745 0.47635
# Poissons Ratio (y) = 0.09556 0.33606
# Poissons Ratio (z) = 0.49823 0.28486
#
# Static dielectric constant tensor:
#      x y z
#    x 1.721720 0.000000 0.000000 
#    y 0.000000 1.782390 0.000000 
#    z 0.000000 0.000000 1.692640 
# 
# From -- ./inp_files/9999.got.cif
#   From: 2010.05.17/outbox.cif.g08.bks.cpg/sg55_5_cif.got.tgz:9999.got - 2010.06.03 13:27:54.
