data_PCOD9428455
_publ_section_title
;
Structure prediction by ZEFSAII (Michael W. Deem and Ramdas Pophale) SiO2 
 PCOD9428455
Probable space group: P B A M
;
_chemical_formula_sum "Si O2"
_cell_formula_units_Z 64
_cell_length_a 14.505647
_cell_length_b 7.938090
_cell_length_c 23.688222
_cell_angle_alpha 90.000000
_cell_angle_beta 90.000000
_cell_angle_gamma 90.000000
_cell_volume 2727.630811
_symmetry_space_group_name_H-M "P B A M"
_symmetry_group_IT_number 55
_symmetry_cell_setting 'orthorhombic'
loop_
_space_group_symop_operation_xyz
x,y,z
-x,-y,z
1/2+x,1/2-y,-z
1/2-x,1/2+y,-z
-x,-y,-z
x,y,-z
1/2-x,1/2+y,z
1/2+x,1/2-y,z
loop_
_atom_site_type_symbol
_atom_site_label
_atom_site_fract_x
_atom_site_fract_y
_atom_site_fract_z
Si Si1 0.953453 0.312916 0.935689
Si Si2 0.806617 0.965717 0.674654
Si Si3 0.293947 0.344955 0.565034
Si Si4 0.040785 0.178715 0.268225
Si Si5 0.301414 0.056898 0.854698
Si Si6 0.149072 0.690698 0.269259
Si Si7 0.608941 0.312802 0.141272
Si Si8 0.103516 0.483968 0.565770
O O1 0.861591 0.334851 0.898770
O O2 0.000000 0.500000 0.936596
O O3 0.027998 0.196235 0.904331
O O4 0.935527 0.261916 0.000000
O O5 0.866630 0.808025 0.696331
O O6 0.701388 0.912082 0.682741
O O7 0.834223 0.036039 0.613900
O O8 0.822499 0.116019 0.719767
O O9 0.302028 0.406733 0.500000
O O10 0.184608 0.349627 0.580745
O O11 0.344566 0.165447 0.567133
O O12 0.065233 0.162021 0.202656
O O13 0.960673 0.313539 0.273875
O O14 0.000000 0.000000 0.288757
O O15 0.318590 0.129582 0.791958
O O16 0.193222 0.061018 0.868335
O O17 0.341823 0.869648 0.856830
O O18 0.086885 0.440637 0.500000
O O19 0.000000 0.500000 0.591599
#
# Coordination Sequence:
#
# PCOD9428455 Si02
#       8
#     8   8   8   8   8   8   8   8
#     4   9  20  39  61  91 131 171 218 266 311 385
#     4  11  23  41  64  95 132 163 216 274 331 394
#     4  10  21  42  71  98 135 179 224 280 345 413
#     4  10  23  39  64  92 130 171 212 276 329 389
#     4  11  22  37  65  94 125 170 217 263 328 389
#     4  11  22  40  62  92 126 167 210 268 325 389
#     4  11  22  38  64  94 125 172 216 263 330 386
#     4   9  19  40  71 101 131 176 229 274 330 410
#
# _framework density 23.463584999999998
#
# number of rings (size 3 to 8) (size 9 to 14) (size 15 to 20)
#    0.000    1.750    2.500    1.500    1.750    0.500 
#    0.000   10.625    5.500   16.500    0.000    0.000 
#    0.000    0.000    0.000    0.000    0.000    0.000 
#
# Total GULP energy -357729.763948 kJ/mol
# GULP energy per Si atom -5589.527562 kJ/mol
# Density = 2.341018 g / cm^3
# Si number density = 23.463585 Si / 1000 Ang^3
#
#
#
# Elastic Constant Matrix: (Units=GPa)
#
#
# Indices 1 2 3 4 5 6 
#
# 1 110.3880 39.1575 14.1337 0.0000 0.0000 0.0000
# 2 39.1575 50.0653 1.8827 0.0000 0.0000 0.0000
# 3 14.1337 1.8827 137.7522 0.0000 0.0000 0.0000
# 4 0.0000 0.0000 0.0000 28.1699 0.0000 0.0000
# 5 0.0000 0.0000 0.0000 0.0000 9.3947 0.0000
# 6 0.0000 0.0000 0.0000 0.0000 0.0000 37.2610
#
#
#
# Elastic Compliance Matrix: (Units=1/GPa)
#
#
# Indices 1 2 3 4 5 6 
#
# 1 0.012723 -0.009907 -0.001170 0.000000 0.000000 0.000000
# 2 -0.009907 0.027699 0.000638 0.000000 0.000000 0.000000
# 3 -0.001170 0.000638 0.007371 0.000000 0.000000 0.000000
# 4 0.000000 0.000000 0.000000 0.035499 0.000000 0.000000
# 5 0.000000 0.000000 0.000000 0.000000 0.106443 0.000000
# 6 0.000000 0.000000 0.000000 0.000000 0.000000 0.026838
#
#
# Mechanical properties :
#
#
# Convention : Reuss Voigt Hill
#
# Bulk Modulus (GPa) = 37.15536 45.39479 41.27508
# Shear Modulus (GPa) = 20.29043 31.16722 25.72883
#
# Velocity S-wave (km/s) = 2.94388 3.64857 3.31500
# Velocity P-wave (km/s) = 5.23688 6.09412 5.68169
#
# Compressibility (1/GPa) = 0.02691402
#
# Stress axis : x y z
#
# Youngs Moduli (GPa) = 78.59746 36.10302 135.67162
#
# Poissons Ratio (x) = 0.35767 0.15874
# Poissons Ratio (y) = 0.77867 -0.08655
# Poissons Ratio (z) = 0.09196 -0.02303
#
# Static dielectric constant tensor:
#      x y z
#    x 2.029410 0.000000 0.000000 
#    y 0.000000 1.939950 0.000000 
#    z 0.000000 0.000000 1.849260 
# 
# From -- ./inp_files/23604.got.cif
#   From: 2010.05.17/outbox.cif.g08.bks.cpg/sg55_12_cif.got.tgz:23604.got - 2010.06.03 13:27:54.
