data_PCOD9428777
_publ_section_title
;
Structure prediction by ZEFSAII (Michael W. Deem and Ramdas Pophale) SiO2 
 PCOD9428777
Probable space group: P B A M
;
_chemical_formula_sum "Si O2"
_cell_formula_units_Z 30
_cell_length_a 5.103226
_cell_length_b 15.924512
_cell_length_c 16.745647
_cell_angle_alpha 90.000000
_cell_angle_beta 90.000000
_cell_angle_gamma 90.000000
_cell_volume 1360.858174
_symmetry_space_group_name_H-M "P B A M"
_symmetry_group_IT_number 55
_symmetry_cell_setting 'orthorhombic'
loop_
_space_group_symop_operation_xyz
x,y,z
-x,-y,z
1/2+x,1/2-y,-z
1/2-x,1/2+y,-z
-x,-y,-z
x,y,-z
1/2-x,1/2+y,z
1/2+x,1/2-y,z
loop_
_atom_site_type_symbol
_atom_site_label
_atom_site_fract_x
_atom_site_fract_y
_atom_site_fract_z
Si Si1 0.254797 0.058287 0.907072
Si Si2 0.875614 0.416077 0.631498
Si Si3 0.832119 0.804210 0.225855
Si Si4 0.500000 0.500000 0.500000
Si Si5 0.358679 0.807790 0.500000
O O1 0.226976 0.137582 0.849959
O O2 0.500000 0.000000 0.885258
O O3 0.284227 0.083658 0.000000
O O4 0.000000 0.000000 0.899912
O O5 0.742395 0.356536 0.695539
O O6 0.667315 0.449889 0.568545
O O7 0.088631 0.365434 0.577605
O O8 0.000000 0.500000 0.669307
O O9 0.631537 0.725962 0.225415
O O10 0.077152 0.764954 0.500000
#
# Coordination Sequence:
#
# PCOD9428777 Si02
#       5
#     8   8   8   2   4
#     4  10  22  43  72 104 138 182 231 274 326 402
#     4  11  26  42  67  93 128 174 233 274 337 408
#     4  12  27  44  68 102 142 180 221 282 348 398
#     4  10  24  40  68  90 118 170 234 278 340 384
#     4  11  24  41  62  88 126 159 208 276 339 393
#
# _framework density 22.044912
#
# number of rings (size 3 to 8) (size 9 to 14) (size 15 to 20)
#    0.000    1.067    0.000    5.600   13.067    1.067 
#    0.000    0.000    0.000    0.000    0.000    0.000 
#    0.000    0.000    0.000    0.000    0.000    0.000 
#
# Total GULP energy -167653.303570 kJ/mol
# GULP energy per Si atom -5588.443452 kJ/mol
# Density = 2.199474 g / cm^3
# Si number density = 22.044912 Si / 1000 Ang^3
#
#
#
# Elastic Constant Matrix: (Units=GPa)
#
#
# Indices 1 2 3 4 5 6 
#
# 1 65.8036 -2.7078 -12.6581 0.0000 0.0000 0.0000
# 2 -2.7078 74.3557 26.2388 0.0000 0.0000 0.0000
# 3 -12.6581 26.2388 89.9484 0.0000 0.0000 0.0000
# 4 0.0000 0.0000 0.0000 45.1259 0.0000 0.0000
# 5 0.0000 0.0000 0.0000 0.0000 -72.4220 0.0000
# 6 0.0000 0.0000 0.0000 0.0000 0.0000 42.8446
#
#
#
# Elastic Compliance Matrix: (Units=1/GPa)
#
#
# Indices 1 2 3 4 5 6 
#
# 1 0.015623 -0.000231 0.002266 0.000000 0.000000 0.000000
# 2 -0.000231 0.014996 -0.004407 0.000000 0.000000 0.000000
# 3 0.002266 -0.004407 0.012722 0.000000 0.000000 0.000000
# 4 0.000000 0.000000 0.000000 0.022160 0.000000 0.000000
# 5 0.000000 0.000000 0.000000 0.000000 -0.013808 0.000000
# 6 0.000000 0.000000 0.000000 0.000000 0.000000 0.023340
#
#
# Mechanical properties :
#
#
# Convention : Reuss Voigt Hill
#
# Bulk Modulus (GPa) = 25.90852 27.98374 26.94613
# Shear Modulus (GPa) = 53.97128 17.72535 35.84832
#
# Velocity S-wave (km/s) = 4.95334 2.83866 4.03693
# Velocity P-wave (km/s) = 6.67025 4.84412 5.82914
#
# Compressibility (1/GPa) = 0.03859734
#
# Stress axis : x y z
#
# Youngs Moduli (GPa) = 64.00773 66.68650 78.60495
#
# Poissons Ratio (x) = 0.01538 -0.17811
# Poissons Ratio (y) = 0.01476 0.34640
# Poissons Ratio (z) = -0.14503 0.29387
#
# Static dielectric constant tensor:
#      x y z
#    x 1.815400 0.000000 0.000000 
#    y 0.000000 1.831480 0.000000 
#    z 0.000000 0.000000 1.761610 
# 
# From -- ./inp_files/20288.got.cif
#   From: 2010.05.17/outbox.cif.g08.bks.cpg/sg55_11_cif.got.tgz:20288.got - 2010.06.03 13:27:54.
