data_PCOD9428043
_publ_section_title
;
Structure prediction by ZEFSAII (Michael W. Deem and Ramdas Pophale) SiO2 
 PCOD9428043
Probable space group: P B A M
;
_chemical_formula_sum "Si O2"
_cell_formula_units_Z 40
_cell_length_a 20.096134
_cell_length_b 8.991478
_cell_length_c 9.665663
_cell_angle_alpha 90.000000
_cell_angle_beta 90.000000
_cell_angle_gamma 90.000000
_cell_volume 1746.526795
_symmetry_space_group_name_H-M "P B A M"
_symmetry_group_IT_number 55
_symmetry_cell_setting 'orthorhombic'
loop_
_space_group_symop_operation_xyz
x,y,z
-x,-y,z
1/2+x,1/2-y,-z
1/2-x,1/2+y,-z
-x,-y,-z
x,y,-z
1/2-x,1/2+y,z
1/2+x,1/2-y,z
loop_
_atom_site_type_symbol
_atom_site_label
_atom_site_fract_x
_atom_site_fract_y
_atom_site_fract_z
Si Si1 0.211695 0.047746 0.842430
Si Si2 0.510779 0.667607 0.341680
Si Si3 0.629573 0.203659 0.734293
Si Si4 0.775336 0.225925 0.344189
Si Si5 0.570429 0.911715 0.152570
O O1 0.151343 0.166154 0.840179
O O2 0.270751 0.138658 0.764692
O O3 0.194952 0.913273 0.738720
O O4 0.226936 0.002453 0.000000
O O5 0.500000 0.500000 0.286936
O O6 0.533918 0.655479 0.500000
O O7 0.438174 0.745430 0.337757
O O8 0.559637 0.774915 0.256372
O O9 0.695910 0.192913 0.643428
O O10 0.617518 0.045999 0.803611
O O11 0.800923 0.252272 0.500000
O O12 0.500000 0.000000 0.147127
O O13 0.586767 0.854725 0.000000
#
# Coordination Sequence:
#
# PCOD9428043 Si02
#       5
#     8   8   8   8   8
#     4  10  21  38  61  85 116 154 197 244 295 353
#     4  10  21  38  59  87 119 153 194 244 292 348
#     4   9  21  37  62  80 117 155 196 237 300 350
#     4  10  21  37  60  87 117 153 196 244 296 351
#     4   9  18  35  59  85 113 149 191 235 282 345
#
# _framework density 22.902597
#
# number of rings (size 3 to 8) (size 9 to 14) (size 15 to 20)
#    1.200    1.200    0.000    2.400    0.000    5.600 
#    3.600    0.000    0.000    0.000    0.000    0.000 
#    0.000    0.000    0.000    0.000    0.000    0.000 
#
# Total GULP energy -222984.603646 kJ/mol
# GULP energy per Si atom -5574.615091 kJ/mol
# Density = 2.285047 g / cm^3
# Si number density = 22.902597 Si / 1000 Ang^3
#
#
#
# Elastic Constant Matrix: (Units=GPa)
#
#
# Indices 1 2 3 4 5 6 
#
# 1 59.1954 26.5990 4.0073 0.0000 0.0000 0.0000
# 2 26.5990 88.3447 33.8952 0.0000 0.0000 0.0000
# 3 4.0073 33.8952 142.1815 0.0000 0.0000 0.0000
# 4 0.0000 0.0000 0.0000 17.8710 0.0000 0.0000
# 5 0.0000 0.0000 0.0000 0.0000 -39.9901 0.0000
# 6 0.0000 0.0000 0.0000 0.0000 0.0000 50.6578
#
#
#
# Elastic Compliance Matrix: (Units=1/GPa)
#
#
# Indices 1 2 3 4 5 6 
#
# 1 0.019650 -0.006278 0.000943 0.000000 0.000000 0.000000
# 2 -0.006278 0.014465 -0.003271 0.000000 0.000000 0.000000
# 3 0.000943 -0.003271 0.007787 0.000000 0.000000 0.000000
# 4 0.000000 0.000000 0.000000 0.055957 0.000000 0.000000
# 5 0.000000 0.000000 0.000000 0.000000 -0.025006 0.000000
# 6 0.000000 0.000000 0.000000 0.000000 0.000000 0.019740
#
#
# Mechanical properties :
#
#
# Convention : Reuss Voigt Hill
#
# Bulk Modulus (GPa) = 40.50494 46.52497 43.51495
# Shear Modulus (GPa) = 42.36031 20.72240 31.54135
#
# Velocity S-wave (km/s) = 4.30535 3.01126 3.71508
# Velocity P-wave (km/s) = 6.51451 5.69637 6.11913
#
# Compressibility (1/GPa) = 0.02468835
#
# Stress axis : x y z
#
# Youngs Moduli (GPa) = 50.88952 69.13406 128.42646
#
# Poissons Ratio (x) = 0.43403 -0.12109
# Poissons Ratio (y) = 0.31949 0.42013
# Poissons Ratio (z) = -0.04798 0.22616
#
# Static dielectric constant tensor:
#      x y z
#    x 1.935010 0.000000 0.000000 
#    y 0.000000 1.846880 0.000000 
#    z 0.000000 0.000000 1.843400 
# 
# From -- ./inp_files/9995.got.cif
#   From: 2010.05.17/outbox.cif.g08.bks.cpg/sg55_5_cif.got.tgz:9995.got - 2010.06.03 13:27:54.
