data_PCOD9428177
_publ_section_title
;
Structure prediction by ZEFSAII (Michael W. Deem and Ramdas Pophale) SiO2 
 PCOD9428177
Probable space group: P B A M
;
_chemical_formula_sum "Si O2"
_cell_formula_units_Z 64
_cell_length_a 24.304460
_cell_length_b 15.013449
_cell_length_c 8.219708
_cell_angle_alpha 90.000000
_cell_angle_beta 90.000000
_cell_angle_gamma 90.000000
_cell_volume 2999.320246
_symmetry_space_group_name_H-M "P B A M"
_symmetry_group_IT_number 55
_symmetry_cell_setting 'orthorhombic'
loop_
_space_group_symop_operation_xyz
x,y,z
-x,-y,z
1/2+x,1/2-y,-z
1/2-x,1/2+y,-z
-x,-y,-z
x,y,-z
1/2-x,1/2+y,z
1/2+x,1/2-y,z
loop_
_atom_site_type_symbol
_atom_site_label
_atom_site_fract_x
_atom_site_fract_y
_atom_site_fract_z
Si Si1 0.830008 0.563001 0.697615
Si Si2 0.955659 0.569133 0.308091
Si Si3 0.741662 0.235016 0.309560
Si Si4 0.259589 0.566294 0.811489
Si Si5 0.132033 0.987427 0.688251
Si Si6 0.468762 0.593617 0.308682
Si Si7 0.362487 0.296741 0.189656
Si Si8 0.522428 0.768423 0.810776
O O1 0.828633 0.561397 0.500000
O O2 0.893237 0.566430 0.755417
O O3 0.795584 0.651666 0.748166
O O4 0.798923 0.475368 0.761877
O O5 0.950519 0.549403 0.500000
O O6 0.000000 0.500000 0.236267
O O7 0.983812 0.664341 0.284759
O O8 0.729398 0.248693 0.500000
O O9 0.734139 0.328932 0.220133
O O10 0.806068 0.212781 0.286866
O O11 0.305064 0.514641 0.707077
O O12 0.269770 0.546608 0.000000
O O13 0.118821 0.966608 0.500000
O O14 0.120426 0.899816 0.791666
O O15 0.093881 0.070436 0.736251
O O16 0.500000 0.500000 0.289908
O O17 0.471423 0.618593 0.500000
O O18 0.496202 0.671067 0.207631
O O19 0.414244 0.238192 0.247646
O O20 0.351972 0.276528 0.000000
O O21 0.523507 0.794040 0.000000
#
# Coordination Sequence:
#
# PCOD9428177 Si02
#       8
#     8   8   8   8   8   8   8   8
#     4  10  23  45  69  97 129 167 221 272 322 382
#     4  10  24  46  70  95 124 167 223 276 320 377
#     4  11  24  42  67  94 127 170 216 266 318 384
#     4  12  26  42  65  95 131 168 208 261 327 395
#     4  11  22  39  63  91 126 169 215 261 312 376
#     4  10  21  38  61  90 125 168 215 257 304 370
#     4  11  23  40  62  94 132 166 209 262 323 386
#     4  11  25  41  62  94 132 170 208 261 323 385
#
# _framework density 21.338169000000001
#
# number of rings (size 3 to 8) (size 9 to 14) (size 15 to 20)
#    0.000    1.250    2.500    2.625    3.500    4.000 
#    0.000    0.000    0.000    0.000    0.000    0.000 
#    0.000    0.000    0.000    0.000    0.000    0.000 
#
# Total GULP energy -357711.776360 kJ/mol
# GULP energy per Si atom -5589.246506 kJ/mol
# Density = 2.128960 g / cm^3
# Si number density = 21.338169 Si / 1000 Ang^3
#
#
#
# Elastic Constant Matrix: (Units=GPa)
#
#
# Indices 1 2 3 4 5 6 
#
# 1 129.7069 13.4042 4.3624 0.0000 0.0000 0.0000
# 2 13.4042 54.6697 0.9190 0.0000 0.0000 0.0000
# 3 4.3624 0.9190 23.4014 0.0000 0.0000 0.0000
# 4 0.0000 0.0000 0.0000 76.1134 0.0000 0.0000
# 5 0.0000 0.0000 0.0000 0.0000 4.8379 0.0000
# 6 0.0000 0.0000 0.0000 0.0000 0.0000 28.5786
#
#
#
# Elastic Compliance Matrix: (Units=1/GPa)
#
#
# Indices 1 2 3 4 5 6 
#
# 1 0.007956 -0.001927 -0.001407 0.000000 0.000000 0.000000
# 2 -0.001927 0.018771 -0.000378 0.000000 0.000000 0.000000
# 3 -0.001407 -0.000378 0.043010 0.000000 0.000000 0.000000
# 4 0.000000 0.000000 0.000000 0.013138 0.000000 0.000000
# 5 0.000000 0.000000 0.000000 0.000000 0.206700 0.000000
# 6 0.000000 0.000000 0.000000 0.000000 0.000000 0.034991
#
#
# Mechanical properties :
#
#
# Convention : Reuss Voigt Hill
#
# Bulk Modulus (GPa) = 16.04841 27.23880 21.64360
# Shear Modulus (GPa) = 14.17389 34.51213 24.34301
#
# Velocity S-wave (km/s) = 2.58010 4.02604 3.38127
# Velocity P-wave (km/s) = 4.05132 5.86558 5.04075
#
# Compressibility (1/GPa) = 0.06231146
#
# Stress axis : x y z
#
# Youngs Moduli (GPa) = 125.68851 53.27505 23.25057
#
# Poissons Ratio (x) = 0.10267 0.03272
# Poissons Ratio (y) = 0.24221 0.00879
# Poissons Ratio (z) = 0.17690 0.02013
#
# Static dielectric constant tensor:
#      x y z
#    x 1.798830 0.000000 0.000000 
#    y 0.000000 1.759960 0.000000 
#    z 0.000000 0.000000 1.731780 
# 
# From -- ./inp_files/9813.got.cif
#   From: 2010.05.17/outbox.cif.g08.bks.cpg/sg55_5_cif.got.tgz:9813.got - 2010.06.03 13:27:54.
