data_PCOD9428308
_publ_section_title
;
Structure prediction by ZEFSAII (Michael W. Deem and Ramdas Pophale) SiO2 
 PCOD9428308
Probable space group: P B A M
;
_chemical_formula_sum "Si O2"
_cell_formula_units_Z 64
_cell_length_a 31.333092
_cell_length_b 12.223366
_cell_length_c 8.780420
_cell_angle_alpha 90.000000
_cell_angle_beta 90.000000
_cell_angle_gamma 90.000000
_cell_volume 3362.864434
_symmetry_space_group_name_H-M "P B A M"
_symmetry_group_IT_number 55
_symmetry_cell_setting 'orthorhombic'
loop_
_space_group_symop_operation_xyz
x,y,z
-x,-y,z
1/2+x,1/2-y,-z
1/2-x,1/2+y,-z
-x,-y,-z
x,y,-z
1/2-x,1/2+y,z
1/2+x,1/2-y,z
loop_
_atom_site_type_symbol
_atom_site_label
_atom_site_fract_x
_atom_site_fract_y
_atom_site_fract_z
Si Si1 0.453974 0.962063 0.681308
Si Si2 0.708118 0.042007 0.320540
Si Si3 0.916328 0.766008 0.321242
Si Si4 0.627494 0.913130 0.183061
Si Si5 0.050228 0.009859 0.816818
Si Si6 0.622602 0.659762 0.185052
Si Si7 0.326560 0.747669 0.821912
Si Si8 0.699703 0.501737 0.817844
O O1 0.451317 0.985020 0.500000
O O2 0.449735 0.831735 0.700550
O O3 0.500000 0.000000 0.738687
O O4 0.414194 0.022634 0.758604
O O5 0.704979 0.027146 0.500000
O O6 0.700654 0.168261 0.275866
O O7 0.670370 0.971404 0.243380
O O8 0.754824 0.012049 0.261062
O O9 0.904738 0.769428 0.500000
O O10 0.875373 0.733948 0.222798
O O11 0.932662 0.882487 0.265730
O O12 0.624857 0.785901 0.234103
O O13 0.628349 0.915752 0.000000
O O14 0.079612 0.906231 0.771180
O O15 0.055308 0.023522 0.000000
O O16 0.000000 0.000000 0.784680
O O17 0.663906 0.588927 0.233933
O O18 0.623209 0.660476 0.000000
O O19 0.317138 0.620836 0.792055
O O20 0.319172 0.769783 0.000000
O O21 0.705222 0.516172 0.000000
#
# Coordination Sequence:
#
# PCOD9428308 Si02
#       8
#     8   8   8   8   8   8   8   8
#     4  10  23  42  61  86 125 167 203 250 314 368
#     4  12  26  42  61  91 129 161 201 251 309 368
#     4  11  22  38  62  90 124 161 203 256 310 367
#     4  11  23  40  64  91 121 160 209 254 301 361
#     4  10  21  39  64  91 123 162 206 257 309 361
#     4   9  20  40  61  89 122 156 200 253 304 357
#     4  11  22  41  69  92 118 159 208 257 306 361
#     4  10  22  42  66  90 120 160 206 251 305 363
#
# _framework density 19.031395
#
# number of rings (size 3 to 8) (size 9 to 14) (size 15 to 20)
#    0.000    1.500    2.500    2.250    3.500    2.000 
#    0.000    1.875    0.000    0.000    0.000    0.000 
#    0.000    0.000    0.000    0.000    0.000    0.000 
#
# Total GULP energy -357521.965494 kJ/mol
# GULP energy per Si atom -5586.280711 kJ/mol
# Density = 1.898808 g / cm^3
# Si number density = 19.031395 Si / 1000 Ang^3
#
#
#
# Elastic Constant Matrix: (Units=GPa)
#
#
# Indices 1 2 3 4 5 6 
#
# 1 93.1650 25.1226 20.5452 0.0000 0.0000 0.0000
# 2 25.1226 91.5826 32.8598 0.0000 0.0000 0.0000
# 3 20.5452 32.8598 24.5694 0.0000 0.0000 0.0000
# 4 0.0000 0.0000 0.0000 -56.8871 0.0000 0.0000
# 5 0.0000 0.0000 0.0000 0.0000 28.9819 0.0000
# 6 0.0000 0.0000 0.0000 0.0000 0.0000 24.5725
#
#
#
# Elastic Compliance Matrix: (Units=1/GPa)
#
#
# Indices 1 2 3 4 5 6 
#
# 1 0.013181 0.000652 -0.011893 0.000000 0.000000 0.000000
# 2 0.000652 0.021025 -0.028664 0.000000 0.000000 0.000000
# 3 -0.011893 -0.028664 0.088983 0.000000 0.000000 0.000000
# 4 0.000000 0.000000 0.000000 -0.017579 0.000000 0.000000
# 5 0.000000 0.000000 0.000000 0.000000 0.034504 0.000000
# 6 0.000000 0.000000 0.000000 0.000000 0.000000 0.040696
#
#
# Mechanical properties :
#
#
# Convention : Reuss Voigt Hill
#
# Bulk Modulus (GPa) = 23.05400 40.70801 31.88100
# Shear Modulus (GPa) = 18.17642 8.05275 13.11459
#
# Velocity S-wave (km/s) = 3.09378 2.05924 2.62792
# Velocity P-wave (km/s) = 4.99019 5.20484 5.09864
#
# Compressibility (1/GPa) = 0.04337643
#
# Stress axis : x y z
#
# Youngs Moduli (GPa) = 75.86843 47.56211 11.23810
#
# Poissons Ratio (x) = -0.03099 0.13366
# Poissons Ratio (y) = -0.04944 0.32213
# Poissons Ratio (z) = 0.90233 1.36334
#
# Static dielectric constant tensor:
#      x y z
#    x 1.655160 0.000000 0.000000 
#    y 0.000000 1.665910 0.000000 
#    z 0.000000 0.000000 1.643280 
# 
# From -- ./inp_files/4587.got.cif
#   From: 2010.05.17/outbox.cif.g08.bks.cpg/sg55_3_cif.got.tgz:4587.got - 2010.06.03 13:27:54.
