data_PCOD9428805
_publ_section_title
;
Structure prediction by ZEFSAII (Michael W. Deem and Ramdas Pophale) SiO2 
 PCOD9428805
Probable space group: P B A M
;
_chemical_formula_sum "Si O2"
_cell_formula_units_Z 32
_cell_length_a 9.989516
_cell_length_b 20.874322
_cell_length_c 8.095354
_cell_angle_alpha 90.000000
_cell_angle_beta 90.000000
_cell_angle_gamma 90.000000
_cell_volume 1688.078622
_symmetry_space_group_name_H-M "P B A M"
_symmetry_group_IT_number 55
_symmetry_cell_setting 'orthorhombic'
loop_
_space_group_symop_operation_xyz
x,y,z
-x,-y,z
1/2+x,1/2-y,-z
1/2-x,1/2+y,-z
-x,-y,-z
x,y,-z
1/2-x,1/2+y,z
1/2+x,1/2-y,z
loop_
_atom_site_type_symbol
_atom_site_label
_atom_site_fract_x
_atom_site_fract_y
_atom_site_fract_z
Si Si1 0.708683 0.457969 0.500000
Si Si2 0.906211 0.437567 0.194586
Si Si3 0.048158 0.305401 0.813108
Si Si4 0.167959 0.781903 0.679645
Si Si5 0.085475 0.901630 0.500000
O O1 0.791766 0.443546 0.333084
O O2 0.667697 0.532883 0.500000
O O3 0.570657 0.418291 0.500000
O O4 0.000000 0.500000 0.204481
O O5 0.993067 0.374717 0.237269
O O6 0.862209 0.431331 0.000000
O O7 0.174995 0.280809 0.712343
O O8 0.925282 0.256193 0.803001
O O9 0.096934 0.311654 0.000000
O O10 0.140655 0.751153 0.500000
O O11 0.124171 0.855804 0.654109
#
# Coordination Sequence:
#
# PCOD9428805 Si02
#       5
#     4   8   8   8   4
#     4  11  21  41  67  90 122 168 210 257 314 386
#     4  10  23  39  63  95 126 162 213 266 312 375
#     4  11  23  39  61  92 125 163 207 257 319 370
#     4  10  23  39  61  87 123 163 205 257 304 377
#     4   9  24  39  61  92 120 161 212 252 320 375
#
# _framework density 18.956462999999999
#
# number of rings (size 3 to 8) (size 9 to 14) (size 15 to 20)
#    0.750    1.000    0.000    3.375    7.000    0.000 
#    0.000    5.000    0.000    0.000    0.000    0.000 
#    0.000    0.000    0.000    0.000    0.000    0.000 
#
# Total GULP energy -178409.607845 kJ/mol
# GULP energy per Si atom -5575.300245 kJ/mol
# Density = 1.891332 g / cm^3
# Si number density = 18.956463 Si / 1000 Ang^3
#
#
#
# Elastic Constant Matrix: (Units=GPa)
#
#
# Indices 1 2 3 4 5 6 
#
# 1 103.5246 33.6442 31.6121 0.0000 0.0000 0.0000
# 2 33.6442 77.0196 -1.7423 0.0000 0.0000 0.0000
# 3 31.6121 -1.7423 52.9035 0.0000 0.0000 0.0000
# 4 0.0000 0.0000 0.0000 21.4846 0.0000 0.0000
# 5 0.0000 0.0000 0.0000 0.0000 41.3114 0.0000
# 6 0.0000 0.0000 0.0000 0.0000 0.0000 22.4605
#
#
#
# Elastic Compliance Matrix: (Units=1/GPa)
#
#
# Indices 1 2 3 4 5 6 
#
# 1 0.014492 -0.006531 -0.008875 0.000000 0.000000 0.000000
# 2 -0.006531 0.015937 0.004428 0.000000 0.000000 0.000000
# 3 -0.008875 0.004428 0.024351 0.000000 0.000000 0.000000
# 4 0.000000 0.000000 0.000000 0.046545 0.000000 0.000000
# 5 0.000000 0.000000 0.000000 0.000000 0.024206 0.000000
# 6 0.000000 0.000000 0.000000 0.000000 0.000000 0.044523
#
#
# Mechanical properties :
#
#
# Convention : Reuss Voigt Hill
#
# Bulk Modulus (GPa) = 30.46619 40.05288 35.25954
# Shear Modulus (GPa) = 24.63634 28.38021 26.50827
#
# Velocity S-wave (km/s) = 3.60895 3.87347 3.74354
# Velocity P-wave (km/s) = 5.78555 6.41715 6.10951
#
# Compressibility (1/GPa) = 0.03282327
#
# Stress axis : x y z
#
# Youngs Moduli (GPa) = 69.00309 62.74748 41.06571
#
# Poissons Ratio (x) = 0.40982 0.36445
# Poissons Ratio (y) = 0.45068 -0.18182
# Poissons Ratio (z) = 0.61239 -0.27782
#
# Static dielectric constant tensor:
#      x y z
#    x 1.612040 0.000000 0.000000 
#    y 0.000000 1.648600 0.000000 
#    z 0.000000 0.000000 1.653820 
# 
# From -- ./inp_files/2254.got.cif
#   From: 2010.05.17/outbox.cif.g08.bks.cpg/sg55_2_cif.got.tgz:2254.got - 2010.06.03 13:27:54.
