data_PCOD9428581
_publ_section_title
;
Structure prediction by ZEFSAII (Michael W. Deem and Ramdas Pophale) SiO2 
 PCOD9428581
Probable space group: P B A M
;
_chemical_formula_sum "Si O2"
_cell_formula_units_Z 42
_cell_length_a 23.275718
_cell_length_b 10.458854
_cell_length_c 7.145888
_cell_angle_alpha 90.000000
_cell_angle_beta 90.000000
_cell_angle_gamma 90.000000
_cell_volume 1739.575940
_symmetry_space_group_name_H-M "P B A M"
_symmetry_group_IT_number 55
_symmetry_cell_setting 'orthorhombic'
loop_
_space_group_symop_operation_xyz
x,y,z
-x,-y,z
1/2+x,1/2-y,-z
1/2-x,1/2+y,-z
-x,-y,-z
x,y,-z
1/2-x,1/2+y,z
1/2+x,1/2-y,z
loop_
_atom_site_type_symbol
_atom_site_label
_atom_site_fract_x
_atom_site_fract_y
_atom_site_fract_z
Si Si1 0.898654 0.931808 0.725392
Si Si2 0.556907 0.160919 0.725527
Si Si3 0.070848 0.631429 0.272971
Si Si4 0.227500 0.964647 0.273769
Si Si5 0.304952 0.193909 0.271973
Si Si6 0.000000 0.000000 0.000000
O O1 0.906246 0.945579 0.500000
O O2 0.904553 0.781088 0.775887
O O3 0.835669 0.982878 0.772170
O O4 0.949338 0.999010 0.837057
O O5 0.556525 0.156366 0.500000
O O6 0.490978 0.184027 0.788429
O O7 0.573932 0.018097 0.783612
O O8 0.069756 0.634471 0.500000
O O9 0.128606 0.701193 0.213932
O O10 0.231245 0.963530 0.500000
O O11 0.230289 0.818162 0.212822
O O12 0.275827 0.062764 0.210121
O O13 0.305116 0.193366 0.500000
#
# Coordination Sequence:
#
# PCOD9428581 Si02
#       6
#     8   8   8   8   8   2
#     4  10  22  39  61  88 121 158 203 251 307 365
#     4   8  15  28  50  81 114 150 194 245 297 359
#     4   8  14  25  46  80 116 151 195 243 296 356
#     4   9  19  32  51  83 119 158 203 251 299 357
#     4   9  17  28  47  80 121 156 199 251 296 353
#     4  12  26  40  60  88 120 160 194 254 308 364
#
# _framework density 24.143813999999999
#
# number of rings (size 3 to 8) (size 9 to 14) (size 15 to 20)
#    0.000    3.048    0.000    1.429    5.333    0.000 
#    0.000    0.000    0.000    3.429    0.000    0.000 
#    0.000    0.000    0.000    0.000    0.000    0.000 
#
# Total GULP energy -234313.412359 kJ/mol
# GULP energy per Si atom -5578.890770 kJ/mol
# Density = 2.408886 g / cm^3
# Si number density = 24.143814 Si / 1000 Ang^3
#
#
#
# Elastic Constant Matrix: (Units=GPa)
#
#
# Indices 1 2 3 4 5 6 
#
# 1 37.5282 10.3025 -9.5441 0.0000 0.0000 0.0000
# 2 10.3025 94.6868 -16.5983 0.0000 0.0000 0.0000
# 3 -9.5441 -16.5983 138.1683 0.0000 0.0000 0.0000
# 4 0.0000 0.0000 0.0000 -29.5157 0.0000 0.0000
# 5 0.0000 0.0000 0.0000 0.0000 -56.7309 0.0000
# 6 0.0000 0.0000 0.0000 0.0000 0.0000 38.9796
#
#
#
# Elastic Compliance Matrix: (Units=1/GPa)
#
#
# Indices 1 2 3 4 5 6 
#
# 1 0.027805 -0.002747 0.001591 0.000000 0.000000 0.000000
# 2 -0.002747 0.011060 0.001139 0.000000 0.000000 0.000000
# 3 0.001591 0.001139 0.007484 0.000000 0.000000 0.000000
# 4 0.000000 0.000000 0.000000 -0.033880 0.000000 0.000000
# 5 0.000000 0.000000 0.000000 0.000000 -0.017627 0.000000
# 6 0.000000 0.000000 0.000000 0.000000 0.000000 0.025654
#
#
# Mechanical properties :
#
#
# Convention : Reuss Voigt Hill
#
# Bulk Modulus (GPa) = 21.59116 26.52261 24.05688
# Shear Modulus (GPa) = 139.01128 9.62817 74.31973
#
# Velocity S-wave (km/s) = 7.59614 1.99912 5.55418
# Velocity P-wave (km/s) = 9.26808 4.04200 7.14965
#
# Compressibility (1/GPa) = 0.04631524
#
# Stress axis : x y z
#
# Youngs Moduli (GPa) = 35.96450 90.41908 133.61402
#
# Poissons Ratio (x) = 0.24834 -0.21254
# Poissons Ratio (y) = 0.09878 -0.15217
# Poissons Ratio (z) = -0.05721 -0.10298
#
# Static dielectric constant tensor:
#      x y z
#    x 1.841030 0.000000 0.000000 
#    y 0.000000 1.935960 0.000000 
#    z 0.000000 0.000000 1.978690 
# 
# From -- ./inp_files/9382.got.cif
#   From: 2010.05.17/outbox.cif.g08.bks.cpg/sg55_5_cif.got.tgz:9382.got - 2010.06.03 13:27:54.
