data_PCOD9428763
_publ_section_title
;
Structure prediction by ZEFSAII (Michael W. Deem and Ramdas Pophale) SiO2 
 PCOD9428763
Probable space group: P B A M
;
_chemical_formula_sum "Si O2"
_cell_formula_units_Z 58
_cell_length_a 24.361320
_cell_length_b 8.660491
_cell_length_c 12.146199
_cell_angle_alpha 90.000000
_cell_angle_beta 90.000000
_cell_angle_gamma 90.000000
_cell_volume 2562.617121
_symmetry_space_group_name_H-M "P B A M"
_symmetry_group_IT_number 55
_symmetry_cell_setting 'orthorhombic'
loop_
_space_group_symop_operation_xyz
x,y,z
-x,-y,z
1/2+x,1/2-y,-z
1/2-x,1/2+y,-z
-x,-y,-z
x,y,-z
1/2-x,1/2+y,z
1/2+x,1/2-y,z
loop_
_atom_site_type_symbol
_atom_site_label
_atom_site_fract_x
_atom_site_fract_y
_atom_site_fract_z
Si Si1 0.241144 0.683695 0.266079
Si Si2 0.597721 0.492179 0.821852
Si Si3 0.876185 0.476748 0.710405
Si Si4 0.714840 0.554032 0.119663
Si Si5 0.059522 0.340878 0.876048
Si Si6 0.500000 0.500000 0.500000
Si Si7 0.971656 0.237254 0.702632
Si Si8 0.352253 0.687515 0.620393
O O1 0.182383 0.608822 0.288828
O O2 0.267430 0.616998 0.153069
O O3 0.233581 0.859160 0.229641
O O4 0.286991 0.674779 0.359684
O O5 0.649432 0.568519 0.880492
O O6 0.580332 0.335693 0.880785
O O7 0.552362 0.616459 0.792622
O O8 0.619738 0.426740 0.705639
O O9 0.894156 0.540857 0.831274
O O10 0.922690 0.356082 0.671885
O O11 0.869847 0.635749 0.642211
O O12 0.736849 0.595480 0.000000
O O13 0.016571 0.330811 0.774301
O O14 0.041660 0.380728 0.000000
O O15 0.492475 0.363763 0.401044
O O16 0.369434 0.638381 0.500000
#
# Coordination Sequence:
#
# PCOD9428763 Si02
#       8
#     8   8   8   8   8   2   8   8
#     4  11  22  44  62  97 137 171 229 277 330 421
#     4  10  22  43  67 100 134 175 234 280 344 426
#     4  11  25  45  67 103 138 180 236 283 348 421
#     4  11  22  38  63  94 132 176 217 274 341 409
#     4  11  25  47  71 101 144 186 234 296 353 420
#     4  12  28  48  72 104 140 180 234 306 348 424
#     4  12  25  46  72 103 137 183 239 291 363 419
#     4  10  24  44  69  97 138 180 226 284 344 409
#
# _framework density 22.633112000000001
#
# number of rings (size 3 to 8) (size 9 to 14) (size 15 to 20)
#    0.000    1.103    4.138    1.241    1.931    4.414 
#    0.000    0.690    0.000    0.000    0.000    0.000 
#    0.000    0.000    0.000    0.000    0.000    0.000 
#
# Total GULP energy -323278.377638 kJ/mol
# GULP energy per Si atom -5573.765132 kJ/mol
# Density = 2.258160 g / cm^3
# Si number density = 22.633112 Si / 1000 Ang^3
#
#
#
# Elastic Constant Matrix: (Units=GPa)
#
#
# Indices 1 2 3 4 5 6 
#
# 1 72.6147 2.8889 10.9441 0.0000 0.0000 0.0000
# 2 2.8889 66.7022 9.7494 0.0000 0.0000 0.0000
# 3 10.9441 9.7494 129.8209 0.0000 0.0000 0.0000
# 4 0.0000 0.0000 0.0000 -2.8582 0.0000 0.0000
# 5 0.0000 0.0000 0.0000 0.0000 6.5807 0.0000
# 6 0.0000 0.0000 0.0000 0.0000 0.0000 50.1140
#
#
#
# Elastic Compliance Matrix: (Units=1/GPa)
#
#
# Indices 1 2 3 4 5 6 
#
# 1 0.013961 -0.000437 -0.001144 0.000000 0.000000 0.000000
# 2 -0.000437 0.015172 -0.001103 0.000000 0.000000 0.000000
# 3 -0.001144 -0.001103 0.007882 0.000000 0.000000 0.000000
# 4 0.000000 0.000000 0.000000 -0.349869 0.000000 0.000000
# 5 0.000000 0.000000 0.000000 0.000000 0.151960 0.000000
# 6 0.000000 0.000000 0.000000 0.000000 0.000000 0.019954
#
#
# Mechanical properties :
#
#
# Convention : Reuss Voigt Hill
#
# Bulk Modulus (GPa) = 31.59825 35.14471 33.37148
# Shear Modulus (GPa) = -39.99332 27.13765 -6.42783
#
# Velocity S-wave (km/s) = -4.20816 3.46645 -1.68706
# Velocity P-wave (km/s) = 3.10163 5.61991 3.31386
#
# Compressibility (1/GPa) = 0.03164732
#
# Stress axis : x y z
#
# Youngs Moduli (GPa) = 71.62733 65.91040 126.86861
#
# Poissons Ratio (x) = 0.02883 0.14515
# Poissons Ratio (y) = 0.03133 0.13988
# Poissons Ratio (z) = 0.08195 0.07267
#
# Static dielectric constant tensor:
#      x y z
#    x 1.928440 0.000000 0.000000 
#    y 0.000000 1.836960 0.000000 
#    z 0.000000 0.000000 1.790310 
# 
# From -- ./inp_files/16011.got.cif
#   From: 2010.05.17/outbox.cif.g08.bks.cpg/sg55_9_cif.got.tgz:16011.got - 2010.06.03 13:27:54.
