data_PCOD9428497
_publ_section_title
;
Structure prediction by ZEFSAII (Michael W. Deem and Ramdas Pophale) SiO2 
 PCOD9428497
Probable space group: P B A M
;
_chemical_formula_sum "Si O2"
_cell_formula_units_Z 40
_cell_length_a 15.045884
_cell_length_b 11.730684
_cell_length_c 9.211847
_cell_angle_alpha 90.000000
_cell_angle_beta 90.000000
_cell_angle_gamma 90.000000
_cell_volume 1625.877276
_symmetry_space_group_name_H-M "P B A M"
_symmetry_group_IT_number 55
_symmetry_cell_setting 'orthorhombic'
loop_
_space_group_symop_operation_xyz
x,y,z
-x,-y,z
1/2+x,1/2-y,-z
1/2-x,1/2+y,-z
-x,-y,-z
x,y,-z
1/2-x,1/2+y,z
1/2+x,1/2-y,z
loop_
_atom_site_type_symbol
_atom_site_label
_atom_site_fract_x
_atom_site_fract_y
_atom_site_fract_z
Si Si1 0.254225 0.711414 0.158115
Si Si2 0.501753 0.828951 0.169697
Si Si3 0.582990 0.366223 0.668808
Si Si4 0.321289 0.400847 0.339405
Si Si5 0.145516 0.508500 0.757185
O O1 0.324656 0.694658 0.286308
O O2 0.187728 0.808982 0.212190
O O3 0.206976 0.589680 0.146012
O O4 0.292825 0.738611 0.000000
O O5 0.484231 0.702841 0.229559
O O6 0.568762 0.898131 0.276200
O O7 0.411499 0.905097 0.177818
O O8 0.529941 0.830091 0.000000
O O9 0.562370 0.349321 0.500000
O O10 0.606779 0.499352 0.689689
O O11 0.339792 0.352724 0.500000
O O12 0.221796 0.456912 0.344670
#
# Coordination Sequence:
#
# PCOD9428497 Si02
#       5
#     8   8   8   8   8
#     4  11  21  35  59  86 115 150 193 238 287 343
#     4  11  21  37  61  88 121 151 187 238 291 344
#     4  10  22  38  56  82 117 152 193 237 285 342
#     4  10  22  40  60  84 117 155 195 239 285 340
#     4  10  22  37  59  89 120 149 190 236 294 340
#
# _framework density 24.602101000000001
#
# number of rings (size 3 to 8) (size 9 to 14) (size 15 to 20)
#    0.000    1.600    2.000    3.600    0.000    6.400 
#    0.000    3.000    0.000    4.800    0.000    0.000 
#    0.000    0.000    0.000    0.000    0.000    0.000 
#
# Total GULP energy -223036.052739 kJ/mol
# GULP energy per Si atom -5575.901318 kJ/mol
# Density = 2.454611 g / cm^3
# Si number density = 24.602101 Si / 1000 Ang^3
#
#
#
# Elastic Constant Matrix: (Units=GPa)
#
#
# Indices 1 2 3 4 5 6 
#
# 1 88.3512 7.9986 8.7990 0.0000 0.0000 0.0000
# 2 7.9986 106.4588 50.7993 0.0000 0.0000 0.0000
# 3 8.7990 50.7993 91.1020 0.0000 0.0000 0.0000
# 4 0.0000 0.0000 0.0000 10.2485 0.0000 0.0000
# 5 0.0000 0.0000 0.0000 0.0000 -3.2649 0.0000
# 6 0.0000 0.0000 0.0000 0.0000 0.0000 48.1331
#
#
#
# Elastic Compliance Matrix: (Units=1/GPa)
#
#
# Indices 1 2 3 4 5 6 
#
# 1 0.011444 -0.000453 -0.000853 0.000000 0.000000 0.000000
# 2 -0.000453 0.012817 -0.007103 0.000000 0.000000 0.000000
# 3 -0.000853 -0.007103 0.015020 0.000000 0.000000 0.000000
# 4 0.000000 0.000000 0.000000 0.097576 0.000000 0.000000
# 5 0.000000 0.000000 0.000000 0.000000 -0.306284 0.000000
# 6 0.000000 0.000000 0.000000 0.000000 0.000000 0.020776
#
#
# Mechanical properties :
#
#
# Convention : Reuss Voigt Hill
#
# Bulk Modulus (GPa) = 44.51669 46.78954 45.65312
# Shear Modulus (GPa) = -40.21026 25.57767 -7.31630
#
# Velocity S-wave (km/s) = -4.04719 3.22786 -1.72636
# Velocity P-wave (km/s) = 1.92501 5.74038 3.82402
#
# Compressibility (1/GPa) = 0.02246348
#
# Stress axis : x y z
#
# Youngs Moduli (GPa) = 87.37895 78.02342 66.57904
#
# Poissons Ratio (x) = 0.03534 0.05678
# Poissons Ratio (y) = 0.03958 0.47291
# Poissons Ratio (z) = 0.07452 0.55420
#
# Static dielectric constant tensor:
#      x y z
#    x 2.090890 0.000000 0.000000 
#    y 0.000000 1.970350 0.000000 
#    z 0.000000 0.000000 1.845960 
# 
# From -- ./inp_files/7179.got.cif
#   From: 2010.05.17/outbox.cif.g08.bks.cpg/sg55_4_cif.got.tgz:7179.got - 2010.06.03 13:27:54.
