data_PCOD9428250
_publ_section_title
;
Structure prediction by ZEFSAII (Michael W. Deem and Ramdas Pophale) SiO2 
 PCOD9428250
Probable space group: P B A M
;
_chemical_formula_sum "Si O2"
_cell_formula_units_Z 32
_cell_length_a 10.763824
_cell_length_b 19.012721
_cell_length_c 7.419993
_cell_angle_alpha 90.000000
_cell_angle_beta 90.000000
_cell_angle_gamma 90.000000
_cell_volume 1518.498470
_symmetry_space_group_name_H-M "P B A M"
_symmetry_group_IT_number 55
_symmetry_cell_setting 'orthorhombic'
loop_
_space_group_symop_operation_xyz
x,y,z
-x,-y,z
1/2+x,1/2-y,-z
1/2-x,1/2+y,-z
-x,-y,-z
x,y,-z
1/2-x,1/2+y,z
1/2+x,1/2-y,z
loop_
_atom_site_type_symbol
_atom_site_label
_atom_site_fract_x
_atom_site_fract_y
_atom_site_fract_z
Si Si1 0.640617 0.973636 0.795585
Si Si2 0.194738 0.967855 0.500000
Si Si3 0.605258 0.815047 0.782192
Si Si4 0.955600 0.886142 0.500000
Si Si5 0.128765 0.226359 0.217514
O O1 0.719787 0.025772 0.674716
O O2 0.635749 0.894063 0.720463
O O3 0.500000 0.000000 0.800217
O O4 0.689695 0.971374 0.000000
O O5 0.115258 0.039955 0.500000
O O6 0.101032 0.903539 0.500000
O O7 0.470878 0.785873 0.726574
O O8 0.724684 0.766589 0.736623
O O9 0.599827 0.819075 0.000000
O O10 0.917250 0.842126 0.324346
O O11 0.121084 0.218127 0.000000
#
# Coordination Sequence:
#
# PCOD9428250 Si02
#       5
#     8   4   8   4   8
#     4  10  21  39  64  89 119 162 201 246 308 363
#     4  11  23  39  57  87 121 154 202 249 284 361
#     4   9  19  37  61  87 116 154 198 246 302 357
#     4  11  24  37  59  87 115 161 202 236 304 357
#     4  10  21  39  60  85 120 156 199 255 302 358
#
# _framework density 21.073447999999999
#
# number of rings (size 3 to 8) (size 9 to 14) (size 15 to 20)
#    0.000    2.000    2.500    0.375    0.000    5.000 
#    0.000    7.500    0.000    0.000    0.000    0.000 
#    0.000    0.000    0.000    0.000    0.000    0.000 
#
# Total GULP energy -178611.182885 kJ/mol
# GULP energy per Si atom -5581.599465 kJ/mol
# Density = 2.102548 g / cm^3
# Si number density = 21.073448 Si / 1000 Ang^3
#
#
#
# Elastic Constant Matrix: (Units=GPa)
#
#
# Indices 1 2 3 4 5 6 
#
# 1 96.9102 12.8665 12.2237 0.0000 0.0000 0.0000
# 2 12.8665 21.2600 -0.4075 0.0000 0.0000 0.0000
# 3 12.2237 -0.4075 80.9224 0.0000 0.0000 0.0000
# 4 0.0000 0.0000 0.0000 20.3115 0.0000 0.0000
# 5 0.0000 0.0000 0.0000 0.0000 29.2413 0.0000
# 6 0.0000 0.0000 0.0000 0.0000 0.0000 45.1800
#
#
#
# Elastic Compliance Matrix: (Units=1/GPa)
#
#
# Indices 1 2 3 4 5 6 
#
# 1 0.011468 -0.006974 -0.001767 0.000000 0.000000 0.000000
# 2 -0.006974 0.051282 0.001312 0.000000 0.000000 0.000000
# 3 -0.001767 0.001312 0.012631 0.000000 0.000000 0.000000
# 4 0.000000 0.000000 0.000000 0.049233 0.000000 0.000000
# 5 0.000000 0.000000 0.000000 0.000000 0.034198 0.000000
# 6 0.000000 0.000000 0.000000 0.000000 0.000000 0.022134
#
#
# Mechanical properties :
#
#
# Convention : Reuss Voigt Hill
#
# Bulk Modulus (GPa) = 16.52298 27.60644 22.06471
# Shear Modulus (GPa) = 23.15033 30.57390 26.86211
#
# Velocity S-wave (km/s) = 3.31804 3.81310 3.57415
# Velocity P-wave (km/s) = 4.74730 5.70218 5.24651
#
# Compressibility (1/GPa) = 0.06052176
#
# Stress axis : x y z
#
# Youngs Moduli (GPa) = 87.20152 19.49984 79.16978
#
# Poissons Ratio (x) = 0.13599 0.13992
# Poissons Ratio (y) = 0.60815 -0.10385
# Poissons Ratio (z) = 0.15412 -0.02558
#
# Static dielectric constant tensor:
#      x y z
#    x 1.777990 0.000000 0.000000 
#    y 0.000000 1.755410 0.000000 
#    z 0.000000 0.000000 1.765850 
# 
# From -- ./inp_files/2029.got.cif
#   From: 2010.05.17/outbox.cif.g08.bks.cpg/sg55_2_cif.got.tgz:2029.got - 2010.06.03 13:27:54.
