data_PCOD9428415
_publ_section_title
;
Structure prediction by ZEFSAII (Michael W. Deem and Ramdas Pophale) SiO2 
 PCOD9428415
Probable space group: P B A M
;
_chemical_formula_sum "Si O2"
_cell_formula_units_Z 64
_cell_length_a 24.297025
_cell_length_b 15.697842
_cell_length_c 8.592245
_cell_angle_alpha 90.000000
_cell_angle_beta 90.000000
_cell_angle_gamma 90.000000
_cell_volume 3277.175551
_symmetry_space_group_name_H-M "P B A M"
_symmetry_group_IT_number 55
_symmetry_cell_setting 'orthorhombic'
loop_
_space_group_symop_operation_xyz
x,y,z
-x,-y,z
1/2+x,1/2-y,-z
1/2-x,1/2+y,-z
-x,-y,-z
x,y,-z
1/2-x,1/2+y,z
1/2+x,1/2-y,z
loop_
_atom_site_type_symbol
_atom_site_label
_atom_site_fract_x
_atom_site_fract_y
_atom_site_fract_z
Si Si1 0.676223 0.749549 0.189335
Si Si2 0.376033 0.594125 0.314303
Si Si3 0.612621 0.920279 0.811960
Si Si4 0.004927 0.350145 0.185152
Si Si5 0.497642 0.662995 0.314478
Si Si6 0.197182 0.245760 0.813675
Si Si7 0.876383 0.602842 0.316357
Si Si8 0.604804 0.586624 0.186173
O O1 0.646219 0.836589 0.237880
O O2 0.739569 0.747145 0.238924
O O3 0.642146 0.666451 0.238383
O O4 0.675569 0.749202 0.000000
O O5 0.373556 0.584716 0.500000
O O6 0.437068 0.628969 0.273869
O O7 0.332410 0.663759 0.258875
O O8 0.369137 0.502760 0.235018
O O9 0.548496 0.905241 0.771033
O O10 0.634536 0.006810 0.738555
O O11 0.615516 0.926616 0.000000
O O12 0.060674 0.376216 0.270229
O O13 0.992453 0.252054 0.226809
O O14 0.013275 0.358711 0.000000
O O15 0.499497 0.677141 0.500000
O O16 0.545256 0.598197 0.264644
O O17 0.162836 0.328962 0.766091
O O18 0.196295 0.237413 0.000000
O O19 0.869776 0.611517 0.500000
O O20 0.598539 0.590293 0.000000
#
# Coordination Sequence:
#
# PCOD9428415 Si02
#       8
#     8   8   8   8   8   8   8   8
#     4   9  21  42  65  90 118 154 207 264 304 345
#     4  11  24  41  60  90 129 162 197 250 310 364
#     4  10  21  41  65  91 122 157 201 253 302 358
#     4  11  21  37  65  93 121 159 204 249 300 364
#     4  11  22  37  60  90 129 164 194 246 312 365
#     4  11  23  42  67  88 114 160 212 256 302 358
#     4  12  25  40  59  91 130 162 198 248 305 368
#     4  11  22  40  65  93 123 160 207 252 298 364
#
# _framework density 19.529012999999999
#
# number of rings (size 3 to 8) (size 9 to 14) (size 15 to 20)
#    0.000    1.250    2.500    3.750    0.000    6.500 
#    0.000    8.750    0.000    0.000    0.000    0.000 
#    0.000    0.000    0.000    0.000    0.000    0.000 
#
# Total GULP energy -357964.269564 kJ/mol
# GULP energy per Si atom -5593.191712 kJ/mol
# Density = 1.948456 g / cm^3
# Si number density = 19.529013 Si / 1000 Ang^3
#
#
#
# Elastic Constant Matrix: (Units=GPa)
#
#
# Indices 1 2 3 4 5 6 
#
# 1 104.3583 16.1372 14.1619 0.0000 0.0000 0.0000
# 2 16.1372 83.4283 -1.9438 0.0000 0.0000 0.0000
# 3 14.1619 -1.9438 21.1946 0.0000 0.0000 0.0000
# 4 0.0000 0.0000 0.0000 -14.8971 0.0000 0.0000
# 5 0.0000 0.0000 0.0000 0.0000 -27.1338 0.0000
# 6 0.0000 0.0000 0.0000 0.0000 0.0000 3.6668
#
#
#
# Elastic Compliance Matrix: (Units=1/GPa)
#
#
# Indices 1 2 3 4 5 6 
#
# 1 0.010960 -0.002295 -0.007534 0.000000 0.000000 0.000000
# 2 -0.002295 0.012493 0.002679 0.000000 0.000000 0.000000
# 3 -0.007534 0.002679 0.052461 0.000000 0.000000 0.000000
# 4 0.000000 0.000000 0.000000 -0.067127 0.000000 0.000000
# 5 0.000000 0.000000 0.000000 0.000000 -0.036854 0.000000
# 6 0.000000 0.000000 0.000000 0.000000 0.000000 0.272718
#
#
# Mechanical properties :
#
#
# Convention : Reuss Voigt Hill
#
# Bulk Modulus (GPa) = 16.22990 29.52134 22.87562
# Shear Modulus (GPa) = 17.88992 4.36890 11.12941
#
# Velocity S-wave (km/s) = 3.02995 1.49733 2.38983
# Velocity P-wave (km/s) = 4.53536 4.25897 4.39933
#
# Compressibility (1/GPa) = 0.06161467
#
# Stress axis : x y z
#
# Youngs Moduli (GPa) = 91.24375 80.04640 19.06167
#
# Poissons Ratio (x) = 0.18374 0.14360
# Poissons Ratio (y) = 0.20944 -0.05107
# Poissons Ratio (z) = 0.68739 -0.21448
#
# Static dielectric constant tensor:
#      x y z
#    x 1.664270 0.000000 0.000000 
#    y 0.000000 1.671450 0.000000 
#    z 0.000000 0.000000 1.656590 
# 
# From -- ./inp_files/9663.got.cif
#   From: 2010.05.17/outbox.cif.g08.bks.cpg/sg55_5_cif.got.tgz:9663.got - 2010.06.03 13:27:54.
