data_PCOD9428027
_publ_section_title
;
Structure prediction by ZEFSAII (Michael W. Deem and Ramdas Pophale) SiO2 
 PCOD9428027
Probable space group: P B A M
;
_chemical_formula_sum "Si O2"
_cell_formula_units_Z 64
_cell_length_a 29.130635
_cell_length_b 7.083450
_cell_length_c 13.560935
_cell_angle_alpha 90.000000
_cell_angle_beta 90.000000
_cell_angle_gamma 90.000000
_cell_volume 2798.236509
_symmetry_space_group_name_H-M "P B A M"
_symmetry_group_IT_number 55
_symmetry_cell_setting 'orthorhombic'
loop_
_space_group_symop_operation_xyz
x,y,z
-x,-y,z
1/2+x,1/2-y,-z
1/2-x,1/2+y,-z
-x,-y,-z
x,y,-z
1/2-x,1/2+y,z
1/2+x,1/2-y,z
loop_
_atom_site_type_symbol
_atom_site_label
_atom_site_fract_x
_atom_site_fract_y
_atom_site_fract_z
Si Si1 0.598601 0.186239 0.284700
Si Si2 0.503521 0.227832 0.615730
Si Si3 0.751222 0.022111 0.609289
Si Si4 0.159724 0.267171 0.112245
Si Si5 0.857624 0.965607 0.604898
Si Si6 0.341087 0.220691 0.110698
Si Si7 0.250779 0.232753 0.760623
Si Si8 0.914321 0.241491 0.260267
O O1 0.552862 0.267492 0.335020
O O2 0.614722 0.270131 0.179850
O O3 0.639263 0.252746 0.355936
O O4 0.594322 0.963034 0.280849
O O5 0.498815 0.288941 0.500000
O O6 0.465114 0.292658 0.695162
O O7 0.500000 0.000000 0.611760
O O8 0.728278 0.018516 0.500000
O O9 0.805968 0.024843 0.599167
O O10 0.739558 0.017210 0.732095
O O11 0.748929 0.269762 0.635559
O O12 0.159920 0.493939 0.107568
O O13 0.205983 0.205882 0.169378
O O14 0.157680 0.198767 0.000000
O O15 0.881051 0.975808 0.500000
O O16 0.882532 0.108285 0.675715
O O17 0.298773 0.269883 0.182381
O O18 0.391354 0.280475 0.151987
O O19 0.332893 0.288623 0.000000
#
# Coordination Sequence:
#
# PCOD9428027 Si02
#       8
#     8   8   8   8   8   8   8   8
#     4  10  21  39  59  86 121 155 191 250 299 349
#     4   9  18  35  60  88 116 154 199 237 291 363
#     4  11  24  38  55  84 120 156 198 239 290 361
#     4  10  21  37  59  85 113 152 200 247 295 346
#     4  11  22  37  58  87 120 156 199 241 290 359
#     4  10  21  37  59  85 113 152 200 247 295 346
#     4  12  20  40  58  82 118 154 194 244 292 346
#     4  10  21  39  59  86 121 155 191 250 299 349
#
# _framework density 22.871545999999999
#
# number of rings (size 3 to 8) (size 9 to 14) (size 15 to 20)
#    0.000    1.625    3.750    1.500    0.000    2.000 
#    0.000    3.750    0.000    3.750    0.000    1.750 
#    0.000    0.000    0.000    0.000    0.000    0.000 
#
# Total GULP energy -356537.075893 kJ/mol
# GULP energy per Si atom -5570.891811 kJ/mol
# Density = 2.281949 g / cm^3
# Si number density = 22.871546 Si / 1000 Ang^3
#
#
#
# Elastic Constant Matrix: (Units=GPa)
#
#
# Indices 1 2 3 4 5 6 
#
# 1 113.2705 14.5742 59.7888 0.0000 0.0000 0.0000
# 2 14.5742 127.0406 33.4323 0.0000 0.0000 0.0000
# 3 59.7888 33.4323 186.2133 0.0000 0.0000 0.0000
# 4 0.0000 0.0000 0.0000 15.7958 0.0000 0.0000
# 5 0.0000 0.0000 0.0000 0.0000 30.3833 0.0000
# 6 0.0000 0.0000 0.0000 0.0000 0.0000 20.2320
#
#
#
# Elastic Compliance Matrix: (Units=1/GPa)
#
#
# Indices 1 2 3 4 5 6 
#
# 1 0.010644 -0.000338 -0.003357 0.000000 0.000000 0.000000
# 2 -0.000338 0.008273 -0.001377 0.000000 0.000000 0.000000
# 3 -0.003357 -0.001377 0.006695 0.000000 0.000000 0.000000
# 4 0.000000 0.000000 0.000000 0.063308 0.000000 0.000000
# 5 0.000000 0.000000 0.000000 0.000000 0.032913 0.000000
# 6 0.000000 0.000000 0.000000 0.000000 0.000000 0.049427
#
#
# Mechanical properties :
#
#
# Convention : Reuss Voigt Hill
#
# Bulk Modulus (GPa) = 64.64607 71.34611 67.99609
# Shear Modulus (GPa) = 26.80135 34.53083 30.66609
#
# Velocity S-wave (km/s) = 3.42690 3.88979 3.66566
# Velocity P-wave (km/s) = 6.63207 7.17189 6.90726
#
# Compressibility (1/GPa) = 0.01546884
#
# Stress axis : x y z
#
# Youngs Moduli (GPa) = 93.95188 120.88153 149.36117
#
# Poissons Ratio (x) = 0.04082 0.50138
# Poissons Ratio (y) = 0.03172 0.20564
# Poissons Ratio (z) = 0.31538 0.16643
#
# Static dielectric constant tensor:
#      x y z
#    x 1.783410 0.000000 0.000000 
#    y 0.000000 2.409160 0.000000 
#    z 0.000000 0.000000 1.892140 
# 
# From -- ./inp_files/12589.got.cif
#   From: 2010.05.17/outbox.cif.g08.bks.cpg/sg55_7_cif.got.tgz:12589.got - 2010.06.03 13:27:54.
