data_PCOD9428258
_publ_section_title
;
Structure prediction by ZEFSAII (Michael W. Deem and Ramdas Pophale) SiO2 
 PCOD9428258
Probable space group: P B A M
;
_chemical_formula_sum "Si O2"
_cell_formula_units_Z 64
_cell_length_a 9.307297
_cell_length_b 14.154863
_cell_length_c 22.821366
_cell_angle_alpha 90.000000
_cell_angle_beta 90.000000
_cell_angle_gamma 90.000000
_cell_volume 3006.566950
_symmetry_space_group_name_H-M "P B A M"
_symmetry_group_IT_number 55
_symmetry_cell_setting 'orthorhombic'
loop_
_space_group_symop_operation_xyz
x,y,z
-x,-y,z
1/2+x,1/2-y,-z
1/2-x,1/2+y,-z
-x,-y,-z
x,y,-z
1/2-x,1/2+y,z
1/2+x,1/2-y,z
loop_
_atom_site_type_symbol
_atom_site_label
_atom_site_fract_x
_atom_site_fract_y
_atom_site_fract_z
Si Si1 0.823469 0.382098 0.567424
Si Si2 0.828584 0.702311 0.840709
Si Si3 0.778674 0.057746 0.934023
Si Si4 0.902405 0.313046 0.762641
Si Si5 0.069838 0.861706 0.318632
Si Si6 0.261007 0.539374 0.309234
Si Si7 0.600038 0.357598 0.065192
Si Si8 0.517708 0.287998 0.565406
O O1 0.820965 0.421055 0.500000
O O2 0.799576 0.447390 0.624425
O O3 0.686946 0.309656 0.571141
O O4 0.967392 0.319713 0.574173
O O5 0.792339 0.612515 0.880768
O O6 0.698842 0.756239 0.808187
O O7 0.889719 0.779231 0.886058
O O8 0.945566 0.675453 0.792963
O O9 0.940367 0.099528 0.935905
O O10 0.794329 0.945888 0.923578
O O11 0.717287 0.071836 0.000000
O O12 0.915497 0.241207 0.708300
O O13 0.839474 0.410207 0.737857
O O14 0.064929 0.852223 0.388292
O O15 0.913674 0.904855 0.303524
O O16 0.195004 0.931518 0.298525
O O17 0.632440 0.319803 0.000000
O O18 0.474577 0.314219 0.500000
#
# Coordination Sequence:
#
# PCOD9428258 Si02
#       8
#     8   8   8   8   8   8   8   8
#     4   9  17  31  57  86 114 148 196 256 315 376
#     4  12  23  40  64  92 128 166 208 256 299 362
#     4   9  19  39  67  98 127 161 204 251 306 366
#     4  12  24  40  60  88 124 166 215 252 300 367
#     4  10  21  39  61  84 120 160 206 258 313 375
#     4  10  21  39  61  86 117 163 206 255 317 370
#     4   9  19  39  67  96 126 161 204 251 309 371
#     4   9  17  31  57  86 113 149 195 256 318 376
#
# _framework density 21.286736999999999
#
# number of rings (size 3 to 8) (size 9 to 14) (size 15 to 20)
#    0.000    2.000    3.750    1.125    0.000    1.500 
#    0.000    5.000    0.000    1.500    0.000    3.500 
#    0.000    0.000    0.000    0.000    0.000    0.000 
#
# Total GULP energy -357323.762757 kJ/mol
# GULP energy per Si atom -5583.183793 kJ/mol
# Density = 2.123829 g / cm^3
# Si number density = 21.286737 Si / 1000 Ang^3
#
#
#
# Elastic Constant Matrix: (Units=GPa)
#
#
# Indices 1 2 3 4 5 6 
#
# 1 35.9286 8.5385 22.9819 0.0000 0.0000 0.0000
# 2 8.5385 37.5245 25.4639 0.0000 0.0000 0.0000
# 3 22.9819 25.4639 76.4382 0.0000 0.0000 0.0000
# 4 0.0000 0.0000 0.0000 25.2152 0.0000 0.0000
# 5 0.0000 0.0000 0.0000 0.0000 26.7966 0.0000
# 6 0.0000 0.0000 0.0000 0.0000 0.0000 8.0865
#
#
#
# Elastic Compliance Matrix: (Units=1/GPa)
#
#
# Indices 1 2 3 4 5 6 
#
# 1 0.034492 -0.001048 -0.010021 0.000000 0.000000 0.000000
# 2 -0.001048 0.034465 -0.011166 0.000000 0.000000 0.000000
# 3 -0.010021 -0.011166 0.019815 0.000000 0.000000 0.000000
# 4 0.000000 0.000000 0.000000 0.039659 0.000000 0.000000
# 5 0.000000 0.000000 0.000000 0.000000 0.037318 0.000000
# 6 0.000000 0.000000 0.000000 0.000000 0.000000 0.123664
#
#
# Mechanical properties :
#
#
# Convention : Reuss Voigt Hill
#
# Bulk Modulus (GPa) = 22.57272 29.31776 25.94524
# Shear Modulus (GPa) = 14.34098 18.21346 16.27722
#
# Velocity S-wave (km/s) = 2.59840 2.92828 2.76826
# Velocity P-wave (km/s) = 4.43051 5.02352 4.73630
#
# Compressibility (1/GPa) = 0.04430126
#
# Stress axis : x y z
#
# Youngs Moduli (GPa) = 28.99211 29.01484 50.46614
#
# Poissons Ratio (x) = 0.03041 0.50573
# Poissons Ratio (y) = 0.03039 0.56352
# Poissons Ratio (z) = 0.29054 0.32399
#
# Static dielectric constant tensor:
#      x y z
#    x 1.783870 0.000000 0.000000 
#    y 0.000000 1.753940 0.000000 
#    z 0.000000 0.000000 1.785540 
# 
# From -- ./inp_files/23488.got.cif
#   From: 2010.05.17/outbox.cif.g08.bks.cpg/sg55_12_cif.got.tgz:23488.got - 2010.06.03 13:27:54.
