data_PCOD9428502
_publ_section_title
;
Structure prediction by ZEFSAII (Michael W. Deem and Ramdas Pophale) SiO2 
 PCOD9428502
Probable space group: P B A M
;
_chemical_formula_sum "Si O2"
_cell_formula_units_Z 64
_cell_length_a 10.428939
_cell_length_b 30.512722
_cell_length_c 7.599063
_cell_angle_alpha 90.000000
_cell_angle_beta 90.000000
_cell_angle_gamma 90.000000
_cell_volume 2418.138237
_symmetry_space_group_name_H-M "P B A M"
_symmetry_group_IT_number 55
_symmetry_cell_setting 'orthorhombic'
loop_
_space_group_symop_operation_xyz
x,y,z
-x,-y,z
1/2+x,1/2-y,-z
1/2-x,1/2+y,-z
-x,-y,-z
x,y,-z
1/2-x,1/2+y,z
1/2+x,1/2-y,z
loop_
_atom_site_type_symbol
_atom_site_label
_atom_site_fract_x
_atom_site_fract_y
_atom_site_fract_z
Si Si1 0.886212 0.530631 0.216143
Si Si2 0.604231 0.714167 0.289430
Si Si3 0.062899 0.883245 0.298402
Si Si4 0.222267 0.119983 0.197047
Si Si5 0.268015 0.718345 0.289679
Si Si6 0.561036 0.217938 0.788948
Si Si7 0.494694 0.879485 0.215800
Si Si8 0.878508 0.021604 0.201091
O O1 0.755621 0.510304 0.283621
O O2 0.000000 0.500000 0.271890
O O3 0.904659 0.580862 0.269326
O O4 0.884259 0.531019 0.000000
O O5 0.605785 0.710952 0.500000
O O6 0.596904 0.664408 0.217218
O O7 0.605117 0.768951 0.242183
O O8 0.435219 0.727528 0.267538
O O9 0.107763 0.884190 0.500000
O O10 0.908738 0.888485 0.296710
O O11 0.113329 0.925875 0.200944
O O12 0.231834 0.172728 0.187920
O O13 0.360882 0.107814 0.270794
O O14 0.208974 0.101571 0.000000
O O15 0.260455 0.710030 0.500000
O O16 0.272516 0.774380 0.255284
O O17 0.547726 0.168205 0.718697
O O18 0.566498 0.218350 0.000000
O O19 0.497590 0.876801 0.000000
O O20 0.874987 0.005480 0.000000
O O21 0.000000 0.000000 0.289120
#
# Coordination Sequence:
#
# PCOD9428502 Si02
#       8
#     8   8   8   8   8   8   8   8
#     4   9  19  38  65  94 127 162 197 255 326 381
#     4  10  22  38  55  78 116 163 210 254 303 369
#     4  11  24  41  61  88 124 168 210 255 319 380
#     4  11  21  36  59  88 121 160 209 264 311 364
#     4  11  22  36  53  78 118 166 212 254 309 372
#     4  11  21  34  54  83 118 157 206 259 306 358
#     4   9  20  35  55  88 123 155 200 255 314 373
#     4  10  23  42  68 101 127 158 209 264 318 382
#
# _framework density 26.466643000000001
#
# number of rings (size 3 to 8) (size 9 to 14) (size 15 to 20)
#    0.000    1.750    2.500    1.500    3.500    1.250 
#    0.000    0.000    0.000    1.875    0.000    0.000 
#    0.000    0.000    0.000    0.000    0.000    0.000 
#
# Total GULP energy -357424.757154 kJ/mol
# GULP energy per Si atom -5584.761831 kJ/mol
# Density = 2.640640 g / cm^3
# Si number density = 26.466643 Si / 1000 Ang^3
#
#
#
# Elastic Constant Matrix: (Units=GPa)
#
#
# Indices 1 2 3 4 5 6 
#
# 1 207.3164 67.2108 9.1347 0.0000 0.0000 0.0000
# 2 67.2108 115.6835 -2.9801 0.0000 0.0000 0.0000
# 3 9.1347 -2.9801 111.0330 0.0000 0.0000 0.0000
# 4 0.0000 0.0000 0.0000 9.0122 0.0000 0.0000
# 5 0.0000 0.0000 0.0000 0.0000 -118.6681 0.0000
# 6 0.0000 0.0000 0.0000 0.0000 0.0000 48.3349
#
#
#
# Elastic Compliance Matrix: (Units=1/GPa)
#
#
# Indices 1 2 3 4 5 6 
#
# 1 0.005981 -0.003490 -0.000586 0.000000 0.000000 0.000000
# 2 -0.003490 0.010687 0.000574 0.000000 0.000000 0.000000
# 3 -0.000586 0.000574 0.009070 0.000000 0.000000 0.000000
# 4 0.000000 0.000000 0.000000 0.110960 0.000000 0.000000
# 5 0.000000 0.000000 0.000000 0.000000 -0.008427 0.000000
# 6 0.000000 0.000000 0.000000 0.000000 0.000000 0.020689
#
#
# Mechanical properties :
#
#
# Convention : Reuss Voigt Hill
#
# Bulk Modulus (GPa) = 53.37864 64.52928 58.95396
# Shear Modulus (GPa) = 30.82472 11.78030 21.30251
#
# Velocity S-wave (km/s) = 3.41642 2.11203 2.84012
# Velocity P-wave (km/s) = 5.98119 5.51197 5.75137
#
# Compressibility (1/GPa) = 0.01873408
#
# Stress axis : x y z
#
# Youngs Moduli (GPa) = 167.20363 93.57504 110.25449
#
# Poissons Ratio (x) = 0.32656 0.06458
# Poissons Ratio (y) = 0.58351 -0.06328
# Poissons Ratio (z) = 0.09793 -0.05371
#
# Static dielectric constant tensor:
#      x y z
#    x 2.563110 0.000000 0.000000 
#    y 0.000000 1.992710 0.000000 
#    z 0.000000 0.000000 1.892110 
# 
# From -- ./inp_files/4640.got.cif
#   From: 2010.05.17/outbox.cif.g08.bks.cpg/sg55_3_cif.got.tgz:4640.got - 2010.06.03 13:27:54.
