data_PCOD9428029
_publ_section_title
;
Structure prediction by ZEFSAII (Michael W. Deem and Ramdas Pophale) SiO2 
 PCOD9428029
Probable space group: P B A M
;
_chemical_formula_sum "Si O2"
_cell_formula_units_Z 48
_cell_length_a 9.135094
_cell_length_b 31.619913
_cell_length_c 8.582562
_cell_angle_alpha 90.000000
_cell_angle_beta 90.000000
_cell_angle_gamma 90.000000
_cell_volume 2479.080565
_symmetry_space_group_name_H-M "P B A M"
_symmetry_group_IT_number 55
_symmetry_cell_setting 'orthorhombic'
loop_
_space_group_symop_operation_xyz
x,y,z
-x,-y,z
1/2+x,1/2-y,-z
1/2-x,1/2+y,-z
-x,-y,-z
x,y,-z
1/2-x,1/2+y,z
1/2+x,1/2-y,z
loop_
_atom_site_type_symbol
_atom_site_label
_atom_site_fract_x
_atom_site_fract_y
_atom_site_fract_z
Si Si1 0.918689 0.288360 0.686538
Si Si2 0.408131 0.708104 0.815305
Si Si3 0.421378 0.372849 0.313292
Si Si4 0.918774 0.457329 0.188104
Si Si5 0.918516 0.625304 0.312176
Si Si6 0.078718 0.043955 0.188354
O O1 0.932088 0.284096 0.500000
O O2 0.997517 0.248659 0.765150
O O3 0.997802 0.331931 0.734999
O O4 0.749302 0.290011 0.733027
O O5 0.493273 0.666084 0.762989
O O6 0.386748 0.707795 0.000000
O O7 0.427240 0.368124 0.500000
O O8 0.251255 0.373020 0.264207
O O9 0.496809 0.416497 0.263522
O O10 0.748855 0.457014 0.235972
O O11 0.000000 0.500000 0.241971
O O12 0.001693 0.415881 0.246608
O O13 0.921886 0.457280 0.000000
O O14 0.922650 0.623145 0.500000
O O15 0.072376 0.048247 0.000000
O O16 0.000000 0.000000 0.229734
#
# Coordination Sequence:
#
# PCOD9428029 Si02
#       6
#     8   8   8   8   8   8
#     4  11  23  42  65  89 121 161 202 246 301 362
#     4  12  25  41  63  93 124 157 201 251 303 359
#     4  11  23  40  61  87 120 159 202 247 300 361
#     4  10  21  37  59  86 116 153 195 241 296 355
#     4  10  23  40  60  86 116 154 198 243 292 351
#     4  10  21  38  60  87 119 155 198 249 304 361
#
# _framework density 19.362017999999999
#
# number of rings (size 3 to 8) (size 9 to 14) (size 15 to 20)
#    0.000    1.333    0.000    5.500    0.000    9.333 
#    0.000    0.000    0.000    0.000    0.000    0.000 
#    0.000    0.000    0.000    0.000    0.000    0.000 
#
# Total GULP energy -268549.238529 kJ/mol
# GULP energy per Si atom -5594.775803 kJ/mol
# Density = 1.931795 g / cm^3
# Si number density = 19.362018 Si / 1000 Ang^3
#
#
#
# Elastic Constant Matrix: (Units=GPa)
#
#
# Indices 1 2 3 4 5 6 
#
# 1 130.2301 48.0217 -5.0345 0.0000 0.0000 0.0000
# 2 48.0217 143.4871 7.4530 0.0000 0.0000 0.0000
# 3 -5.0345 7.4530 19.1426 0.0000 0.0000 0.0000
# 4 0.0000 0.0000 0.0000 41.0555 0.0000 0.0000
# 5 0.0000 0.0000 0.0000 0.0000 31.0920 0.0000
# 6 0.0000 0.0000 0.0000 0.0000 0.0000 44.8997
#
#
#
# Elastic Compliance Matrix: (Units=1/GPa)
#
#
# Indices 1 2 3 4 5 6 
#
# 1 0.008998 -0.003199 0.003612 0.000000 0.000000 0.000000
# 2 -0.003199 0.008250 -0.004054 0.000000 0.000000 0.000000
# 3 0.003612 -0.004054 0.054768 0.000000 0.000000 0.000000
# 4 0.000000 0.000000 0.000000 0.024357 0.000000 0.000000
# 5 0.000000 0.000000 0.000000 0.000000 0.032163 0.000000
# 6 0.000000 0.000000 0.000000 0.000000 0.000000 0.022272
#
#
# Mechanical properties :
#
#
# Convention : Reuss Voigt Hill
#
# Bulk Modulus (GPa) = 15.44764 43.74891 29.59827
# Shear Modulus (GPa) = 27.82921 39.57075 33.69998
#
# Velocity S-wave (km/s) = 3.79530 4.52567 4.17648
# Velocity P-wave (km/s) = 5.21549 7.06776 6.21106
#
# Compressibility (1/GPa) = 0.06473482
#
# Stress axis : x y z
#
# Youngs Moduli (GPa) = 111.13615 121.20554 18.25896
#
# Poissons Ratio (x) = 0.38774 -0.06595
# Poissons Ratio (y) = 0.35553 0.07401
# Poissons Ratio (z) = -0.40142 0.49131
#
# Static dielectric constant tensor:
#      x y z
#    x 1.645660 0.000000 0.000000 
#    y 0.000000 1.628210 0.000000 
#    z 0.000000 0.000000 1.661730 
# 
# From -- ./inp_files/2867.got.cif
#   From: 2010.05.17/outbox.cif.g08.bks.cpg/sg55_2_cif.got.tgz:2867.got - 2010.06.03 13:27:54.
