data_PCOD9428759
_publ_section_title
;
Structure prediction by ZEFSAII (Michael W. Deem and Ramdas Pophale) SiO2 
 PCOD9428759
Probable space group: P B A M
;
_chemical_formula_sum "Si O2"
_cell_formula_units_Z 34
_cell_length_a 10.480623
_cell_length_b 9.099691
_cell_length_c 19.618295
_cell_angle_alpha 90.000000
_cell_angle_beta 90.000000
_cell_angle_gamma 90.000000
_cell_volume 1871.005245
_symmetry_space_group_name_H-M "P B A M"
_symmetry_group_IT_number 55
_symmetry_cell_setting 'orthorhombic'
loop_
_space_group_symop_operation_xyz
x,y,z
-x,-y,z
1/2+x,1/2-y,-z
1/2-x,1/2+y,-z
-x,-y,-z
x,y,-z
1/2-x,1/2+y,z
1/2+x,1/2-y,z
loop_
_atom_site_type_symbol
_atom_site_label
_atom_site_fract_x
_atom_site_fract_y
_atom_site_fract_z
Si Si1 0.130973 0.586375 0.643074
Si Si2 0.000000 0.000000 0.000000
Si Si3 0.870092 0.087996 0.418361
Si Si4 0.131099 0.585418 0.193738
Si Si5 0.121138 0.917106 0.858600
O O1 0.249819 0.499719 0.611304
O O2 0.125045 0.749968 0.613302
O O3 0.145899 0.593059 0.724694
O O4 0.000000 0.500000 0.627745
O O5 0.907249 0.066081 0.061098
O O6 0.858196 0.099010 0.500000
O O7 0.000000 0.000000 0.402684
O O8 0.249830 0.498147 0.162365
O O9 0.125477 0.748869 0.163819
O O10 0.000000 0.500000 0.178589
O O11 0.000000 0.000000 0.824379
#
# Coordination Sequence:
#
# PCOD9428759 Si02
#       5
#     8   2   8   8   8
#     4  11  24  40  62  94 126 163 212 261 314 365
#     4   8  24  44  64  92 128 164 200 250 312 364
#     4  11  24  41  62  90 125 168 210 258 313 371
#     4  11  23  40  66  95 124 166 208 261 309 363
#     4  10  22  43  63  91 128 160 207 250 309 374
#
# _framework density 18.172048
#
# number of rings (size 3 to 8) (size 9 to 14) (size 15 to 20)
#    0.706    0.706    0.000    4.941    0.000   12.235 
#    0.000    1.176    0.000    0.000    0.000    0.000 
#    0.000    0.000    0.000    0.000    0.000    0.000 
#
# Total GULP energy -189407.906951 kJ/mol
# GULP energy per Si atom -5570.820793 kJ/mol
# Density = 1.813069 g / cm^3
# Si number density = 18.172048 Si / 1000 Ang^3
#
#
#
# Elastic Constant Matrix: (Units=GPa)
#
#
# Indices 1 2 3 4 5 6 
#
# 1 178.2246 123.4836 95.2374 0.0000 0.0000 0.0000
# 2 123.4836 220.1946 92.3760 0.0000 0.0000 0.0000
# 3 95.2374 92.3760 98.9415 0.0000 0.0000 0.0000
# 4 0.0000 0.0000 0.0000 -73.5730 0.0000 0.0000
# 5 0.0000 0.0000 0.0000 0.0000 -32.8991 0.0000
# 6 0.0000 0.0000 0.0000 0.0000 0.0000 45.8017
#
#
#
# Elastic Compliance Matrix: (Units=1/GPa)
#
#
# Indices 1 2 3 4 5 6 
#
# 1 0.012881 -0.003324 -0.009295 0.000000 0.000000 0.000000
# 2 -0.003324 0.008323 -0.004571 0.000000 0.000000 0.000000
# 3 -0.009295 -0.004571 0.023323 0.000000 0.000000 0.000000
# 4 0.000000 0.000000 0.000000 -0.013592 0.000000 0.000000
# 5 0.000000 0.000000 0.000000 0.000000 -0.030396 0.000000
# 6 0.000000 0.000000 0.000000 0.000000 0.000000 0.021833
#
#
# Mechanical properties :
#
#
# Convention : Reuss Voigt Hill
#
# Bulk Modulus (GPa) = 98.56906 124.39497 111.48202
# Shear Modulus (GPa) = 83.14486 0.28352 41.71419
#
# Velocity S-wave (km/s) = 6.77153 0.39542 4.79635
# Velocity P-wave (km/s) = 10.74700 8.29525 9.59972
#
# Compressibility (1/GPa) = 0.01014517
#
# Stress axis : x y z
#
# Youngs Moduli (GPa) = 77.63271 120.14414 42.87692
#
# Poissons Ratio (x) = 0.39936 0.39856
# Poissons Ratio (y) = 0.25805 0.19601
# Poissons Ratio (z) = 0.72163 0.54923
#
# Static dielectric constant tensor:
#      x y z
#    x 1.610660 0.000000 0.000000 
#    y 0.000000 1.579950 0.000000 
#    z 0.000000 0.000000 1.597370 
# 
# From -- ./inp_files/22476.got.cif
#   From: 2010.05.17/outbox.cif.g08.bks.cpg/sg55_12_cif.got.tgz:22476.got - 2010.06.03 13:27:54.
