data_PCOD9428633
_publ_section_title
;
Structure prediction by ZEFSAII (Michael W. Deem and Ramdas Pophale) SiO2 
 PCOD9428633
Probable space group: P B A M
;
_chemical_formula_sum "Si O2"
_cell_formula_units_Z 64
_cell_length_a 12.158991
_cell_length_b 31.239956
_cell_length_c 8.742826
_cell_angle_alpha 90.000000
_cell_angle_beta 90.000000
_cell_angle_gamma 90.000000
_cell_volume 3320.930491
_symmetry_space_group_name_H-M "P B A M"
_symmetry_group_IT_number 55
_symmetry_cell_setting 'orthorhombic'
loop_
_space_group_symop_operation_xyz
x,y,z
-x,-y,z
1/2+x,1/2-y,-z
1/2-x,1/2+y,-z
-x,-y,-z
x,y,-z
1/2-x,1/2+y,z
1/2+x,1/2-y,z
loop_
_atom_site_type_symbol
_atom_site_label
_atom_site_fract_x
_atom_site_fract_y
_atom_site_fract_z
Si Si1 0.489968 0.663557 0.679854
Si Si2 0.263136 0.695309 0.183408
Si Si3 0.338689 0.874019 0.815486
Si Si4 0.985989 0.928541 0.818822
Si Si5 0.791129 0.045163 0.317384
Si Si6 0.247664 0.549324 0.682705
Si Si7 0.806821 0.208038 0.183402
Si Si8 0.908009 0.378510 0.815978
O O1 0.495769 0.654179 0.500000
O O2 0.369953 0.679733 0.727007
O O3 0.513330 0.620392 0.774324
O O4 0.581155 0.697760 0.728882
O O5 0.236369 0.744569 0.216708
O O6 0.161827 0.664015 0.221796
O O7 0.283791 0.691358 0.000000
O O8 0.272275 0.913855 0.747184
O O9 0.279908 0.829231 0.775649
O O10 0.465713 0.875268 0.765230
O O11 0.335729 0.877433 0.000000
O O12 0.867288 0.938164 0.747603
O O13 0.085926 0.955932 0.750749
O O14 0.981264 0.933766 0.000000
O O15 0.799415 0.048558 0.500000
O O16 0.730838 0.000644 0.278749
O O17 0.250495 0.553643 0.500000
O O18 0.156234 0.580926 0.748769
O O19 0.826625 0.205621 0.000000
O O20 0.907722 0.382233 0.000000
#
# Coordination Sequence:
#
# PCOD9428633 Si02
#       8
#     8   8   8   8   8   8   8   8
#     4  12  24  39  63  94 130 165 203 253 310 367
#     4  10  22  40  66  94 123 163 208 253 303 363
#     4  10  22  40  62  90 123 162 209 257 302 359
#     4  12  23  39  64  93 124 160 204 255 311 367
#     4  11  24  41  62  90 124 162 203 252 312 373
#     4  11  24  41  62  90 124 162 203 252 312 373
#     4  10  22  40  66  94 123 163 208 253 303 363
#     4  10  22  40  62  90 123 162 209 257 302 359
#
# _framework density 19.271705999999998
#
# number of rings (size 3 to 8) (size 9 to 14) (size 15 to 20)
#    0.000    1.250    2.500    3.375    1.750    5.000 
#    0.000    2.500    0.000    0.000    0.000    0.000 
#    0.000    0.000    0.000    0.000    0.000    0.000 
#
# Total GULP energy -357882.675701 kJ/mol
# GULP energy per Si atom -5591.916808 kJ/mol
# Density = 1.922784 g / cm^3
# Si number density = 19.271706 Si / 1000 Ang^3
#
#
#
# Elastic Constant Matrix: (Units=GPa)
#
#
# Indices 1 2 3 4 5 6 
#
# 1 123.5268 33.3780 31.4955 0.0000 0.0000 0.0000
# 2 33.3780 101.8342 27.9252 0.0000 0.0000 0.0000
# 3 31.4955 27.9252 25.8874 0.0000 0.0000 0.0000
# 4 0.0000 0.0000 0.0000 45.6588 0.0000 0.0000
# 5 0.0000 0.0000 0.0000 0.0000 -18.6841 0.0000
# 6 0.0000 0.0000 0.0000 0.0000 0.0000 14.6660
#
#
#
# Elastic Compliance Matrix: (Units=1/GPa)
#
#
# Indices 1 2 3 4 5 6 
#
# 1 0.011737 0.000098 -0.014385 0.000000 0.000000 0.000000
# 2 0.000098 0.013946 -0.015162 0.000000 0.000000 0.000000
# 3 -0.014385 -0.015162 0.072486 0.000000 0.000000 0.000000
# 4 0.000000 0.000000 0.000000 0.021902 0.000000 0.000000
# 5 0.000000 0.000000 0.000000 0.000000 -0.053522 0.000000
# 6 0.000000 0.000000 0.000000 0.000000 0.000000 0.068185
#
#
# Mechanical properties :
#
#
# Convention : Reuss Voigt Hill
#
# Bulk Modulus (GPa) = 25.46509 48.53842 37.00175
# Shear Modulus (GPa) = 24.18717 18.89146 21.53931
#
# Velocity S-wave (km/s) = 3.54653 3.13432 3.34678
# Velocity P-wave (km/s) = 5.47840 6.19190 5.84605
#
# Compressibility (1/GPa) = 0.03926945
#
# Stress axis : x y z
#
# Youngs Moduli (GPa) = 85.20324 71.70668 13.79585
#
# Poissons Ratio (x) = -0.00700 0.19845
# Poissons Ratio (y) = -0.00832 0.20918
# Poissons Ratio (z) = 1.22561 1.08724
#
# Static dielectric constant tensor:
#      x y z
#    x 1.643310 0.000000 0.000000 
#    y 0.000000 1.670540 0.000000 
#    z 0.000000 0.000000 1.646500 
# 
# From -- ./inp_files/4481.got.cif
#   From: 2010.05.17/outbox.cif.g08.bks.cpg/sg55_3_cif.got.tgz:4481.got - 2010.06.03 13:27:54.
