data_PCOD9428703
_publ_section_title
;
Structure prediction by ZEFSAII (Michael W. Deem and Ramdas Pophale) SiO2 
 PCOD9428703
Probable space group: P B A M
;
_chemical_formula_sum "Si O2"
_cell_formula_units_Z 32
_cell_length_a 15.172478
_cell_length_b 10.067762
_cell_length_c 8.315545
_cell_angle_alpha 90.000000
_cell_angle_beta 90.000000
_cell_angle_gamma 90.000000
_cell_volume 1270.223593
_symmetry_space_group_name_H-M "P B A M"
_symmetry_group_IT_number 55
_symmetry_cell_setting 'orthorhombic'
loop_
_space_group_symop_operation_xyz
x,y,z
-x,-y,z
1/2+x,1/2-y,-z
1/2-x,1/2+y,-z
-x,-y,-z
x,y,-z
1/2-x,1/2+y,z
1/2+x,1/2-y,z
loop_
_atom_site_type_symbol
_atom_site_label
_atom_site_fract_x
_atom_site_fract_y
_atom_site_fract_z
Si Si1 0.146817 0.111235 0.000000
Si Si2 0.543892 0.856325 0.810353
Si Si3 0.256991 0.881793 0.000000
Si Si4 0.288676 0.251956 0.324045
Si Si5 0.910573 0.857640 0.675183
O O1 0.160813 0.274481 0.000000
O O2 0.094202 0.066032 0.843101
O O3 0.244200 0.042086 0.000000
O O4 0.637293 0.855954 0.718906
O O5 0.481610 0.756206 0.712239
O O6 0.500000 0.000000 0.807098
O O7 0.552951 0.818786 0.000000
O O8 0.211933 0.845075 0.168600
O O9 0.307789 0.311754 0.500000
O O10 0.189829 0.196574 0.331449
O O11 0.926711 0.916693 0.500000
#
# Coordination Sequence:
#
# PCOD9428703 Si02
#       5
#     4   8   4   8   8
#     4  10  22  41  66  99 138 182 232 287 349 419
#     4  11  23  41  71 107 143 188 243 299 356 423
#     4  10  22  41  66  99 138 182 232 287 349 419
#     4  10  22  41  65  98 139 183 229 287 356 419
#     4  10  22  41  65  98 139 183 229 287 356 419
#
# _framework density 25.192416999999999
#
# number of rings (size 3 to 8) (size 9 to 14) (size 15 to 20)
#    0.000    1.750    2.500    0.750    0.000   11.000 
#    0.000   12.500    0.000    3.000    0.000    0.000 
#    0.000    0.000    0.000    0.000    0.000    0.000 
#
# Total GULP energy -178504.276017 kJ/mol
# GULP energy per Si atom -5578.258626 kJ/mol
# Density = 2.513508 g / cm^3
# Si number density = 25.192417 Si / 1000 Ang^3
#
#
#
# Elastic Constant Matrix: (Units=GPa)
#
#
# Indices 1 2 3 4 5 6 
#
# 1 102.2941 43.4621 45.6652 0.0000 0.0000 0.0000
# 2 43.4621 36.0333 16.8874 0.0000 0.0000 0.0000
# 3 45.6652 16.8874 283.2498 0.0000 0.0000 0.0000
# 4 0.0000 0.0000 0.0000 -21.0516 0.0000 0.0000
# 5 0.0000 0.0000 0.0000 0.0000 -47.2346 0.0000
# 6 0.0000 0.0000 0.0000 0.0000 0.0000 31.6707
#
#
#
# Elastic Compliance Matrix: (Units=1/GPa)
#
#
# Indices 1 2 3 4 5 6 
#
# 1 0.021032 -0.024462 -0.001932 0.000000 0.000000 0.000000
# 2 -0.024462 0.057002 0.000545 0.000000 0.000000 0.000000
# 3 -0.001932 0.000545 0.003809 0.000000 0.000000 0.000000
# 4 0.000000 0.000000 0.000000 -0.047502 0.000000 0.000000
# 5 0.000000 0.000000 0.000000 0.000000 -0.021171 0.000000
# 6 0.000000 0.000000 0.000000 0.000000 0.000000 0.031575
#
#
# Mechanical properties :
#
#
# Convention : Reuss Voigt Hill
#
# Bulk Modulus (GPa) = 33.17311 70.40073 51.78692
# Shear Modulus (GPa) = 46.95238 13.71441 30.33339
#
# Velocity S-wave (km/s) = 4.32180 2.33574 3.47373
# Velocity P-wave (km/s) = 6.17255 5.93971 6.05725
#
# Compressibility (1/GPa) = 0.03014490
#
# Stress axis : x y z
#
# Youngs Moduli (GPa) = 47.54750 17.54328 262.50451
#
# Poissons Ratio (x) = 0.42914 0.50723
# Poissons Ratio (y) = 1.16311 -0.14314
# Poissons Ratio (z) = 0.09187 -0.00957
#
# Static dielectric constant tensor:
#      x y z
#    x 2.116740 0.000000 0.000000 
#    y 0.000000 1.964290 0.000000 
#    z 0.000000 0.000000 2.055040 
# 
# From -- ./inp_files/3422.got.cif
#   From: 2010.05.17/outbox.cif.g08.bks.cpg/sg55_2_cif.got.tgz:3422.got - 2010.06.03 13:27:54.
