data_PCOD9428109
_publ_section_title
;
Structure prediction by ZEFSAII (Michael W. Deem and Ramdas Pophale) SiO2 
 PCOD9428109
Probable space group: P B A M
;
_chemical_formula_sum "Si O2"
_cell_formula_units_Z 40
_cell_length_a 4.792369
_cell_length_b 10.603076
_cell_length_c 29.442603
_cell_angle_alpha 90.000000
_cell_angle_beta 90.000000
_cell_angle_gamma 90.000000
_cell_volume 1496.092093
_symmetry_space_group_name_H-M "P B A M"
_symmetry_group_IT_number 55
_symmetry_cell_setting 'orthorhombic'
loop_
_space_group_symop_operation_xyz
x,y,z
-x,-y,z
1/2+x,1/2-y,-z
1/2-x,1/2+y,-z
-x,-y,-z
x,y,-z
1/2-x,1/2+y,z
1/2+x,1/2-y,z
loop_
_atom_site_type_symbol
_atom_site_label
_atom_site_fract_x
_atom_site_fract_y
_atom_site_fract_z
Si Si1 0.500000 0.500000 0.779809
Si Si2 0.331500 0.660154 0.951296
Si Si3 0.668500 0.839846 0.451296
Si Si4 0.296598 0.165079 0.854627
Si Si5 0.796598 0.834921 0.645373
Si Si6 0.500000 0.000000 0.720191
O O1 0.320491 0.590443 0.812169
O O2 0.250000 0.437911 0.750000
O O3 0.144353 0.787593 0.950893
O O4 0.263536 0.598944 0.903105
O O5 0.275480 0.596632 0.000000
O O6 0.724520 0.903368 0.500000
O O7 0.355648 0.787593 0.450893
O O8 0.736464 0.901056 0.403105
O O9 0.117343 0.295022 0.853788
O O10 0.617343 0.704978 0.646212
O O11 0.679510 0.909557 0.687831
#
# Coordination Sequence:
#
# PCOD9428109 Si02
#       6
#     4   8   8   8   8   4
#     4  12  26  40  57  82 109 142 190 236 272 320
#     4   8  14  27  50  78 106 137 171 210 261 320
#     4   8  14  27  50  78 106 137 171 210 261 320
#     4  10  21  38  59  82 111 145 180 223 275 326
#     4  10  21  38  59  82 111 145 180 223 275 326
#     4  12  26  40  57  82 109 142 190 236 272 320
#
# _framework density 26.736321
#
# number of rings (size 3 to 8) (size 9 to 14) (size 15 to 20)
#    0.000    2.400    0.000    2.400    0.000    4.800 
#    0.000    1.000    0.000    0.000    0.000   30.800 
#    0.000    0.000    0.000    0.000    0.000    0.000 
#
# Total GULP energy -223627.916311 kJ/mol
# GULP energy per Si atom -5590.697908 kJ/mol
# Density = 2.667547 g / cm^3
# Si number density = 26.736321 Si / 1000 Ang^3
#
#
#
# Elastic Constant Matrix: (Units=GPa)
#
#
# Indices 1 2 3 4 5 6 
#
# 1 106.2657 14.8424 31.2768 0.0000 0.0000 0.0000
# 2 14.8424 41.7067 23.9207 0.0000 0.0000 0.0000
# 3 31.2768 23.9207 192.9627 0.0000 0.0000 0.0000
# 4 0.0000 0.0000 0.0000 60.9274 0.0000 0.0000
# 5 0.0000 0.0000 0.0000 0.0000 54.3869 0.0000
# 6 0.0000 0.0000 0.0000 0.0000 0.0000 40.2922
#
#
#
# Elastic Compliance Matrix: (Units=1/GPa)
#
#
# Indices 1 2 3 4 5 6 
#
# 1 0.010194 -0.002885 -0.001295 0.000000 0.000000 0.000000
# 2 -0.002885 0.026629 -0.002833 0.000000 0.000000 0.000000
# 3 -0.001295 -0.002833 0.005743 0.000000 0.000000 0.000000
# 4 0.000000 0.000000 0.000000 0.016413 0.000000 0.000000
# 5 0.000000 0.000000 0.000000 0.000000 0.018387 0.000000
# 6 0.000000 0.000000 0.000000 0.000000 0.000000 0.024819
#
#
# Mechanical properties :
#
#
# Convention : Reuss Voigt Hill
#
# Bulk Modulus (GPa) = 35.03876 53.44609 44.24242
# Shear Modulus (GPa) = 39.76922 49.18099 44.47511
#
# Velocity S-wave (km/s) = 3.86094 4.29357 4.08299
# Velocity P-wave (km/s) = 5.74540 6.67931 6.22988
#
# Compressibility (1/GPa) = 0.02853983
#
# Stress axis : x y z
#
# Youngs Moduli (GPa) = 98.09256 37.55325 174.11159
#
# Poissons Ratio (x) = 0.10836 0.22542
# Poissons Ratio (y) = 0.28304 0.49332
# Poissons Ratio (z) = 0.12700 0.10640
#
# Static dielectric constant tensor:
#      x y z
#    x 1.977020 0.000000 0.000000 
#    y 0.000000 2.093980 0.000000 
#    z 0.000000 0.000000 2.173890 
# 
# From -- ./inp_files/11349.got.cif
#   From: 2010.05.17/outbox.cif.g08.bks.cpg/sg55_6_cif.got.tgz:11349.got - 2010.06.03 13:27:54.
