data_PCOD9428033
_publ_section_title
;
Structure prediction by ZEFSAII (Michael W. Deem and Ramdas Pophale) SiO2 
 PCOD9428033
Probable space group: P B A M
;
_chemical_formula_sum "Si O2"
_cell_formula_units_Z 34
_cell_length_a 10.572462
_cell_length_b 4.878019
_cell_length_c 25.686836
_cell_angle_alpha 90.000000
_cell_angle_beta 90.000000
_cell_angle_gamma 90.000000
_cell_volume 1324.738730
_symmetry_space_group_name_H-M "P B A M"
_symmetry_group_IT_number 55
_symmetry_cell_setting 'orthorhombic'
loop_
_space_group_symop_operation_xyz
x,y,z
-x,-y,z
1/2+x,1/2-y,-z
1/2-x,1/2+y,-z
-x,-y,-z
x,y,-z
1/2-x,1/2+y,z
1/2+x,1/2-y,z
loop_
_atom_site_type_symbol
_atom_site_label
_atom_site_fract_x
_atom_site_fract_y
_atom_site_fract_z
Si Si1 0.335701 0.636093 0.663373
Si Si2 0.000000 0.000000 0.756857
Si Si3 0.000000 0.000000 0.000000
Si Si4 0.162977 0.346125 0.920024
Si Si5 0.500000 0.000000 0.175008
Si Si6 0.841426 0.705612 0.444159
O O1 0.211963 0.825675 0.662443
O O2 0.408483 0.660734 0.717074
O O3 0.407319 0.725780 0.610411
O O4 0.945430 0.245235 0.792013
O O5 0.943671 0.788437 0.044677
O O6 0.217122 0.648177 0.930626
O O7 0.106962 0.366544 0.862057
O O8 0.907373 0.747282 0.500000
O O9 0.718943 0.905447 0.443766
#
# Coordination Sequence:
#
# PCOD9428033 Si02
#       6
#     8   4   2   8   4   8
#     4  10  21  37  59  87 120 164 218 277 347 417
#     4  12  25  42  65  93 130 177 232 292 340 392
#     4  12  26  50  80 118 152 176 224 278 326 402
#     4  12  27  48  77 110 148 192 231 278 344 404
#     4  12  28  47  68 102 143 184 240 290 328 402
#     4   8  14  27  49  77 111 152 200 262 338 417
#
# _framework density 25.665434999999999
#
# number of rings (size 3 to 8) (size 9 to 14) (size 15 to 20)
#    0.000    1.412    0.000    5.647    0.000    8.941 
#    0.000    0.588    0.000    0.000    0.000   18.118 
#    0.000    0.000    0.000    0.000    0.000    0.000 
#
# Total GULP energy -189565.427941 kJ/mol
# GULP energy per Si atom -5575.453763 kJ/mol
# Density = 2.560702 g / cm^3
# Si number density = 25.665435 Si / 1000 Ang^3
#
#
#
# Elastic Constant Matrix: (Units=GPa)
#
#
# Indices 1 2 3 4 5 6 
#
# 1 74.1648 34.7078 34.1149 0.0000 0.0000 0.0000
# 2 34.7078 117.9987 60.1749 0.0000 0.0000 0.0000
# 3 34.1149 60.1749 196.5987 0.0000 0.0000 0.0000
# 4 0.0000 0.0000 0.0000 35.5963 0.0000 0.0000
# 5 0.0000 0.0000 0.0000 0.0000 77.5750 0.0000
# 6 0.0000 0.0000 0.0000 0.0000 0.0000 53.6465
#
#
#
# Elastic Compliance Matrix: (Units=1/GPa)
#
#
# Indices 1 2 3 4 5 6 
#
# 1 0.016043 -0.003909 -0.001587 0.000000 0.000000 0.000000
# 2 -0.003909 0.010995 -0.002687 0.000000 0.000000 0.000000
# 3 -0.001587 -0.002687 0.006184 0.000000 0.000000 0.000000
# 4 0.000000 0.000000 0.000000 0.028093 0.000000 0.000000
# 5 0.000000 0.000000 0.000000 0.000000 0.012891 0.000000
# 6 0.000000 0.000000 0.000000 0.000000 0.000000 0.018641
#
#
# Mechanical properties :
#
#
# Convention : Reuss Voigt Hill
#
# Bulk Modulus (GPa) = 59.32941 71.86196 65.59568
# Shear Modulus (GPa) = 43.54185 50.68119 47.11152
#
# Velocity S-wave (km/s) = 4.12335 4.44857 4.28904
# Velocity P-wave (km/s) = 6.77023 7.37879 7.08105
#
# Compressibility (1/GPa) = 0.01685505
#
# Stress axis : x y z
#
# Youngs Moduli (GPa) = 62.33180 90.95204 161.69855
#
# Poissons Ratio (x) = 0.35557 0.25666
# Poissons Ratio (y) = 0.24368 0.43447
# Poissons Ratio (z) = 0.09894 0.24438
#
# Static dielectric constant tensor:
#      x y z
#    x 2.191870 0.000000 0.000000 
#    y 0.000000 1.953170 0.000000 
#    z 0.000000 0.000000 2.122220 
# 
# From -- ./inp_files/23528.got.cif
#   From: 2010.05.17/outbox.cif.g08.bks.cpg/sg55_12_cif.got.tgz:23528.got - 2010.06.03 13:27:54.
