data_PCOD9428714
_publ_section_title
;
Structure prediction by ZEFSAII (Michael W. Deem and Ramdas Pophale) SiO2 
 PCOD9428714
Probable space group: P B A M
;
_chemical_formula_sum "Si O2"
_cell_formula_units_Z 26
_cell_length_a 13.673391
_cell_length_b 10.549098
_cell_length_c 7.937027
_cell_angle_alpha 90.000000
_cell_angle_beta 90.000000
_cell_angle_gamma 90.000000
_cell_volume 1144.852185
_symmetry_space_group_name_H-M "P B A M"
_symmetry_group_IT_number 55
_symmetry_cell_setting 'orthorhombic'
loop_
_space_group_symop_operation_xyz
x,y,z
-x,-y,z
1/2+x,1/2-y,-z
1/2-x,1/2+y,-z
-x,-y,-z
x,y,-z
1/2-x,1/2+y,z
1/2+x,1/2-y,z
loop_
_atom_site_type_symbol
_atom_site_label
_atom_site_fract_x
_atom_site_fract_y
_atom_site_fract_z
Si Si1 0.345894 0.065751 0.808735
Si Si2 0.500000 0.500000 0.000000
Si Si3 0.457698 0.826676 0.693190
Si Si4 0.870694 0.954167 0.690142
O O1 0.428324 0.160242 0.737812
O O2 0.245603 0.057812 0.708337
O O3 0.398045 0.928231 0.801847
O O4 0.323206 0.100991 0.000000
O O5 0.582302 0.525587 0.848694
O O6 0.444349 0.866342 0.500000
O O7 0.415334 0.687072 0.710819
O O8 0.892405 0.002089 0.500000
#
# Coordination Sequence:
#
# PCOD9428714 Si02
#       4
#     8   2   8   8
#     4  11  22  39  68  99 133 176 224 271 325 394
#     4  12  26  44  64  94 128 166 210 274 320 390
#     4  10  22  41  67  96 133 177 224 271 324 393
#     4  11  25  45  68  98 135 177 218 270 334 389
#
# _framework density 22.710356000000001
#
# number of rings (size 3 to 8) (size 9 to 14) (size 15 to 20)
#    0.000    1.231    1.538    6.000    4.308    2.462 
#    0.000    3.077    0.000    0.000    0.000    0.000 
#    0.000    0.000    0.000    0.000    0.000    0.000 
#
# Total GULP energy -144875.665000 kJ/mol
# GULP energy per Si atom -5572.140962 kJ/mol
# Density = 2.265867 g / cm^3
# Si number density = 22.710356 Si / 1000 Ang^3
#
#
#
# Elastic Constant Matrix: (Units=GPa)
#
#
# Indices 1 2 3 4 5 6 
#
# 1 188.8189 3.9242 47.7508 0.0000 0.0000 0.0000
# 2 3.9242 32.5297 18.8342 0.0000 0.0000 0.0000
# 3 47.7508 18.8342 174.8236 0.0000 0.0000 0.0000
# 4 0.0000 0.0000 0.0000 25.0761 0.0000 0.0000
# 5 0.0000 0.0000 0.0000 0.0000 40.5667 0.0000
# 6 0.0000 0.0000 0.0000 0.0000 0.0000 21.0931
#
#
#
# Elastic Compliance Matrix: (Units=1/GPa)
#
#
# Indices 1 2 3 4 5 6 
#
# 1 0.005691 0.000228 -0.001579 0.000000 0.000000 0.000000
# 2 0.000228 0.032795 -0.003595 0.000000 0.000000 0.000000
# 3 -0.001579 -0.003595 0.006539 0.000000 0.000000 0.000000
# 4 0.000000 0.000000 0.000000 0.039879 0.000000 0.000000
# 5 0.000000 0.000000 0.000000 0.000000 0.024651 0.000000
# 6 0.000000 0.000000 0.000000 0.000000 0.000000 0.047409
#
#
# Mechanical properties :
#
#
# Convention : Reuss Voigt Hill
#
# Bulk Modulus (GPa) = 28.46445 59.68783 44.07614
# Shear Modulus (GPa) = 28.00081 39.05806 33.52944
#
# Velocity S-wave (km/s) = 3.51515 4.15159 3.84656
# Velocity P-wave (km/s) = 5.38850 7.02283 6.25924
#
# Compressibility (1/GPa) = 0.03513154
#
# Stress axis : x y z
#
# Youngs Moduli (GPa) = 175.72760 30.49218 152.93737
#
# Poissons Ratio (x) = -0.00694 0.24146
# Poissons Ratio (y) = -0.04000 0.54986
# Poissons Ratio (z) = 0.27745 0.10963
#
# Static dielectric constant tensor:
#      x y z
#    x 1.831730 0.000000 0.000000 
#    y 0.000000 1.880950 0.000000 
#    z 0.000000 0.000000 1.839020 
# 
# From -- ./inp_files/3261.got.cif
#   From: 2010.05.17/outbox.cif.g08.bks.cpg/sg55_2_cif.got.tgz:3261.got - 2010.06.03 13:27:54.
