data_PCOD9428566
_publ_section_title
;
Structure prediction by ZEFSAII (Michael W. Deem and Ramdas Pophale) SiO2 
 PCOD9428566
Probable space group: P B A M
;
_chemical_formula_sum "Si O2"
_cell_formula_units_Z 56
_cell_length_a 15.408216
_cell_length_b 8.323102
_cell_length_c 20.284603
_cell_angle_alpha 90.000000
_cell_angle_beta 90.000000
_cell_angle_gamma 90.000000
_cell_volume 2601.381739
_symmetry_space_group_name_H-M "P B A M"
_symmetry_group_IT_number 55
_symmetry_cell_setting 'orthorhombic'
loop_
_space_group_symop_operation_xyz
x,y,z
-x,-y,z
1/2+x,1/2-y,-z
1/2-x,1/2+y,-z
-x,-y,-z
x,y,-z
1/2-x,1/2+y,z
1/2+x,1/2-y,z
loop_
_atom_site_type_symbol
_atom_site_label
_atom_site_fract_x
_atom_site_fract_y
_atom_site_fract_z
Si Si1 0.031712 0.186970 0.574516
Si Si2 0.840412 0.721911 0.212399
Si Si3 0.121635 0.773688 0.072921
Si Si4 0.800977 0.893127 0.350049
Si Si5 0.027089 0.815082 0.208216
Si Si6 0.874162 0.252476 0.664629
Si Si7 0.250974 0.024028 0.126111
O O1 0.024312 0.247851 0.500000
O O2 0.964194 0.268073 0.624824
O O3 0.130894 0.188052 0.599531
O O4 0.000000 0.000000 0.574393
O O5 0.814260 0.801550 0.280872
O O6 0.816157 0.846083 0.154205
O O7 0.787944 0.566144 0.190713
O O8 0.943101 0.704220 0.214617
O O9 0.058578 0.812008 0.133344
O O10 0.169395 0.606366 0.088962
O O11 0.198548 0.903661 0.080135
O O12 0.083382 0.776543 0.000000
O O13 0.698099 0.876626 0.360343
O O14 0.831577 0.077046 0.347154
O O15 0.100377 0.751866 0.258114
O O16 0.000000 0.000000 0.226931
#
# Coordination Sequence:
#
# PCOD9428566 Si02
#       7
#     8   8   8   8   8   8   8
#     4   9  19  37  60  88 124 164 203 242 293 363
#     4  11  20  38  61  88 117 154 197 258 302 358
#     4  11  23  40  60  85 117 156 200 249 309 370
#     4  11  20  35  62  88 119 159 202 249 302 356
#     4  12  21  38  60  87 120 155 203 257 303 361
#     4  11  21  38  62  90 123 157 206 251 301 355
#     4  10  22  39  60  86 116 153 199 251 307 367
#
# _framework density 21.527021000000001
#
# number of rings (size 3 to 8) (size 9 to 14) (size 15 to 20)
#    0.000    1.286    4.286    3.429    0.000    1.429 
#    0.000    2.857    0.000    0.857    0.000    0.000 
#    0.000    0.000    0.000    0.000    0.000    0.000 
#
# Total GULP energy -312978.480394 kJ/mol
# GULP energy per Si atom -5588.901436 kJ/mol
# Density = 2.147802 g / cm^3
# Si number density = 21.527021 Si / 1000 Ang^3
#
#
#
# Elastic Constant Matrix: (Units=GPa)
#
#
# Indices 1 2 3 4 5 6 
#
# 1 83.1639 -1.8483 7.5008 0.0000 0.0000 0.0000
# 2 -1.8483 20.2776 -3.6238 0.0000 0.0000 0.0000
# 3 7.5008 -3.6238 101.1667 0.0000 0.0000 0.0000
# 4 0.0000 0.0000 0.0000 10.4253 0.0000 0.0000
# 5 0.0000 0.0000 0.0000 0.0000 28.7845 0.0000
# 6 0.0000 0.0000 0.0000 0.0000 0.0000 24.9508
#
#
#
# Elastic Compliance Matrix: (Units=1/GPa)
#
#
# Indices 1 2 3 4 5 6 
#
# 1 0.012124 0.000951 -0.000865 0.000000 0.000000 0.000000
# 2 0.000951 0.049708 0.001710 0.000000 0.000000 0.000000
# 3 -0.000865 0.001710 0.010010 0.000000 0.000000 0.000000
# 4 0.000000 0.000000 0.000000 0.095921 0.000000 0.000000
# 5 0.000000 0.000000 0.000000 0.000000 0.034741 0.000000
# 6 0.000000 0.000000 0.000000 0.000000 0.000000 0.040079
#
#
# Mechanical properties :
#
#
# Convention : Reuss Voigt Hill
#
# Bulk Modulus (GPa) = 13.25683 23.18506 18.22095
# Shear Modulus (GPa) = 18.92975 26.33744 22.63359
#
# Velocity S-wave (km/s) = 2.96860 3.50159 3.24605
# Velocity P-wave (km/s) = 4.23340 5.20978 4.74676
#
# Compressibility (1/GPa) = 0.07543279
#
# Stress axis : x y z
#
# Youngs Moduli (GPa) = 82.48394 20.11763 99.89962
#
# Poissons Ratio (x) = -0.01912 0.08640
# Poissons Ratio (y) = -0.07840 -0.17084
# Poissons Ratio (z) = 0.07133 -0.03440
#
# Static dielectric constant tensor:
#      x y z
#    x 1.805090 0.000000 0.000000 
#    y 0.000000 1.832520 0.000000 
#    z 0.000000 0.000000 1.763970 
# 
# From -- ./inp_files/22616.got.cif
#   From: 2010.05.17/outbox.cif.g08.bks.cpg/sg55_12_cif.got.tgz:22616.got - 2010.06.03 13:27:54.
