data_PCOD9428463
_publ_section_title
;
Structure prediction by ZEFSAII (Michael W. Deem and Ramdas Pophale) SiO2 
 PCOD9428463
Probable space group: P B A M
;
_chemical_formula_sum "Si O2"
_cell_formula_units_Z 64
_cell_length_a 8.523595
_cell_length_b 24.075578
_cell_length_c 15.131944
_cell_angle_alpha 90.000000
_cell_angle_beta 90.000000
_cell_angle_gamma 90.000000
_cell_volume 3105.233435
_symmetry_space_group_name_H-M "P B A M"
_symmetry_group_IT_number 55
_symmetry_cell_setting 'orthorhombic'
loop_
_space_group_symop_operation_xyz
x,y,z
-x,-y,z
1/2+x,1/2-y,-z
1/2-x,1/2+y,-z
-x,-y,-z
x,y,-z
1/2-x,1/2+y,z
1/2+x,1/2-y,z
loop_
_atom_site_type_symbol
_atom_site_label
_atom_site_fract_x
_atom_site_fract_y
_atom_site_fract_z
Si Si1 0.151929 0.612885 0.712080
Si Si2 0.139813 0.834832 0.702724
Si Si3 0.243151 0.227076 0.907698
Si Si4 0.154626 0.418695 0.397356
Si Si5 0.827879 0.777380 0.282607
Si Si6 0.314194 0.356430 0.098661
Si Si7 0.836187 0.969750 0.397590
Si Si8 0.949006 0.379028 0.903256
O O1 0.188404 0.678387 0.702019
O O2 0.293716 0.579435 0.667990
O O3 0.129901 0.597595 0.815130
O O4 0.994254 0.596871 0.661305
O O5 0.200551 0.881384 0.636242
O O6 0.271608 0.785515 0.703746
O O7 0.120099 0.863000 0.800864
O O8 0.983157 0.802126 0.674052
O O9 0.139830 0.218027 0.822305
O O10 0.297048 0.290019 0.907195
O O11 0.389605 0.185042 0.903258
O O12 0.159199 0.215280 0.000000
O O13 0.121658 0.407628 0.500000
O O14 0.203530 0.482830 0.388761
O O15 0.136289 0.380062 0.103977
O O16 0.376987 0.374748 0.000000
O O17 0.838204 0.950822 0.500000
O O18 0.000000 0.000000 0.379451
O O19 0.903426 0.402053 0.000000
#
# Coordination Sequence:
#
# PCOD9428463 Si02
#       8
#     8   8   8   8   8   8   8   8
#     4  11  20  38  61  88 116 151 188 238 289 341
#     4  11  21  37  53  81 117 155 190 231 280 338
#     4   8  16  26  44  72 107 148 193 234 271 314
#     4  11  23  40  63  87 111 142 186 239 290 342
#     4  10  22  33  55  80 118 157 192 229 281 344
#     4   9  17  27  47  74 108 149 190 230 272 322
#     4  10  22  41  66  92 114 139 184 245 299 345
#     4   9  17  31  49  79 115 153 191 231 280 333
#
# _framework density 20.610365999999999
#
# number of rings (size 3 to 8) (size 9 to 14) (size 15 to 20)
#    0.000    2.125    1.250    2.250    8.750    1.500 
#    0.000    3.750    0.000    2.625    0.000    0.000 
#    0.000    0.000    0.000    0.000    0.000    0.000 
#
# Total GULP energy -356892.644929 kJ/mol
# GULP energy per Si atom -5576.447577 kJ/mol
# Density = 2.056346 g / cm^3
# Si number density = 20.610366 Si / 1000 Ang^3
#
#
#
# Elastic Constant Matrix: (Units=GPa)
#
#
# Indices 1 2 3 4 5 6 
#
# 1 45.5929 -4.5949 7.2442 0.0000 0.0000 0.0000
# 2 -4.5949 37.1419 31.4329 0.0000 0.0000 0.0000
# 3 7.2442 31.4329 94.3296 0.0000 0.0000 0.0000
# 4 0.0000 0.0000 0.0000 24.6029 0.0000 0.0000
# 5 0.0000 0.0000 0.0000 0.0000 21.6109 0.0000
# 6 0.0000 0.0000 0.0000 0.0000 0.0000 23.6479
#
#
#
# Elastic Compliance Matrix: (Units=1/GPa)
#
#
# Indices 1 2 3 4 5 6 
#
# 1 0.023151 0.006085 -0.003805 0.000000 0.000000 0.000000
# 2 0.006085 0.039098 -0.013496 0.000000 0.000000 0.000000
# 3 -0.003805 -0.013496 0.015390 0.000000 0.000000 0.000000
# 4 0.000000 0.000000 0.000000 0.040646 0.000000 0.000000
# 5 0.000000 0.000000 0.000000 0.000000 0.046273 0.000000
# 6 0.000000 0.000000 0.000000 0.000000 0.000000 0.042287
#
#
# Mechanical properties :
#
#
# Convention : Reuss Voigt Hill
#
# Bulk Modulus (GPa) = 18.11384 27.24764 22.68074
# Shear Modulus (GPa) = 20.18736 23.50451 21.84593
#
# Velocity S-wave (km/s) = 3.13305 3.38068 3.25922
# Velocity P-wave (km/s) = 4.67930 5.33739 5.01914
#
# Compressibility (1/GPa) = 0.05520640
#
# Stress axis : x y z
#
# Youngs Moduli (GPa) = 43.19447 25.57694 64.97547
#
# Poissons Ratio (x) = -0.15563 0.24726
# Poissons Ratio (y) = -0.26282 0.87688
# Poissons Ratio (z) = 0.16438 0.34518
#
# Static dielectric constant tensor:
#      x y z
#    x 1.786540 0.000000 0.000000 
#    y 0.000000 1.704270 0.000000 
#    z 0.000000 0.000000 1.777850 
# 
# From -- ./inp_files/17803.got.cif
#   From: 2010.05.17/outbox.cif.g08.bks.cpg/sg55_9_cif.got.tgz:17803.got - 2010.06.03 13:27:54.
