data_PCOD9428770
_publ_section_title
;
Structure prediction by ZEFSAII (Michael W. Deem and Ramdas Pophale) SiO2 
 PCOD9428770
Probable space group: P B A M
;
_chemical_formula_sum "Si O2"
_cell_formula_units_Z 48
_cell_length_a 8.482190
_cell_length_b 18.622590
_cell_length_c 15.633691
_cell_angle_alpha 90.000000
_cell_angle_beta 90.000000
_cell_angle_gamma 90.000000
_cell_volume 2469.503250
_symmetry_space_group_name_H-M "P B A M"
_symmetry_group_IT_number 55
_symmetry_cell_setting 'orthorhombic'
loop_
_space_group_symop_operation_xyz
x,y,z
-x,-y,z
1/2+x,1/2-y,-z
1/2-x,1/2+y,-z
-x,-y,-z
x,y,-z
1/2-x,1/2+y,z
1/2+x,1/2-y,z
loop_
_atom_site_type_symbol
_atom_site_label
_atom_site_fract_x
_atom_site_fract_y
_atom_site_fract_z
Si Si1 0.025358 0.279415 0.000000
Si Si2 0.926225 0.920487 0.601479
Si Si3 0.431178 0.331758 0.742815
Si Si4 0.926495 0.680298 0.195499
Si Si5 0.209364 0.146908 0.000000
Si Si6 0.869277 0.444816 0.716060
Si Si7 0.370803 0.552362 0.150177
O O1 0.081020 0.312763 0.908700
O O2 0.052441 0.194013 0.000000
O O3 0.839948 0.292705 0.000000
O O4 0.919861 0.911435 0.500000
O O5 0.751638 0.918103 0.643581
O O6 0.032461 0.859555 0.647048
O O7 0.000000 0.000000 0.619554
O O8 0.504869 0.255193 0.768015
O O9 0.248664 0.330863 0.768035
O O10 0.527687 0.390445 0.796942
O O11 0.041643 0.618679 0.232812
O O12 0.222400 0.096319 0.919597
O O13 0.753451 0.482975 0.785308
O O14 0.000000 0.500000 0.683570
O O15 0.500000 0.500000 0.110996
#
# Coordination Sequence:
#
# PCOD9428770 Si02
#       7
#     4   8   8   8   4   8   8
#     4  12  24  40  60  90 125 170 218 268 303 362
#     4  10  22  43  69  97 126 159 205 259 320 390
#     4  11  22  40  63  92 122 169 211 259 318 380
#     4  12  23  40  64  91 128 170 220 260 315 370
#     4  12  23  40  56  88 120 165 220 267 317 367
#     4  11  22  41  64  92 128 167 212 258 318 384
#     4  11  22  38  58  85 124 166 214 265 316 367
#
# _framework density 19.437106
#
# number of rings (size 3 to 8) (size 9 to 14) (size 15 to 20)
#    0.000    0.833    3.333    7.250    0.000    0.333 
#    0.000    7.500    0.000    0.000    0.000    0.000 
#    0.000    0.000    0.000    0.000    0.000    0.000 
#
# Total GULP energy -267947.446279 kJ/mol
# GULP energy per Si atom -5582.238464 kJ/mol
# Density = 1.939287 g / cm^3
# Si number density = 19.437106 Si / 1000 Ang^3
#
#
#
# Elastic Constant Matrix: (Units=GPa)
#
#
# Indices 1 2 3 4 5 6 
#
# 1 113.6294 30.8184 54.5957 0.0000 0.0000 0.0000
# 2 30.8184 69.9859 35.0951 0.0000 0.0000 0.0000
# 3 54.5957 35.0951 141.3637 0.0000 0.0000 0.0000
# 4 0.0000 0.0000 0.0000 18.2448 0.0000 0.0000
# 5 0.0000 0.0000 0.0000 0.0000 23.9759 0.0000
# 6 0.0000 0.0000 0.0000 0.0000 0.0000 37.7796
#
#
#
# Elastic Compliance Matrix: (Units=1/GPa)
#
#
# Indices 1 2 3 4 5 6 
#
# 1 0.011405 -0.003214 -0.003607 0.000000 0.000000 0.000000
# 2 -0.003214 0.017226 -0.003035 0.000000 0.000000 0.000000
# 3 -0.003607 -0.003035 0.009221 0.000000 0.000000 0.000000
# 4 0.000000 0.000000 0.000000 0.054810 0.000000 0.000000
# 5 0.000000 0.000000 0.000000 0.000000 0.041709 0.000000
# 6 0.000000 0.000000 0.000000 0.000000 0.000000 0.026469
#
#
# Mechanical properties :
#
#
# Convention : Reuss Voigt Hill
#
# Bulk Modulus (GPa) = 55.12764 62.88860 59.00812
# Shear Modulus (GPa) = 26.79559 29.63138 28.21349
#
# Velocity S-wave (km/s) = 3.71695 3.90869 3.81402
# Velocity P-wave (km/s) = 6.84431 7.26606 7.05834
#
# Compressibility (1/GPa) = 0.01813972
#
# Stress axis : x y z
#
# Youngs Moduli (GPa) = 87.67972 58.05245 108.45327
#
# Poissons Ratio (x) = 0.18655 0.39119
# Poissons Ratio (y) = 0.28176 0.32920
# Poissons Ratio (z) = 0.31626 0.17621
#
# Static dielectric constant tensor:
#      x y z
#    x 1.685500 0.000000 0.000000 
#    y 0.000000 1.679830 0.000000 
#    z 0.000000 0.000000 1.707110 
# 
# From -- ./inp_files/17405.got.cif
#   From: 2010.05.17/outbox.cif.g08.bks.cpg/sg55_9_cif.got.tgz:17405.got - 2010.06.03 13:27:54.
