data_PCOD9428290
_publ_section_title
;
Structure prediction by ZEFSAII (Michael W. Deem and Ramdas Pophale) SiO2 
 PCOD9428290
Probable space group: P B A M
;
_chemical_formula_sum "Si O2"
_cell_formula_units_Z 40
_cell_length_a 9.000116
_cell_length_b 15.131358
_cell_length_c 12.802761
_cell_angle_alpha 90.000000
_cell_angle_beta 90.000000
_cell_angle_gamma 90.000000
_cell_volume 1743.530913
_symmetry_space_group_name_H-M "P B A M"
_symmetry_group_IT_number 55
_symmetry_cell_setting 'orthorhombic'
loop_
_space_group_symop_operation_xyz
x,y,z
-x,-y,z
1/2+x,1/2-y,-z
1/2-x,1/2+y,-z
-x,-y,-z
x,y,-z
1/2-x,1/2+y,z
1/2+x,1/2-y,z
loop_
_atom_site_type_symbol
_atom_site_label
_atom_site_fract_x
_atom_site_fract_y
_atom_site_fract_z
Si Si1 0.654300 0.039769 0.835433
Si Si2 0.144269 0.800271 0.117421
Si Si3 0.192508 0.706093 0.326025
Si Si4 0.901606 0.919761 0.231138
Si Si5 0.878484 0.625644 0.614351
O O1 0.715452 0.132011 0.880304
O O2 0.638728 0.059986 0.711249
O O3 0.500000 0.000000 0.873825
O O4 0.781967 0.966773 0.843666
O O5 0.167976 0.724620 0.202413
O O6 0.006844 0.855979 0.164142
O O7 0.118123 0.770300 0.000000
O O8 0.320931 0.633091 0.323163
O O9 0.255585 0.796966 0.372378
O O10 0.039713 0.671881 0.373411
O O11 0.000000 0.000000 0.273990
O O12 0.865624 0.584808 0.500000
#
# Coordination Sequence:
#
# PCOD9428290 Si02
#       5
#     8   8   8   8   8
#     4  10  21  39  63  89 127 160 203 266 309 370
#     4  10  23  41  65  91 123 169 211 253 317 384
#     4  11  21  42  64  92 128 162 209 269 310 369
#     4  10  21  40  63  87 131 166 199 255 323 368
#     4  11  23  40  65  93 124 168 212 258 322 378
#
# _framework density 22.941951
#
# number of rings (size 3 to 8) (size 9 to 14) (size 15 to 20)
#    0.000    1.600    4.000    0.600    0.000    5.200 
#    0.000    0.000    0.000    5.400    0.000    0.000 
#    0.000    0.000    0.000    0.000    0.000    0.000 
#
# Total GULP energy -223771.068824 kJ/mol
# GULP energy per Si atom -5594.276721 kJ/mol
# Density = 2.288973 g / cm^3
# Si number density = 22.941951 Si / 1000 Ang^3
#
#
#
# Elastic Constant Matrix: (Units=GPa)
#
#
# Indices 1 2 3 4 5 6 
#
# 1 101.5638 8.2167 0.1591 0.0000 0.0000 0.0000
# 2 8.2167 43.8174 2.3442 0.0000 0.0000 0.0000
# 3 0.1591 2.3442 115.8473 0.0000 0.0000 0.0000
# 4 0.0000 0.0000 0.0000 -10.4972 0.0000 0.0000
# 5 0.0000 0.0000 0.0000 0.0000 3.1004 0.0000
# 6 0.0000 0.0000 0.0000 0.0000 0.0000 22.9286
#
#
#
# Elastic Compliance Matrix: (Units=1/GPa)
#
#
# Indices 1 2 3 4 5 6 
#
# 1 0.009998 -0.001876 0.000024 0.000000 0.000000 0.000000
# 2 -0.001876 0.023199 -0.000467 0.000000 0.000000 0.000000
# 3 0.000024 -0.000467 0.008641 0.000000 0.000000 0.000000
# 4 0.000000 0.000000 0.000000 -0.095263 0.000000 0.000000
# 5 0.000000 0.000000 0.000000 0.000000 0.322534 0.000000
# 6 0.000000 0.000000 0.000000 0.000000 0.000000 0.043614
#
#
# Mechanical properties :
#
#
# Convention : Reuss Voigt Hill
#
# Bulk Modulus (GPa) = 26.88133 31.40762 29.14447
# Shear Modulus (GPa) = 15.16254 19.80694 17.48474
#
# Velocity S-wave (km/s) = 2.57360 2.94147 2.76366
# Velocity P-wave (km/s) = 4.53583 5.02554 4.78695
#
# Compressibility (1/GPa) = 0.03720054
#
# Stress axis : x y z
#
# Youngs Moduli (GPa) = 100.02230 43.10573 115.72108
#
# Poissons Ratio (x) = 0.08087 -0.00280
# Poissons Ratio (y) = 0.18765 0.05403
# Poissons Ratio (z) = -0.00242 0.02012
#
# Static dielectric constant tensor:
#      x y z
#    x 1.899460 0.000000 0.000000 
#    y 0.000000 1.855280 0.000000 
#    z 0.000000 0.000000 1.824630 
# 
# From -- ./inp_files/11857.got.cif
#   From: 2010.05.17/outbox.cif.g08.bks.cpg/sg55_6_cif.got.tgz:11857.got - 2010.06.03 13:27:54.
