data_PCOD9428486
_publ_section_title
;
Structure prediction by ZEFSAII (Michael W. Deem and Ramdas Pophale) SiO2 
 PCOD9428486
Probable space group: P B A M
;
_chemical_formula_sum "Si O2"
_cell_formula_units_Z 36
_cell_length_a 5.431402
_cell_length_b 22.244719
_cell_length_c 14.210758
_cell_angle_alpha 90.000000
_cell_angle_beta 90.000000
_cell_angle_gamma 90.000000
_cell_volume 1716.943942
_symmetry_space_group_name_H-M "P B A M"
_symmetry_group_IT_number 55
_symmetry_cell_setting 'orthorhombic'
loop_
_space_group_symop_operation_xyz
x,y,z
-x,-y,z
1/2+x,1/2-y,-z
1/2-x,1/2+y,-z
-x,-y,-z
x,y,-z
1/2-x,1/2+y,z
1/2+x,1/2-y,z
loop_
_atom_site_type_symbol
_atom_site_label
_atom_site_fract_x
_atom_site_fract_y
_atom_site_fract_z
Si Si1 0.524944 0.288506 0.889902
Si Si2 0.746944 0.382637 0.243312
Si Si3 0.079274 0.713516 0.388466
Si Si4 0.128376 0.435372 0.896773
Si Si5 0.000000 0.000000 0.766759
O O1 0.266506 0.253768 0.877358
O O2 0.550244 0.340015 0.810782
O O3 0.538500 0.308724 0.000000
O O4 0.868550 0.344609 0.326164
O O5 0.667647 0.449164 0.281878
O O6 0.946203 0.394277 0.161516
O O7 0.088033 0.700369 0.500000
O O8 0.311191 0.757941 0.368591
O O9 0.356596 0.455007 0.835165
O O10 0.000000 0.500000 0.907801
O O11 0.184235 0.411232 0.000000
#
# Coordination Sequence:
#
# PCOD9428486 Si02
#       5
#     8   8   8   8   4
#     4  10  22  37  55  84 118 156 202 254 313 368
#     4  11  22  37  61  87 122 164 209 263 312 378
#     4  10  23  43  70  99 124 157 206 264 329 390
#     4   9  19  35  53  81 119 162 208 249 294 354
#     4  10  23  36  57  88 124 172 219 252 305 366
#
# _framework density 20.967487999999999
#
# number of rings (size 3 to 8) (size 9 to 14) (size 15 to 20)
#    0.000    2.000    0.000    2.333    6.222    2.667 
#    0.000    0.556    0.000    6.000    0.000    0.000 
#    0.000    0.000    0.000    0.000    0.000    0.000 
#
# Total GULP energy -200869.906898 kJ/mol
# GULP energy per Si atom -5579.719636 kJ/mol
# Density = 2.091977 g / cm^3
# Si number density = 20.967488 Si / 1000 Ang^3
#
#
#
# Elastic Constant Matrix: (Units=GPa)
#
#
# Indices 1 2 3 4 5 6 
#
# 1 72.2256 25.9975 -7.3294 0.0000 0.0000 0.0000
# 2 25.9975 88.1738 37.0418 0.0000 0.0000 0.0000
# 3 -7.3294 37.0418 49.5671 0.0000 0.0000 0.0000
# 4 0.0000 0.0000 0.0000 40.9706 0.0000 0.0000
# 5 0.0000 0.0000 0.0000 0.0000 19.5164 0.0000
# 6 0.0000 0.0000 0.0000 0.0000 0.0000 43.6299
#
#
#
# Elastic Compliance Matrix: (Units=1/GPa)
#
#
# Indices 1 2 3 4 5 6 
#
# 1 0.018260 -0.009501 0.009800 0.000000 0.000000 0.000000
# 2 -0.009501 0.021474 -0.017453 0.000000 0.000000 0.000000
# 3 0.009800 -0.017453 0.034666 0.000000 0.000000 0.000000
# 4 0.000000 0.000000 0.000000 0.024408 0.000000 0.000000
# 5 0.000000 0.000000 0.000000 0.000000 0.051239 0.000000
# 6 0.000000 0.000000 0.000000 0.000000 0.000000 0.022920
#
#
# Mechanical properties :
#
#
# Convention : Reuss Voigt Hill
#
# Bulk Modulus (GPa) = 24.94175 35.70958 30.32567
# Shear Modulus (GPa) = 22.66149 31.10717 26.88433
#
# Velocity S-wave (km/s) = 3.29111 3.85592 3.58465
# Velocity P-wave (km/s) = 5.13450 6.07388 5.62384
#
# Compressibility (1/GPa) = 0.04009342
#
# Stress axis : x y z
#
# Youngs Moduli (GPa) = 54.76522 46.56718 28.84644
#
# Poissons Ratio (x) = 0.44242 -0.28269
# Poissons Ratio (y) = 0.52031 0.50345
# Poissons Ratio (z) = -0.53670 0.81273
#
# Static dielectric constant tensor:
#      x y z
#    x 3.888970 0.000000 0.000000 
#    y 0.000000 1.905860 0.000000 
#    z 0.000000 0.000000 1.776180 
# 
# From -- ./inp_files/16498.got.cif
#   From: 2010.05.17/outbox.cif.g08.bks.cpg/sg55_9_cif.got.tgz:16498.got - 2010.06.03 13:27:54.
