data_PCOD9428251
_publ_section_title
;
Structure prediction by ZEFSAII (Michael W. Deem and Ramdas Pophale) SiO2 
 PCOD9428251
Probable space group: P B A M
;
_chemical_formula_sum "Si O2"
_cell_formula_units_Z 56
_cell_length_a 8.066092
_cell_length_b 13.706191
_cell_length_c 21.575098
_cell_angle_alpha 90.000000
_cell_angle_beta 90.000000
_cell_angle_gamma 90.000000
_cell_volume 2385.243537
_symmetry_space_group_name_H-M "P B A M"
_symmetry_group_IT_number 55
_symmetry_cell_setting 'orthorhombic'
loop_
_space_group_symop_operation_xyz
x,y,z
-x,-y,z
1/2+x,1/2-y,-z
1/2-x,1/2+y,-z
-x,-y,-z
x,y,-z
1/2-x,1/2+y,z
1/2+x,1/2-y,z
loop_
_atom_site_type_symbol
_atom_site_label
_atom_site_fract_x
_atom_site_fract_y
_atom_site_fract_z
Si Si1 0.042436 0.614524 0.431822
Si Si2 0.359410 0.630216 0.867812
Si Si3 0.666587 0.436967 0.649374
Si Si4 0.350657 0.874518 0.308978
Si Si5 0.148455 0.769880 0.931144
Si Si6 0.812180 0.532855 0.929125
Si Si7 0.007778 0.792595 0.741229
O O1 0.025402 0.659840 0.500000
O O2 0.230151 0.610670 0.406508
O O3 0.000000 0.500000 0.437318
O O4 0.919820 0.652107 0.377757
O O5 0.190788 0.691038 0.879339
O O6 0.482689 0.668493 0.920993
O O7 0.306807 0.519676 0.879796
O O8 0.451903 0.661154 0.805897
O O9 0.500000 0.500000 0.633055
O O10 0.794047 0.512544 0.683825
O O11 0.608476 0.350082 0.692780
O O12 0.486406 0.824279 0.264251
O O13 0.188267 0.823333 0.281406
O O14 0.291373 0.851698 0.925317
O O15 0.147746 0.726739 0.000000
O O16 0.000000 0.500000 0.919985
O O17 0.763549 0.506006 0.000000
#
# Coordination Sequence:
#
# PCOD9428251 Si02
#       7
#     8   8   8   8   8   8   8
#     4   9  18  36  63  91 119 158 204 247 300 363
#     4  12  24  39  62  89 120 162 211 258 309 381
#     4   9  20  38  62  92 127 166 203 257 320 370
#     4  10  21  39  60  85 125 163 204 260 316 366
#     4  11  23  39  61  88 119 155 198 257 322 375
#     4  10  22  41  63  88 120 156 199 256 318 377
#     4  11  23  39  59  86 121 164 210 255 310 381
#
# _framework density 23.477685999999999
#
# number of rings (size 3 to 8) (size 9 to 14) (size 15 to 20)
#    0.000    1.714    0.000    4.286    0.000    7.143 
#    0.000    8.571    0.000    0.000    0.000    0.000 
#    0.000    0.000    0.000    0.000    0.000    0.000 
#
# Total GULP energy -312712.198684 kJ/mol
# GULP energy per Si atom -5584.146405 kJ/mol
# Density = 2.342425 g / cm^3
# Si number density = 23.477686 Si / 1000 Ang^3
#
#
#
# Elastic Constant Matrix: (Units=GPa)
#
#
# Indices 1 2 3 4 5 6 
#
# 1 70.4145 4.5848 37.3062 0.0000 0.0000 0.0000
# 2 4.5848 71.0923 18.3987 0.0000 0.0000 0.0000
# 3 37.3062 18.3987 126.4147 0.0000 0.0000 0.0000
# 4 0.0000 0.0000 0.0000 12.4037 0.0000 0.0000
# 5 0.0000 0.0000 0.0000 0.0000 25.4883 0.0000
# 6 0.0000 0.0000 0.0000 0.0000 0.0000 38.8063
#
#
#
# Elastic Compliance Matrix: (Units=1/GPa)
#
#
# Indices 1 2 3 4 5 6 
#
# 1 0.016837 0.000208 -0.004999 0.000000 0.000000 0.000000
# 2 0.000208 0.014619 -0.002189 0.000000 0.000000 0.000000
# 3 -0.004999 -0.002189 0.009704 0.000000 0.000000 0.000000
# 4 0.000000 0.000000 0.000000 0.080621 0.000000 0.000000
# 5 0.000000 0.000000 0.000000 0.000000 0.039234 0.000000
# 6 0.000000 0.000000 0.000000 0.000000 0.000000 0.025769
#
#
# Mechanical properties :
#
#
# Convention : Reuss Voigt Hill
#
# Bulk Modulus (GPa) = 36.76466 43.16678 39.96572
# Shear Modulus (GPa) = 23.83098 29.18177 26.50638
#
# Velocity S-wave (km/s) = 3.18944 3.52939 3.36371
# Velocity P-wave (km/s) = 5.40895 5.91903 5.66973
#
# Compressibility (1/GPa) = 0.02720003
#
# Stress axis : x y z
#
# Youngs Moduli (GPa) = 59.39466 68.40253 103.04717
#
# Poissons Ratio (x) = -0.01422 0.51512
# Poissons Ratio (y) = -0.01235 0.22558
# Poissons Ratio (z) = 0.29691 0.14974
#
# Static dielectric constant tensor:
#      x y z
#    x 1.961760 0.000000 0.000000 
#    y 0.000000 1.907840 0.000000 
#    z 0.000000 0.000000 1.891290 
# 
# From -- ./inp_files/22617.got.cif
#   From: 2010.05.17/outbox.cif.g08.bks.cpg/sg55_12_cif.got.tgz:22617.got - 2010.06.03 13:27:54.
