data_PCOD9428523
_publ_section_title
;
Structure prediction by ZEFSAII (Michael W. Deem and Ramdas Pophale) SiO2 
 PCOD9428523
Probable space group: P B A M
;
_chemical_formula_sum "Si O2"
_cell_formula_units_Z 48
_cell_length_a 5.169297
_cell_length_b 16.136339
_cell_length_c 26.563662
_cell_angle_alpha 90.000000
_cell_angle_beta 90.000000
_cell_angle_gamma 90.000000
_cell_volume 2215.768785
_symmetry_space_group_name_H-M "P B A M"
_symmetry_group_IT_number 55
_symmetry_cell_setting 'orthorhombic'
loop_
_space_group_symop_operation_xyz
x,y,z
-x,-y,z
1/2+x,1/2-y,-z
1/2-x,1/2+y,-z
-x,-y,-z
x,y,-z
1/2-x,1/2+y,z
1/2+x,1/2-y,z
loop_
_atom_site_type_symbol
_atom_site_label
_atom_site_fract_x
_atom_site_fract_y
_atom_site_fract_z
Si Si1 0.217464 0.692462 0.000000
Si Si2 0.159369 0.925841 0.260360
Si Si3 0.931554 0.691592 0.664547
Si Si4 0.351019 0.806311 0.445616
Si Si5 0.949053 0.197467 0.183936
Si Si6 0.000000 0.500000 0.827217
Si Si7 0.144368 0.087367 0.902373
O O1 0.259816 0.634461 0.048506
O O2 0.439373 0.763205 0.000000
O O3 0.363295 0.879287 0.295467
O O4 0.985332 0.856633 0.233381
O O5 0.289822 0.964611 0.210788
O O6 0.000000 0.000000 0.285740
O O7 0.707082 0.762475 0.669108
O O8 0.901745 0.652919 0.608341
O O9 0.386325 0.849632 0.500000
O O10 0.563137 0.731991 0.445125
O O11 0.658999 0.230356 0.186105
O O12 0.973593 0.148312 0.131658
O O13 0.876097 0.433827 0.864405
O O14 0.000000 0.000000 0.913261
#
# Coordination Sequence:
#
# PCOD9428523 Si02
#       7
#     4   8   8   8   8   4   8
#     4  12  31  53  76 110 138 168 212 270 327 374
#     4  12  25  41  61  93 130 177 219 264 317 395
#     4  10  22  38  59  92 127 166 216 273 328 376
#     4   8  14  28  52  82 117 157 207 266 324 380
#     4  12  24  41  66  95 128 166 209 265 317 368
#     4  12  24  45  72  94 133 174 230 248 320 382
#     4  12  26  48  74 103 134 175 215 260 319 395
#
# _framework density 21.662911000000001
#
# number of rings (size 3 to 8) (size 9 to 14) (size 15 to 20)
#    0.000    1.000    3.333    3.250    4.667    0.333 
#    0.000    0.000    0.000    0.500    0.000    0.583 
#    0.000    0.000    0.000    0.000    0.000    0.000 
#
# Total GULP energy -268246.753169 kJ/mol
# GULP energy per Si atom -5588.474024 kJ/mol
# Density = 2.161361 g / cm^3
# Si number density = 21.662911 Si / 1000 Ang^3
#
#
#
# Elastic Constant Matrix: (Units=GPa)
#
#
# Indices 1 2 3 4 5 6 
#
# 1 66.6845 4.7767 -1.0585 0.0000 0.0000 0.0000
# 2 4.7767 56.5341 23.7719 0.0000 0.0000 0.0000
# 3 -1.0585 23.7719 132.9859 0.0000 0.0000 0.0000
# 4 0.0000 0.0000 0.0000 -8.4928 0.0000 0.0000
# 5 0.0000 0.0000 0.0000 0.0000 -227.5310 0.0000
# 6 0.0000 0.0000 0.0000 0.0000 0.0000 9.6007
#
#
#
# Elastic Compliance Matrix: (Units=1/GPa)
#
#
# Indices 1 2 3 4 5 6 
#
# 1 0.015105 -0.001435 0.000377 0.000000 0.000000 0.000000
# 2 -0.001435 0.019262 -0.003455 0.000000 0.000000 0.000000
# 3 0.000377 -0.003455 0.008140 0.000000 0.000000 0.000000
# 4 0.000000 0.000000 0.000000 -0.117747 0.000000 0.000000
# 5 0.000000 0.000000 0.000000 0.000000 -0.004395 0.000000
# 6 0.000000 0.000000 0.000000 0.000000 0.000000 0.104159
#
#
# Mechanical properties :
#
#
# Convention : Reuss Voigt Hill
#
# Bulk Modulus (GPa) = 29.86685 34.57608 32.22146
# Shear Modulus (GPa) = 111.83297 -30.03697 40.89800
#
# Velocity S-wave (km/s) = 7.19279 -3.72770 4.34974
# Velocity P-wave (km/s) = 9.09938 1.59123 6.33509
#
# Compressibility (1/GPa) = 0.03348193
#
# Stress axis : x y z
#
# Youngs Moduli (GPa) = 66.20445 51.91492 122.84817
#
# Poissons Ratio (x) = 0.07448 -0.04627
# Poissons Ratio (y) = 0.09498 0.42440
# Poissons Ratio (z) = -0.02494 0.17935
#
# Static dielectric constant tensor:
#      x y z
#    x 1.845920 0.000000 0.000000 
#    y 0.000000 1.922180 0.000000 
#    z 0.000000 0.000000 1.812800 
# 
# From -- ./inp_files/23822.got.cif
#   From: 2010.05.17/outbox.cif.g08.bks.cpg/sg55_12_cif.got.tgz:23822.got - 2010.06.03 13:27:54.
