data_PCOD9428754
_publ_section_title
;
Structure prediction by ZEFSAII (Michael W. Deem and Ramdas Pophale) SiO2 
 PCOD9428754
Probable space group: P B A M
;
_chemical_formula_sum "Si O2"
_cell_formula_units_Z 32
_cell_length_a 10.146308
_cell_length_b 9.795006
_cell_length_c 11.326810
_cell_angle_alpha 90.000000
_cell_angle_beta 90.000000
_cell_angle_gamma 90.000000
_cell_volume 1125.694032
_symmetry_space_group_name_H-M "P B A M"
_symmetry_group_IT_number 55
_symmetry_cell_setting 'orthorhombic'
loop_
_space_group_symop_operation_xyz
x,y,z
-x,-y,z
1/2+x,1/2-y,-z
1/2-x,1/2+y,-z
-x,-y,-z
x,y,-z
1/2-x,1/2+y,z
1/2+x,1/2-y,z
loop_
_atom_site_type_symbol
_atom_site_label
_atom_site_fract_x
_atom_site_fract_y
_atom_site_fract_z
Si Si1 0.701640 0.047120 0.627057
Si Si2 0.201640 0.547118 0.872943
Si Si3 0.079938 0.170449 0.370714
Si Si4 0.079938 0.829550 0.129286
O O1 0.644497 0.003409 0.500000
O O2 0.639391 0.000001 0.750000
O O3 0.690979 0.210089 0.629398
O O4 0.843658 0.973481 0.628694
O O5 0.343657 0.473479 0.871306
O O6 0.190978 0.710087 0.870602
O O7 0.144497 0.503407 0.000000
O O8 0.012748 0.186299 0.500000
O O9 0.000001 0.188186 0.250000
O O10 0.012748 0.813701 0.000000
#
# Coordination Sequence:
#
# PCOD9428754 Si02
#       4
#     8   8   8   8
#     4  10  22  42  68  98 136 180 226 280 342 410
#     4  10  22  42  68  98 136 180 226 280 342 410
#     4  10  23  44  69  98 135 180 228 280 342 410
#     4  10  23  44  69  98 135 180 228 280 342 410
#
# _framework density 28.426908000000001
#
# number of rings (size 3 to 8) (size 9 to 14) (size 15 to 20)
#    0.000    2.000    0.000    1.500    0.000    6.000 
#    0.000   12.500    0.000    0.000    0.000    0.000 
#    0.000    0.000    0.000    0.000    0.000    0.000 
#
# Total GULP energy -178927.182320 kJ/mol
# GULP energy per Si atom -5591.474447 kJ/mol
# Density = 2.836221 g / cm^3
# Si number density = 28.426908 Si / 1000 Ang^3
#
#
#
# Elastic Constant Matrix: (Units=GPa)
#
#
# Indices 1 2 3 4 5 6 
#
# 1 105.3183 32.9150 80.1151 0.0000 0.0000 0.0000
# 2 32.9150 152.2004 65.5762 0.0000 0.0000 0.0000
# 3 80.1151 65.5762 416.0849 0.0000 0.0000 0.0000
# 4 0.0000 0.0000 0.0000 42.8208 0.0000 0.0000
# 5 0.0000 0.0000 0.0000 0.0000 -44.0462 0.0000
# 6 0.0000 0.0000 0.0000 0.0000 0.0000 46.5427
#
#
#
# Elastic Compliance Matrix: (Units=1/GPa)
#
#
# Indices 1 2 3 4 5 6 
#
# 1 0.011495 -0.001644 -0.001954 0.000000 0.000000 0.000000
# 2 -0.001644 0.007284 -0.000831 0.000000 0.000000 0.000000
# 3 -0.001954 -0.000831 0.002911 0.000000 0.000000 0.000000
# 4 0.000000 0.000000 0.000000 0.023353 0.000000 0.000000
# 5 0.000000 0.000000 0.000000 0.000000 -0.022703 0.000000
# 6 0.000000 0.000000 0.000000 0.000000 0.000000 0.021486
#
#
# Mechanical properties :
#
#
# Convention : Reuss Voigt Hill
#
# Bulk Modulus (GPa) = 77.93803 114.53512 96.23658
# Shear Modulus (GPa) = 87.77793 42.06327 64.92060
#
# Velocity S-wave (km/s) = 5.56287 3.85086 4.78407
# Velocity P-wave (km/s) = 8.29079 7.75569 8.02770
#
# Compressibility (1/GPa) = 0.01283071
#
# Stress axis : x y z
#
# Youngs Moduli (GPa) = 86.99095 137.28625 343.56202
#
# Poissons Ratio (x) = 0.22570 0.67142
# Poissons Ratio (y) = 0.14301 0.28565
# Poissons Ratio (z) = 0.17001 0.11415
#
# Static dielectric constant tensor:
#      x y z
#    x 2.211410 0.000000 0.000000 
#    y 0.000000 2.153790 0.000000 
#    z 0.000000 0.000000 2.213570 
# 
# From -- ./inp_files/11715.got.cif
#   From: 2010.05.17/outbox.cif.g08.bks.cpg/sg55_6_cif.got.tgz:11715.got - 2010.06.03 13:27:54.
