data_PCOD9428942
_publ_section_title
;
Structure prediction by ZEFSAII (Michael W. Deem and Ramdas Pophale) SiO2 
 PCOD9428942
Probable space group: P B A M
;
_chemical_formula_sum "Si O2"
_cell_formula_units_Z 32
_cell_length_a 7.431562
_cell_length_b 14.319587
_cell_length_c 11.200703
_cell_angle_alpha 90.000000
_cell_angle_beta 90.000000
_cell_angle_gamma 90.000000
_cell_volume 1191.944075
_symmetry_space_group_name_H-M "P B A M"
_symmetry_group_IT_number 55
_symmetry_cell_setting 'orthorhombic'
loop_
_space_group_symop_operation_xyz
x,y,z
-x,-y,z
1/2+x,1/2-y,-z
1/2-x,1/2+y,-z
-x,-y,-z
x,y,-z
1/2-x,1/2+y,z
1/2+x,1/2-y,z
loop_
_atom_site_type_symbol
_atom_site_label
_atom_site_fract_x
_atom_site_fract_y
_atom_site_fract_z
Si Si1 0.369268 0.398774 0.000000
Si Si2 0.303236 0.952965 0.764656
Si Si3 0.239656 0.698431 0.000000
Si Si4 0.457611 0.213599 0.746149
Si Si5 0.364067 0.619008 0.366252
O O1 0.311299 0.456149 0.115054
O O2 0.570977 0.356253 0.000000
O O3 0.234668 0.309994 0.000000
O O4 0.361111 0.847619 0.734804
O O5 0.500000 0.000000 0.781465
O O6 0.193346 0.014526 0.670362
O O7 0.131899 0.687656 0.125136
O O8 0.324117 0.175078 0.646065
O O9 0.512156 0.321136 0.724502
O O10 0.434314 0.623724 0.500000
#
# Coordination Sequence:
#
# PCOD9428942 Si02
#       5
#     4   8   4   8   8
#     4  12  23  44  77 112 155 198 245 317 383 455
#     4  10  24  45  74 112 153 195 248 310 382 457
#     4  12  26  46  79 114 146 194 257 311 389 469
#     4  11  24  47  75 108 153 197 248 321 383 447
#     4  11  25  47  76 108 146 200 256 305 370 449
#
# _framework density 26.846896000000001
#
# number of rings (size 3 to 8) (size 9 to 14) (size 15 to 20)
#    0.000    1.000    0.000    6.375    0.000   11.500 
#    0.000   33.750    0.000   18.000    0.000    0.000 
#    0.000    0.000    0.000    0.000    0.000    0.000 
#
# Total GULP energy -179346.001184 kJ/mol
# GULP energy per Si atom -5604.562537 kJ/mol
# Density = 2.678579 g / cm^3
# Si number density = 26.846896 Si / 1000 Ang^3
#
#
#
# Elastic Constant Matrix: (Units=GPa)
#
#
# Indices 1 2 3 4 5 6 
#
# 1 192.9411 20.2730 63.9532 0.0000 0.0000 0.0000
# 2 20.2730 77.5680 49.1599 0.0000 0.0000 0.0000
# 3 63.9532 49.1599 148.0911 0.0000 0.0000 0.0000
# 4 0.0000 0.0000 0.0000 35.4491 0.0000 0.0000
# 5 0.0000 0.0000 0.0000 0.0000 37.1153 0.0000
# 6 0.0000 0.0000 0.0000 0.0000 0.0000 40.9364
#
#
#
# Elastic Compliance Matrix: (Units=1/GPa)
#
#
# Indices 1 2 3 4 5 6 
#
# 1 0.006049 0.000094 -0.002644 0.000000 0.000000 0.000000
# 2 0.000094 0.016328 -0.005461 0.000000 0.000000 0.000000
# 3 -0.002644 -0.005461 0.009707 0.000000 0.000000 0.000000
# 4 0.000000 0.000000 0.000000 0.028209 0.000000 0.000000
# 5 0.000000 0.000000 0.000000 0.000000 0.026943 0.000000
# 6 0.000000 0.000000 0.000000 0.000000 0.000000 0.024428
#
#
# Mechanical properties :
#
#
# Convention : Reuss Voigt Hill
#
# Bulk Modulus (GPa) = 62.25096 76.15249 69.20173
# Shear Modulus (GPa) = 37.58245 41.71443 39.64844
#
# Velocity S-wave (km/s) = 3.74556 3.94609 3.84713
# Velocity P-wave (km/s) = 6.47637 7.01350 6.75028
#
# Compressibility (1/GPa) = 0.01606401
#
# Stress axis : x y z
#
# Youngs Moduli (GPa) = 165.30795 61.24349 103.01681
#
# Poissons Ratio (x) = -0.00579 0.27235
# Poissons Ratio (y) = -0.01562 0.56258
# Poissons Ratio (z) = 0.43704 0.33446
#
# Static dielectric constant tensor:
#      x y z
#    x 2.148650 0.000000 0.000000 
#    y 0.000000 2.156440 0.000000 
#    z 0.000000 0.000000 2.048190 
# 
# From -- ./inp_files/11633.got.cif
#   From: 2010.05.17/outbox.cif.g08.bks.cpg/sg55_6_cif.got.tgz:11633.got - 2010.06.03 13:27:54.
