data_PCOD9428032
_publ_section_title
;
Structure prediction by ZEFSAII (Michael W. Deem and Ramdas Pophale) SiO2 
 PCOD9428032
Probable space group: P B A M
;
_chemical_formula_sum "Si O2"
_cell_formula_units_Z 32
_cell_length_a 16.551061
_cell_length_b 7.819743
_cell_length_c 10.591832
_cell_angle_alpha 90.000000
_cell_angle_beta 90.000000
_cell_angle_gamma 90.000000
_cell_volume 1370.848316
_symmetry_space_group_name_H-M "P B A M"
_symmetry_group_IT_number 55
_symmetry_cell_setting 'orthorhombic'
loop_
_space_group_symop_operation_xyz
x,y,z
-x,-y,z
1/2+x,1/2-y,-z
1/2-x,1/2+y,-z
-x,-y,-z
x,y,-z
1/2-x,1/2+y,z
1/2+x,1/2-y,z
loop_
_atom_site_type_symbol
_atom_site_label
_atom_site_fract_x
_atom_site_fract_y
_atom_site_fract_z
Si Si1 0.286810 0.493179 0.500000
Si Si2 0.871732 0.905968 0.751579
Si Si3 0.879311 0.402065 0.000000
Si Si4 0.121575 0.628794 0.500000
Si Si5 0.290459 0.733148 0.000000
Si Si6 0.539256 0.773904 0.752495
O O1 0.317853 0.587371 0.373927
O O2 0.190325 0.486158 0.500000
O O3 0.327839 0.307261 0.500000
O O4 0.944921 0.770860 0.745378
O O5 0.914461 0.091019 0.760270
O O6 0.819254 0.863546 0.873951
O O7 0.806227 0.264472 0.000000
O O8 0.932791 0.373227 0.876419
O O9 0.834063 0.583548 0.000000
O O10 0.069190 0.634351 0.373937
#
# Coordination Sequence:
#
# PCOD9428032 Si02
#       6
#     4   8   4   4   4   8
#     4  10  21  37  59  87 117 152 193 236 284 340
#     4  10  21  39  62  87 117 153 192 236 288 344
#     4  12  25  40  59  85 117 153 195 240 287 342
#     4  10  21  37  59  87 117 152 193 236 284 340
#     4  12  25  40  59  85 117 153 195 240 287 342
#     4  10  21  39  62  87 117 153 192 236 288 344
#
# _framework density 23.343209000000002
#
# number of rings (size 3 to 8) (size 9 to 14) (size 15 to 20)
#    0.000    1.500    0.000    5.250    0.000   13.000 
#    0.000    0.000    0.000    4.500    0.000    0.000 
#    0.000    0.000    0.000    0.000    0.000    0.000 
#
# Total GULP energy -179425.630417 kJ/mol
# GULP energy per Si atom -5607.050951 kJ/mol
# Density = 2.329008 g / cm^3
# Si number density = 23.343209 Si / 1000 Ang^3
#
#
#
# Elastic Constant Matrix: (Units=GPa)
#
#
# Indices 1 2 3 4 5 6 
#
# 1 100.2390 19.3895 40.6400 0.0000 0.0000 0.0000
# 2 19.3895 93.6196 35.4199 0.0000 0.0000 0.0000
# 3 40.6400 35.4199 187.9960 0.0000 0.0000 0.0000
# 4 0.0000 0.0000 0.0000 -28.9649 0.0000 0.0000
# 5 0.0000 0.0000 0.0000 0.0000 21.9350 0.0000
# 6 0.0000 0.0000 0.0000 0.0000 0.0000 48.3820
#
#
#
# Elastic Compliance Matrix: (Units=1/GPa)
#
#
# Indices 1 2 3 4 5 6 
#
# 1 0.011127 -0.001502 -0.002123 0.000000 0.000000 0.000000
# 2 -0.001502 0.011704 -0.001881 0.000000 0.000000 0.000000
# 3 -0.002123 -0.001881 0.006132 0.000000 0.000000 0.000000
# 4 0.000000 0.000000 0.000000 -0.034525 0.000000 0.000000
# 5 0.000000 0.000000 0.000000 0.000000 0.045589 0.000000
# 6 0.000000 0.000000 0.000000 0.000000 0.000000 0.020669
#
#
# Mechanical properties :
#
#
# Convention : Reuss Voigt Hill
#
# Bulk Modulus (GPa) = 55.69661 63.63925 59.66793
# Shear Modulus (GPa) = 64.35759 27.36411 45.86085
#
# Velocity S-wave (km/s) = 5.25643 3.42753 4.43723
# Velocity P-wave (km/s) = 7.79434 6.55634 7.20199
#
# Compressibility (1/GPa) = 0.01795441
#
# Stress axis : x y z
#
# Youngs Moduli (GPa) = 89.87041 85.44106 163.06826
#
# Poissons Ratio (x) = 0.12829 0.34611
# Poissons Ratio (y) = 0.13494 0.30665
# Poissons Ratio (z) = 0.19075 0.16067
#
# Static dielectric constant tensor:
#      x y z
#    x 1.812570 0.000000 0.000000 
#    y 0.000000 1.925010 0.000000 
#    z 0.000000 0.000000 1.791430 
# 
# From -- ./inp_files/11699.got.cif
#   From: 2010.05.17/outbox.cif.g08.bks.cpg/sg55_6_cif.got.tgz:11699.got - 2010.06.03 13:27:54.
