data_PCOD9428896
_publ_section_title
;
Structure prediction by ZEFSAII (Michael W. Deem and Ramdas Pophale) SiO2 
 PCOD9428896
Probable space group: P B A M
;
_chemical_formula_sum "Si O2"
_cell_formula_units_Z 56
_cell_length_a 8.658311
_cell_length_b 13.627720
_cell_length_c 21.756147
_cell_angle_alpha 90.000000
_cell_angle_beta 90.000000
_cell_angle_gamma 90.000000
_cell_volume 2567.073879
_symmetry_space_group_name_H-M "P B A M"
_symmetry_group_IT_number 55
_symmetry_cell_setting 'orthorhombic'
loop_
_space_group_symop_operation_xyz
x,y,z
-x,-y,z
1/2+x,1/2-y,-z
1/2-x,1/2+y,-z
-x,-y,-z
x,y,-z
1/2-x,1/2+y,z
1/2+x,1/2-y,z
loop_
_atom_site_type_symbol
_atom_site_label
_atom_site_fract_x
_atom_site_fract_y
_atom_site_fract_z
Si Si1 0.095531 0.834682 0.163734
Si Si2 0.742405 0.969742 0.429405
Si Si3 0.404469 0.165318 0.663734
Si Si4 0.941910 0.342439 0.929966
Si Si5 0.742405 0.530258 0.070595
Si Si6 0.354208 0.750000 0.750000
Si Si7 0.558089 0.657561 0.570034
O O1 0.064130 0.745719 0.116855
O O2 0.128309 0.928188 0.121606
O O3 0.247799 0.807786 0.202305
O O4 0.959022 0.828122 0.213266
O O5 0.685000 0.965055 0.500000
O O6 0.628309 0.928189 0.378394
O O7 0.895852 0.900549 0.426927
O O8 0.806175 0.078918 0.417512
O O9 0.540978 0.171877 0.713266
O O10 0.252201 0.192215 0.702305
O O11 0.435871 0.254280 0.616855
O O12 0.806175 0.421082 0.917512
O O13 0.104148 0.400548 0.926927
O O14 0.922765 0.306909 0.000000
O O15 0.685000 0.534946 0.000000
O O16 0.577235 0.693091 0.500000
#
# Coordination Sequence:
#
# PCOD9428896 Si02
#       7
#     8   8   8   8   8   8   8
#     4  11  19  40  54  80 111 153 180 232 270 317
#     4   9  18  34  59  87 111 140 180 227 283 336
#     4  11  19  40  54  80 111 153 180 232 270 317
#     4   9  18  34  59  87 111 140 180 227 283 336
#     4   9  18  34  59  87 111 140 180 227 283 336
#     4  10  24  34  56  78 112 148 200 220 258 326
#     4   9  18  34  59  87 111 140 180 227 283 336
#
# _framework density 21.814723000000001
#
# number of rings (size 3 to 8) (size 9 to 14) (size 15 to 20)
#    0.000    2.286    2.857    2.571    0.000    0.000 
#    0.000   10.000    0.000    3.429    0.000    0.000 
#    0.000    0.000    0.000    0.000    0.000    0.000 
#
# Total GULP energy -313199.523061 kJ/mol
# GULP energy per Si atom -5592.848626 kJ/mol
# Density = 2.176507 g / cm^3
# Si number density = 21.814723 Si / 1000 Ang^3
#
#
#
# Elastic Constant Matrix: (Units=GPa)
#
#
# Indices 1 2 3 4 5 6 
#
# 1 82.9158 23.9281 36.6826 0.0000 0.0000 0.0000
# 2 23.9281 26.1407 25.6492 0.0000 0.0000 0.0000
# 3 36.6826 25.6492 82.7775 0.0000 0.0000 0.0000
# 4 0.0000 0.0000 0.0000 25.4141 0.0000 0.0000
# 5 0.0000 0.0000 0.0000 0.0000 15.6894 0.0000
# 6 0.0000 0.0000 0.0000 0.0000 0.0000 14.7914
#
#
#
# Elastic Compliance Matrix: (Units=1/GPa)
#
#
# Indices 1 2 3 4 5 6 
#
# 1 0.017245 -0.011907 -0.003953 0.000000 0.000000 0.000000
# 2 -0.011907 0.063187 -0.014302 0.000000 0.000000 0.000000
# 3 -0.003953 -0.014302 0.018264 0.000000 0.000000 0.000000
# 4 0.000000 0.000000 0.000000 0.039348 0.000000 0.000000
# 5 0.000000 0.000000 0.000000 0.000000 0.063737 0.000000
# 6 0.000000 0.000000 0.000000 0.000000 0.000000 0.067607
#
#
# Mechanical properties :
#
#
# Convention : Reuss Voigt Hill
#
# Bulk Modulus (GPa) = 26.06072 40.48377 33.27225
# Shear Modulus (GPa) = 14.59836 18.21726 16.40781
#
# Velocity S-wave (km/s) = 2.58969 2.89293 2.74550
# Velocity P-wave (km/s) = 4.57322 5.45500 5.03345
#
# Compressibility (1/GPa) = 0.03837192
#
# Stress axis : x y z
#
# Youngs Moduli (GPa) = 57.98669 15.82595 54.75284
#
# Poissons Ratio (x) = 0.18844 0.21642
# Poissons Ratio (y) = 0.69046 0.78310
# Poissons Ratio (z) = 0.22920 0.22635
#
# Static dielectric constant tensor:
#      x y z
#    x 1.831790 0.000000 0.000000 
#    y 0.000000 1.772240 0.000000 
#    z 0.000000 0.000000 1.770250 
# 
# From -- ./inp_files/22643.got.cif
#   From: 2010.05.17/outbox.cif.g08.bks.cpg/sg55_12_cif.got.tgz:22643.got - 2010.06.03 13:27:54.
