data_PCOD9428145
_publ_section_title
;
Structure prediction by ZEFSAII (Michael W. Deem and Ramdas Pophale) SiO2 
 PCOD9428145
Probable space group: P B A M
;
_chemical_formula_sum "Si O2"
_cell_formula_units_Z 56
_cell_length_a 9.287953
_cell_length_b 20.373448
_cell_length_c 14.036664
_cell_angle_alpha 90.000000
_cell_angle_beta 90.000000
_cell_angle_gamma 90.000000
_cell_volume 2656.124626
_symmetry_space_group_name_H-M "P B A M"
_symmetry_group_IT_number 55
_symmetry_cell_setting 'orthorhombic'
loop_
_space_group_symop_operation_xyz
x,y,z
-x,-y,z
1/2+x,1/2-y,-z
1/2-x,1/2+y,-z
-x,-y,-z
x,y,-z
1/2-x,1/2+y,z
1/2+x,1/2-y,z
loop_
_atom_site_type_symbol
_atom_site_label
_atom_site_fract_x
_atom_site_fract_y
_atom_site_fract_z
Si Si1 0.661361 0.521706 0.706599
Si Si2 0.773824 0.827348 0.887929
Si Si3 0.017807 0.714591 0.614573
Si Si4 0.674954 0.902568 0.709726
Si Si5 0.557625 0.205485 0.107338
Si Si6 0.087186 0.442494 0.168183
Si Si7 0.701549 0.663631 0.385199
O O1 0.500000 0.500000 0.724854
O O2 0.738719 0.459444 0.656357
O O3 0.758282 0.532146 0.800541
O O4 0.674089 0.590745 0.652759
O O5 0.759167 0.883404 0.807507
O O6 0.879415 0.771222 0.847689
O O7 0.614189 0.795837 0.887503
O O8 0.801948 0.847726 0.000000
O O9 0.016542 0.713434 0.500000
O O10 0.134731 0.662201 0.651922
O O11 0.075907 0.785868 0.644677
O O12 0.857899 0.692346 0.646464
O O13 0.520581 0.931067 0.742517
O O14 0.602627 0.131217 0.130474
O O15 0.607690 0.215302 0.000000
O O16 0.000000 0.500000 0.112469
O O17 0.704083 0.661774 0.500000
#
# Coordination Sequence:
#
# PCOD9428145 Si02
#       7
#     8   8   8   8   8   8   8
#     4  11  24  39  57  88 121 154 205 248 300 358
#     4   9  19  34  55  86 118 151 200 250 298 355
#     4  10  22  39  62  92 121 156 202 245 296 357
#     4  10  21  38  61  84 118 165 197 244 300 359
#     4   9  18  33  55  84 114 150 195 245 297 355
#     4   9  19  37  54  77 115 152 196 240 293 361
#     4  10  23  42  62  89 124 157 198 249 297 358
#
# _framework density 21.083348000000001
#
# number of rings (size 3 to 8) (size 9 to 14) (size 15 to 20)
#    0.000    2.286    1.429    0.000    4.000    2.286 
#    0.000    3.571    0.000    0.857    0.000    0.000 
#    0.000    0.000    0.000    0.000    0.000    0.000 
#
# Total GULP energy -311997.942437 kJ/mol
# GULP energy per Si atom -5571.391829 kJ/mol
# Density = 2.103536 g / cm^3
# Si number density = 21.083348 Si / 1000 Ang^3
#
#
#
# Elastic Constant Matrix: (Units=GPa)
#
#
# Indices 1 2 3 4 5 6 
#
# 1 93.8062 56.7448 22.9788 0.0000 0.0000 0.0000
# 2 56.7448 153.2784 37.0536 0.0000 0.0000 0.0000
# 3 22.9788 37.0536 42.5699 0.0000 0.0000 0.0000
# 4 0.0000 0.0000 0.0000 10.7695 0.0000 0.0000
# 5 0.0000 0.0000 0.0000 0.0000 20.9870 0.0000
# 6 0.0000 0.0000 0.0000 0.0000 0.0000 44.2374
#
#
#
# Elastic Compliance Matrix: (Units=1/GPa)
#
#
# Indices 1 2 3 4 5 6 
#
# 1 0.014235 -0.004322 -0.003922 0.000000 0.000000 0.000000
# 2 -0.004322 0.009575 -0.006001 0.000000 0.000000 0.000000
# 3 -0.003922 -0.006001 0.030832 0.000000 0.000000 0.000000
# 4 0.000000 0.000000 0.000000 0.092855 0.000000 0.000000
# 5 0.000000 0.000000 0.000000 0.000000 0.047648 0.000000
# 6 0.000000 0.000000 0.000000 0.000000 0.000000 0.022605
#
#
# Mechanical properties :
#
#
# Convention : Reuss Voigt Hill
#
# Bulk Modulus (GPa) = 38.23935 58.13433 48.18684
# Shear Modulus (GPa) = 19.61107 26.72394 23.16750
#
# Velocity S-wave (km/s) = 3.05318 3.56411 3.31849
# Velocity P-wave (km/s) = 5.53225 6.67612 6.13092
#
# Compressibility (1/GPa) = 0.02615107
#
# Stress axis : x y z
#
# Youngs Moduli (GPa) = 70.24710 104.44092 32.43430
#
# Poissons Ratio (x) = 0.45138 0.12722
# Poissons Ratio (y) = 0.30360 0.19464
# Poissons Ratio (z) = 0.27553 0.62677
#
# Static dielectric constant tensor:
#      x y z
#    x 1.760750 0.000000 0.000000 
#    y 0.000000 1.837000 0.000000 
#    z 0.000000 0.000000 1.805070 
# 
# From -- ./inp_files/17645.got.cif
#   From: 2010.05.17/outbox.cif.g08.bks.cpg/sg55_9_cif.got.tgz:17645.got - 2010.06.03 13:27:54.
