data_PCOD9428934
_publ_section_title
;
Structure prediction by ZEFSAII (Michael W. Deem and Ramdas Pophale) SiO2 
 PCOD9428934
Probable space group: P B A M
;
_chemical_formula_sum "Si O2"
_cell_formula_units_Z 38
_cell_length_a 11.138761
_cell_length_b 9.212848
_cell_length_c 17.324393
_cell_angle_alpha 90.000000
_cell_angle_beta 90.000000
_cell_angle_gamma 90.000000
_cell_volume 1777.824220
_symmetry_space_group_name_H-M "P B A M"
_symmetry_group_IT_number 55
_symmetry_cell_setting 'orthorhombic'
loop_
_space_group_symop_operation_xyz
x,y,z
-x,-y,z
1/2+x,1/2-y,-z
1/2-x,1/2+y,-z
-x,-y,-z
x,y,-z
1/2-x,1/2+y,z
1/2+x,1/2-y,z
loop_
_atom_site_type_symbol
_atom_site_label
_atom_site_fract_x
_atom_site_fract_y
_atom_site_fract_z
Si Si1 0.652170 0.143800 0.362193
Si Si2 0.136090 0.050603 0.687291
Si Si3 0.500000 0.000000 0.229453
Si Si4 0.500000 0.000000 0.500000
Si Si5 0.216530 0.670087 0.164876
Si Si6 0.364973 0.453737 0.912421
O O1 0.642819 0.316257 0.373160
O O2 0.785008 0.083720 0.343721
O O3 0.575130 0.103478 0.286102
O O4 0.592563 0.059403 0.432476
O O5 0.202586 0.123384 0.761409
O O6 0.000000 0.000000 0.701568
O O7 0.588818 0.904319 0.179113
O O8 0.191374 0.837165 0.146477
O O9 0.284080 0.596318 0.093926
O O10 0.500000 0.500000 0.891763
O O11 0.366635 0.396554 0.000000
#
# Coordination Sequence:
#
# PCOD9428934 Si02
#       6
#     8   8   4   2   8   8
#     4  10  24  44  69 102 140 181 224 285 338 419
#     4  11  25  43  73 106 137 177 242 290 345 403
#     4   9  22  39  67  98 127 172 228 280 339 396
#     4  10  24  48  72  92 156 182 230 266 356 412
#     4  11  23  42  69  97 133 178 228 289 349 400
#     4  11  26  44  64  96 137 180 229 282 350 428
#
# _framework density 21.374441000000001
#
# number of rings (size 3 to 8) (size 9 to 14) (size 15 to 20)
#    0.000    1.474    0.000    3.789   17.684    0.842 
#    0.000    2.105    0.000    0.000    0.000    0.000 
#    0.000    0.000    0.000    0.000    0.000    0.000 
#
# Total GULP energy -211871.848414 kJ/mol
# GULP energy per Si atom -5575.574958 kJ/mol
# Density = 2.132579 g / cm^3
# Si number density = 21.374441 Si / 1000 Ang^3
#
#
#
# Elastic Constant Matrix: (Units=GPa)
#
#
# Indices 1 2 3 4 5 6 
#
# 1 151.9880 53.0070 39.3587 0.0000 0.0000 0.0000
# 2 53.0070 98.1809 11.2864 0.0000 0.0000 0.0000
# 3 39.3587 11.2864 77.1407 0.0000 0.0000 0.0000
# 4 0.0000 0.0000 0.0000 -0.2171 0.0000 0.0000
# 5 0.0000 0.0000 0.0000 0.0000 17.2197 0.0000
# 6 0.0000 0.0000 0.0000 0.0000 0.0000 30.9749
#
#
#
# Elastic Compliance Matrix: (Units=1/GPa)
#
#
# Indices 1 2 3 4 5 6 
#
# 1 0.009193 -0.004500 -0.004032 0.000000 0.000000 0.000000
# 2 -0.004500 0.012562 0.000458 0.000000 0.000000 0.000000
# 3 -0.004032 0.000458 0.014954 0.000000 0.000000 0.000000
# 4 0.000000 0.000000 0.000000 -4.606284 0.000000 0.000000
# 5 0.000000 0.000000 0.000000 0.000000 0.058073 0.000000
# 6 0.000000 0.000000 0.000000 0.000000 0.000000 0.032284
#
#
# Mechanical properties :
#
#
# Convention : Reuss Voigt Hill
#
# Bulk Modulus (GPa) = 48.63630 59.40152 54.01891
# Shear Modulus (GPa) = -1.12203 24.50600 11.69199
#
# Velocity S-wave (km/s) = -0.72531 3.38969 2.34136
# Velocity P-wave (km/s) = 4.70132 6.57048 5.71286
#
# Compressibility (1/GPa) = 0.02056078
#
# Stress axis : x y z
#
# Youngs Moduli (GPa) = 108.77973 79.60534 66.87366
#
# Poissons Ratio (x) = 0.35820 0.26964
# Poissons Ratio (y) = 0.48947 -0.03062
# Poissons Ratio (z) = 0.43861 -0.03645
#
# Static dielectric constant tensor:
#      x y z
#    x 1.745650 0.000000 0.000000 
#    y 0.000000 1.871590 0.000000 
#    z 0.000000 0.000000 1.779430 
# 
# From -- ./inp_files/21194.got.cif
#   From: 2010.05.17/outbox.cif.g08.bks.cpg/sg55_11_cif.got.tgz:21194.got - 2010.06.03 13:27:54.
