data_PCOD9428350
_publ_section_title
;
Structure prediction by ZEFSAII (Michael W. Deem and Ramdas Pophale) SiO2 
 PCOD9428350
Probable space group: P B A M
;
_chemical_formula_sum "Si O2"
_cell_formula_units_Z 56
_cell_length_a 14.410345
_cell_length_b 21.445606
_cell_length_c 9.025890
_cell_angle_alpha 90.000000
_cell_angle_beta 90.000000
_cell_angle_gamma 90.000000
_cell_volume 2789.348240
_symmetry_space_group_name_H-M "P B A M"
_symmetry_group_IT_number 55
_symmetry_cell_setting 'orthorhombic'
loop_
_space_group_symop_operation_xyz
x,y,z
-x,-y,z
1/2+x,1/2-y,-z
1/2-x,1/2+y,-z
-x,-y,-z
x,y,-z
1/2-x,1/2+y,z
1/2+x,1/2-y,z
loop_
_atom_site_type_symbol
_atom_site_label
_atom_site_fract_x
_atom_site_fract_y
_atom_site_fract_z
Si Si1 0.547076 0.271379 0.830464
Si Si2 0.495772 0.928444 0.819488
Si Si3 0.470536 0.599855 0.326212
Si Si4 0.346195 0.486103 0.673086
Si Si5 0.627511 0.821443 0.827951
Si Si6 0.712334 0.105593 0.176618
Si Si7 0.768815 0.732737 0.674371
O O1 0.524066 0.340748 0.777778
O O2 0.457262 0.227784 0.824773
O O3 0.626219 0.245933 0.723116
O O4 0.581872 0.270138 0.000000
O O5 0.581996 0.885749 0.771240
O O6 0.395807 0.900046 0.778405
O O7 0.500000 0.000000 0.770894
O O8 0.498463 0.927490 0.000000
O O9 0.461236 0.617931 0.500000
O O10 0.563618 0.558686 0.314378
O O11 0.384110 0.554666 0.287720
O O12 0.318721 0.486445 0.500000
O O13 0.266215 0.455963 0.770919
O O14 0.708596 0.790167 0.735023
O O15 0.656407 0.829039 0.000000
O O16 0.756937 0.166869 0.250017
O O17 0.716605 0.111641 0.000000
O O18 0.758266 0.727051 0.500000
#
# Coordination Sequence:
#
# PCOD9428350 Si02
#       7
#     8   8   8   8   8   8   8
#     4  11  22  38  60  87 118 154 197 251 303 355
#     4   9  19  38  63  88 118 155 195 245 306 363
#     4   9  19  36  56  82 120 160 197 242 297 359
#     4   9  19  36  57  83 118 159 198 240 296 358
#     4  10  21  40  63  89 122 157 200 255 307 362
#     4  11  21  37  60  89 119 154 204 251 303 368
#     4  12  25  39  60  88 119 159 203 249 309 371
#
# _framework density 20.076374999999999
#
# number of rings (size 3 to 8) (size 9 to 14) (size 15 to 20)
#    0.000    1.857    1.429    3.857    0.000    5.714 
#    0.000    2.857    0.000    3.000    0.000    0.000 
#    0.000    0.000    0.000    0.000    0.000    0.000 
#
# Total GULP energy -312875.965488 kJ/mol
# GULP energy per Si atom -5587.070812 kJ/mol
# Density = 2.003068 g / cm^3
# Si number density = 20.076375 Si / 1000 Ang^3
#
#
#
# Elastic Constant Matrix: (Units=GPa)
#
#
# Indices 1 2 3 4 5 6 
#
# 1 25.2729 -12.7480 8.3864 0.0000 0.0000 0.0000
# 2 -12.7480 89.1891 17.5800 0.0000 0.0000 0.0000
# 3 8.3864 17.5800 57.2447 0.0000 0.0000 0.0000
# 4 0.0000 0.0000 0.0000 18.8133 0.0000 0.0000
# 5 0.0000 0.0000 0.0000 0.0000 16.2214 0.0000
# 6 0.0000 0.0000 0.0000 0.0000 0.0000 30.7524
#
#
#
# Elastic Compliance Matrix: (Units=1/GPa)
#
#
# Indices 1 2 3 4 5 6 
#
# 1 0.047077 0.008609 -0.009541 0.000000 0.000000 0.000000
# 2 0.008609 0.013509 -0.005410 0.000000 0.000000 0.000000
# 3 -0.009541 -0.005410 0.020528 0.000000 0.000000 0.000000
# 4 0.000000 0.000000 0.000000 0.053154 0.000000 0.000000
# 5 0.000000 0.000000 0.000000 0.000000 0.061647 0.000000
# 6 0.000000 0.000000 0.000000 0.000000 0.000000 0.032518
#
#
# Mechanical properties :
#
#
# Convention : Reuss Voigt Hill
#
# Bulk Modulus (GPa) = 14.61326 22.01594 18.31460
# Shear Modulus (GPa) = 18.94477 23.72331 21.33404
#
# Velocity S-wave (km/s) = 3.07520 3.44125 3.26336
# Velocity P-wave (km/s) = 4.46136 5.17489 4.83132
#
# Compressibility (1/GPa) = 0.06843100
#
# Stress axis : x y z
#
# Youngs Moduli (GPa) = 21.24198 74.02457 48.71403
#
# Poissons Ratio (x) = -0.63730 0.46477
# Poissons Ratio (y) = -0.18288 0.26354
# Poissons Ratio (z) = 0.20266 0.40047
#
# Static dielectric constant tensor:
#      x y z
#    x 1.708840 0.000000 0.000000 
#    y 0.000000 1.730720 0.000000 
#    z 0.000000 0.000000 1.674060 
# 
# From -- ./inp_files/5979.got.cif
#   From: 2010.05.17/outbox.cif.g08.bks.cpg/sg55_3_cif.got.tgz:5979.got - 2010.06.03 13:27:54.
