data_PCOD9428650
_publ_section_title
;
Structure prediction by ZEFSAII (Michael W. Deem and Ramdas Pophale) SiO2 
 PCOD9428650
Probable space group: P B A M
;
_chemical_formula_sum "Si O2"
_cell_formula_units_Z 38
_cell_length_a 4.835272
_cell_length_b 11.155647
_cell_length_c 28.375169
_cell_angle_alpha 90.000000
_cell_angle_beta 90.000000
_cell_angle_gamma 90.000000
_cell_volume 1530.573289
_symmetry_space_group_name_H-M "P B A M"
_symmetry_group_IT_number 55
_symmetry_cell_setting 'orthorhombic'
loop_
_space_group_symop_operation_xyz
x,y,z
-x,-y,z
1/2+x,1/2-y,-z
1/2-x,1/2+y,-z
-x,-y,-z
x,y,-z
1/2-x,1/2+y,z
1/2+x,1/2-y,z
loop_
_atom_site_type_symbol
_atom_site_label
_atom_site_fract_x
_atom_site_fract_y
_atom_site_fract_z
Si Si1 0.500000 0.500000 0.000000
Si Si2 0.442394 0.822932 0.762066
Si Si3 0.356583 0.339826 0.090517
Si Si4 0.000000 0.500000 0.841288
Si Si5 0.783693 0.836774 0.500000
Si Si6 0.500000 0.000000 0.423532
Si Si7 0.512910 0.174515 0.345527
O O1 0.366456 0.411362 0.041257
O O2 0.617446 0.700490 0.766252
O O3 0.467416 0.867376 0.708457
O O4 0.575773 0.898467 0.803666
O O5 0.654384 0.276220 0.094594
O O6 0.233094 0.436930 0.126928
O O7 0.590300 0.717199 0.500000
O O8 0.701054 0.920670 0.543948
O O9 0.630931 0.091412 0.386307
O O10 0.191565 0.204852 0.350685
#
# Coordination Sequence:
#
# PCOD9428650 Si02
#       7
#     2   8   8   4   4   4   8
#     4  12  28  54  80 102 140 190 228 286 360 408
#     4  10  23  42  65  98 140 182 228 279 335 409
#     4  12  28  48  74 109 143 181 236 290 340 412
#     4  12  25  45  73 106 147 191 229 280 354 410
#     4  11  26  43  60  90 128 165 218 281 340 416
#     4  11  23  40  67  90 123 174 219 275 352 406
#     4  10  22  40  63  95 131 171 226 282 331 401
#
# _framework density 24.827296
#
# number of rings (size 3 to 8) (size 9 to 14) (size 15 to 20)
#    0.000    1.053    0.000    5.053    0.000   11.368 
#    0.000    6.316    0.000    0.000    0.000    0.000 
#    0.000    0.000    0.000    0.000    0.000    0.000 
#
# Total GULP energy -211724.864152 kJ/mol
# GULP energy per Si atom -5571.706951 kJ/mol
# Density = 2.477079 g / cm^3
# Si number density = 24.827296 Si / 1000 Ang^3
#
#
#
# Elastic Constant Matrix: (Units=GPa)
#
#
# Indices 1 2 3 4 5 6 
#
# 1 88.6974 16.8855 23.1235 0.0000 0.0000 0.0000
# 2 16.8855 85.2767 72.8335 0.0000 0.0000 0.0000
# 3 23.1235 72.8335 214.2449 0.0000 0.0000 0.0000
# 4 0.0000 0.0000 0.0000 20.6381 0.0000 0.0000
# 5 0.0000 0.0000 0.0000 0.0000 -40.4868 0.0000
# 6 0.0000 0.0000 0.0000 0.0000 0.0000 26.0761
#
#
#
# Elastic Compliance Matrix: (Units=1/GPa)
#
#
# Indices 1 2 3 4 5 6 
#
# 1 0.011785 -0.001757 -0.000674 0.000000 0.000000 0.000000
# 2 -0.001757 0.016786 -0.005517 0.000000 0.000000 0.000000
# 3 -0.000674 -0.005517 0.006616 0.000000 0.000000 0.000000
# 4 0.000000 0.000000 0.000000 0.048454 0.000000 0.000000
# 5 0.000000 0.000000 0.000000 0.000000 -0.024699 0.000000
# 6 0.000000 0.000000 0.000000 0.000000 0.000000 0.038349
#
#
# Mechanical properties :
#
#
# Convention : Reuss Voigt Hill
#
# Bulk Modulus (GPa) = 51.84211 68.21154 60.02683
# Shear Modulus (GPa) = 41.79956 19.60391 30.70174
#
# Velocity S-wave (km/s) = 4.10764 2.81305 3.52036
# Velocity P-wave (km/s) = 6.58964 6.17131 6.38390
#
# Compressibility (1/GPa) = 0.01928934
#
# Stress axis : x y z
#
# Youngs Moduli (GPa) = 84.85584 59.57189 151.15186
#
# Poissons Ratio (x) = 0.10469 0.10195
# Poissons Ratio (y) = 0.14912 0.83390
# Poissons Ratio (z) = 0.05723 0.32865
#
# Static dielectric constant tensor:
#      x y z
#    x 2.035270 0.000000 0.000000 
#    y 0.000000 2.054480 0.000000 
#    z 0.000000 0.000000 1.933410 
# 
# From -- ./inp_files/23762.got.cif
#   From: 2010.05.17/outbox.cif.g08.bks.cpg/sg55_12_cif.got.tgz:23762.got - 2010.06.03 13:27:54.
