data_PCOD9428484
_publ_section_title
;
Structure prediction by ZEFSAII (Michael W. Deem and Ramdas Pophale) SiO2 
 PCOD9428484
Probable space group: P B A M
;
_chemical_formula_sum "Si O2"
_cell_formula_units_Z 38
_cell_length_a 4.890030
_cell_length_b 10.583035
_cell_length_c 27.896307
_cell_angle_alpha 90.000000
_cell_angle_beta 90.000000
_cell_angle_gamma 90.000000
_cell_volume 1443.671788
_symmetry_space_group_name_H-M "P B A M"
_symmetry_group_IT_number 55
_symmetry_cell_setting 'orthorhombic'
loop_
_space_group_symop_operation_xyz
x,y,z
-x,-y,z
1/2+x,1/2-y,-z
1/2-x,1/2+y,-z
-x,-y,-z
x,y,-z
1/2-x,1/2+y,z
1/2+x,1/2-y,z
loop_
_atom_site_type_symbol
_atom_site_label
_atom_site_fract_x
_atom_site_fract_y
_atom_site_fract_z
Si Si1 0.684796 0.160715 0.551460
Si Si2 0.500000 0.000000 0.000000
Si Si3 0.283618 0.659909 0.082457
Si Si4 0.000000 0.500000 0.269795
Si Si5 0.190575 0.837059 0.346430
Si Si6 0.653650 0.834701 0.186589
O O1 0.733703 0.096163 0.500000
O O2 0.379547 0.215258 0.552061
O O3 0.751018 0.097887 0.602056
O O4 0.307560 0.065746 0.041681
O O5 0.086468 0.783622 0.077763
O O6 0.231668 0.605425 0.135601
O O7 0.799637 0.579793 0.303373
O O8 0.182974 0.583531 0.233749
O O9 0.381071 0.710926 0.344546
O O10 0.841253 0.710634 0.187493
#
# Coordination Sequence:
#
# PCOD9428484 Si02
#       6
#     8   2   8   4   8   8
#     4   8  14  28  50  72 100 140 177 215 270 329
#     4  12  22  38  64  92 120 156 188 230 286 336
#     4  10  23  41  60  87 120 152 191 235 277 330
#     4  12  23  38  61  85 110 151 188 232 288 334
#     4  10  22  37  54  82 114 142 182 233 280 333
#     4  10  23  42  61  84 115 151 193 235 276 331
#
# _framework density 26.321770999999998
#
# number of rings (size 3 to 8) (size 9 to 14) (size 15 to 20)
#    0.000    2.105    0.000    2.526    0.000    5.053 
#    0.000    6.842    0.000    0.000    0.000   14.737 
#    0.000    0.000    0.000    0.000    0.000    0.000 
#
# Total GULP energy -212436.263532 kJ/mol
# GULP energy per Si atom -5590.427988 kJ/mol
# Density = 2.626186 g / cm^3
# Si number density = 26.321771 Si / 1000 Ang^3
#
#
#
# Elastic Constant Matrix: (Units=GPa)
#
#
# Indices 1 2 3 4 5 6 
#
# 1 78.5349 21.9095 7.4306 0.0000 0.0000 0.0000
# 2 21.9095 55.1067 53.8072 0.0000 0.0000 0.0000
# 3 7.4306 53.8072 273.3530 0.0000 0.0000 0.0000
# 4 0.0000 0.0000 0.0000 -64.1232 0.0000 0.0000
# 5 0.0000 0.0000 0.0000 0.0000 -11.8906 0.0000
# 6 0.0000 0.0000 0.0000 0.0000 0.0000 38.4809
#
#
#
# Elastic Compliance Matrix: (Units=1/GPa)
#
#
# Indices 1 2 3 4 5 6 
#
# 1 0.014505 -0.006663 0.000917 0.000000 0.000000 0.000000
# 2 -0.006663 0.025524 -0.004843 0.000000 0.000000 0.000000
# 3 0.000917 -0.004843 0.004587 0.000000 0.000000 0.000000
# 4 0.000000 0.000000 0.000000 -0.015595 0.000000 0.000000
# 5 0.000000 0.000000 0.000000 0.000000 -0.084100 0.000000
# 6 0.000000 0.000000 0.000000 0.000000 0.000000 0.025987
#
#
# Mechanical properties :
#
#
# Convention : Reuss Voigt Hill
#
# Bulk Modulus (GPa) = 42.66353 63.69878 53.18116
# Shear Modulus (GPa) = -49268.76626 14.08322 -24627.34152
#
# Velocity S-wave (km/s) = -136.96171 2.31560 -96.83271
# Velocity P-wave (km/s) = 158.09840 5.60374 111.72221
#
# Compressibility (1/GPa) = 0.02343922
#
# Stress axis : x y z
#
# Youngs Moduli (GPa) = 68.94119 39.17809 218.02282
#
# Poissons Ratio (x) = 0.26102 -0.19996
# Poissons Ratio (y) = 0.45932 1.05592
# Poissons Ratio (z) = -0.06323 0.18975
#
# Static dielectric constant tensor:
#      x y z
#    x 1.983890 0.000000 0.000000 
#    y 0.000000 2.080160 0.000000 
#    z 0.000000 0.000000 2.041950 
# 
# From -- ./inp_files/24034.got.cif
#   From: 2010.05.17/outbox.cif.g08.bks.cpg/sg55_13_cif.got.tgz:24034.got - 2010.06.03 13:27:54.
