data_PCOD9428483
_publ_section_title
;
Structure prediction by ZEFSAII (Michael W. Deem and Ramdas Pophale) SiO2 
 PCOD9428483
Probable space group: P B A M
;
_chemical_formula_sum "Si O2"
_cell_formula_units_Z 64
_cell_length_a 30.825311
_cell_length_b 14.711676
_cell_length_c 8.541071
_cell_angle_alpha 90.000000
_cell_angle_beta 90.000000
_cell_angle_gamma 90.000000
_cell_volume 3873.307268
_symmetry_space_group_name_H-M "P B A M"
_symmetry_group_IT_number 55
_symmetry_cell_setting 'orthorhombic'
loop_
_space_group_symop_operation_xyz
x,y,z
-x,-y,z
1/2+x,1/2-y,-z
1/2-x,1/2+y,-z
-x,-y,-z
x,y,-z
1/2-x,1/2+y,z
1/2+x,1/2-y,z
loop_
_atom_site_type_symbol
_atom_site_label
_atom_site_fract_x
_atom_site_fract_y
_atom_site_fract_z
Si Si1 0.549513 0.607068 0.688759
Si Si2 0.450606 0.606776 0.311708
Si Si3 0.635774 0.685536 0.816383
Si Si4 0.777112 0.517365 0.816901
Si Si5 0.863353 0.851794 0.184839
Si Si6 0.303525 0.170074 0.315592
Si Si7 0.814532 0.016806 0.679799
Si Si8 0.281687 0.774029 0.188067
O O1 0.554243 0.612484 0.500000
O O2 0.555007 0.500237 0.731462
O O3 0.500014 0.632343 0.729190
O O4 0.586207 0.667700 0.768453
O O5 0.446647 0.612295 0.500000
O O6 0.413029 0.665069 0.231371
O O7 0.656731 0.781630 0.772691
O O8 0.663785 0.612301 0.719536
O O9 0.641472 0.667656 0.000000
O O10 0.800346 0.435979 0.727035
O O11 0.725976 0.500365 0.792405
O O12 0.783851 0.620848 0.760677
O O13 0.788199 0.512298 0.000000
O O14 0.848941 0.938560 0.285743
O O15 0.827426 0.775227 0.218784
O O16 0.860839 0.872550 0.000000
O O17 0.308485 0.182377 0.500000
O O18 0.258622 0.219786 0.262877
O O19 0.800044 0.013682 0.500000
O O20 0.274246 0.773640 0.000000
#
# Coordination Sequence:
#
# PCOD9428483 Si02
#       8
#     8   8   8   8   8   8   8   8
#     4   9  18  33  51  74 105 138 174 214 260 314
#     4   9  18  32  51  74 105 141 172 212 262 310
#     4  12  23  35  52  76 105 141 179 218 262 313
#     4  11  22  38  55  73 103 140 179 220 263 306
#     4  11  21  33  51  77 106 140 179 215 257 312
#     4  12  24  36  54  77 104 139 178 220 261 310
#     4  12  22  32  49  75 106 140 179 218 259 306
#     4  10  22  37  54  74 104 141 176 217 262 308
#
# _framework density 16.523347999999999
#
# number of rings (size 3 to 8) (size 9 to 14) (size 15 to 20)
#    0.000    1.250    3.750    4.875    0.000    1.500 
#    0.000    1.250    0.000    0.000    0.000    0.875 
#    0.000    7.000    0.000    0.000    0.000    0.000 
#
# Total GULP energy -357374.535022 kJ/mol
# GULP energy per Si atom -5583.977110 kJ/mol
# Density = 1.648574 g / cm^3
# Si number density = 16.523348 Si / 1000 Ang^3
#
#
#
# Elastic Constant Matrix: (Units=GPa)
#
#
# Indices 1 2 3 4 5 6 
#
# 1 76.7045 4.6158 14.3899 0.0000 0.0000 0.0000
# 2 4.6158 45.3405 14.2375 0.0000 0.0000 0.0000
# 3 14.3899 14.2375 38.9259 0.0000 0.0000 0.0000
# 4 0.0000 0.0000 0.0000 13.9923 0.0000 0.0000
# 5 0.0000 0.0000 0.0000 0.0000 9.3672 0.0000
# 6 0.0000 0.0000 0.0000 0.0000 0.0000 21.9881
#
#
#
# Elastic Compliance Matrix: (Units=1/GPa)
#
#
# Indices 1 2 3 4 5 6 
#
# 1 0.014011 0.000226 -0.005262 0.000000 0.000000 0.000000
# 2 0.000226 0.024921 -0.009199 0.000000 0.000000 0.000000
# 3 -0.005262 -0.009199 0.031000 0.000000 0.000000 0.000000
# 4 0.000000 0.000000 0.000000 0.071468 0.000000 0.000000
# 5 0.000000 0.000000 0.000000 0.000000 0.106755 0.000000
# 6 0.000000 0.000000 0.000000 0.000000 0.000000 0.045479
#
#
# Mechanical properties :
#
#
# Convention : Reuss Voigt Hill
#
# Bulk Modulus (GPa) = 24.11857 25.27302 24.69579
# Shear Modulus (GPa) = 14.88436 17.58470 16.23453
#
# Velocity S-wave (km/s) = 3.00460 3.26580 3.13792
# Velocity P-wave (km/s) = 5.16383 5.43591 5.30162
#
# Compressibility (1/GPa) = 0.04146183
#
# Stress axis : x y z
#
# Youngs Moduli (GPa) = 71.37450 40.12714 32.25853
#
# Poissons Ratio (x) = -0.00907 0.16975
# Poissons Ratio (y) = -0.01613 0.29673
# Poissons Ratio (z) = 0.37558 0.36911
#
# Static dielectric constant tensor:
#      x y z
#    x 1.564330 0.000000 0.000000 
#    y 0.000000 1.556880 0.000000 
#    z 0.000000 0.000000 1.557360 
# 
# From -- ./inp_files/10916.got.cif
#   From: 2010.05.17/outbox.cif.g08.bks.cpg/sg55_6_cif.got.tgz:10916.got - 2010.06.03 13:27:54.
