data_PCOD9428577
_publ_section_title
;
Structure prediction by ZEFSAII (Michael W. Deem and Ramdas Pophale) SiO2 
 PCOD9428577
Probable space group: P B A M
;
_chemical_formula_sum "Si O2"
_cell_formula_units_Z 34
_cell_length_a 4.803020
_cell_length_b 10.763998
_cell_length_c 24.631974
_cell_angle_alpha 90.000000
_cell_angle_beta 90.000000
_cell_angle_gamma 90.000000
_cell_volume 1273.465609
_symmetry_space_group_name_H-M "P B A M"
_symmetry_group_IT_number 55
_symmetry_cell_setting 'orthorhombic'
loop_
_space_group_symop_operation_xyz
x,y,z
-x,-y,z
1/2+x,1/2-y,-z
1/2-x,1/2+y,-z
-x,-y,-z
x,y,-z
1/2-x,1/2+y,z
1/2+x,1/2-y,z
loop_
_atom_site_type_symbol
_atom_site_label
_atom_site_fract_x
_atom_site_fract_y
_atom_site_fract_z
Si Si1 0.828405 0.336315 0.000000
Si Si2 0.310030 0.663734 0.116290
Si Si3 0.500000 0.000000 0.202990
Si Si4 0.197190 0.337245 0.589773
Si Si5 0.000000 0.000000 0.500000
Si Si6 0.188317 0.832129 0.288166
O O1 0.752321 0.396001 0.057347
O O2 0.645269 0.208786 0.000000
O O3 0.625609 0.709553 0.119140
O O4 0.199374 0.580404 0.164362
O O5 0.695480 0.082505 0.241383
O O6 0.385305 0.212347 0.582199
O O7 0.304028 0.434568 0.546959
O O8 0.246237 0.380654 0.651473
O O9 0.366495 0.704031 0.284194
#
# Coordination Sequence:
#
# PCOD9428577 Si02
#       6
#     4   8   4   8   2   8
#     4   8  16  35  58  81 122 166 202 261 336 391
#     4  10  22  39  60  91 126 164 214 272 328 391
#     4  12  24  39  68  93 124 172 224 270 322 380
#     4  10  24  44  65  95 132 166 206 257 311 374
#     4  12  24  42  76 104 128 166 216 264 320 376
#     4  10  24  44  63  89 128 169 210 258 315 380
#
# _framework density 26.698795
#
# number of rings (size 3 to 8) (size 9 to 14) (size 15 to 20)
#    0.000    1.882    0.000    2.118    0.000   11.765 
#    0.000    0.000    0.000    8.471    0.000    0.000 
#    0.000    0.000    0.000    0.000    0.000    0.000 
#
# Total GULP energy -190427.092297 kJ/mol
# GULP energy per Si atom -5600.796832 kJ/mol
# Density = 2.663803 g / cm^3
# Si number density = 26.698795 Si / 1000 Ang^3
#
#
#
# Elastic Constant Matrix: (Units=GPa)
#
#
# Indices 1 2 3 4 5 6 
#
# 1 98.1989 18.3121 22.4581 0.0000 0.0000 0.0000
# 2 18.3121 63.2150 69.7566 0.0000 0.0000 0.0000
# 3 22.4581 69.7566 252.3199 0.0000 0.0000 0.0000
# 4 0.0000 0.0000 0.0000 1.8043 0.0000 0.0000
# 5 0.0000 0.0000 0.0000 0.0000 116.1045 0.0000
# 6 0.0000 0.0000 0.0000 0.0000 0.0000 48.9741
#
#
#
# Elastic Compliance Matrix: (Units=1/GPa)
#
#
# Indices 1 2 3 4 5 6 
#
# 1 0.010768 -0.002967 -0.000138 0.000000 0.000000 0.000000
# 2 -0.002967 0.023581 -0.006255 0.000000 0.000000 0.000000
# 3 -0.000138 -0.006255 0.005705 0.000000 0.000000 0.000000
# 4 0.000000 0.000000 0.000000 0.554244 0.000000 0.000000
# 5 0.000000 0.000000 0.000000 0.000000 0.008613 0.000000
# 6 0.000000 0.000000 0.000000 0.000000 0.000000 0.020419
#
#
# Mechanical properties :
#
#
# Convention : Reuss Voigt Hill
#
# Bulk Modulus (GPa) = 46.87437 70.53195 58.70316
# Shear Modulus (GPa) = 7.70224 53.59038 30.64631
#
# Velocity S-wave (km/s) = 1.70033 4.48506 3.39167
# Velocity P-wave (km/s) = 4.63138 7.30041 6.11334
#
# Compressibility (1/GPa) = 0.02133362
#
# Stress axis : x y z
#
# Youngs Moduli (GPa) = 92.86539 42.40726 175.29015
#
# Poissons Ratio (x) = 0.12581 0.02423
# Poissons Ratio (y) = 0.27551 1.09646
# Poissons Ratio (z) = 0.01284 0.26526
#
# Static dielectric constant tensor:
#      x y z
#    x 1.991010 0.000000 0.000000 
#    y 0.000000 2.093620 0.000000 
#    z 0.000000 0.000000 2.023260 
# 
# From -- ./inp_files/23245.got.cif
#   From: 2010.05.17/outbox.cif.g08.bks.cpg/sg55_12_cif.got.tgz:23245.got - 2010.06.03 13:27:54.
