data_PCOD9428347
_publ_section_title
;
Structure prediction by ZEFSAII (Michael W. Deem and Ramdas Pophale) SiO2 
 PCOD9428347
Probable space group: P B A M
;
_chemical_formula_sum "Si O2"
_cell_formula_units_Z 64
_cell_length_a 9.113394
_cell_length_b 27.620203
_cell_length_c 11.731948
_cell_angle_alpha 90.000000
_cell_angle_beta 90.000000
_cell_angle_gamma 90.000000
_cell_volume 2953.093122
_symmetry_space_group_name_H-M "P B A M"
_symmetry_group_IT_number 55
_symmetry_cell_setting 'orthorhombic'
loop_
_space_group_symop_operation_xyz
x,y,z
-x,-y,z
1/2+x,1/2-y,-z
1/2-x,1/2+y,-z
-x,-y,-z
x,y,-z
1/2-x,1/2+y,z
1/2+x,1/2-y,z
loop_
_atom_site_type_symbol
_atom_site_label
_atom_site_fract_x
_atom_site_fract_y
_atom_site_fract_z
Si Si1 0.497010 0.812183 0.883822
Si Si2 0.294607 0.923102 0.631352
Si Si3 0.422550 0.126482 0.308334
Si Si4 0.807571 0.796262 0.624903
Si Si5 0.776524 0.235403 0.823638
Si Si6 0.938133 0.144276 0.247934
Si Si7 0.685086 0.416232 0.869193
Si Si8 0.329150 0.981745 0.870447
O O1 0.470241 0.843943 0.774836
O O2 0.377605 0.770730 0.882114
O O3 0.646231 0.783014 0.871068
O O4 0.490051 0.841087 0.000000
O O5 0.258608 0.940867 0.500000
O O6 0.465583 0.906818 0.625100
O O7 0.297096 0.954475 0.750339
O O8 0.175494 0.881625 0.665570
O O9 0.325437 0.165042 0.375774
O O10 0.309816 0.102214 0.219012
O O11 0.854049 0.782398 0.500000
O O12 0.753260 0.749549 0.693031
O O13 0.940544 0.823357 0.687072
O O14 0.858433 0.184247 0.831329
O O15 0.030727 0.103875 0.178361
O O16 0.715259 0.473456 0.871221
O O17 0.704706 0.398922 0.000000
O O18 0.500000 0.000000 0.864700
O O19 0.316166 0.958756 0.000000
#
# Coordination Sequence:
#
# PCOD9428347 Si02
#       8
#     8   8   8   8   8   8   8   8
#     4  11  22  37  58  86 126 164 206 267 327 385
#     4  12  25  42  68 103 139 175 223 281 338 405
#     4  10  21  40  62  95 125 163 222 270 327 390
#     4  10  22  41  63  83 120 174 217 267 323 384
#     4  11  22  41  56  89 123 162 220 262 325 383
#     4  11  24  43  61  94 135 172 221 275 333 398
#     4  10  22  43  70  95 129 174 220 274 339 412
#     4  10  22  44  72 103 135 172 221 279 340 410
#
# _framework density 21.672191000000002
#
# number of rings (size 3 to 8) (size 9 to 14) (size 15 to 20)
#    0.000    1.375    3.750    1.500    0.000    3.750 
#    0.000    3.125    0.000    0.000    0.000    0.000 
#    0.000    0.000    0.000    0.000    0.000    0.000 
#
# Total GULP energy -356501.399078 kJ/mol
# GULP energy per Si atom -5570.334361 kJ/mol
# Density = 2.162286 g / cm^3
# Si number density = 21.672191 Si / 1000 Ang^3
#
#
#
# Elastic Constant Matrix: (Units=GPa)
#
#
# Indices 1 2 3 4 5 6 
#
# 1 59.0299 7.7768 10.9870 0.0000 0.0000 0.0000
# 2 7.7768 45.6475 31.3828 0.0000 0.0000 0.0000
# 3 10.9870 31.3828 137.0108 0.0000 0.0000 0.0000
# 4 0.0000 0.0000 0.0000 21.8096 0.0000 0.0000
# 5 0.0000 0.0000 0.0000 0.0000 17.4915 0.0000
# 6 0.0000 0.0000 0.0000 0.0000 0.0000 31.2880
#
#
#
# Elastic Compliance Matrix: (Units=1/GPa)
#
#
# Indices 1 2 3 4 5 6 
#
# 1 0.017413 -0.002382 -0.000851 0.000000 0.000000 0.000000
# 2 -0.002382 0.026327 -0.005839 0.000000 0.000000 0.000000
# 3 -0.000851 -0.005839 0.008704 0.000000 0.000000 0.000000
# 4 0.000000 0.000000 0.000000 0.045851 0.000000 0.000000
# 5 0.000000 0.000000 0.000000 0.000000 0.057171 0.000000
# 6 0.000000 0.000000 0.000000 0.000000 0.000000 0.031961
#
#
# Mechanical properties :
#
#
# Convention : Reuss Voigt Hill
#
# Bulk Modulus (GPa) = 29.15377 37.99794 33.57585
# Shear Modulus (GPa) = 23.04095 26.88725 24.96410
#
# Velocity S-wave (km/s) = 3.26415 3.52608 3.39764
# Velocity P-wave (km/s) = 5.26190 5.84370 5.56041
#
# Compressibility (1/GPa) = 0.03430089
#
# Stress axis : x y z
#
# Youngs Moduli (GPa) = 57.42934 37.98326 114.88365
#
# Poissons Ratio (x) = 0.09046 0.09775
# Poissons Ratio (y) = 0.13677 0.67085
# Poissons Ratio (z) = 0.04886 0.22180
#
# Static dielectric constant tensor:
#      x y z
#    x 1.808550 0.000000 0.000000 
#    y 0.000000 1.820280 0.000000 
#    z 0.000000 0.000000 1.884260 
# 
# From -- ./inp_files/12608.got.cif
#   From: 2010.05.17/outbox.cif.g08.bks.cpg/sg55_7_cif.got.tgz:12608.got - 2010.06.03 13:27:54.
