data_PCOD9428247
_publ_section_title
;
Structure prediction by ZEFSAII (Michael W. Deem and Ramdas Pophale) SiO2 
 PCOD9428247
Probable space group: P B A M
;
_chemical_formula_sum "Si O2"
_cell_formula_units_Z 64
_cell_length_a 29.030839
_cell_length_b 12.922562
_cell_length_c 7.936641
_cell_angle_alpha 90.000000
_cell_angle_beta 90.000000
_cell_angle_gamma 90.000000
_cell_volume 2977.453228
_symmetry_space_group_name_H-M "P B A M"
_symmetry_group_IT_number 55
_symmetry_cell_setting 'orthorhombic'
loop_
_space_group_symop_operation_xyz
x,y,z
-x,-y,z
1/2+x,1/2-y,-z
1/2-x,1/2+y,-z
-x,-y,-z
x,y,-z
1/2-x,1/2+y,z
1/2+x,1/2-y,z
loop_
_atom_site_type_symbol
_atom_site_label
_atom_site_fract_x
_atom_site_fract_y
_atom_site_fract_z
Si Si1 0.426610 0.251475 0.800521
Si Si2 0.172199 0.725559 0.694575
Si Si3 0.708327 0.555012 0.197596
Si Si4 0.881971 0.652734 0.297565
Si Si5 0.193309 0.506010 0.699445
Si Si6 0.051820 0.983742 0.794351
Si Si7 0.986231 0.616537 0.703908
Si Si8 0.136716 0.117551 0.203701
O O1 0.382431 0.204369 0.708957
O O2 0.431136 0.370417 0.744617
O O3 0.474311 0.193432 0.767217
O O4 0.417183 0.249866 0.000000
O O5 0.185531 0.739113 0.500000
O O6 0.184209 0.833995 0.780572
O O7 0.195967 0.622927 0.768500
O O8 0.758493 0.551499 0.278496
O O9 0.676003 0.461943 0.263976
O O10 0.714798 0.536898 0.000000
O O11 0.883947 0.642697 0.500000
O O12 0.848700 0.562257 0.230885
O O13 0.934705 0.644129 0.235703
O O14 0.860352 0.764239 0.258004
O O15 0.184622 0.518682 0.500000
O O16 0.087713 0.070535 0.738782
O O17 0.051014 0.985402 0.000000
O O18 0.000000 0.000000 0.734540
O O19 0.986455 0.621062 0.500000
O O20 0.000000 0.500000 0.753724
O O21 0.137205 0.114587 0.000000
#
# Coordination Sequence:
#
# PCOD9428247 Si02
#       8
#     8   8   8   8   8   8   8   8
#     4  11  21  36  60  90 123 160 205 257 310 368
#     4  11  23  42  67  92 124 164 209 258 313 378
#     4  11  24  42  64  92 124 159 202 260 323 375
#     4  10  22  40  62  90 124 162 208 257 305 364
#     4  10  24  44  65  90 121 163 210 257 312 374
#     4   9  17  32  54  80 114 156 194 236 295 359
#     4  10  21  39  61  86 123 168 210 255 311 370
#     4  10  21  39  59  85 123 161 198 246 312 375
#
# _framework density 21.494880999999999
#
# number of rings (size 3 to 8) (size 9 to 14) (size 15 to 20)
#    0.000    1.750    1.250    2.625    1.750    6.250 
#    0.000    1.250    0.000    2.625    0.000    0.000 
#    0.000    0.000    0.000    0.000    0.000    0.000 
#
# Total GULP energy -357669.811540 kJ/mol
# GULP energy per Si atom -5588.590805 kJ/mol
# Density = 2.144596 g / cm^3
# Si number density = 21.494881 Si / 1000 Ang^3
#
#
#
# Elastic Constant Matrix: (Units=GPa)
#
#
# Indices 1 2 3 4 5 6 
#
# 1 91.5741 25.8821 -7.1336 0.0000 0.0000 0.0000
# 2 25.8821 112.5446 2.5828 0.0000 0.0000 0.0000
# 3 -7.1336 2.5828 20.2103 0.0000 0.0000 0.0000
# 4 0.0000 0.0000 0.0000 24.3680 0.0000 0.0000
# 5 0.0000 0.0000 0.0000 0.0000 18.2668 0.0000
# 6 0.0000 0.0000 0.0000 0.0000 0.0000 35.8051
#
#
#
# Elastic Compliance Matrix: (Units=1/GPa)
#
#
# Indices 1 2 3 4 5 6 
#
# 1 0.012098 -0.002889 0.004639 0.000000 0.000000 0.000000
# 2 -0.002889 0.009601 -0.002247 0.000000 0.000000 0.000000
# 3 0.004639 -0.002247 0.051404 0.000000 0.000000 0.000000
# 4 0.000000 0.000000 0.000000 0.041038 0.000000 0.000000
# 5 0.000000 0.000000 0.000000 0.000000 0.054744 0.000000
# 6 0.000000 0.000000 0.000000 0.000000 0.000000 0.027929
#
#
# Mechanical properties :
#
#
# Convention : Reuss Voigt Hill
#
# Bulk Modulus (GPa) = 13.86735 29.66576 21.76656
# Shear Modulus (GPa) = 22.53841 29.22114 25.87977
#
# Velocity S-wave (km/s) = 3.24164 3.69107 3.47363
# Velocity P-wave (km/s) = 4.52509 5.65655 5.12216
#
# Compressibility (1/GPa) = 0.07211181
#
# Stress axis : x y z
#
# Youngs Moduli (GPa) = 82.65859 104.15328 19.45355
#
# Poissons Ratio (x) = 0.30086 -0.09025
# Poissons Ratio (y) = 0.23877 0.04370
# Poissons Ratio (z) = -0.38348 0.23399
#
# Static dielectric constant tensor:
#      x y z
#    x 1.769640 0.000000 0.000000 
#    y 0.000000 1.771450 0.000000 
#    z 0.000000 0.000000 1.772300 
# 
# From -- ./inp_files/10737.got.cif
#   From: 2010.05.17/outbox.cif.g08.bks.cpg/sg55_6_cif.got.tgz:10737.got - 2010.06.03 13:27:54.
