data_PCOD9428758
_publ_section_title
;
Structure prediction by ZEFSAII (Michael W. Deem and Ramdas Pophale) SiO2 
 PCOD9428758
Probable space group: P B A M
;
_chemical_formula_sum "Si O2"
_cell_formula_units_Z 52
_cell_length_a 8.619998
_cell_length_b 14.436945
_cell_length_c 19.816955
_cell_angle_alpha 90.000000
_cell_angle_beta 90.000000
_cell_angle_gamma 90.000000
_cell_volume 2466.149442
_symmetry_space_group_name_H-M "P B A M"
_symmetry_group_IT_number 55
_symmetry_cell_setting 'orthorhombic'
loop_
_space_group_symop_operation_xyz
x,y,z
-x,-y,z
1/2+x,1/2-y,-z
1/2-x,1/2+y,-z
-x,-y,-z
x,y,-z
1/2-x,1/2+y,z
1/2+x,1/2-y,z
loop_
_atom_site_type_symbol
_atom_site_label
_atom_site_fract_x
_atom_site_fract_y
_atom_site_fract_z
Si Si1 0.184034 0.021381 0.891896
Si Si2 0.753130 0.312740 0.500000
Si Si3 0.681108 0.471302 0.389245
Si Si4 0.237387 0.873014 0.000000
Si Si5 0.754712 0.888373 0.241719
Si Si6 0.628965 0.328639 0.000000
Si Si7 0.765740 0.669233 0.621511
Si Si8 0.013895 0.758616 0.718163
O O1 0.249784 0.038707 0.818077
O O2 0.195981 0.115688 0.935588
O O3 0.000000 0.000000 0.886730
O O4 0.259858 0.938669 0.934808
O O5 0.719136 0.390692 0.441237
O O6 0.778280 0.233412 0.440994
O O7 0.500000 0.500000 0.395043
O O8 0.720626 0.435510 0.314331
O O9 0.780197 0.563966 0.401744
O O10 0.055587 0.845241 0.000000
O O11 0.333095 0.779100 0.000000
O O12 0.606733 0.821548 0.244185
O O13 0.902637 0.819600 0.235248
O O14 0.634408 0.675511 0.679224
O O15 0.915236 0.710527 0.658592
#
# Coordination Sequence:
#
# PCOD9428758 Si02
#       8
#     8   4   8   4   8   4   8   8
#     4   9  20  38  67  97 130 173 220 252 307 385
#     4  12  23  42  62  91 120 161 217 266 323 394
#     4  12  23  41  68  91 119 170 214 258 332 397
#     4   9  19  41  68  98 134 175 211 267 302 371
#     4  11  22  42  66  96 127 168 217 261 325 383
#     4   9  19  39  66  98 134 171 213 253 312 370
#     4  11  23  43  64  89 124 162 210 271 322 391
#     4  10  22  43  63  90 131 163 206 271 325 380
#
# _framework density 21.085502999999999
#
# number of rings (size 3 to 8) (size 9 to 14) (size 15 to 20)
#    0.000    1.538    4.615    2.077    0.000    4.923 
#    2.769    2.308    3.385    0.000    0.000    0.000 
#    0.000    0.000    0.000    0.000    0.000    0.000 
#
# Total GULP energy -289693.173702 kJ/mol
# GULP energy per Si atom -5571.022571 kJ/mol
# Density = 2.103751 g / cm^3
# Si number density = 21.085503 Si / 1000 Ang^3
#
#
#
# Elastic Constant Matrix: (Units=GPa)
#
#
# Indices 1 2 3 4 5 6 
#
# 1 24.6308 9.0131 6.1487 0.0000 0.0000 0.0000
# 2 9.0131 143.8014 49.3963 0.0000 0.0000 0.0000
# 3 6.1487 49.3963 128.4473 0.0000 0.0000 0.0000
# 4 0.0000 0.0000 0.0000 1.0570 0.0000 0.0000
# 5 0.0000 0.0000 0.0000 0.0000 17.3327 0.0000
# 6 0.0000 0.0000 0.0000 0.0000 0.0000 18.2023
#
#
#
# Elastic Compliance Matrix: (Units=1/GPa)
#
#
# Indices 1 2 3 4 5 6 
#
# 1 0.041697 -0.002221 -0.001142 0.000000 0.000000 0.000000
# 2 -0.002221 0.008131 -0.003020 0.000000 0.000000 0.000000
# 3 -0.001142 -0.003020 0.009002 0.000000 0.000000 0.000000
# 4 0.000000 0.000000 0.000000 0.946047 0.000000 0.000000
# 5 0.000000 0.000000 0.000000 0.000000 0.057694 0.000000
# 6 0.000000 0.000000 0.000000 0.000000 0.000000 0.054938
#
#
# Mechanical properties :
#
#
# Convention : Reuss Voigt Hill
#
# Bulk Modulus (GPa) = 21.70960 47.33286 34.52123
# Shear Modulus (GPa) = 4.36441 22.80650 13.58546
#
# Velocity S-wave (km/s) = 1.44026 3.29237 2.54107
# Velocity P-wave (km/s) = 3.61720 6.07863 5.00169
#
# Compressibility (1/GPa) = 0.04606257
#
# Stress axis : x y z
#
# Youngs Moduli (GPa) = 23.98232 122.98901 111.09223
#
# Poissons Ratio (x) = 0.27319 0.12685
# Poissons Ratio (y) = 0.05327 0.33555
# Poissons Ratio (z) = 0.02738 0.37149
#
# Static dielectric constant tensor:
#      x y z
#    x 1.828180 0.000000 0.000000 
#    y 0.000000 1.751970 0.000000 
#    z 0.000000 0.000000 1.725330 
# 
# From -- ./inp_files/22592.got.cif
#   From: 2010.05.17/outbox.cif.g08.bks.cpg/sg55_12_cif.got.tgz:22592.got - 2010.06.03 13:27:54.
