data_PCOD9428158
_publ_section_title
;
Structure prediction by ZEFSAII (Michael W. Deem and Ramdas Pophale) SiO2 
 PCOD9428158
Probable space group: P B A M
;
_chemical_formula_sum "Si O2"
_cell_formula_units_Z 56
_cell_length_a 21.737199
_cell_length_b 15.016219
_cell_length_c 8.131867
_cell_angle_alpha 90.000000
_cell_angle_beta 90.000000
_cell_angle_gamma 90.000000
_cell_volume 2654.327104
_symmetry_space_group_name_H-M "P B A M"
_symmetry_group_IT_number 55
_symmetry_cell_setting 'orthorhombic'
loop_
_space_group_symop_operation_xyz
x,y,z
-x,-y,z
1/2+x,1/2-y,-z
1/2-x,1/2+y,-z
-x,-y,-z
x,y,-z
1/2-x,1/2+y,z
1/2+x,1/2-y,z
loop_
_atom_site_type_symbol
_atom_site_label
_atom_site_fract_x
_atom_site_fract_y
_atom_site_fract_z
Si Si1 0.958044 0.583334 0.690599
Si Si2 0.239293 0.804121 0.303582
Si Si3 0.257528 0.509596 0.304270
Si Si4 0.473600 0.722020 0.191048
Si Si5 0.342238 0.660755 0.197103
Si Si6 0.370414 0.046597 0.809096
Si Si7 0.895879 0.259068 0.199758
O O1 0.971035 0.603231 0.500000
O O2 0.964186 0.671505 0.795514
O O3 0.890842 0.539885 0.709096
O O4 0.000000 0.500000 0.745809
O O5 0.244106 0.801888 0.500000
O O6 0.293075 0.738906 0.239379
O O7 0.170411 0.774051 0.255974
O O8 0.243546 0.907075 0.248794
O O9 0.247182 0.512903 0.500000
O O10 0.317520 0.566968 0.264071
O O11 0.201922 0.558566 0.212553
O O12 0.410995 0.681377 0.262997
O O13 0.542803 0.707699 0.258943
O O14 0.475904 0.695459 0.000000
O O15 0.345052 0.656695 0.000000
O O16 0.400994 0.137586 0.746636
O O17 0.385792 0.033212 0.000000
O O18 0.896253 0.259359 0.000000
#
# Coordination Sequence:
#
# PCOD9428158 Si02
#       7
#     8   8   8   8   8   8   8
#     4  11  22  33  51  83 120 157 195 236 294 363
#     4  11  24  41  63  90 122 161 203 250 303 360
#     4  11  24  41  62  89 122 158 201 252 305 361
#     4  10  22  40  60  85 120 159 202 251 304 360
#     4  11  23  40  64  92 121 159 202 250 305 359
#     4  11  21  35  59  86 116 155 197 245 300 357
#     4  10  21  38  61  88 118 155 200 248 300 356
#
# _framework density 21.097626000000002
#
# number of rings (size 3 to 8) (size 9 to 14) (size 15 to 20)
#    0.000    1.286    2.857    3.000    0.000    7.429 
#    0.000    0.714    0.000    4.286    0.000    0.000 
#    0.000    0.000    0.000    0.000    0.000    0.000 
#
# Total GULP energy -312699.858320 kJ/mol
# GULP energy per Si atom -5583.926041 kJ/mol
# Density = 2.104961 g / cm^3
# Si number density = 21.097626 Si / 1000 Ang^3
#
#
#
# Elastic Constant Matrix: (Units=GPa)
#
#
# Indices 1 2 3 4 5 6 
#
# 1 96.0173 3.0397 5.9335 0.0000 0.0000 0.0000
# 2 3.0397 50.7329 5.7896 0.0000 0.0000 0.0000
# 3 5.9335 5.7896 38.2317 0.0000 0.0000 0.0000
# 4 0.0000 0.0000 0.0000 23.1144 0.0000 0.0000
# 5 0.0000 0.0000 0.0000 0.0000 8.6438 0.0000
# 6 0.0000 0.0000 0.0000 0.0000 0.0000 35.0735
#
#
#
# Elastic Compliance Matrix: (Units=1/GPa)
#
#
# Indices 1 2 3 4 5 6 
#
# 1 0.010526 -0.000452 -0.001565 0.000000 0.000000 0.000000
# 2 -0.000452 0.020077 -0.002970 0.000000 0.000000 0.000000
# 3 -0.001565 -0.002970 0.026849 0.000000 0.000000 0.000000
# 4 0.000000 0.000000 0.000000 0.043263 0.000000 0.000000
# 5 0.000000 0.000000 0.000000 0.000000 0.115690 0.000000
# 6 0.000000 0.000000 0.000000 0.000000 0.000000 0.028512
#
#
# Mechanical properties :
#
#
# Convention : Reuss Voigt Hill
#
# Bulk Modulus (GPa) = 21.06276 23.83417 22.44846
# Shear Modulus (GPa) = 18.46944 24.71428 21.59186
#
# Velocity S-wave (km/s) = 2.96197 3.42632 3.20257
# Velocity P-wave (km/s) = 4.65863 5.19370 4.93343
#
# Compressibility (1/GPa) = 0.04747715
#
# Stress axis : x y z
#
# Youngs Moduli (GPa) = 95.00449 49.80796 37.24536
#
# Poissons Ratio (x) = 0.02252 0.05829
# Poissons Ratio (y) = 0.04295 0.11063
# Poissons Ratio (z) = 0.14869 0.14794
#
# Static dielectric constant tensor:
#      x y z
#    x 1.863770 0.000000 0.000000 
#    y 0.000000 1.749130 0.000000 
#    z 0.000000 0.000000 1.737490 
# 
# From -- ./inp_files/6139.got.cif
#   From: 2010.05.17/outbox.cif.g08.bks.cpg/sg55_4_cif.got.tgz:6139.got - 2010.06.03 13:27:54.
