data_PCOD9428442
_publ_section_title
;
Structure prediction by ZEFSAII (Michael W. Deem and Ramdas Pophale) SiO2 
 PCOD9428442
Probable space group: P B A M
;
_chemical_formula_sum "Si O2"
_cell_formula_units_Z 60
_cell_length_a 14.399375
_cell_length_b 15.567128
_cell_length_c 13.969775
_cell_angle_alpha 90.000000
_cell_angle_beta 90.000000
_cell_angle_gamma 90.000000
_cell_volume 3131.421650
_symmetry_space_group_name_H-M "P B A M"
_symmetry_group_IT_number 55
_symmetry_cell_setting 'orthorhombic'
loop_
_space_group_symop_operation_xyz
x,y,z
-x,-y,z
1/2+x,1/2-y,-z
1/2-x,1/2+y,-z
-x,-y,-z
x,y,-z
1/2-x,1/2+y,z
1/2+x,1/2-y,z
loop_
_atom_site_type_symbol
_atom_site_label
_atom_site_fract_x
_atom_site_fract_y
_atom_site_fract_z
Si Si1 0.551795 0.262584 0.759760
Si Si2 0.500000 0.000000 0.266665
Si Si3 0.220107 0.927837 0.890781
Si Si4 0.567064 0.120417 0.105756
Si Si5 0.831219 0.240258 0.233544
Si Si6 0.703142 0.398971 0.226949
Si Si7 0.192729 0.312759 0.609383
Si Si8 0.683657 0.983364 0.390356
O O1 0.577891 0.218050 0.860847
O O2 0.441383 0.257882 0.752250
O O3 0.603519 0.353805 0.761195
O O4 0.603613 0.211359 0.674130
O O5 0.512292 0.077647 0.192338
O O6 0.586901 0.979089 0.333384
O O7 0.332083 0.922572 0.893324
O O8 0.189450 0.843640 0.831476
O O9 0.196866 0.017801 0.840392
O O10 0.185696 0.923857 0.000000
O O11 0.525739 0.111696 0.000000
O O12 0.779022 0.326150 0.193898
O O13 0.779587 0.226995 0.334849
O O14 0.741162 0.432456 0.328866
O O15 0.182789 0.284060 0.500000
O O16 0.205996 0.415195 0.610055
O O17 0.675770 0.954351 0.500000
#
# Coordination Sequence:
#
# PCOD9428442 Si02
#       8
#     8   4   8   8   8   8   8   8
#     4  11  23  40  65  93 132 167 212 262 317 387
#     4  12  18  38  62  96 124 160 208 258 328 378
#     4  11  23  43  66  90 126 170 215 261 320 383
#     4  11  22  39  61  91 127 161 204 263 318 376
#     4  11  23  43  65  94 128 168 211 267 315 380
#     4  11  22  42  65  93 128 168 214 266 324 381
#     4  10  21  42  64  89 129 169 210 265 317 370
#     4  11  22  38  64  92 127 167 212 266 319 379
#
# _framework density 19.160626000000001
#
# number of rings (size 3 to 8) (size 9 to 14) (size 15 to 20)
#    0.000    1.067    6.667    1.200    0.000    4.800 
#    0.000    0.667    0.000    1.600    0.000    0.000 
#    0.000    0.000    0.000    0.000    0.000    0.000 
#
# Total GULP energy -334836.186944 kJ/mol
# GULP energy per Si atom -5580.603116 kJ/mol
# Density = 1.911702 g / cm^3
# Si number density = 19.160626 Si / 1000 Ang^3
#
#
#
# Elastic Constant Matrix: (Units=GPa)
#
#
# Indices 1 2 3 4 5 6 
#
# 1 76.3418 19.1494 17.7881 0.0000 0.0000 0.0000
# 2 19.1494 103.2303 47.8550 0.0000 0.0000 0.0000
# 3 17.7881 47.8550 129.1803 0.0000 0.0000 0.0000
# 4 0.0000 0.0000 0.0000 4.2251 0.0000 0.0000
# 5 0.0000 0.0000 0.0000 0.0000 -39.6025 0.0000
# 6 0.0000 0.0000 0.0000 0.0000 0.0000 24.8861
#
#
#
# Elastic Compliance Matrix: (Units=1/GPa)
#
#
# Indices 1 2 3 4 5 6 
#
# 1 0.013880 -0.002039 -0.001156 0.000000 0.000000 0.000000
# 2 -0.002039 0.011995 -0.004163 0.000000 0.000000 0.000000
# 3 -0.001156 -0.004163 0.009442 0.000000 0.000000 0.000000
# 4 0.000000 0.000000 0.000000 0.236679 0.000000 0.000000
# 5 0.000000 0.000000 0.000000 0.000000 -0.025251 0.000000
# 6 0.000000 0.000000 0.000000 0.000000 0.000000 0.040183
#
#
# Mechanical properties :
#
#
# Convention : Reuss Voigt Hill
#
# Bulk Modulus (GPa) = 48.53906 53.14863 50.84385
# Shear Modulus (GPa) = 16.20686 12.83239 14.51962
#
# Velocity S-wave (km/s) = 2.91149 2.59072 2.75577
# Velocity P-wave (km/s) = 6.05723 6.06199 6.05961
#
# Compressibility (1/GPa) = 0.02060196
#
# Stress axis : x y z
#
# Youngs Moduli (GPa) = 72.04744 83.36750 105.90501
#
# Poissons Ratio (x) = 0.16997 0.12242
# Poissons Ratio (y) = 0.14689 0.44087
# Poissons Ratio (z) = 0.08328 0.34705
#
# Static dielectric constant tensor:
#      x y z
#    x 1.661780 0.000000 0.000000 
#    y 0.000000 1.749440 0.000000 
#    z 0.000000 0.000000 1.675660 
# 
# From -- ./inp_files/19073.got.cif
#   From: 2010.05.17/outbox.cif.g08.bks.cpg/sg55_10_cif.got.tgz:19073.got - 2010.06.03 13:27:54.
