data_PCOD9428530
_publ_section_title
;
Structure prediction by ZEFSAII (Michael W. Deem and Ramdas Pophale) SiO2 
 PCOD9428530
Probable space group: P B A M
;
_chemical_formula_sum "Si O2"
_cell_formula_units_Z 30
_cell_length_a 12.635601
_cell_length_b 8.534146
_cell_length_c 12.800603
_cell_angle_alpha 90.000000
_cell_angle_beta 90.000000
_cell_angle_gamma 90.000000
_cell_volume 1380.341040
_symmetry_space_group_name_H-M "P B A M"
_symmetry_group_IT_number 55
_symmetry_cell_setting 'orthorhombic'
loop_
_space_group_symop_operation_xyz
x,y,z
-x,-y,z
1/2+x,1/2-y,-z
1/2-x,1/2+y,-z
-x,-y,-z
x,y,-z
1/2-x,1/2+y,z
1/2+x,1/2-y,z
loop_
_atom_site_type_symbol
_atom_site_label
_atom_site_fract_x
_atom_site_fract_y
_atom_site_fract_z
Si Si1 0.315331 0.966733 0.500000
Si Si2 0.500000 0.000000 0.000000
Si Si3 0.976261 0.257110 0.500000
Si Si4 0.606047 0.938078 0.210010
Si Si5 0.000000 0.000000 0.677866
Si Si6 0.206747 0.885400 0.280150
O O1 0.369740 0.138543 0.500000
O O2 0.417599 0.857547 0.500000
O O3 0.246891 0.929395 0.397082
O O4 0.435761 0.092951 0.905998
O O5 0.985620 0.146747 0.601069
O O6 0.663607 0.788719 0.259796
O O7 0.500000 0.000000 0.269681
O O8 0.692000 0.075948 0.210000
O O9 0.892267 0.999559 0.742362
#
# Coordination Sequence:
#
# PCOD9428530 Si02
#       6
#     4   2   4   8   4   8
#     4  11  24  39  65 101 142 205 246 298 367 443
#     4   8  24  52  76 110 140 184 260 332 396 450
#     4  10  22  38  60  87 145 193 255 301 345 417
#     4  10  26  48  74 106 142 190 255 322 385 456
#     4  11  24  38  58 101 138 194 252 297 350 443
#     4  12  25  42  71 104 151 198 249 312 377 457
#
# _framework density 21.73376
#
# number of rings (size 3 to 8) (size 9 to 14) (size 15 to 20)
#    0.800    0.533    0.000    4.800   11.200    4.267 
#    0.000    0.667    0.000    3.200    0.000    0.000 
#    0.000    0.000    0.000    0.000    0.000    0.000 
#
# Total GULP energy -167054.321945 kJ/mol
# GULP energy per Si atom -5568.477398 kJ/mol
# Density = 2.168429 g / cm^3
# Si number density = 21.733760 Si / 1000 Ang^3
#
#
#
# Elastic Constant Matrix: (Units=GPa)
#
#
# Indices 1 2 3 4 5 6 
#
# 1 173.2115 67.3287 11.7460 0.0000 0.0000 0.0000
# 2 67.3287 132.8730 19.7330 0.0000 0.0000 0.0000
# 3 11.7460 19.7330 62.3314 0.0000 0.0000 0.0000
# 4 0.0000 0.0000 0.0000 4.6090 0.0000 0.0000
# 5 0.0000 0.0000 0.0000 0.0000 19.2733 0.0000
# 6 0.0000 0.0000 0.0000 0.0000 0.0000 49.0093
#
#
#
# Elastic Compliance Matrix: (Units=1/GPa)
#
#
# Indices 1 2 3 4 5 6 
#
# 1 0.007192 -0.003613 -0.000212 0.000000 0.000000 0.000000
# 2 -0.003613 0.009712 -0.002394 0.000000 0.000000 0.000000
# 3 -0.000212 -0.002394 0.016841 0.000000 0.000000 0.000000
# 4 0.000000 0.000000 0.000000 0.216965 0.000000 0.000000
# 5 0.000000 0.000000 0.000000 0.000000 0.051885 0.000000
# 6 0.000000 0.000000 0.000000 0.000000 0.000000 0.020404
#
#
# Mechanical properties :
#
#
# Convention : Reuss Voigt Hill
#
# Bulk Modulus (GPa) = 46.92932 62.89234 54.91083
# Shear Modulus (GPa) = 14.59686 32.55220 23.57453
#
# Velocity S-wave (km/s) = 2.59438 3.87430 3.29705
# Velocity P-wave (km/s) = 5.53300 7.00101 6.30984
#
# Compressibility (1/GPa) = 0.02130864
#
# Stress axis : x y z
#
# Youngs Moduli (GPa) = 139.04369 102.96331 59.37889
#
# Poissons Ratio (x) = 0.37199 0.01256
# Poissons Ratio (y) = 0.50235 0.14215
# Poissons Ratio (z) = 0.02941 0.24648
#
# Static dielectric constant tensor:
#      x y z
#    x 1.900600 0.000000 0.000000 
#    y 0.000000 1.862240 0.000000 
#    z 0.000000 0.000000 1.791240 
# 
# From -- ./inp_files/18036.got.cif
#   From: 2010.05.17/outbox.cif.g08.bks.cpg/sg55_10_cif.got.tgz:18036.got - 2010.06.03 13:27:54.
