data_PCOD9428488
_publ_section_title
;
Structure prediction by ZEFSAII (Michael W. Deem and Ramdas Pophale) SiO2 
 PCOD9428488
Probable space group: P B A M
;
_chemical_formula_sum "Si O2"
_cell_formula_units_Z 64
_cell_length_a 11.385752
_cell_length_b 33.121178
_cell_length_c 7.842976
_cell_angle_alpha 90.000000
_cell_angle_beta 90.000000
_cell_angle_gamma 90.000000
_cell_volume 2957.660904
_symmetry_space_group_name_H-M "P B A M"
_symmetry_group_IT_number 55
_symmetry_cell_setting 'orthorhombic'
loop_
_space_group_symop_operation_xyz
x,y,z
-x,-y,z
1/2+x,1/2-y,-z
1/2-x,1/2+y,-z
-x,-y,-z
x,y,-z
1/2-x,1/2+y,z
1/2+x,1/2-y,z
loop_
_atom_site_type_symbol
_atom_site_label
_atom_site_fract_x
_atom_site_fract_y
_atom_site_fract_z
Si Si1 0.742700 0.678545 0.795244
Si Si2 0.410530 0.886709 0.697318
Si Si3 0.883280 0.522741 0.803232
Si Si4 0.713093 0.266060 0.796752
Si Si5 0.867901 0.987443 0.295372
Si Si6 0.821838 0.898614 0.301187
Si Si7 0.973740 0.830349 0.204574
Si Si8 0.628110 0.834920 0.706339
O O1 0.791045 0.638046 0.713010
O O2 0.795550 0.720747 0.729536
O O3 0.605282 0.681969 0.763004
O O4 0.760594 0.675326 0.000000
O O5 0.438416 0.895374 0.500000
O O6 0.407027 0.929507 0.788430
O O7 0.505627 0.854114 0.762376
O O8 0.751528 0.513433 0.733802
O O9 0.000000 0.500000 0.728189
O O10 0.877448 0.510213 0.000000
O O11 0.614474 0.296253 0.727556
O O12 0.834194 0.290639 0.767853
O O13 0.697875 0.262792 0.000000
O O14 0.880325 0.984637 0.500000
O O15 0.835834 0.942843 0.225849
O O16 0.000000 0.000000 0.233023
O O17 0.791325 0.903787 0.500000
O O18 0.940834 0.873300 0.283329
O O19 0.723973 0.867933 0.230530
O O20 0.957512 0.833785 0.000000
O O21 0.630753 0.833271 0.500000
#
# Coordination Sequence:
#
# PCOD9428488 Si02
#       8
#     8   8   8   8   8   8   8   8
#     4  10  22  37  56  83 117 154 194 243 294 349
#     4  11  24  40  61  88 120 157 198 245 301 358
#     4  11  25  44  66  94 126 161 204 255 312 372
#     4   9  19  35  58  83 111 152 196 238 288 347
#     4  10  22  39  62  92 124 161 204 249 302 367
#     4   9  18  35  58  82 112 149 189 235 286 344
#     4   9  19  35  54  81 113 148 190 235 288 346
#     4   9  19  36  57  83 113 149 194 242 289 341
#
# _framework density 21.638722000000001
#
# number of rings (size 3 to 8) (size 9 to 14) (size 15 to 20)
#    0.000    2.250    0.000    1.500    3.500    4.750 
#    0.000    2.500    0.000    0.000    0.000    0.000 
#    0.000    0.000    0.000    0.000    0.000    0.000 
#
# Total GULP energy -356901.397779 kJ/mol
# GULP energy per Si atom -5576.584340 kJ/mol
# Density = 2.158947 g / cm^3
# Si number density = 21.638722 Si / 1000 Ang^3
#
#
#
# Elastic Constant Matrix: (Units=GPa)
#
#
# Indices 1 2 3 4 5 6 
#
# 1 64.2541 10.7812 7.0814 0.0000 0.0000 0.0000
# 2 10.7812 94.9941 -6.1753 0.0000 0.0000 0.0000
# 3 7.0814 -6.1753 13.9354 0.0000 0.0000 0.0000
# 4 0.0000 0.0000 0.0000 20.0854 0.0000 0.0000
# 5 0.0000 0.0000 0.0000 0.0000 21.8901 0.0000
# 6 0.0000 0.0000 0.0000 0.0000 0.0000 18.1028
#
#
#
# Elastic Compliance Matrix: (Units=1/GPa)
#
#
# Indices 1 2 3 4 5 6 
#
# 1 0.017078 -0.002577 -0.009820 0.000000 0.000000 0.000000
# 2 -0.002577 0.011228 0.006285 0.000000 0.000000 0.000000
# 3 -0.009820 0.006285 0.079535 0.000000 0.000000 0.000000
# 4 0.000000 0.000000 0.000000 0.049787 0.000000 0.000000
# 5 0.000000 0.000000 0.000000 0.000000 0.045683 0.000000
# 6 0.000000 0.000000 0.000000 0.000000 0.000000 0.055240
#
#
# Mechanical properties :
#
#
# Convention : Reuss Voigt Hill
#
# Bulk Modulus (GPa) = 10.45838 21.83981 16.14910
# Shear Modulus (GPa) = 16.52090 22.78208 19.65149
#
# Velocity S-wave (km/s) = 2.76613 3.24827 3.01684
# Velocity P-wave (km/s) = 3.87887 4.91764 4.42881
#
# Compressibility (1/GPa) = 0.09561709
#
# Stress axis : x y z
#
# Youngs Moduli (GPa) = 58.55556 89.06341 12.57309
#
# Poissons Ratio (x) = 0.22948 0.12347
# Poissons Ratio (y) = 0.15087 -0.07902
# Poissons Ratio (z) = 0.57502 -0.55975
#
# Static dielectric constant tensor:
#      x y z
#    x 1.838800 0.000000 0.000000 
#    y 0.000000 1.771450 0.000000 
#    z 0.000000 0.000000 1.805600 
# 
# From -- ./inp_files/4629.got.cif
#   From: 2010.05.17/outbox.cif.g08.bks.cpg/sg55_3_cif.got.tgz:4629.got - 2010.06.03 13:27:54.
