data_PCOD9428397
_publ_section_title
;
Structure prediction by ZEFSAII (Michael W. Deem and Ramdas Pophale) SiO2 
 PCOD9428397
Probable space group: P B A M
;
_chemical_formula_sum "Si O2"
_cell_formula_units_Z 32
_cell_length_a 10.564858
_cell_length_b 19.518992
_cell_length_c 7.349729
_cell_angle_alpha 90.000000
_cell_angle_beta 90.000000
_cell_angle_gamma 90.000000
_cell_volume 1515.627150
_symmetry_space_group_name_H-M "P B A M"
_symmetry_group_IT_number 55
_symmetry_cell_setting 'orthorhombic'
loop_
_space_group_symop_operation_xyz
x,y,z
-x,-y,z
1/2+x,1/2-y,-z
1/2-x,1/2+y,-z
-x,-y,-z
x,y,-z
1/2-x,1/2+y,z
1/2+x,1/2-y,z
loop_
_atom_site_type_symbol
_atom_site_label
_atom_site_fract_x
_atom_site_fract_y
_atom_site_fract_z
Si Si1 0.958084 0.182900 0.000000
Si Si2 0.458121 0.578032 0.283523
Si Si3 0.402492 0.899353 0.280827
Si Si4 0.678078 0.949050 0.279947
Si Si5 0.316340 0.788499 0.000000
O O1 0.961365 0.132535 0.173140
O O2 0.084760 0.227300 0.000000
O O3 0.831998 0.228307 0.000000
O O4 0.500000 0.500000 0.248071
O O5 0.468266 0.589444 0.500000
O O6 0.311211 0.582361 0.223921
O O7 0.393932 0.892095 0.500000
O O8 0.550213 0.909857 0.228674
O O9 0.335749 0.971159 0.227761
O O10 0.345246 0.836168 0.174327
O O11 0.679016 0.949801 0.500000
#
# Coordination Sequence:
#
# PCOD9428397 Si02
#       5
#     4   8   8   8   4
#     4  12  29  44  60  91 127 165 215 251 296 372
#     4  10  21  40  68  95 123 157 203 263 320 360
#     4   9  19  38  63  92 127 157 198 253 304 364
#     4   8  16  33  64 100 121 151 201 253 310 363
#     4  12  28  43  60  86 121 173 211 240 300 369
#
# _framework density 21.113372999999999
#
# number of rings (size 3 to 8) (size 9 to 14) (size 15 to 20)
#    0.000    2.250    0.000    3.375    3.500    7.000 
#    0.000    0.000    0.000    0.000    0.000    0.000 
#    0.000    0.000    0.000    0.000    0.000    0.000 
#
# Total GULP energy -178889.090759 kJ/mol
# GULP energy per Si atom -5590.284086 kJ/mol
# Density = 2.106532 g / cm^3
# Si number density = 21.113373 Si / 1000 Ang^3
#
#
#
# Elastic Constant Matrix: (Units=GPa)
#
#
# Indices 1 2 3 4 5 6 
#
# 1 112.8987 37.3207 24.2579 0.0000 0.0000 0.0000
# 2 37.3207 60.6352 30.0706 0.0000 0.0000 0.0000
# 3 24.2579 30.0706 89.2331 0.0000 0.0000 0.0000
# 4 0.0000 0.0000 0.0000 -156.7890 0.0000 0.0000
# 5 0.0000 0.0000 0.0000 0.0000 30.0839 0.0000
# 6 0.0000 0.0000 0.0000 0.0000 0.0000 31.8733
#
#
#
# Elastic Compliance Matrix: (Units=1/GPa)
#
#
# Indices 1 2 3 4 5 6 
#
# 1 0.011175 -0.006450 -0.000865 0.000000 0.000000 0.000000
# 2 -0.006450 0.023524 -0.006174 0.000000 0.000000 0.000000
# 3 -0.000865 -0.006174 0.013522 0.000000 0.000000 0.000000
# 4 0.000000 0.000000 0.000000 -0.006378 0.000000 0.000000
# 5 0.000000 0.000000 0.000000 0.000000 0.033240 0.000000
# 6 0.000000 0.000000 0.000000 0.000000 0.000000 0.031374
#
#
# Mechanical properties :
#
#
# Convention : Reuss Voigt Hill
#
# Bulk Modulus (GPa) = 47.06995 49.56284 48.31639
# Shear Modulus (GPa) = 35.58334 -7.55849 14.01242
#
# Velocity S-wave (km/s) = 4.10975 -1.89413 2.57898
# Velocity P-wave (km/s) = 6.69794 4.32920 5.63934
#
# Compressibility (1/GPa) = 0.02124498
#
# Stress axis : x y z
#
# Youngs Moduli (GPa) = 89.48312 42.51062 73.95271
#
# Poissons Ratio (x) = 0.27418 0.06394
# Poissons Ratio (y) = 0.57713 0.45657
# Poissons Ratio (z) = 0.07736 0.26245
#
# Static dielectric constant tensor:
#      x y z
#    x 1.801160 0.000000 0.000000 
#    y 0.000000 1.710140 0.000000 
#    z 0.000000 0.000000 1.762300 
# 
# From -- ./inp_files/3537.got.cif
#   From: 2010.05.17/outbox.cif.g08.bks.cpg/sg55_2_cif.got.tgz:3537.got - 2010.06.03 13:27:54.
