data_PCOD9428819
_publ_section_title
;
Structure prediction by ZEFSAII (Michael W. Deem and Ramdas Pophale) SiO2 
 PCOD9428819
Probable space group: P B A M
;
_chemical_formula_sum "Si O2"
_cell_formula_units_Z 38
_cell_length_a 4.970486
_cell_length_b 18.653437
_cell_length_c 16.608844
_cell_angle_alpha 90.000000
_cell_angle_beta 90.000000
_cell_angle_gamma 90.000000
_cell_volume 1539.916334
_symmetry_space_group_name_H-M "P B A M"
_symmetry_group_IT_number 55
_symmetry_cell_setting 'orthorhombic'
loop_
_space_group_symop_operation_xyz
x,y,z
-x,-y,z
1/2+x,1/2-y,-z
1/2-x,1/2+y,-z
-x,-y,-z
x,y,-z
1/2-x,1/2+y,z
1/2+x,1/2-y,z
loop_
_atom_site_type_symbol
_atom_site_label
_atom_site_fract_x
_atom_site_fract_y
_atom_site_fract_z
Si Si1 0.500000 0.000000 0.220609
Si Si2 0.095054 0.794117 0.326508
Si Si3 0.687552 0.441225 0.630356
Si Si4 0.384978 0.292970 0.132127
Si Si5 0.000000 0.500000 0.500000
Si Si6 0.702157 0.433167 0.090738
O O1 0.272357 0.022533 0.285032
O O2 0.444104 0.063404 0.155735
O O3 0.893968 0.729369 0.349620
O O4 0.970156 0.867907 0.357628
O O5 0.098943 0.799878 0.229194
O O6 0.500000 0.500000 0.587042
O O7 0.939916 0.439645 0.571462
O O8 0.084160 0.272373 0.108754
O O9 0.519122 0.363539 0.097936
O O10 0.500000 0.500000 0.108046
O O11 0.804194 0.439094 0.000000
#
# Coordination Sequence:
#
# PCOD9428819 Si02
#       6
#     4   8   8   8   2   8
#     4  11  23  39  69  96 126 180 235 283 349 407
#     4  10  23  40  67 102 137 180 233 288 342 408
#     4  11  24  43  74 101 140 178 231 281 343 417
#     4  10  23  41  65  94 134 180 234 287 347 418
#     4  10  26  44  70 106 138 176 218 274 342 412
#     4  11  25  41  62  96 138 180 235 297 350 407
#
# _framework density 24.676663999999999
#
# number of rings (size 3 to 8) (size 9 to 14) (size 15 to 20)
#    0.000    1.474    2.105    1.263    8.842    0.842 
#    0.000    1.053    0.000    0.000    0.000    0.000 
#    0.000    0.000    0.000    0.000    0.000    0.000 
#
# Total GULP energy -211780.426129 kJ/mol
# GULP energy per Si atom -5573.169109 kJ/mol
# Density = 2.462050 g / cm^3
# Si number density = 24.676664 Si / 1000 Ang^3
#
#
#
# Elastic Constant Matrix: (Units=GPa)
#
#
# Indices 1 2 3 4 5 6 
#
# 1 65.8853 1.0018 19.5950 0.0000 0.0000 0.0000
# 2 1.0018 96.0345 11.9355 0.0000 0.0000 0.0000
# 3 19.5950 11.9355 127.2972 0.0000 0.0000 0.0000
# 4 0.0000 0.0000 0.0000 20.6180 0.0000 0.0000
# 5 0.0000 0.0000 0.0000 0.0000 -6.9687 0.0000
# 6 0.0000 0.0000 0.0000 0.0000 0.0000 40.4250
#
#
#
# Elastic Compliance Matrix: (Units=1/GPa)
#
#
# Indices 1 2 3 4 5 6 
#
# 1 0.015908 0.000140 -0.002462 0.000000 0.000000 0.000000
# 2 0.000140 0.010537 -0.001010 0.000000 0.000000 0.000000
# 3 -0.002462 -0.001010 0.008329 0.000000 0.000000 0.000000
# 4 0.000000 0.000000 0.000000 0.048501 0.000000 0.000000
# 5 0.000000 0.000000 0.000000 0.000000 -0.143499 0.000000
# 6 0.000000 0.000000 0.000000 0.000000 0.000000 0.024737
#
#
# Mechanical properties :
#
#
# Convention : Reuss Voigt Hill
#
# Bulk Modulus (GPa) = 35.57271 39.36462 37.46867
# Shear Modulus (GPa) = -257.02402 27.92717 -114.54843
#
# Velocity S-wave (km/s) = -10.21679 3.36776 -6.82059
# Velocity P-wave (km/s) = 11.16827 5.57756 6.84182
#
# Compressibility (1/GPa) = 0.02811143
#
# Stress axis : x y z
#
# Youngs Moduli (GPa) = 62.86165 94.90436 120.05889
#
# Poissons Ratio (x) = -0.01329 0.29557
# Poissons Ratio (y) = -0.00880 0.12120
# Poissons Ratio (z) = 0.15476 0.09581
#
# Static dielectric constant tensor:
#      x y z
#    x 2.277180 0.000000 0.000000 
#    y 0.000000 1.965300 0.000000 
#    z 0.000000 0.000000 1.930950 
# 
# From -- ./inp_files/20354.got.cif
#   From: 2010.05.17/outbox.cif.g08.bks.cpg/sg55_11_cif.got.tgz:20354.got - 2010.06.03 13:27:54.
