data_PCOD9428035
_publ_section_title
;
Structure prediction by ZEFSAII (Michael W. Deem and Ramdas Pophale) SiO2 
 PCOD9428035
Probable space group: P B A M
;
_chemical_formula_sum "Si O2"
_cell_formula_units_Z 64
_cell_length_a 29.680251
_cell_length_b 13.187339
_cell_length_c 8.663590
_cell_angle_alpha 90.000000
_cell_angle_beta 90.000000
_cell_angle_gamma 90.000000
_cell_volume 3390.959722
_symmetry_space_group_name_H-M "P B A M"
_symmetry_group_IT_number 55
_symmetry_cell_setting 'orthorhombic'
loop_
_space_group_symop_operation_xyz
x,y,z
-x,-y,z
1/2+x,1/2-y,-z
1/2-x,1/2+y,-z
-x,-y,-z
x,y,-z
1/2-x,1/2+y,z
1/2+x,1/2-y,z
loop_
_atom_site_type_symbol
_atom_site_label
_atom_site_fract_x
_atom_site_fract_y
_atom_site_fract_z
Si Si1 0.148177 0.514256 0.314741
Si Si2 0.546724 0.376107 0.312640
Si Si3 0.383967 0.792219 0.686404
Si Si4 0.626012 0.770562 0.818082
Si Si5 0.942067 0.103263 0.313268
Si Si6 0.250805 0.018751 0.177026
Si Si7 0.709509 0.260150 0.177185
Si Si8 0.791155 0.157218 0.677427
O O1 0.152730 0.515577 0.500000
O O2 0.121276 0.411284 0.269994
O O3 0.124952 0.618750 0.260768
O O4 0.198456 0.511697 0.242342
O O5 0.547653 0.377185 0.500000
O O6 0.573715 0.276176 0.261768
O O7 0.567072 0.485936 0.264898
O O8 0.494083 0.375142 0.269784
O O9 0.382895 0.789607 0.500000
O O10 0.340022 0.737989 0.754242
O O11 0.590208 0.688578 0.756014
O O12 0.674469 0.721005 0.779350
O O13 0.621111 0.783665 0.000000
O O14 0.938385 0.107423 0.500000
O O15 0.234814 0.133649 0.177542
O O16 0.213102 0.958983 0.274203
O O17 0.250026 0.982313 0.000000
O O18 0.740464 0.191806 0.286011
O O19 0.707583 0.224296 0.000000
O O20 0.803247 0.171405 0.500000
#
# Coordination Sequence:
#
# PCOD9428035 Si02
#       8
#     8   8   8   8   8   8   8   8
#     4  11  22  37  58  83 115 157 204 243 288 345
#     4   8  17  37  65  93 119 146 185 239 295 352
#     4  10  21  37  59  88 117 151 196 243 289 347
#     4  12  25  40  58  84 119 156 198 247 300 353
#     4   9  18  38  66  92 117 149 188 235 296 360
#     4  11  23  38  55  79 118 158 195 241 297 345
#     4  11  23  37  55  81 116 156 194 237 290 346
#     4  12  24  38  58  82 112 154 203 246 287 344
#
# _framework density 18.873712000000001
#
# number of rings (size 3 to 8) (size 9 to 14) (size 15 to 20)
#    0.000    1.500    2.500    4.125    1.750    2.000 
#    0.000    2.500    0.000    3.750    0.000    0.000 
#    0.000    0.000    0.000    0.000    0.000    0.000 
#
# Total GULP energy -357121.157032 kJ/mol
# GULP energy per Si atom -5580.018079 kJ/mol
# Density = 1.883075 g / cm^3
# Si number density = 18.873712 Si / 1000 Ang^3
#
#
#
# Elastic Constant Matrix: (Units=GPa)
#
#
# Indices 1 2 3 4 5 6 
#
# 1 57.4051 33.0027 3.0372 0.0000 0.0000 0.0000
# 2 33.0027 94.6056 10.2128 0.0000 0.0000 0.0000
# 3 3.0372 10.2128 41.1747 0.0000 0.0000 0.0000
# 4 0.0000 0.0000 0.0000 -25.6981 0.0000 0.0000
# 5 0.0000 0.0000 0.0000 0.0000 522.2521 0.0000
# 6 0.0000 0.0000 0.0000 0.0000 0.0000 34.8162
#
#
#
# Elastic Compliance Matrix: (Units=1/GPa)
#
#
# Indices 1 2 3 4 5 6 
#
# 1 0.021793 -0.007633 0.000286 0.000000 0.000000 0.000000
# 2 -0.007633 0.013535 -0.002794 0.000000 0.000000 0.000000
# 3 0.000286 -0.002794 0.024959 0.000000 0.000000 0.000000
# 4 0.000000 0.000000 0.000000 -0.038913 0.000000 0.000000
# 5 0.000000 0.000000 0.000000 0.000000 0.001915 0.000000
# 6 0.000000 0.000000 0.000000 0.000000 0.000000 0.028722
#
#
# Mechanical properties :
#
#
# Convention : Reuss Voigt Hill
#
# Bulk Modulus (GPa) = 24.99778 31.74343 28.37061
# Shear Modulus (GPa) = 58.39202 116.06956 87.23079
#
# Velocity S-wave (km/s) = 5.56825 7.85057 6.80577
# Velocity P-wave (km/s) = 7.39014 9.95142 8.76484
#
# Compressibility (1/GPa) = 0.04000355
#
# Stress axis : x y z
#
# Youngs Moduli (GPa) = 45.88540 73.88431 40.06623
#
# Poissons Ratio (x) = 0.56399 -0.01145
# Poissons Ratio (y) = 0.35026 0.11194
# Poissons Ratio (z) = -0.01311 0.20643
#
# Static dielectric constant tensor:
#      x y z
#    x 1.624110 0.000000 0.000000 
#    y 0.000000 1.713480 0.000000 
#    z 0.000000 0.000000 1.642170 
# 
# From -- ./inp_files/10735.got.cif
#   From: 2010.05.17/outbox.cif.g08.bks.cpg/sg55_6_cif.got.tgz:10735.got - 2010.06.03 13:27:54.
