data_PCOD9428878
_publ_section_title
;
Structure prediction by ZEFSAII (Michael W. Deem and Ramdas Pophale) SiO2 
 PCOD9428878
Probable space group: P B A M
;
_chemical_formula_sum "Si O2"
_cell_formula_units_Z 38
_cell_length_a 11.411899
_cell_length_b 9.450538
_cell_length_c 16.721452
_cell_angle_alpha 90.000000
_cell_angle_beta 90.000000
_cell_angle_gamma 90.000000
_cell_volume 1803.384940
_symmetry_space_group_name_H-M "P B A M"
_symmetry_group_IT_number 55
_symmetry_cell_setting 'orthorhombic'
loop_
_space_group_symop_operation_xyz
x,y,z
-x,-y,z
1/2+x,1/2-y,-z
1/2-x,1/2+y,-z
-x,-y,-z
x,y,-z
1/2-x,1/2+y,z
1/2+x,1/2-y,z
loop_
_atom_site_type_symbol
_atom_site_label
_atom_site_fract_x
_atom_site_fract_y
_atom_site_fract_z
Si Si1 0.813340 0.812126 0.594232
Si Si2 0.500000 0.500000 0.687835
Si Si3 0.362297 0.982638 0.328591
Si Si4 0.000000 0.500000 0.000000
Si Si5 0.720993 0.875176 0.912891
Si Si6 0.309081 0.397759 0.807491
O O1 0.806892 0.836696 0.500000
O O2 0.829235 0.647087 0.612826
O O3 0.699571 0.876384 0.638118
O O4 0.920695 0.898242 0.633766
O O5 0.415921 0.410939 0.746278
O O6 0.304612 0.938601 0.244646
O O7 0.500000 0.000000 0.323455
O O8 0.098635 0.546575 0.932096
O O9 0.703024 0.751753 0.849566
O O10 0.813895 0.984956 0.877150
O O11 0.761192 0.817050 0.000000
#
# Coordination Sequence:
#
# PCOD9428878 Si02
#       6
#     8   4   8   2   8   8
#     4  11  25  46  70 104 144 186 242 299 359 436
#     4  10  25  42  69 104 136 198 232 294 363 422
#     4  11  27  45  73 106 141 193 242 294 373 426
#     4   8  24  36  68  96 134 174 226 276 358 412
#     4  10  23  44  66 103 131 182 229 282 356 410
#     4  11  23  44  69  99 144 180 237 293 346 435
#
# _framework density 21.071486
#
# number of rings (size 3 to 8) (size 9 to 14) (size 15 to 20)
#    0.632    0.842    0.000    4.105   10.316    3.368 
#    0.000    1.053    0.000    0.000    0.000    0.000 
#    0.000    0.000    0.000    0.000    0.000    0.000 
#
# Total GULP energy -211968.817255 kJ/mol
# GULP energy per Si atom -5578.126770 kJ/mol
# Density = 2.102353 g / cm^3
# Si number density = 21.071486 Si / 1000 Ang^3
#
#
#
# Elastic Constant Matrix: (Units=GPa)
#
#
# Indices 1 2 3 4 5 6 
#
# 1 120.3842 19.5083 42.0058 0.0000 0.0000 0.0000
# 2 19.5083 50.2381 13.8489 0.0000 0.0000 0.0000
# 3 42.0058 13.8489 122.5995 0.0000 0.0000 0.0000
# 4 0.0000 0.0000 0.0000 28.9049 0.0000 0.0000
# 5 0.0000 0.0000 0.0000 0.0000 2.3539 0.0000
# 6 0.0000 0.0000 0.0000 0.0000 0.0000 10.9528
#
#
#
# Elastic Compliance Matrix: (Units=1/GPa)
#
#
# Indices 1 2 3 4 5 6 
#
# 1 0.009851 -0.002988 -0.003038 0.000000 0.000000 0.000000
# 2 -0.002988 0.021451 -0.001399 0.000000 0.000000 0.000000
# 3 -0.003038 -0.001399 0.009356 0.000000 0.000000 0.000000
# 4 0.000000 0.000000 0.000000 0.034596 0.000000 0.000000
# 5 0.000000 0.000000 0.000000 0.000000 0.424825 0.000000
# 6 0.000000 0.000000 0.000000 0.000000 0.000000 0.091301
#
#
# Mechanical properties :
#
#
# Convention : Reuss Voigt Hill
#
# Bulk Modulus (GPa) = 38.74812 49.32754 44.03783
# Shear Modulus (GPa) = 8.13230 22.96623 15.54926
#
# Velocity S-wave (km/s) = 1.96666 3.30497 2.71943
# Velocity P-wave (km/s) = 4.85652 6.16638 5.55023
#
# Compressibility (1/GPa) = 0.02580770
#
# Stress axis : x y z
#
# Youngs Moduli (GPa) = 101.51408 46.61736 106.88896
#
# Poissons Ratio (x) = 0.13929 0.32469
# Poissons Ratio (y) = 0.30331 0.14958
# Poissons Ratio (z) = 0.30836 0.06524
#
# Static dielectric constant tensor:
#      x y z
#    x 1.731710 0.000000 0.000000 
#    y 0.000000 1.791200 0.000000 
#    z 0.000000 0.000000 1.766060 
# 
# From -- ./inp_files/21197.got.cif
#   From: 2010.05.17/outbox.cif.g08.bks.cpg/sg55_11_cif.got.tgz:21197.got - 2010.06.03 13:27:54.
