data_PCOD9428019
_publ_section_title
;
Structure prediction by ZEFSAII (Michael W. Deem and Ramdas Pophale) SiO2 
 PCOD9428019
Probable space group: P B A M
;
_chemical_formula_sum "Si O2"
_cell_formula_units_Z 58
_cell_length_a 9.102657
_cell_length_b 25.717995
_cell_length_c 12.875426
_cell_angle_alpha 90.000000
_cell_angle_beta 90.000000
_cell_angle_gamma 90.000000
_cell_volume 3014.164100
_symmetry_space_group_name_H-M "P B A M"
_symmetry_group_IT_number 55
_symmetry_cell_setting 'orthorhombic'
loop_
_space_group_symop_operation_xyz
x,y,z
-x,-y,z
1/2+x,1/2-y,-z
1/2-x,1/2+y,-z
-x,-y,-z
x,y,-z
1/2-x,1/2+y,z
1/2+x,1/2-y,z
loop_
_atom_site_type_symbol
_atom_site_label
_atom_site_fract_x
_atom_site_fract_y
_atom_site_fract_z
Si Si1 0.000000 0.500000 0.500000
Si Si2 0.669246 0.690731 0.189824
Si Si3 0.295993 0.108611 0.120087
Si Si4 0.854333 0.780994 0.880973
Si Si5 0.925000 0.129317 0.617281
Si Si6 0.858815 0.592458 0.881358
Si Si7 0.680718 0.047140 0.338210
Si Si8 0.374280 0.540941 0.284072
O O1 0.038745 0.457637 0.592268
O O2 0.528128 0.710829 0.127390
O O3 0.791417 0.735366 0.190230
O O4 0.602800 0.674898 0.301057
O O5 0.744842 0.639484 0.139940
O O6 0.224441 0.164482 0.143908
O O7 0.472349 0.111152 0.128729
O O8 0.223578 0.065739 0.193783
O O9 0.261152 0.096588 0.000000
O O10 0.817497 0.766867 0.000000
O O11 0.955146 0.145563 0.500000
O O12 0.776764 0.095213 0.623752
O O13 0.047359 0.088795 0.658393
O O14 0.838475 0.552725 0.785680
O O15 0.838806 0.573037 0.000000
O O16 0.774282 0.994655 0.358499
O O17 0.500000 0.500000 0.246441
#
# Coordination Sequence:
#
# PCOD9428019 Si02
#       8
#     2   8   8   8   8   8   8   8
#     4  12  20  36  52  88 120 156 216 264 300 356
#     4  11  22  39  64  93 122 160 203 254 310 372
#     4  10  21  37  58  89 128 166 207 252 304 373
#     4  11  21  36  61  92 121 157 204 250 302 372
#     4  10  21  41  62  86 119 160 207 259 309 363
#     4  10  21  39  59  87 130 168 202 254 318 375
#     4  10  22  34  60  88 120 163 210 258 305 366
#     4  10  21  38  59  90 121 164 212 261 311 364
#
# _framework density 19.242481999999999
#
# number of rings (size 3 to 8) (size 9 to 14) (size 15 to 20)
#    0.000    1.655    2.069    2.897    0.966    2.759 
#    0.000    2.414    0.000    0.000    0.000    0.000 
#    0.000    0.000    0.000    0.000    0.000    0.000 
#
# Total GULP energy -323104.125821 kJ/mol
# GULP energy per Si atom -5570.760790 kJ/mol
# Density = 1.919869 g / cm^3
# Si number density = 19.242482 Si / 1000 Ang^3
#
#
#
# Elastic Constant Matrix: (Units=GPa)
#
#
# Indices 1 2 3 4 5 6 
#
# 1 70.1463 18.4364 18.2607 0.0000 0.0000 0.0000
# 2 18.4364 56.5303 39.1676 0.0000 0.0000 0.0000
# 3 18.2607 39.1676 115.0976 0.0000 0.0000 0.0000
# 4 0.0000 0.0000 0.0000 9.4520 0.0000 0.0000
# 5 0.0000 0.0000 0.0000 0.0000 903.4997 0.0000
# 6 0.0000 0.0000 0.0000 0.0000 0.0000 34.5229
#
#
#
# Elastic Compliance Matrix: (Units=1/GPa)
#
#
# Indices 1 2 3 4 5 6 
#
# 1 0.015676 -0.004435 -0.000978 0.000000 0.000000 0.000000
# 2 -0.004435 0.024402 -0.007600 0.000000 0.000000 0.000000
# 3 -0.000978 -0.007600 0.011430 0.000000 0.000000 0.000000
# 4 0.000000 0.000000 0.000000 0.105798 0.000000 0.000000
# 5 0.000000 0.000000 0.000000 0.000000 0.001107 0.000000
# 6 0.000000 0.000000 0.000000 0.000000 0.000000 0.028966
#
#
# Mechanical properties :
#
#
# Convention : Reuss Voigt Hill
#
# Bulk Modulus (GPa) = 39.24409 43.72263 41.48336
# Shear Modulus (GPa) = 22.53278 200.55556 111.54417
#
# Velocity S-wave (km/s) = 3.42569 10.22016 7.62191
# Velocity P-wave (km/s) = 6.00715 12.72950 9.95304
#
# Compressibility (1/GPa) = 0.02548155
#
# Stress axis : x y z
#
# Youngs Moduli (GPa) = 63.79131 40.98028 87.49052
#
# Poissons Ratio (x) = 0.18175 0.08555
# Poissons Ratio (y) = 0.28291 0.66496
# Poissons Ratio (z) = 0.06238 0.31146
#
# Static dielectric constant tensor:
#      x y z
#    x 1.723910 0.000000 0.000000 
#    y 0.000000 1.656720 0.000000 
#    z 0.000000 0.000000 1.699440 
# 
# From -- ./inp_files/12472.got.cif
#   From: 2010.05.17/outbox.cif.g08.bks.cpg/sg55_7_cif.got.tgz:12472.got - 2010.06.03 13:27:54.
