data_PCOD9428769
_publ_section_title
;
Structure prediction by ZEFSAII (Michael W. Deem and Ramdas Pophale) SiO2 
 PCOD9428769
Probable space group: P B A M
;
_chemical_formula_sum "Si O2"
_cell_formula_units_Z 58
_cell_length_a 8.654237
_cell_length_b 18.000658
_cell_length_c 18.734434
_cell_angle_alpha 90.000000
_cell_angle_beta 90.000000
_cell_angle_gamma 90.000000
_cell_volume 2918.486857
_symmetry_space_group_name_H-M "P B A M"
_symmetry_group_IT_number 55
_symmetry_cell_setting 'orthorhombic'
loop_
_space_group_symop_operation_xyz
x,y,z
-x,-y,z
1/2+x,1/2-y,-z
1/2-x,1/2+y,-z
-x,-y,-z
x,y,-z
1/2-x,1/2+y,z
1/2+x,1/2-y,z
loop_
_atom_site_type_symbol
_atom_site_label
_atom_site_fract_x
_atom_site_fract_y
_atom_site_fract_z
Si Si1 0.546294 0.227007 0.164697
Si Si2 0.474380 0.862067 0.387694
Si Si3 0.000000 0.500000 0.500000
Si Si4 0.245157 0.660956 0.916100
Si Si5 0.310811 0.899799 0.751761
Si Si6 0.980188 0.845884 0.286554
Si Si7 0.300976 0.715917 0.417299
Si Si8 0.167296 0.038216 0.184660
O O1 0.399919 0.188857 0.129542
O O2 0.617499 0.284377 0.108351
O O3 0.664756 0.163206 0.188636
O O4 0.508540 0.273033 0.236607
O O5 0.442425 0.889563 0.307322
O O6 0.337189 0.803489 0.407223
O O7 0.630351 0.813159 0.397015
O O8 0.483890 0.933770 0.438237
O O9 0.285519 0.579563 0.887197
O O10 0.218664 0.663766 0.000000
O O11 0.146374 0.884528 0.713581
O O12 0.291486 0.978927 0.788744
O O13 0.916223 0.825448 0.363457
O O14 0.861079 0.899904 0.245636
O O15 0.328195 0.697453 0.500000
O O16 0.000000 0.000000 0.175021
#
# Coordination Sequence:
#
# PCOD9428769 Si02
#       8
#     8   8   2   8   8   8   8   8
#     4  11  22  40  69 101 130 172 230 280 324 398
#     4  12  27  42  72  93 139 174 234 281 350 402
#     4  12  28  48  56 102 136 182 214 282 358 410
#     4  11  24  43  68 101 139 176 218 279 346 405
#     4  11  23  42  68  99 126 179 228 288 322 398
#     4  10  22  43  68  98 132 174 234 268 332 398
#     4  12  24  44  66 103 130 180 220 290 338 415
#     4   9  23  43  67  98 137 176 226 273 335 411
#
# _framework density 19.873311999999999
#
# number of rings (size 3 to 8) (size 9 to 14) (size 15 to 20)
#    0.000    1.103    4.138    1.241    5.793    0.828 
#    1.241    2.069    0.000    4.552    0.000    0.000 
#    0.000    0.000    0.000    0.000    0.000    0.000 
#
# Total GULP energy -323631.195269 kJ/mol
# GULP energy per Si atom -5579.848194 kJ/mol
# Density = 1.982808 g / cm^3
# Si number density = 19.873312 Si / 1000 Ang^3
#
#
#
# Elastic Constant Matrix: (Units=GPa)
#
#
# Indices 1 2 3 4 5 6 
#
# 1 61.4936 32.9058 27.1039 0.0000 0.0000 0.0000
# 2 32.9058 122.3768 37.8461 0.0000 0.0000 0.0000
# 3 27.1039 37.8461 101.1453 0.0000 0.0000 0.0000
# 4 0.0000 0.0000 0.0000 28.0936 0.0000 0.0000
# 5 0.0000 0.0000 0.0000 0.0000 12.9077 0.0000
# 6 0.0000 0.0000 0.0000 0.0000 0.0000 23.7937
#
#
#
# Elastic Compliance Matrix: (Units=1/GPa)
#
#
# Indices 1 2 3 4 5 6 
#
# 1 0.020226 -0.004255 -0.003828 0.000000 0.000000 0.000000
# 2 -0.004255 0.010136 -0.002652 0.000000 0.000000 0.000000
# 3 -0.003828 -0.002652 0.011905 0.000000 0.000000 0.000000
# 4 0.000000 0.000000 0.000000 0.035595 0.000000 0.000000
# 5 0.000000 0.000000 0.000000 0.000000 0.077473 0.000000
# 6 0.000000 0.000000 0.000000 0.000000 0.000000 0.042028
#
#
# Mechanical properties :
#
#
# Convention : Reuss Voigt Hill
#
# Bulk Modulus (GPa) = 48.08493 53.41413 50.74953
# Shear Modulus (GPa) = 22.14688 25.43632 23.79160
#
# Velocity S-wave (km/s) = 3.34189 3.58148 3.46376
# Velocity P-wave (km/s) = 6.25613 6.63614 6.44894
#
# Compressibility (1/GPa) = 0.02079654
#
# Stress axis : x y z
#
# Youngs Moduli (GPa) = 49.44192 98.66002 83.99823
#
# Poissons Ratio (x) = 0.41977 0.32154
# Poissons Ratio (y) = 0.21036 0.22280
# Poissons Ratio (z) = 0.18926 0.26169
#
# Static dielectric constant tensor:
#      x y z
#    x 1.737680 0.000000 0.000000 
#    y 0.000000 1.710900 0.000000 
#    z 0.000000 0.000000 1.669610 
# 
# From -- ./inp_files/20984.got.cif
#   From: 2010.05.17/outbox.cif.g08.bks.cpg/sg55_11_cif.got.tgz:20984.got - 2010.06.03 13:27:54.
