data_PCOD9428376
_publ_section_title
;
Structure prediction by ZEFSAII (Michael W. Deem and Ramdas Pophale) SiO2 
 PCOD9428376
Probable space group: P B A M
;
_chemical_formula_sum "Si O2"
_cell_formula_units_Z 40
_cell_length_a 18.242240
_cell_length_b 9.783685
_cell_length_c 10.246492
_cell_angle_alpha 90.000000
_cell_angle_beta 90.000000
_cell_angle_gamma 90.000000
_cell_volume 1828.756286
_symmetry_space_group_name_H-M "P B A M"
_symmetry_group_IT_number 55
_symmetry_cell_setting 'orthorhombic'
loop_
_space_group_symop_operation_xyz
x,y,z
-x,-y,z
1/2+x,1/2-y,-z
1/2-x,1/2+y,-z
-x,-y,-z
x,y,-z
1/2-x,1/2+y,z
1/2+x,1/2-y,z
loop_
_atom_site_type_symbol
_atom_site_label
_atom_site_fract_x
_atom_site_fract_y
_atom_site_fract_z
Si Si1 0.579516 0.775517 0.642812
Si Si2 0.041081 0.266713 0.154333
Si Si3 0.695340 0.102885 0.855698
Si Si4 0.105530 0.049494 0.355740
Si Si5 0.237753 0.649347 0.284644
O O1 0.546732 0.805426 0.500000
O O2 0.528833 0.816941 0.764083
O O3 0.591240 0.611556 0.656339
O O4 0.659931 0.841679 0.645772
O O5 0.108800 0.372341 0.162094
O O6 0.069666 0.134161 0.236665
O O7 0.027014 0.239961 0.000000
O O8 0.737121 0.199999 0.755269
O O9 0.720949 0.949089 0.837058
O O10 0.713694 0.152176 0.000000
O O11 0.077736 0.091929 0.500000
O O12 0.192011 0.082588 0.352911
#
# Coordination Sequence:
#
# PCOD9428376 Si02
#       5
#     8   8   8   8   8
#     4  11  23  40  63  94 127 168 212 261 319 376
#     4  10  23  41  62  93 129 170 212 260 316 376
#     4  10  22  40  63  92 130 166 209 261 318 376
#     4  10  21  40  64  92 127 167 212 262 313 375
#     4  11  21  41  63  96 123 167 214 260 315 377
#
# _framework density 21.872789000000001
#
# number of rings (size 3 to 8) (size 9 to 14) (size 15 to 20)
#    0.000    1.600    2.000    2.400    0.000    6.400 
#    0.000    6.000    0.000    0.000    0.000    0.000 
#    0.000    0.000    0.000    0.000    0.000    0.000 
#
# Total GULP energy -223316.502320 kJ/mol
# GULP energy per Si atom -5582.912558 kJ/mol
# Density = 2.182301 g / cm^3
# Si number density = 21.872789 Si / 1000 Ang^3
#
#
#
# Elastic Constant Matrix: (Units=GPa)
#
#
# Indices 1 2 3 4 5 6 
#
# 1 105.9551 6.4109 61.0729 0.0000 0.0000 0.0000
# 2 6.4109 45.1198 11.5726 0.0000 0.0000 0.0000
# 3 61.0729 11.5726 148.7522 0.0000 0.0000 0.0000
# 4 0.0000 0.0000 0.0000 13.7646 0.0000 0.0000
# 5 0.0000 0.0000 0.0000 0.0000 20.8902 0.0000
# 6 0.0000 0.0000 0.0000 0.0000 0.0000 28.6277
#
#
#
# Elastic Compliance Matrix: (Units=1/GPa)
#
#
# Indices 1 2 3 4 5 6 
#
# 1 0.012373 -0.000464 -0.005044 0.000000 0.000000 0.000000
# 2 -0.000464 0.022632 -0.001570 0.000000 0.000000 0.000000
# 3 -0.005044 -0.001570 0.008916 0.000000 0.000000 0.000000
# 4 0.000000 0.000000 0.000000 0.072650 0.000000 0.000000
# 5 0.000000 0.000000 0.000000 0.000000 0.047869 0.000000
# 6 0.000000 0.000000 0.000000 0.000000 0.000000 0.034931
#
#
# Mechanical properties :
#
#
# Convention : Reuss Voigt Hill
#
# Bulk Modulus (GPa) = 33.59751 50.88221 42.23986
# Shear Modulus (GPa) = 22.37636 27.37453 24.87544
#
# Velocity S-wave (km/s) = 3.20194 3.54154 3.37601
# Velocity P-wave (km/s) = 5.39107 6.32745 5.87794
#
# Compressibility (1/GPa) = 0.02976411
#
# Stress axis : x y z
#
# Youngs Moduli (GPa) = 80.81822 44.18540 112.16231
#
# Poissons Ratio (x) = 0.02052 0.56575
# Poissons Ratio (y) = 0.03753 0.17610
# Poissons Ratio (z) = 0.40765 0.06937
#
# Static dielectric constant tensor:
#      x y z
#    x 1.816300 0.000000 0.000000 
#    y 0.000000 1.758660 0.000000 
#    z 0.000000 0.000000 1.809990 
# 
# From -- ./inp_files/14655.got.cif
#   From: 2010.05.17/outbox.cif.g08.bks.cpg/sg55_8_cif.got.tgz:14655.got - 2010.06.03 13:27:54.
