data_PCOD9428069
_publ_section_title
;
Structure prediction by ZEFSAII (Michael W. Deem and Ramdas Pophale) SiO2 
 PCOD9428069
Probable space group: P B A M
;
_chemical_formula_sum "Si O2"
_cell_formula_units_Z 54
_cell_length_a 17.247027
_cell_length_b 4.897810
_cell_length_c 28.320459
_cell_angle_alpha 90.000000
_cell_angle_beta 90.000000
_cell_angle_gamma 90.000000
_cell_volume 2392.304541
_symmetry_space_group_name_H-M "P B A M"
_symmetry_group_IT_number 55
_symmetry_cell_setting 'orthorhombic'
loop_
_space_group_symop_operation_xyz
x,y,z
-x,-y,z
1/2+x,1/2-y,-z
1/2-x,1/2+y,-z
-x,-y,-z
x,y,-z
1/2-x,1/2+y,z
1/2+x,1/2-y,z
loop_
_atom_site_type_symbol
_atom_site_label
_atom_site_fract_x
_atom_site_fract_y
_atom_site_fract_z
Si Si1 0.907391 0.491848 0.410746
Si Si2 0.574158 0.651963 0.910151
Si Si3 0.195865 0.348781 0.500000
Si Si4 0.193942 0.644605 0.837065
Si Si5 0.408140 0.504214 0.348616
Si Si6 0.197756 0.719226 0.727848
Si Si7 0.500000 0.000000 0.000000
Si Si8 0.199063 0.270123 0.055114
O O1 0.856306 0.584741 0.454500
O O2 0.890200 0.691506 0.366352
O O3 0.000000 0.500000 0.420957
O O4 0.889980 0.187016 0.393726
O O5 0.500000 0.500000 0.889514
O O6 0.619261 0.817342 0.869763
O O7 0.629849 0.397628 0.922905
O O8 0.546272 0.820499 0.957098
O O9 0.271155 0.543943 0.500000
O O10 0.233504 0.351261 0.845250
O O11 0.173404 0.712546 0.782802
O O12 0.500000 0.500000 0.339575
O O13 0.365103 0.360059 0.305372
O O14 0.226645 0.411200 0.720030
O O15 0.225052 0.580442 0.062862
O O16 0.179540 0.259988 0.000000
#
# Coordination Sequence:
#
# PCOD9428069 Si02
#       8
#     8   8   4   8   8   8   2   8
#     4  10  22  40  59  85 125 178 214 266 327 399
#     4  12  27  43  66  94 133 165 203 262 317 367
#     4  12  25  38  57  88 124 166 230 288 327 380
#     4  10  24  47  71  95 129 173 218 256 311 391
#     4  10  21  37  62  92 127 163 216 264 327 396
#     4  10  21  39  66  96 126 162 206 264 322 379
#     4  12  30  44  64  94 136 160 208 258 326 364
#     4  10  22  38  61  85 113 154 199 235 281 349
#
# _framework density 22.572375000000001
#
# number of rings (size 3 to 8) (size 9 to 14) (size 15 to 20)
#    0.000    1.481    0.741    3.111    4.148    4.148 
#    0.000    2.963    4.889    0.000    0.000    0.000 
#    0.000    0.000    0.000    0.000    0.000    0.000 
#
# Total GULP energy -301356.999911 kJ/mol
# GULP energy per Si atom -5580.685184 kJ/mol
# Density = 2.252100 g / cm^3
# Si number density = 22.572375 Si / 1000 Ang^3
#
#
#
# Elastic Constant Matrix: (Units=GPa)
#
#
# Indices 1 2 3 4 5 6 
#
# 1 84.3214 28.1289 55.4434 0.0000 0.0000 0.0000
# 2 28.1289 110.2627 14.5169 0.0000 0.0000 0.0000
# 3 55.4434 14.5169 108.3006 0.0000 0.0000 0.0000
# 4 0.0000 0.0000 0.0000 26.4827 0.0000 0.0000
# 5 0.0000 0.0000 0.0000 0.0000 31.1509 0.0000
# 6 0.0000 0.0000 0.0000 0.0000 0.0000 34.6223
#
#
#
# Elastic Compliance Matrix: (Units=1/GPa)
#
#
# Indices 1 2 3 4 5 6 
#
# 1 0.019237 -0.003676 -0.009356 0.000000 0.000000 0.000000
# 2 -0.003676 0.009935 0.000550 0.000000 0.000000 0.000000
# 3 -0.009356 0.000550 0.013949 0.000000 0.000000 0.000000
# 4 0.000000 0.000000 0.000000 0.037760 0.000000 0.000000
# 5 0.000000 0.000000 0.000000 0.000000 0.032102 0.000000
# 6 0.000000 0.000000 0.000000 0.000000 0.000000 0.028883
#
#
# Mechanical properties :
#
#
# Convention : Reuss Voigt Hill
#
# Bulk Modulus (GPa) = 55.07051 55.45146 55.26098
# Shear Modulus (GPa) = 28.92154 32.10422 30.51288
#
# Velocity S-wave (km/s) = 3.58338 3.77540 3.68064
# Velocity P-wave (km/s) = 6.44756 6.60487 6.52669
#
# Compressibility (1/GPa) = 0.01815854
#
# Stress axis : x y z
#
# Youngs Moduli (GPa) = 51.98287 100.65884 71.68828
#
# Poissons Ratio (x) = 0.37000 0.67068
# Poissons Ratio (y) = 0.19108 -0.03944
# Poissons Ratio (z) = 0.48633 -0.05538
#
# Static dielectric constant tensor:
#      x y z
#    x 1.892050 0.000000 0.000000 
#    y 0.000000 1.851900 0.000000 
#    z 0.000000 0.000000 1.870340 
# 
# From -- ./inp_files/24202.got.cif
#   From: 2010.05.17/outbox.cif.g08.bks.cpg/sg55_13_cif.got.tgz:24202.got - 2010.06.03 13:27:54.
