data_PCOD9428517
_publ_section_title
;
Structure prediction by ZEFSAII (Michael W. Deem and Ramdas Pophale) SiO2 
 PCOD9428517
Probable space group: P B A M
;
_chemical_formula_sum "Si O2"
_cell_formula_units_Z 64
_cell_length_a 22.795647
_cell_length_b 11.620528
_cell_length_c 13.161022
_cell_angle_alpha 90.000000
_cell_angle_beta 90.000000
_cell_angle_gamma 90.000000
_cell_volume 3486.321223
_symmetry_space_group_name_H-M "P B A M"
_symmetry_group_IT_number 55
_symmetry_cell_setting 'orthorhombic'
loop_
_space_group_symop_operation_xyz
x,y,z
-x,-y,z
1/2+x,1/2-y,-z
1/2-x,1/2+y,-z
-x,-y,-z
x,y,-z
1/2-x,1/2+y,z
1/2+x,1/2-y,z
loop_
_atom_site_type_symbol
_atom_site_label
_atom_site_fract_x
_atom_site_fract_y
_atom_site_fract_z
Si Si1 0.138384 0.289019 0.266733
Si Si2 0.298225 0.585993 0.381495
Si Si3 0.570160 0.007287 0.622541
Si Si4 0.562323 0.350888 0.112122
Si Si5 0.428171 0.372398 0.888996
Si Si6 0.321009 0.123935 0.710436
Si Si7 0.785970 0.543907 0.122591
Si Si8 0.323981 0.377115 0.752181
O O1 0.179130 0.204668 0.332323
O O2 0.099428 0.375078 0.334960
O O3 0.097135 0.206999 0.201076
O O4 0.174760 0.363162 0.183888
O O5 0.308882 0.587589 0.500000
O O6 0.229277 0.563955 0.358057
O O7 0.330573 0.479894 0.326973
O O8 0.574506 0.000847 0.500000
O O9 0.500000 0.000000 0.648339
O O10 0.614161 0.911900 0.672609
O O11 0.568585 0.488697 0.113748
O O12 0.493476 0.325982 0.122060
O O13 0.582372 0.311582 0.000000
O O14 0.384372 0.338787 0.802665
O O15 0.405756 0.337998 0.000000
O O16 0.305045 0.257867 0.702471
O O17 0.306846 0.075677 0.824113
O O18 0.720100 0.574420 0.160991
O O19 0.790676 0.545049 0.000000
#
# Coordination Sequence:
#
# PCOD9428517 Si02
#       8
#     8   8   8   8   8   8   8   8
#     4  11  20  39  60  86 118 155 196 249 293 358
#     4  11  23  39  60  88 118 155 200 250 307 357
#     4  10  23  42  64  86 112 159 212 255 302 355
#     4   9  18  33  56  82 112 154 191 224 279 349
#     4   9  18  32  53  83 116 149 185 225 279 348
#     4  10  23  41  60  86 119 157 199 246 298 358
#     4  10  22  38  58  87 122 155 191 239 296 358
#     4  11  21  38  58  90 116 152 193 245 302 354
#
# _framework density 18.357458999999999
#
# number of rings (size 3 to 8) (size 9 to 14) (size 15 to 20)
#    0.000    1.875    2.500    2.250    1.750    2.000 
#    0.000    0.000    0.000    2.625    0.000    0.000 
#    0.000    0.000    0.000    0.000    0.000    0.000 
#
# Total GULP energy -356664.756347 kJ/mol
# GULP energy per Si atom -5572.886818 kJ/mol
# Density = 1.831568 g / cm^3
# Si number density = 18.357459 Si / 1000 Ang^3
#
#
#
# Elastic Constant Matrix: (Units=GPa)
#
#
# Indices 1 2 3 4 5 6 
#
# 1 72.7639 16.8291 44.2781 0.0000 0.0000 0.0000
# 2 16.8291 62.6901 29.6454 0.0000 0.0000 0.0000
# 3 44.2781 29.6454 122.0231 0.0000 0.0000 0.0000
# 4 0.0000 0.0000 0.0000 14.8403 0.0000 0.0000
# 5 0.0000 0.0000 0.0000 0.0000 22.5325 0.0000
# 6 0.0000 0.0000 0.0000 0.0000 0.0000 22.6758
#
#
#
# Elastic Compliance Matrix: (Units=1/GPa)
#
#
# Indices 1 2 3 4 5 6 
#
# 1 0.017847 -0.001953 -0.006002 0.000000 0.000000 0.000000
# 2 -0.001953 0.018236 -0.003722 0.000000 0.000000 0.000000
# 3 -0.006002 -0.003722 0.011277 0.000000 0.000000 0.000000
# 4 0.000000 0.000000 0.000000 0.067384 0.000000 0.000000
# 5 0.000000 0.000000 0.000000 0.000000 0.044380 0.000000
# 6 0.000000 0.000000 0.000000 0.000000 0.000000 0.044100
#
#
# Mechanical properties :
#
#
# Convention : Reuss Voigt Hill
#
# Bulk Modulus (GPa) = 41.65398 48.77581 45.21490
# Shear Modulus (GPa) = 21.31481 23.12468 22.21975
#
# Velocity S-wave (km/s) = 3.41119 3.55306 3.48285
# Velocity P-wave (km/s) = 6.18504 6.59242 6.39197
#
# Compressibility (1/GPa) = 0.02400731
#
# Stress axis : x y z
#
# Youngs Moduli (GPa) = 56.03240 54.83754 88.67513
#
# Poissons Ratio (x) = 0.10709 0.53219
# Poissons Ratio (y) = 0.10942 0.33002
# Poissons Ratio (z) = 0.33628 0.20409
#
# Static dielectric constant tensor:
#      x y z
#    x 1.673190 0.000000 0.000000 
#    y 0.000000 1.675220 0.000000 
#    z 0.000000 0.000000 1.613490 
# 
# From -- ./inp_files/15762.got.cif
#   From: 2010.05.17/outbox.cif.g08.bks.cpg/sg55_8_cif.got.tgz:15762.got - 2010.06.03 13:27:54.
