data_PCOD9428868
_publ_section_title
;
Structure prediction by ZEFSAII (Michael W. Deem and Ramdas Pophale) SiO2 
 PCOD9428868
Probable space group: P B A M
;
_chemical_formula_sum "Si O2"
_cell_formula_units_Z 40
_cell_length_a 13.957455
_cell_length_b 14.371135
_cell_length_c 8.366931
_cell_angle_alpha 90.000000
_cell_angle_beta 90.000000
_cell_angle_gamma 90.000000
_cell_volume 1678.276421
_symmetry_space_group_name_H-M "P B A M"
_symmetry_group_IT_number 55
_symmetry_cell_setting 'orthorhombic'
loop_
_space_group_symop_operation_xyz
x,y,z
-x,-y,z
1/2+x,1/2-y,-z
1/2-x,1/2+y,-z
-x,-y,-z
x,y,-z
1/2-x,1/2+y,z
1/2+x,1/2-y,z
loop_
_atom_site_type_symbol
_atom_site_label
_atom_site_fract_x
_atom_site_fract_y
_atom_site_fract_z
Si Si1 0.289989 0.772304 0.692869
Si Si2 0.493596 0.215670 0.685457
Si Si3 0.301914 0.557387 0.687281
Si Si4 0.894150 0.118379 0.184451
Si Si5 0.900744 0.454988 0.186267
O O1 0.272915 0.774851 0.500000
O O2 0.397015 0.808550 0.724073
O O3 0.296187 0.664044 0.742946
O O4 0.206489 0.829369 0.776689
O O5 0.474817 0.194104 0.500000
O O6 0.471668 0.324157 0.713991
O O7 0.422825 0.154464 0.791737
O O8 0.323162 0.557003 0.500000
O O9 0.375572 0.488661 0.772316
O O10 0.193979 0.520143 0.717262
O O11 0.918674 0.127587 0.000000
O O12 0.000000 0.500000 0.244588
O O13 0.886672 0.478137 0.000000
#
# Coordination Sequence:
#
# PCOD9428868 Si02
#       5
#     8   8   8   8   8
#     4  10  23  43  67  94 125 168 218 269 319 381
#     4  11  23  41  65  92 126 168 217 264 319 384
#     4  11  23  41  66  92 125 169 217 265 319 382
#     4  12  25  41  64  94 132 170 211 268 328 385
#     4  11  23  39  61  95 131 164 211 266 326 383
#
# _framework density 23.833976
#
# number of rings (size 3 to 8) (size 9 to 14) (size 15 to 20)
#    0.000    1.000    2.000    4.800    0.000    8.000 
#    0.000    4.000    0.000    0.000    0.000    0.000 
#    0.000    0.000    0.000    0.000    0.000    0.000 
#
# Total GULP energy -224010.393655 kJ/mol
# GULP energy per Si atom -5600.259841 kJ/mol
# Density = 2.377973 g / cm^3
# Si number density = 23.833976 Si / 1000 Ang^3
#
#
#
# Elastic Constant Matrix: (Units=GPa)
#
#
# Indices 1 2 3 4 5 6 
#
# 1 56.5804 -9.7003 -6.6935 0.0000 0.0000 0.0000
# 2 -9.7003 76.6411 -7.5973 0.0000 0.0000 0.0000
# 3 -6.6935 -7.5973 40.7851 0.0000 0.0000 0.0000
# 4 0.0000 0.0000 0.0000 32.7205 0.0000 0.0000
# 5 0.0000 0.0000 0.0000 0.0000 33.5505 0.0000
# 6 0.0000 0.0000 0.0000 0.0000 0.0000 31.3460
#
#
#
# Elastic Compliance Matrix: (Units=1/GPa)
#
#
# Indices 1 2 3 4 5 6 
#
# 1 0.018557 0.002700 0.003548 0.000000 0.000000 0.000000
# 2 0.002700 0.013686 0.002993 0.000000 0.000000 0.000000
# 3 0.003548 0.002993 0.025659 0.000000 0.000000 0.000000
# 4 0.000000 0.000000 0.000000 0.030562 0.000000 0.000000
# 5 0.000000 0.000000 0.000000 0.000000 0.029806 0.000000
# 6 0.000000 0.000000 0.000000 0.000000 0.000000 0.031902
#
#
# Mechanical properties :
#
#
# Convention : Reuss Voigt Hill
#
# Bulk Modulus (GPa) = 13.09165 14.00273 13.54719
# Shear Modulus (GPa) = 31.81678 32.72324 32.27001
#
# Velocity S-wave (km/s) = 3.65764 3.70938 3.68360
# Velocity P-wave (km/s) = 4.83141 4.92279 4.87731
#
# Compressibility (1/GPa) = 0.07638455
#
# Stress axis : x y z
#
# Youngs Moduli (GPa) = 53.88887 73.06595 38.97331
#
# Poissons Ratio (x) = -0.19731 -0.13830
# Poissons Ratio (y) = -0.14552 -0.11663
# Poissons Ratio (z) = -0.19122 -0.21866
#
# Static dielectric constant tensor:
#      x y z
#    x 1.899530 0.000000 0.000000 
#    y 0.000000 2.005950 0.000000 
#    z 0.000000 0.000000 1.787580 
# 
# From -- ./inp_files/5183.got.cif
#   From: 2010.05.17/outbox.cif.g08.bks.cpg/sg55_3_cif.got.tgz:5183.got - 2010.06.03 13:27:54.
