data_PCOD9428149
_publ_section_title
;
Structure prediction by ZEFSAII (Michael W. Deem and Ramdas Pophale) SiO2 
 PCOD9428149
Probable space group: P B A M
;
_chemical_formula_sum "Si O2"
_cell_formula_units_Z 36
_cell_length_a 4.915513
_cell_length_b 12.079886
_cell_length_c 25.827169
_cell_angle_alpha 90.000000
_cell_angle_beta 90.000000
_cell_angle_gamma 90.000000
_cell_volume 1533.587250
_symmetry_space_group_name_H-M "P B A M"
_symmetry_group_IT_number 55
_symmetry_cell_setting 'orthorhombic'
loop_
_space_group_symop_operation_xyz
x,y,z
-x,-y,z
1/2+x,1/2-y,-z
1/2-x,1/2+y,-z
-x,-y,-z
x,y,-z
1/2-x,1/2+y,z
1/2+x,1/2-y,z
loop_
_atom_site_type_symbol
_atom_site_label
_atom_site_fract_x
_atom_site_fract_y
_atom_site_fract_z
Si Si1 0.382152 0.328061 0.555725
Si Si2 0.751237 0.582669 0.000000
Si Si3 0.778011 0.183408 0.112432
Si Si4 0.000000 0.000000 0.252587
Si Si5 0.000000 0.500000 0.183682
Si Si6 0.766423 0.172867 0.333375
O O1 0.332199 0.384252 0.500000
O O2 0.186879 0.219376 0.556487
O O3 0.314858 0.383521 0.610311
O O4 0.500000 0.500000 0.000000
O O5 0.753246 0.653411 0.947846
O O6 0.000000 0.500000 0.000000
O O7 0.591729 0.290794 0.122439
O O8 0.653303 0.088326 0.147703
O O9 0.140523 0.907422 0.288165
O O10 0.747320 0.953770 0.218889
O O11 0.461567 0.218913 0.330780
#
# Coordination Sequence:
#
# PCOD9428149 Si02
#       6
#     8   4   8   4   4   8
#     4   8  14  27  50  80 112 149 192 245 314 383
#     4  12  24  44  76 103 143 174 204 260 318 381
#     4  12  26  46  72 103 134 175 217 259 322 384
#     4  12  26  42  63  91 122 166 224 264 324 370
#     4  12  28  45  66  94 131 172 216 282 310 370
#     4  10  21  38  61  86 119 160 206 262 320 384
#
# _framework density 23.474375999999999
#
# number of rings (size 3 to 8) (size 9 to 14) (size 15 to 20)
#    0.000    1.333    1.111    4.667    1.556    5.333 
#    0.000    0.556    0.000    0.000    0.000   17.111 
#    0.000    0.000    0.000    0.000    0.000    0.000 
#
# Total GULP energy -201358.884986 kJ/mol
# GULP energy per Si atom -5593.302361 kJ/mol
# Density = 2.342095 g / cm^3
# Si number density = 23.474376 Si / 1000 Ang^3
#
#
#
# Elastic Constant Matrix: (Units=GPa)
#
#
# Indices 1 2 3 4 5 6 
#
# 1 109.6674 -0.7046 16.8536 0.0000 0.0000 0.0000
# 2 -0.7046 33.8692 27.2217 0.0000 0.0000 0.0000
# 3 16.8536 27.2217 154.6674 0.0000 0.0000 0.0000
# 4 0.0000 0.0000 0.0000 -33.5761 0.0000 0.0000
# 5 0.0000 0.0000 0.0000 0.0000 61.0030 0.0000
# 6 0.0000 0.0000 0.0000 0.0000 0.0000 29.1773
#
#
#
# Elastic Compliance Matrix: (Units=1/GPa)
#
#
# Indices 1 2 3 4 5 6 
#
# 1 0.009314 0.001176 -0.001222 0.000000 0.000000 0.000000
# 2 0.001176 0.034539 -0.006207 0.000000 0.000000 0.000000
# 3 -0.001222 -0.006207 0.007691 0.000000 0.000000 0.000000
# 4 0.000000 0.000000 0.000000 -0.029783 0.000000 0.000000
# 5 0.000000 0.000000 0.000000 0.000000 0.016393 0.000000
# 6 0.000000 0.000000 0.000000 0.000000 0.000000 0.034273
#
#
# Mechanical properties :
#
#
# Convention : Reuss Voigt Hill
#
# Bulk Modulus (GPa) = 25.61649 42.77172 34.19410
# Shear Modulus (GPa) = 51.04923 28.30971 39.67947
#
# Velocity S-wave (km/s) = 4.66840 3.47650 4.11582
# Velocity P-wave (km/s) = 6.32415 5.86301 6.09794
#
# Compressibility (1/GPa) = 0.03903736
#
# Stress axis : x y z
#
# Youngs Moduli (GPa) = 107.36756 28.95318 130.02106
#
# Poissons Ratio (x) = -0.03404 0.15886
# Poissons Ratio (y) = -0.12624 0.80704
# Poissons Ratio (z) = 0.13119 0.17971
#
# Static dielectric constant tensor:
#      x y z
#    x 1.816170 0.000000 0.000000 
#    y 0.000000 1.886420 0.000000 
#    z 0.000000 0.000000 1.930480 
# 
# From -- ./inp_files/23259.got.cif
#   From: 2010.05.17/outbox.cif.g08.bks.cpg/sg55_12_cif.got.tgz:23259.got - 2010.06.03 13:27:54.
