data_PCOD9428417
_publ_section_title
;
Structure prediction by ZEFSAII (Michael W. Deem and Ramdas Pophale) SiO2 
 PCOD9428417
Probable space group: P B A M
;
_chemical_formula_sum "Si O2"
_cell_formula_units_Z 32
_cell_length_a 33.395779
_cell_length_b 5.144646
_cell_length_c 8.117199
_cell_angle_alpha 90.000000
_cell_angle_beta 90.000000
_cell_angle_gamma 90.000000
_cell_volume 1394.611584
_symmetry_space_group_name_H-M "P B A M"
_symmetry_group_IT_number 55
_symmetry_cell_setting 'orthorhombic'
loop_
_space_group_symop_operation_xyz
x,y,z
-x,-y,z
1/2+x,1/2-y,-z
1/2-x,1/2+y,-z
-x,-y,-z
x,y,-z
1/2-x,1/2+y,z
1/2+x,1/2-y,z
loop_
_atom_site_type_symbol
_atom_site_label
_atom_site_fract_x
_atom_site_fract_y
_atom_site_fract_z
Si Si1 0.609084 0.817691 0.691884
Si Si2 0.776355 0.752237 0.000000
Si Si3 0.971523 0.745455 0.500000
Si Si4 0.335800 0.691993 0.694019
Si Si5 0.952420 0.950974 0.174642
O O1 0.596400 0.829129 0.500000
O O2 0.640569 0.578938 0.705960
O O3 0.571173 0.718064 0.795058
O O4 0.633579 0.074230 0.734220
O O5 0.801809 0.798185 0.166972
O O6 0.759457 0.460694 0.000000
O O7 0.946225 0.773238 0.334293
O O8 0.000000 0.500000 0.500000
O O9 0.000000 0.000000 0.500000
O O10 0.323207 0.724033 0.500000
O O11 0.939681 0.836864 0.000000
O O12 0.000000 0.000000 0.166960
#
# Coordination Sequence:
#
# PCOD9428417 Si02
#       5
#     8   4   4   8   8
#     4  10  21  41  65  91 129 175 218 263 321 372
#     4  12  26  44  72 104 131 166 207 248 318 390
#     4  10  22  40  58  80 120 160 208 272 320 368
#     4  10  24  43  66  98 132 168 210 258 314 382
#     4  10  22  39  61  92 126 172 224 275 326 374
#
# _framework density 22.945457999999999
#
# number of rings (size 3 to 8) (size 9 to 14) (size 15 to 20)
#    0.000    1.750    1.250    1.500    3.500    5.500 
#    0.000    5.000    0.000    0.000    0.000    0.000 
#    0.000    0.000    0.000    0.000    0.000    0.000 
#
# Total GULP energy -179097.893512 kJ/mol
# GULP energy per Si atom -5596.809172 kJ/mol
# Density = 2.289323 g / cm^3
# Si number density = 22.945458 Si / 1000 Ang^3
#
#
#
# Elastic Constant Matrix: (Units=GPa)
#
#
# Indices 1 2 3 4 5 6 
#
# 1 75.8984 6.0378 43.4820 0.0000 0.0000 0.0000
# 2 6.0378 108.3997 22.2351 0.0000 0.0000 0.0000
# 3 43.4820 22.2351 168.8396 0.0000 0.0000 0.0000
# 4 0.0000 0.0000 0.0000 24.1164 0.0000 0.0000
# 5 0.0000 0.0000 0.0000 0.0000 62.7431 0.0000
# 6 0.0000 0.0000 0.0000 0.0000 0.0000 38.3912
#
#
#
# Elastic Compliance Matrix: (Units=1/GPa)
#
#
# Indices 1 2 3 4 5 6 
#
# 1 0.015456 -0.000046 -0.003974 0.000000 0.000000 0.000000
# 2 -0.000046 0.009481 -0.001237 0.000000 0.000000 0.000000
# 3 -0.003974 -0.001237 0.007109 0.000000 0.000000 0.000000
# 4 0.000000 0.000000 0.000000 0.041466 0.000000 0.000000
# 5 0.000000 0.000000 0.000000 0.000000 0.015938 0.000000
# 6 0.000000 0.000000 0.000000 0.000000 0.000000 0.026048
#
#
# Mechanical properties :
#
#
# Convention : Reuss Voigt Hill
#
# Bulk Modulus (GPa) = 46.44097 55.18305 50.81201
# Shear Modulus (GPa) = 37.54051 43.80899 40.67475
#
# Velocity S-wave (km/s) = 4.04923 4.37426 4.21488
# Velocity P-wave (km/s) = 6.49195 7.04372 6.77345
#
# Compressibility (1/GPa) = 0.02153271
#
# Stress axis : x y z
#
# Youngs Moduli (GPa) = 64.69939 105.47000 140.66223
#
# Poissons Ratio (x) = 0.00482 0.55906
# Poissons Ratio (y) = 0.00295 0.17398
# Poissons Ratio (z) = 0.25715 0.13045
#
# Static dielectric constant tensor:
#      x y z
#    x 1.655060 0.000000 0.000000 
#    y 0.000000 1.610600 0.000000 
#    z 0.000000 0.000000 1.906200 
# 
# From -- ./inp_files/10364.got.cif
#   From: 2010.05.17/outbox.cif.g08.bks.cpg/sg55_6_cif.got.tgz:10364.got - 2010.06.03 13:27:54.
