data_PCOD9428561
_publ_section_title
;
Structure prediction by ZEFSAII (Michael W. Deem and Ramdas Pophale) SiO2 
 PCOD9428561
Probable space group: P B A M
;
_chemical_formula_sum "Si O2"
_cell_formula_units_Z 64
_cell_length_a 10.117582
_cell_length_b 18.563711
_cell_length_c 18.933328
_cell_angle_alpha 90.000000
_cell_angle_beta 90.000000
_cell_angle_gamma 90.000000
_cell_volume 3556.055171
_symmetry_space_group_name_H-M "P B A M"
_symmetry_group_IT_number 55
_symmetry_cell_setting 'orthorhombic'
loop_
_space_group_symop_operation_xyz
x,y,z
-x,-y,z
1/2+x,1/2-y,-z
1/2-x,1/2+y,-z
-x,-y,-z
x,y,-z
1/2-x,1/2+y,z
1/2+x,1/2-y,z
loop_
_atom_site_type_symbol
_atom_site_label
_atom_site_fract_x
_atom_site_fract_y
_atom_site_fract_z
Si Si1 0.913027 0.565488 0.810639
Si Si2 0.252992 0.163017 0.414465
Si Si3 0.397621 0.434905 0.792830
Si Si4 0.618905 0.194374 0.080500
Si Si5 0.759889 0.667677 0.580864
Si Si6 0.986706 0.086473 0.635792
Si Si7 0.503792 0.084583 0.653282
Si Si8 0.580508 0.677169 0.080840
O O1 0.759270 0.545450 0.793242
O O2 0.909010 0.631307 0.864570
O O3 0.000000 0.500000 0.840457
O O4 0.986174 0.586733 0.738000
O O5 0.253918 0.155046 0.500000
O O6 0.254255 0.248567 0.398180
O O7 0.124462 0.124747 0.381790
O O8 0.379217 0.124791 0.380035
O O9 0.500000 0.500000 0.801485
O O10 0.436548 0.402365 0.716431
O O11 0.420736 0.382323 0.858621
O O12 0.530326 0.263647 0.094158
O O13 0.774081 0.212341 0.084461
O O14 0.591795 0.170107 0.000000
O O15 0.805583 0.667596 0.500000
O O16 0.623067 0.624841 0.587954
O O17 0.866557 0.624660 0.625724
O O18 0.000000 0.000000 0.624825
O O19 0.500000 0.000000 0.633265
O O20 0.564788 0.649238 0.000000
#
# Coordination Sequence:
#
# PCOD9428561 Si02
#       8
#     8   8   8   8   8   8   8   8
#     4  10  22  39  59  86 118 154 194 242 292 345
#     4  11  25  41  61  89 118 153 198 247 303 358
#     4  10  22  39  59  86 118 154 194 242 292 345
#     4   9  19  37  59  87 122 157 197 241 286 342
#     4  11  23  41  61  85 120 153 192 245 301 356
#     4  11  23  40  61  87 118 156 198 247 294 357
#     4  11  23  40  61  87 118 156 198 247 294 357
#     4   9  19  37  59  87 122 157 197 241 286 342
#
# _framework density 17.99747
#
# number of rings (size 3 to 8) (size 9 to 14) (size 15 to 20)
#    0.000    1.750    1.250    2.250    5.250    8.500 
#    0.000    0.000    0.000    0.000    0.000    0.000 
#    0.000    0.000    0.000    0.000    0.000    0.000 
#
# Total GULP energy -357153.028181 kJ/mol
# GULP energy per Si atom -5580.516065 kJ/mol
# Density = 1.795651 g / cm^3
# Si number density = 17.997470 Si / 1000 Ang^3
#
#
#
# Elastic Constant Matrix: (Units=GPa)
#
#
# Indices 1 2 3 4 5 6 
#
# 1 93.9668 34.4761 30.8071 0.0000 0.0000 0.0000
# 2 34.4761 82.0250 37.0181 0.0000 0.0000 0.0000
# 3 30.8071 37.0181 52.9746 0.0000 0.0000 0.0000
# 4 0.0000 0.0000 0.0000-1172.1536 0.0000 0.0000
# 5 0.0000 0.0000 0.0000 0.0000 -46.8745 0.0000
# 6 0.0000 0.0000 0.0000 0.0000 0.0000 30.2020
#
#
#
# Elastic Compliance Matrix: (Units=1/GPa)
#
#
# Indices 1 2 3 4 5 6 
#
# 1 0.013686 -0.003156 -0.005754 0.000000 0.000000 0.000000
# 2 -0.003156 0.018535 -0.011117 0.000000 0.000000 0.000000
# 3 -0.005754 -0.011117 0.029991 0.000000 0.000000 0.000000
# 4 0.000000 0.000000 0.000000 -0.000853 0.000000 0.000000
# 5 0.000000 0.000000 0.000000 0.000000 -0.021334 0.000000
# 6 0.000000 0.000000 0.000000 0.000000 0.000000 0.033110
#
#
# Mechanical properties :
#
#
# Convention : Reuss Voigt Hill
#
# Bulk Modulus (GPa) = 45.12711 48.17432 46.65072
# Shear Modulus (GPa) = 41.46768 -229.32088 -93.92660
#
# Velocity S-wave (km/s) = 4.80529 -11.30022 -7.23202
# Velocity P-wave (km/s) = 7.47773 11.97642 6.61507
#
# Compressibility (1/GPa) = 0.02215963
#
# Stress axis : x y z
#
# Youngs Moduli (GPa) = 73.06551 53.95255 33.34280
#
# Poissons Ratio (x) = 0.17026 0.19186
# Poissons Ratio (y) = 0.23057 0.37066
# Poissons Ratio (z) = 0.42042 0.59978
#
# Static dielectric constant tensor:
#      x y z
#    x 1.580490 0.000000 0.000000 
#    y 0.000000 1.596640 0.000000 
#    z 0.000000 0.000000 1.621380 
# 
# From -- ./inp_files/21108.got.cif
#   From: 2010.05.17/outbox.cif.g08.bks.cpg/sg55_11_cif.got.tgz:21108.got - 2010.06.03 13:27:54.
