data_PCOD9428391
_publ_section_title
;
Structure prediction by ZEFSAII (Michael W. Deem and Ramdas Pophale) SiO2 
 PCOD9428391
Probable space group: P B A M
;
_chemical_formula_sum "Si O2"
_cell_formula_units_Z 40
_cell_length_a 10.660372
_cell_length_b 18.941452
_cell_length_c 8.541069
_cell_angle_alpha 90.000000
_cell_angle_beta 90.000000
_cell_angle_gamma 90.000000
_cell_volume 1724.637631
_symmetry_space_group_name_H-M "P B A M"
_symmetry_group_IT_number 55
_symmetry_cell_setting 'orthorhombic'
loop_
_space_group_symop_operation_xyz
x,y,z
-x,-y,z
1/2+x,1/2-y,-z
1/2-x,1/2+y,-z
-x,-y,-z
x,y,-z
1/2-x,1/2+y,z
1/2+x,1/2-y,z
loop_
_atom_site_type_symbol
_atom_site_label
_atom_site_fract_x
_atom_site_fract_y
_atom_site_fract_z
Si Si1 0.277777 0.927079 0.688000
Si Si2 0.651561 0.776865 0.320381
Si Si3 0.395454 0.791649 0.817236
Si Si4 0.767039 0.415644 0.818432
Si Si5 0.495748 0.585571 0.322697
O O1 0.285730 0.933424 0.500000
O O2 0.375112 0.870917 0.753777
O O3 0.137687 0.896731 0.723719
O O4 0.289194 0.003961 0.764781
O O5 0.675632 0.758430 0.500000
O O6 0.764096 0.746257 0.217573
O O7 0.511743 0.755551 0.270969
O O8 0.660102 0.860795 0.290203
O O9 0.422892 0.792215 0.000000
O O10 0.619158 0.398866 0.790921
O O11 0.799595 0.406357 0.000000
O O12 0.500000 0.500000 0.331598
O O13 0.468535 0.611000 0.500000
#
# Coordination Sequence:
#
# PCOD9428391 Si02
#       5
#     8   8   8   8   8
#     4  10  21  40  66  98 136 180 229 277 338 412
#     4  12  27  49  73  99 136 185 232 277 342 419
#     4  12  27  48  72 103 139 177 228 289 346 402
#     4  11  22  38  64 100 138 176 226 286 343 396
#     4   8  16  32  56  89 130 173 219 266 324 396
#
# _framework density 23.193280999999999
#
# number of rings (size 3 to 8) (size 9 to 14) (size 15 to 20)
#    0.000    1.400    0.000    7.200    2.800    5.200 
#    0.000    4.000    0.000    0.000    0.000    0.000 
#    0.000    0.000    0.000    0.000    0.000    0.000 
#
# Total GULP energy -223984.824011 kJ/mol
# GULP energy per Si atom -5599.620600 kJ/mol
# Density = 2.314049 g / cm^3
# Si number density = 23.193281 Si / 1000 Ang^3
#
#
#
# Elastic Constant Matrix: (Units=GPa)
#
#
# Indices 1 2 3 4 5 6 
#
# 1 77.9852 7.3662 -3.8225 0.0000 0.0000 0.0000
# 2 7.3662 72.2433 -6.0385 0.0000 0.0000 0.0000
# 3 -3.8225 -6.0385 73.1990 0.0000 0.0000 0.0000
# 4 0.0000 0.0000 0.0000 32.8181 0.0000 0.0000
# 5 0.0000 0.0000 0.0000 0.0000 -76.6253 0.0000
# 6 0.0000 0.0000 0.0000 0.0000 0.0000 39.3026
#
#
#
# Elastic Compliance Matrix: (Units=1/GPa)
#
#
# Indices 1 2 3 4 5 6 
#
# 1 0.012971 -0.001275 0.000572 0.000000 0.000000 0.000000
# 2 -0.001275 0.014064 0.001094 0.000000 0.000000 0.000000
# 3 0.000572 0.001094 0.013781 0.000000 0.000000 0.000000
# 4 0.000000 0.000000 0.000000 0.030471 0.000000 0.000000
# 5 0.000000 0.000000 0.000000 0.000000 -0.013051 0.000000
# 6 0.000000 0.000000 0.000000 0.000000 0.000000 0.025444
#
#
# Mechanical properties :
#
#
# Convention : Reuss Voigt Hill
#
# Bulk Modulus (GPa) = 24.03939 24.27089 24.15514
# Shear Modulus (GPa) = 51.67178 14.16057 32.91617
#
# Velocity S-wave (km/s) = 4.72516 2.47360 3.77133
# Velocity P-wave (km/s) = 6.33694 4.31806 5.42229
#
# Compressibility (1/GPa) = 0.04159840
#
# Stress axis : x y z
#
# Youngs Moduli (GPa) = 77.09267 71.10603 72.56116
#
# Poissons Ratio (x) = 0.09065 -0.04152
# Poissons Ratio (y) = 0.09828 -0.07935
# Poissons Ratio (z) = -0.04411 -0.07776
#
# Static dielectric constant tensor:
#      x y z
#    x 1.878940 0.000000 0.000000 
#    y 0.000000 1.933180 0.000000 
#    z 0.000000 0.000000 1.765580 
# 
# From -- ./inp_files/3627.got.cif
#   From: 2010.05.17/outbox.cif.g08.bks.cpg/sg55_2_cif.got.tgz:3627.got - 2010.06.03 13:27:54.
