data_PCOD9428753
_publ_section_title
;
Structure prediction by ZEFSAII (Michael W. Deem and Ramdas Pophale) SiO2 
 PCOD9428753
Probable space group: P B A M
;
_chemical_formula_sum "Si O2"
_cell_formula_units_Z 32
_cell_length_a 11.566397
_cell_length_b 11.460314
_cell_length_c 10.194888
_cell_angle_alpha 90.000000
_cell_angle_beta 90.000000
_cell_angle_gamma 90.000000
_cell_volume 1351.378704
_symmetry_space_group_name_H-M "P B A M"
_symmetry_group_IT_number 55
_symmetry_cell_setting 'orthorhombic'
loop_
_space_group_symop_operation_xyz
x,y,z
-x,-y,z
1/2+x,1/2-y,-z
1/2-x,1/2+y,-z
-x,-y,-z
x,y,-z
1/2-x,1/2+y,z
1/2+x,1/2-y,z
loop_
_atom_site_type_symbol
_atom_site_label
_atom_site_fract_x
_atom_site_fract_y
_atom_site_fract_z
Si Si1 0.298688 0.717993 0.148727
Si Si2 0.594640 0.904075 0.264720
Si Si3 0.515924 0.338037 0.352654
Si Si4 0.236651 0.911351 0.356940
O O1 0.177035 0.649472 0.153273
O O2 0.396432 0.651163 0.231866
O O3 0.277338 0.833127 0.235470
O O4 0.334017 0.740769 0.000000
O O5 0.534232 0.795049 0.336290
O O6 0.500000 0.000000 0.224747
O O7 0.687679 0.972591 0.353073
O O8 0.564493 0.350238 0.500000
O O9 0.401555 0.417995 0.344554
O O10 0.256576 0.854671 0.500000
#
# Coordination Sequence:
#
# PCOD9428753 Si02
#       4
#     8   8   8   8
#     4  11  25  42  63  96 137 175 216 271 330 394
#     4  11  23  42  69  99 127 171 225 268 325 385
#     4  10  22  42  68  98 133 170 217 276 329 387
#     4  10  22  42  68  99 130 170 223 277 327 382
#
# _framework density 23.679521000000001
#
# number of rings (size 3 to 8) (size 9 to 14) (size 15 to 20)
#    0.000    1.500    2.500    1.500    0.000   10.500 
#    0.000    3.750    0.000    0.000    0.000    0.000 
#    0.000    0.000    0.000    0.000    0.000    0.000 
#
# Total GULP energy -178872.771402 kJ/mol
# GULP energy per Si atom -5589.774106 kJ/mol
# Density = 2.362563 g / cm^3
# Si number density = 23.679521 Si / 1000 Ang^3
#
#
#
# Elastic Constant Matrix: (Units=GPa)
#
#
# Indices 1 2 3 4 5 6 
#
# 1 126.6444 28.9211 52.3941 0.0000 0.0000 0.0000
# 2 28.9211 91.5332 38.0661 0.0000 0.0000 0.0000
# 3 52.3941 38.0661 217.7904 0.0000 0.0000 0.0000
# 4 0.0000 0.0000 0.0000 11.5470 0.0000 0.0000
# 5 0.0000 0.0000 0.0000 0.0000 19.4987 0.0000
# 6 0.0000 0.0000 0.0000 0.0000 0.0000 58.5965
#
#
#
# Elastic Compliance Matrix: (Units=1/GPa)
#
#
# Indices 1 2 3 4 5 6 
#
# 1 0.009138 -0.002128 -0.001826 0.000000 0.000000 0.000000
# 2 -0.002128 0.012277 -0.001634 0.000000 0.000000 0.000000
# 3 -0.001826 -0.001634 0.005317 0.000000 0.000000 0.000000
# 4 0.000000 0.000000 0.000000 0.086602 0.000000 0.000000
# 5 0.000000 0.000000 0.000000 0.000000 0.051286 0.000000
# 6 0.000000 0.000000 0.000000 0.000000 0.000000 0.017066
#
#
# Mechanical properties :
#
#
# Convention : Reuss Voigt Hill
#
# Bulk Modulus (GPa) = 64.28777 74.97004 69.62891
# Shear Modulus (GPa) = 25.24672 39.03422 32.14047
#
# Velocity S-wave (km/s) = 3.26879 4.06450 3.68817
# Velocity P-wave (km/s) = 6.43853 7.33184 6.89966
#
# Compressibility (1/GPa) = 0.01555506
#
# Stress axis : x y z
#
# Youngs Moduli (GPa) = 109.43809 81.45476 188.09281
#
# Poissons Ratio (x) = 0.17330 0.34353
# Poissons Ratio (y) = 0.23284 0.30733
# Poissons Ratio (z) = 0.19987 0.13309
#
# Static dielectric constant tensor:
#      x y z
#    x 1.944120 0.000000 0.000000 
#    y 0.000000 2.005260 0.000000 
#    z 0.000000 0.000000 1.805390 
# 
# From -- ./inp_files/3419.got.cif
#   From: 2010.05.17/outbox.cif.g08.bks.cpg/sg55_2_cif.got.tgz:3419.got - 2010.06.03 13:27:54.
