data_PCOD9428642
_publ_section_title
;
Structure prediction by ZEFSAII (Michael W. Deem and Ramdas Pophale) SiO2 
 PCOD9428642
Probable space group: P B A M
;
_chemical_formula_sum "Si O2"
_cell_formula_units_Z 40
_cell_length_a 27.660210
_cell_length_b 5.290725
_cell_length_c 11.775439
_cell_angle_alpha 90.000000
_cell_angle_beta 90.000000
_cell_angle_gamma 90.000000
_cell_volume 1723.247942
_symmetry_space_group_name_H-M "P B A M"
_symmetry_group_IT_number 55
_symmetry_cell_setting 'orthorhombic'
loop_
_space_group_symop_operation_xyz
x,y,z
-x,-y,z
1/2+x,1/2-y,-z
1/2-x,1/2+y,-z
-x,-y,-z
x,y,-z
1/2-x,1/2+y,z
1/2+x,1/2-y,z
loop_
_atom_site_type_symbol
_atom_site_label
_atom_site_fract_x
_atom_site_fract_y
_atom_site_fract_z
Si Si1 0.617567 0.542698 0.130642
Si Si2 0.226923 0.154027 0.852059
Si Si3 0.868998 0.261971 0.370853
Si Si4 0.525888 0.247776 0.136004
Si Si5 0.303678 0.740447 0.380049
O O1 0.673042 0.449404 0.128493
O O2 0.609025 0.719668 0.242122
O O3 0.582540 0.302135 0.150355
O O4 0.606653 0.640718 0.000000
O O5 0.236752 0.437805 0.891187
O O6 0.233340 0.189646 0.718448
O O7 0.893180 0.282734 0.500000
O O8 0.837970 0.005308 0.380820
O O9 0.837041 0.514718 0.360933
O O10 0.500000 0.500000 0.180336
O O11 0.500000 0.000000 0.183521
O O12 0.518114 0.242158 0.000000
O O13 0.278757 0.771346 0.500000
#
# Coordination Sequence:
#
# PCOD9428642 Si02
#       5
#     8   8   8   8   8
#     4  10  22  40  63  89 121 162 204 249 306 367
#     4  11  23  37  53  81 120 158 196 237 285 349
#     4   9  18  35  58  84 116 153 194 243 297 350
#     4   9  19  36  59  87 115 146 194 255 309 357
#     4   9  18  34  55  79 111 154 203 249 290 337
#
# _framework density 23.211981000000002
#
# number of rings (size 3 to 8) (size 9 to 14) (size 15 to 20)
#    0.000    2.400    0.000    2.400    0.000    6.400 
#    0.000   14.000    0.000    1.200    0.000    0.000 
#    0.000    0.000    0.000    0.000    0.000    0.000 
#
# Total GULP energy -222791.406451 kJ/mol
# GULP energy per Si atom -5569.785161 kJ/mol
# Density = 2.315915 g / cm^3
# Si number density = 23.211981 Si / 1000 Ang^3
#
#
#
# Elastic Constant Matrix: (Units=GPa)
#
#
# Indices 1 2 3 4 5 6 
#
# 1 58.3599 10.9485 -1.3230 0.0000 0.0000 0.0000
# 2 10.9485 136.1677 6.7575 0.0000 0.0000 0.0000
# 3 -1.3230 6.7575 203.1783 0.0000 0.0000 0.0000
# 4 0.0000 0.0000 0.0000 44.1828 0.0000 0.0000
# 5 0.0000 0.0000 0.0000 0.0000 20.9824 0.0000
# 6 0.0000 0.0000 0.0000 0.0000 0.0000 24.6857
#
#
#
# Elastic Compliance Matrix: (Units=1/GPa)
#
#
# Indices 1 2 3 4 5 6 
#
# 1 0.017403 -0.001407 0.000160 0.000000 0.000000 0.000000
# 2 -0.001407 0.007470 -0.000258 0.000000 0.000000 0.000000
# 3 0.000160 -0.000258 0.004931 0.000000 0.000000 0.000000
# 4 0.000000 0.000000 0.000000 0.022633 0.000000 0.000000
# 5 0.000000 0.000000 0.000000 0.000000 0.047659 0.000000
# 6 0.000000 0.000000 0.000000 0.000000 0.000000 0.040509
#
#
# Mechanical properties :
#
#
# Convention : Reuss Voigt Hill
#
# Bulk Modulus (GPa) = 37.32106 47.83022 42.57564
# Shear Modulus (GPa) = 32.77694 43.39171 38.08433
#
# Velocity S-wave (km/s) = 3.76183 4.32831 4.05497
# Velocity P-wave (km/s) = 5.91454 6.75497 6.34867
#
# Compressibility (1/GPa) = 0.02679452
#
# Stress axis : x y z
#
# Youngs Moduli (GPa) = 57.46244 133.87219 202.78231
#
# Poissons Ratio (x) = 0.18838 -0.03247
# Poissons Ratio (y) = 0.08086 0.05224
# Poissons Ratio (z) = -0.00920 0.03449
#
# Static dielectric constant tensor:
#      x y z
#    x 1.857270 0.000000 0.000000 
#    y 0.000000 1.901020 0.000000 
#    z 0.000000 0.000000 1.994840 
# 
# From -- ./inp_files/16101.got.cif
#   From: 2010.05.17/outbox.cif.g08.bks.cpg/sg55_9_cif.got.tgz:16101.got - 2010.06.03 13:27:54.
