data_PCOD9428603
_publ_section_title
;
Structure prediction by ZEFSAII (Michael W. Deem and Ramdas Pophale) SiO2 
 PCOD9428603
Probable space group: P B A M
;
_chemical_formula_sum "Si O2"
_cell_formula_units_Z 56
_cell_length_a 14.285434
_cell_length_b 8.850518
_cell_length_c 21.276438
_cell_angle_alpha 90.000000
_cell_angle_beta 90.000000
_cell_angle_gamma 90.000000
_cell_volume 2690.054327
_symmetry_space_group_name_H-M "P B A M"
_symmetry_group_IT_number 55
_symmetry_cell_setting 'orthorhombic'
loop_
_space_group_symop_operation_xyz
x,y,z
-x,-y,z
1/2+x,1/2-y,-z
1/2-x,1/2+y,-z
-x,-y,-z
x,y,-z
1/2-x,1/2+y,z
1/2+x,1/2-y,z
loop_
_atom_site_type_symbol
_atom_site_label
_atom_site_fract_x
_atom_site_fract_y
_atom_site_fract_z
Si Si1 0.601399 0.924656 0.074434
Si Si2 0.774060 0.923171 0.168474
Si Si3 0.602088 0.565383 0.066308
Si Si4 0.529842 0.751605 0.573805
Si Si5 0.351352 0.559383 0.573337
Si Si6 0.242742 0.333538 0.259575
Si Si7 0.833449 0.425474 0.342031
O O1 0.677158 0.955310 0.130079
O O2 0.595488 0.743155 0.077365
O O3 0.500000 0.000000 0.086634
O O4 0.624903 0.962600 0.000000
O O5 0.783994 0.756510 0.196412
O O6 0.849496 0.969087 0.118717
O O7 0.794214 0.022924 0.230306
O O8 0.500000 0.500000 0.061328
O O9 0.653535 0.543579 0.000000
O O10 0.528474 0.795472 0.500000
O O11 0.426480 0.689648 0.590870
O O12 0.595908 0.601719 0.578713
O O13 0.577438 0.878030 0.616880
O O14 0.328197 0.581913 0.500000
O O15 0.257583 0.559312 0.613421
O O16 0.164630 0.418726 0.301848
O O17 0.307798 0.218460 0.297873
#
# Coordination Sequence:
#
# PCOD9428603 Si02
#       7
#     8   8   8   8   8   8   8
#     4  10  22  39  64  95 124 156 198 254 318 375
#     4  11  21  44  60  86 124 168 201 256 297 363
#     4  10  22  39  64  95 121 154 202 254 316 377
#     4   9  18  34  60  90 119 155 202 252 311 379
#     4   9  18  34  60  90 117 154 200 250 316 377
#     4  10  24  36  62  82 117 163 215 239 293 359
#     4  11  19  40  58  87 120 160 199 262 301 356
#
# _framework density 20.817422000000001
#
# number of rings (size 3 to 8) (size 9 to 14) (size 15 to 20)
#    0.000    2.000    2.857    1.714    2.000    0.000 
#    0.000    6.429    0.000    1.714    0.000    0.000 
#    0.000    0.000    0.000    0.000    0.000    0.000 
#
# Total GULP energy -312072.116259 kJ/mol
# GULP energy per Si atom -5572.716362 kJ/mol
# Density = 2.077004 g / cm^3
# Si number density = 20.817422 Si / 1000 Ang^3
#
#
#
# Elastic Constant Matrix: (Units=GPa)
#
#
# Indices 1 2 3 4 5 6 
#
# 1 82.0513 27.2577 47.3588 0.0000 0.0000 0.0000
# 2 27.2577 60.2147 42.6149 0.0000 0.0000 0.0000
# 3 47.3588 42.6149 98.5344 0.0000 0.0000 0.0000
# 4 0.0000 0.0000 0.0000 53.5635 0.0000 0.0000
# 5 0.0000 0.0000 0.0000 0.0000 25.3260 0.0000
# 6 0.0000 0.0000 0.0000 0.0000 0.0000 27.7341
#
#
#
# Elastic Compliance Matrix: (Units=1/GPa)
#
#
# Indices 1 2 3 4 5 6 
#
# 1 0.017185 -0.002787 -0.007054 0.000000 0.000000 0.000000
# 2 -0.002787 0.024384 -0.009207 0.000000 0.000000 0.000000
# 3 -0.007054 -0.009207 0.017521 0.000000 0.000000 0.000000
# 4 0.000000 0.000000 0.000000 0.018669 0.000000 0.000000
# 5 0.000000 0.000000 0.000000 0.000000 0.039485 0.000000
# 6 0.000000 0.000000 0.000000 0.000000 0.000000 0.036057
#
#
# Mechanical properties :
#
#
# Convention : Reuss Voigt Hill
#
# Bulk Modulus (GPa) = 47.63038 52.80703 50.21870
# Shear Modulus (GPa) = 25.20221 29.56264 27.38243
#
# Velocity S-wave (km/s) = 3.48319 3.77250 3.63073
# Velocity P-wave (km/s) = 6.25352 6.66314 6.46158
#
# Compressibility (1/GPa) = 0.02099500
#
# Stress axis : x y z
#
# Youngs Moduli (GPa) = 58.19043 41.00996 57.07425
#
# Poissons Ratio (x) = 0.11428 0.40263
# Poissons Ratio (y) = 0.16216 0.52546
# Poissons Ratio (z) = 0.41050 0.37756
#
# Static dielectric constant tensor:
#      x y z
#    x 1.712730 0.000000 0.000000 
#    y 0.000000 1.776330 0.000000 
#    z 0.000000 0.000000 1.797560 
# 
# From -- ./inp_files/22634.got.cif
#   From: 2010.05.17/outbox.cif.g08.bks.cpg/sg55_12_cif.got.tgz:22634.got - 2010.06.03 13:27:54.
