data_PCOD9428930
_publ_section_title
;
Structure prediction by ZEFSAII (Michael W. Deem and Ramdas Pophale) SiO2 
 PCOD9428930
Probable space group: P B A M
;
_chemical_formula_sum "Si O2"
_cell_formula_units_Z 40
_cell_length_a 10.246426
_cell_length_b 11.089100
_cell_length_c 13.820441
_cell_angle_alpha 90.000000
_cell_angle_beta 90.000000
_cell_angle_gamma 90.000000
_cell_volume 1570.328848
_symmetry_space_group_name_H-M "P B A M"
_symmetry_group_IT_number 55
_symmetry_cell_setting 'orthorhombic'
loop_
_space_group_symop_operation_xyz
x,y,z
-x,-y,z
1/2+x,1/2-y,-z
1/2-x,1/2+y,-z
-x,-y,-z
x,y,-z
1/2-x,1/2+y,z
1/2+x,1/2-y,z
loop_
_atom_site_type_symbol
_atom_site_label
_atom_site_fract_x
_atom_site_fract_y
_atom_site_fract_z
Si Si1 0.994919 0.789383 0.387366
Si Si2 0.106005 0.416543 0.241383
Si Si3 0.562240 0.379008 0.116311
Si Si4 0.201435 0.765131 0.115945
Si Si5 0.295455 0.486820 0.610711
O O1 0.999302 0.747590 0.500000
O O2 0.130323 0.860197 0.366036
O O3 0.950831 0.689036 0.311466
O O4 0.891956 0.899945 0.382846
O O5 0.215401 0.368581 0.168222
O O6 0.176680 0.502457 0.318695
O O7 0.000000 0.500000 0.189995
O O8 0.500000 0.500000 0.158544
O O9 0.709190 0.348530 0.145238
O O10 0.452277 0.277027 0.136134
O O11 0.566946 0.391972 0.000000
O O12 0.212631 0.779116 0.000000
O O13 0.252991 0.477457 0.500000
#
# Coordination Sequence:
#
# PCOD9428930 Si02
#       5
#     8   8   8   8   8
#     4   9  21  43  68  93 128 171 213 265 336 404
#     4  12  27  39  63 101 133 169 225 277 330 401
#     4   9  20  42  69  94 125 173 227 285 349 407
#     4  10  24  44  66  95 135 181 233 287 344 404
#     4   9  21  43  67  93 129 173 213 264 333 400
#
# _framework density 25.472372
#
# number of rings (size 3 to 8) (size 9 to 14) (size 15 to 20)
#    0.000    2.200    0.000    1.800    5.600    5.200 
#    0.000    4.000    0.000    0.000    0.000    0.000 
#    0.000    0.000    0.000    0.000    0.000    0.000 
#
# Total GULP energy -223825.666847 kJ/mol
# GULP energy per Si atom -5595.641671 kJ/mol
# Density = 2.541440 g / cm^3
# Si number density = 25.472372 Si / 1000 Ang^3
#
#
#
# Elastic Constant Matrix: (Units=GPa)
#
#
# Indices 1 2 3 4 5 6 
#
# 1 69.4266 21.0571 20.9030 0.0000 0.0000 0.0000
# 2 21.0571 74.6804 18.4720 0.0000 0.0000 0.0000
# 3 20.9030 18.4720 110.3123 0.0000 0.0000 0.0000
# 4 0.0000 0.0000 0.0000 26.0500 0.0000 0.0000
# 5 0.0000 0.0000 0.0000 0.0000 23.9899 0.0000
# 6 0.0000 0.0000 0.0000 0.0000 0.0000 36.9509
#
#
#
# Elastic Compliance Matrix: (Units=1/GPa)
#
#
# Indices 1 2 3 4 5 6 
#
# 1 0.016351 -0.004010 -0.002427 0.000000 0.000000 0.000000
# 2 -0.004010 0.014952 -0.001744 0.000000 0.000000 0.000000
# 3 -0.002427 -0.001744 0.009817 0.000000 0.000000 0.000000
# 4 0.000000 0.000000 0.000000 0.038388 0.000000 0.000000
# 5 0.000000 0.000000 0.000000 0.000000 0.041684 0.000000
# 6 0.000000 0.000000 0.000000 0.000000 0.000000 0.027063
#
#
# Mechanical properties :
#
#
# Convention : Reuss Voigt Hill
#
# Bulk Modulus (GPa) = 40.39002 41.69816 41.04409
# Shear Modulus (GPa) = 28.92360 30.33065 29.62713
#
# Velocity S-wave (km/s) = 3.37336 3.45444 3.41414
# Velocity P-wave (km/s) = 5.57347 5.68474 5.62938
#
# Compressibility (1/GPa) = 0.02475859
#
# Stress axis : x y z
#
# Youngs Moduli (GPa) = 61.15990 66.87878 101.86357
#
# Poissons Ratio (x) = 0.26818 0.24720
# Poissons Ratio (y) = 0.24525 0.17765
# Poissons Ratio (z) = 0.14842 0.11663
#
# Static dielectric constant tensor:
#      x y z
#    x 2.030250 0.000000 0.000000 
#    y 0.000000 2.095500 0.000000 
#    z 0.000000 0.000000 1.945180 
# 
# From -- ./inp_files/18141.got.cif
#   From: 2010.05.17/outbox.cif.g08.bks.cpg/sg55_10_cif.got.tgz:18141.got - 2010.06.03 13:27:54.
