data_PCOD9428271
_publ_section_title
;
Structure prediction by ZEFSAII (Michael W. Deem and Ramdas Pophale) SiO2 
 PCOD9428271
Probable space group: P B A M
;
_chemical_formula_sum "Si O2"
_cell_formula_units_Z 34
_cell_length_a 20.733408
_cell_length_b 9.515100
_cell_length_c 7.178704
_cell_angle_alpha 90.000000
_cell_angle_beta 90.000000
_cell_angle_gamma 90.000000
_cell_volume 1416.217959
_symmetry_space_group_name_H-M "P B A M"
_symmetry_group_IT_number 55
_symmetry_cell_setting 'orthorhombic'
loop_
_space_group_symop_operation_xyz
x,y,z
-x,-y,z
1/2+x,1/2-y,-z
1/2-x,1/2+y,-z
-x,-y,-z
x,y,-z
1/2-x,1/2+y,z
1/2+x,1/2-y,z
loop_
_atom_site_type_symbol
_atom_site_label
_atom_site_fract_x
_atom_site_fract_y
_atom_site_fract_z
Si Si1 0.500000 0.000000 0.000000
Si Si2 0.918925 0.372536 0.722653
Si Si3 0.326622 0.626197 0.272656
Si Si4 0.793757 0.192214 0.274326
Si Si5 0.027413 0.151522 0.274461
O O1 0.557574 0.004724 0.162784
O O2 0.920163 0.394983 0.500000
O O3 0.851561 0.299575 0.772575
O O4 0.974543 0.263277 0.786853
O O5 0.326722 0.625001 0.500000
O O6 0.273422 0.739418 0.214612
O O7 0.307849 0.467261 0.214366
O O8 0.399014 0.661970 0.213644
O O9 0.793261 0.186875 0.500000
O O10 0.027126 0.159150 0.500000
O O11 0.000000 0.000000 0.222556
#
# Coordination Sequence:
#
# PCOD9428271 Si02
#       5
#     2   8   8   8   8
#     4  12  26  40  58  90 124 156 204 256 306 368
#     4  10  21  39  62  87 122 165 202 249 308 366
#     4   9  16  27  51  89 124 159 205 256 305 366
#     4   9  17  30  52  84 121 160 203 251 307 367
#     4   9  15  29  57  88 116 152 205 251 295 360
#
# _framework density 24.007603
#
# number of rings (size 3 to 8) (size 9 to 14) (size 15 to 20)
#    0.000    2.588    2.353    0.353    0.000    1.882 
#    0.000    7.647    0.000    5.647    0.000    0.000 
#    0.000    0.000    0.000    0.000    0.000    0.000 
#
# Total GULP energy -189578.120324 kJ/mol
# GULP energy per Si atom -5575.827068 kJ/mol
# Density = 2.395296 g / cm^3
# Si number density = 24.007603 Si / 1000 Ang^3
#
#
#
# Elastic Constant Matrix: (Units=GPa)
#
#
# Indices 1 2 3 4 5 6 
#
# 1 204.1902 32.2892 7.0300 0.0000 0.0000 0.0000
# 2 32.2892 33.3725 -6.6462 0.0000 0.0000 0.0000
# 3 7.0300 -6.6462 136.1736 0.0000 0.0000 0.0000
# 4 0.0000 0.0000 0.0000 42.2966 0.0000 0.0000
# 5 0.0000 0.0000 0.0000 0.0000 -101.4991 0.0000
# 6 0.0000 0.0000 0.0000 0.0000 0.0000 47.6027
#
#
#
# Elastic Compliance Matrix: (Units=1/GPa)
#
#
# Indices 1 2 3 4 5 6 
#
# 1 0.005827 -0.005754 -0.000582 0.000000 0.000000 0.000000
# 2 -0.005754 0.035941 0.002051 0.000000 0.000000 0.000000
# 3 -0.000582 0.002051 0.007474 0.000000 0.000000 0.000000
# 4 0.000000 0.000000 0.000000 0.023643 0.000000 0.000000
# 5 0.000000 0.000000 0.000000 0.000000 -0.009852 0.000000
# 6 0.000000 0.000000 0.000000 0.000000 0.000000 0.021007
#
#
# Mechanical properties :
#
#
# Convention : Reuss Voigt Hill
#
# Bulk Modulus (GPa) = 24.58660 48.78694 36.68677
# Shear Modulus (GPa) = 47.09628 20.41759 33.75694
#
# Velocity S-wave (km/s) = 4.43394 2.91943 3.75386
# Velocity P-wave (km/s) = 6.03958 5.63291 5.83979
#
# Compressibility (1/GPa) = 0.04067256
#
# Stress axis : x y z
#
# Youngs Moduli (GPa) = 171.60545 27.82375 133.80243
#
# Poissons Ratio (x) = 0.16010 0.07783
# Poissons Ratio (y) = 0.98742 -0.27445
# Poissons Ratio (z) = 0.09982 -0.05707
#
# Static dielectric constant tensor:
#      x y z
#    x 1.857180 0.000000 0.000000 
#    y 0.000000 2.198480 0.000000 
#    z 0.000000 0.000000 2.063380 
# 
# From -- ./inp_files/8382.got.cif
#   From: 2010.05.17/outbox.cif.g08.bks.cpg/sg55_5_cif.got.tgz:8382.got - 2010.06.03 13:27:54.
