data_PCOD9428983
_publ_section_title
;
Structure prediction by ZEFSAII (Michael W. Deem and Ramdas Pophale) SiO2 
 PCOD9428983
Probable space group: P B A M
;
_chemical_formula_sum "Si O2"
_cell_formula_units_Z 48
_cell_length_a 16.194539
_cell_length_b 9.228295
_cell_length_c 16.284586
_cell_angle_alpha 90.000000
_cell_angle_beta 90.000000
_cell_angle_gamma 90.000000
_cell_volume 2433.698536
_symmetry_space_group_name_H-M "P B A M"
_symmetry_group_IT_number 55
_symmetry_cell_setting 'orthorhombic'
loop_
_space_group_symop_operation_xyz
x,y,z
-x,-y,z
1/2+x,1/2-y,-z
1/2-x,1/2+y,-z
-x,-y,-z
x,y,-z
1/2-x,1/2+y,z
1/2+x,1/2-y,z
loop_
_atom_site_type_symbol
_atom_site_label
_atom_site_fract_x
_atom_site_fract_y
_atom_site_fract_z
Si Si1 0.952799 0.292447 0.271281
Si Si2 0.159495 0.975565 0.704408
Si Si3 0.555666 0.352174 0.405687
Si Si4 0.316447 0.041758 0.198816
Si Si5 0.058470 0.117973 0.855196
Si Si6 0.719053 0.232813 0.907850
O O1 0.904843 0.434380 0.240850
O O2 0.017423 0.269945 0.345808
O O3 0.999972 0.233749 0.190216
O O4 0.877780 0.185389 0.301626
O O5 0.140855 0.083516 0.629337
O O6 0.252953 0.988582 0.731874
O O7 0.104102 0.039625 0.778792
O O8 0.500000 0.500000 0.399033
O O9 0.558471 0.307359 0.500000
O O10 0.282376 0.187856 0.154354
O O11 0.307651 0.921173 0.128715
O O12 0.133491 0.178221 0.907260
O O13 0.000000 0.000000 0.896944
O O14 0.752614 0.222203 0.000000
#
# Coordination Sequence:
#
# PCOD9428983 Si02
#       6
#     8   8   8   8   8   8
#     4   9  16  31  53  76 104 142 182 223 265 325
#     4   8  15  30  51  76 104 143 183 215 263 331
#     4   8  14  27  52  83 109 136 180 228 266 311
#     4  11  20  35  54  78 108 147 185 225 280 339
#     4   8  17  34  55  76 102 139 183 223 270 341
#     4  11  23  37  54  78 108 142 186 238 287 330
#
# _framework density 19.723067
#
# number of rings (size 3 to 8) (size 9 to 14) (size 15 to 20)
#    0.000    2.833    1.667    2.500    0.000    1.000 
#    0.000    3.333    0.000    0.000    0.000   15.167 
#    0.000    0.000    0.000    0.000    0.000    0.000 
#
# Total GULP energy -267304.760929 kJ/mol
# GULP energy per Si atom -5568.849186 kJ/mol
# Density = 1.967818 g / cm^3
# Si number density = 19.723067 Si / 1000 Ang^3
#
#
#
# Elastic Constant Matrix: (Units=GPa)
#
#
# Indices 1 2 3 4 5 6 
#
# 1 44.2465 -9.7822 5.0969 0.0000 0.0000 0.0000
# 2 -9.7822 40.2781 10.6246 0.0000 0.0000 0.0000
# 3 5.0969 10.6246 92.7451 0.0000 0.0000 0.0000
# 4 0.0000 0.0000 0.0000 21.0185 0.0000 0.0000
# 5 0.0000 0.0000 0.0000 0.0000 14.6613 0.0000
# 6 0.0000 0.0000 0.0000 0.0000 0.0000 20.2015
#
#
#
# Elastic Compliance Matrix: (Units=1/GPa)
#
#
# Indices 1 2 3 4 5 6 
#
# 1 0.024263 0.006439 -0.002071 0.000000 0.000000 0.000000
# 2 0.006439 0.027310 -0.003482 0.000000 0.000000 0.000000
# 3 -0.002071 -0.003482 0.011295 0.000000 0.000000 0.000000
# 4 0.000000 0.000000 0.000000 0.047577 0.000000 0.000000
# 5 0.000000 0.000000 0.000000 0.000000 0.068207 0.000000
# 6 0.000000 0.000000 0.000000 0.000000 0.000000 0.049501
#
#
# Mechanical properties :
#
#
# Convention : Reuss Voigt Hill
#
# Bulk Modulus (GPa) = 15.47063 21.01645 18.24354
# Shear Modulus (GPa) = 20.16713 22.59827 21.38270
#
# Velocity S-wave (km/s) = 3.20115 3.38861 3.29621
# Velocity P-wave (km/s) = 4.63941 5.09795 4.87407
#
# Compressibility (1/GPa) = 0.06463863
#
# Stress axis : x y z
#
# Youngs Moduli (GPa) = 41.21538 36.61691 88.53484
#
# Poissons Ratio (x) = -0.23577 0.18336
# Poissons Ratio (y) = -0.26538 0.30831
# Poissons Ratio (z) = 0.08536 0.12751
#
# Static dielectric constant tensor:
#      x y z
#    x 1.708130 0.000000 0.000000 
#    y 0.000000 1.787250 0.000000 
#    z 0.000000 0.000000 1.688060 
# 
# From -- ./inp_files/21739.got.cif
#   From: 2010.05.17/outbox.cif.g08.bks.cpg/sg55_11_cif.got.tgz:21739.got - 2010.06.03 13:27:54.
