data_PCOD9428086
_publ_section_title
;
Structure prediction by ZEFSAII (Michael W. Deem and Ramdas Pophale) SiO2 
 PCOD9428086
Probable space group: P B A M
;
_chemical_formula_sum "Si O2"
_cell_formula_units_Z 44
_cell_length_a 22.195219
_cell_length_b 13.749819
_cell_length_c 7.536847
_cell_angle_alpha 90.000000
_cell_angle_beta 90.000000
_cell_angle_gamma 90.000000
_cell_volume 2300.096806
_symmetry_space_group_name_H-M "P B A M"
_symmetry_group_IT_number 55
_symmetry_cell_setting 'orthorhombic'
loop_
_space_group_symop_operation_xyz
x,y,z
-x,-y,z
1/2+x,1/2-y,-z
1/2-x,1/2+y,-z
-x,-y,-z
x,y,-z
1/2-x,1/2+y,z
1/2+x,1/2-y,z
loop_
_atom_site_type_symbol
_atom_site_label
_atom_site_fract_x
_atom_site_fract_y
_atom_site_fract_z
Si Si1 0.067821 0.408086 0.799624
Si Si2 0.643125 0.294484 0.202097
Si Si3 0.225904 0.284684 0.500000
Si Si4 0.972297 0.898678 0.784131
Si Si5 0.849213 0.303933 0.500000
Si Si6 0.651993 0.017079 0.500000
Si Si7 0.451900 0.206449 0.213215
O O1 0.102230 0.303554 0.803458
O O2 0.107395 0.470596 0.667223
O O3 0.999871 0.379774 0.745490
O O4 0.067658 0.446877 0.000000
O O5 0.697833 0.270062 0.329874
O O6 0.596194 0.375451 0.271114
O O7 0.661624 0.316384 0.000000
O O8 0.297313 0.275990 0.500000
O O9 0.199036 0.393938 0.500000
O O10 0.014521 0.807501 0.738042
O O11 0.970151 0.900391 0.000000
O O12 0.000000 0.000000 0.722338
O O13 0.819519 0.411055 0.500000
O O14 0.892271 0.298716 0.671156
O O15 0.442455 0.205572 0.000000
#
# Coordination Sequence:
#
# PCOD9428086 Si02
#       7
#     8   8   4   8   4   4   8
#     4   8  15  31  57  83 105 131 166 208 265 330
#     4   8  15  31  55  77 100 135 175 217 260 306
#     4  10  22  40  53  69 101 143 189 228 250 303
#     4   8  14  29  55  86 114 137 168 216 274 330
#     4  12  25  38  52  76 109 146 181 225 269 309
#     4  10  21  38  57  73 102 140 180 225 266 306
#     4   9  19  35  54  82 117 141 165 216 276 322
#
# _framework density 19.129629999999999
#
# number of rings (size 3 to 8) (size 9 to 14) (size 15 to 20)
#    0.000    3.091    0.000    2.727    0.000    5.091 
#    3.273    2.727    0.000    0.000    0.000    0.000 
#    0.000    0.000    0.000    0.000    0.000    0.000 
#
# Total GULP energy -245465.899523 kJ/mol
# GULP energy per Si atom -5578.770444 kJ/mol
# Density = 1.908609 g / cm^3
# Si number density = 19.129630 Si / 1000 Ang^3
#
#
#
# Elastic Constant Matrix: (Units=GPa)
#
#
# Indices 1 2 3 4 5 6 
#
# 1 95.6017 14.8014 36.1270 0.0000 0.0000 0.0000
# 2 14.8014 68.0406 9.1192 0.0000 0.0000 0.0000
# 3 36.1270 9.1192 69.8159 0.0000 0.0000 0.0000
# 4 0.0000 0.0000 0.0000********** 0.0000 0.0000
# 5 0.0000 0.0000 0.0000 0.0000 55.1376 0.0000
# 6 0.0000 0.0000 0.0000 0.0000 0.0000 23.9738
#
#
#
# Elastic Compliance Matrix: (Units=1/GPa)
#
#
# Indices 1 2 3 4 5 6 
#
# 1 0.013265 -0.002001 -0.006603 0.000000 0.000000 0.000000
# 2 -0.002001 0.015261 -0.000958 0.000000 0.000000 0.000000
# 3 -0.006603 -0.000958 0.017865 0.000000 0.000000 0.000000
# 4 0.000000 0.000000 0.000000 -0.000077 0.000000 0.000000
# 5 0.000000 0.000000 0.000000 0.000000 0.018136 0.000000
# 6 0.000000 0.000000 0.000000 0.000000 0.000000 0.041712
#
#
# Mechanical properties :
#
#
# Convention : Reuss Voigt Hill
#
# Bulk Modulus (GPa) = 36.67318 39.28370 37.97844
# Shear Modulus (GPa) = 37.20943 -2560.61463 -1261.70260
#
# Velocity S-wave (km/s) = 4.41514 -36.62602 -25.70965
# Velocity P-wave (km/s) = 6.72337 42.04807 29.34993
#
# Compressibility (1/GPa) = 0.02726789
#
# Stress axis : x y z
#
# Youngs Moduli (GPa) = 75.38669 65.52764 55.97473
#
# Poissons Ratio (x) = 0.13110 0.36959
# Poissons Ratio (y) = 0.15082 0.05363
# Poissons Ratio (z) = 0.49776 0.06278
#
# Static dielectric constant tensor:
#      x y z
#    x 1.637220 0.000000 0.000000 
#    y 0.000000 1.693830 0.000000 
#    z 0.000000 0.000000 1.688370 
# 
# From -- ./inp_files/7388.got.cif
#   From: 2010.05.17/outbox.cif.g08.bks.cpg/sg55_4_cif.got.tgz:7388.got - 2010.06.03 13:27:54.
