data_PCOD9428152
_publ_section_title
;
Structure prediction by ZEFSAII (Michael W. Deem and Ramdas Pophale) SiO2 
 PCOD9428152
Probable space group: P B A M
;
_chemical_formula_sum "Si O2"
_cell_formula_units_Z 64
_cell_length_a 14.921830
_cell_length_b 23.021774
_cell_length_c 7.494602
_cell_angle_alpha 90.000000
_cell_angle_beta 90.000000
_cell_angle_gamma 90.000000
_cell_volume 2574.598126
_symmetry_space_group_name_H-M "P B A M"
_symmetry_group_IT_number 55
_symmetry_cell_setting 'orthorhombic'
loop_
_space_group_symop_operation_xyz
x,y,z
-x,-y,z
1/2+x,1/2-y,-z
1/2-x,1/2+y,-z
-x,-y,-z
x,y,-z
1/2-x,1/2+y,z
1/2+x,1/2-y,z
loop_
_atom_site_type_symbol
_atom_site_label
_atom_site_fract_x
_atom_site_fract_y
_atom_site_fract_z
Si Si1 0.221083 0.056551 0.719686
Si Si2 0.658433 0.785671 0.799065
Si Si3 0.175728 0.386791 0.783054
Si Si4 0.583135 0.538792 0.717574
Si Si5 0.369363 0.342249 0.702882
Si Si6 0.402688 0.011267 0.294582
Si Si7 0.353858 0.676671 0.701628
Si Si8 0.465549 0.789985 0.211216
O O1 0.222383 0.057793 0.500000
O O2 0.170201 0.997719 0.774214
O O3 0.165455 0.112870 0.781455
O O4 0.325138 0.053964 0.778300
O O5 0.639993 0.716804 0.807407
O O6 0.753151 0.796071 0.705350
O O7 0.564153 0.805024 0.713933
O O8 0.669948 0.808327 0.000000
O O9 0.271526 0.370974 0.705375
O O10 0.142515 0.448181 0.713178
O O11 0.107374 0.336180 0.726783
O O12 0.180761 0.387770 0.000000
O O13 0.500000 0.500000 0.769841
O O14 0.585572 0.542158 0.500000
O O15 0.572487 0.605011 0.778455
O O16 0.395566 0.327778 0.500000
O O17 0.418144 0.029574 0.500000
O O18 0.500000 0.000000 0.209641
O O19 0.382606 0.665636 0.500000
O O20 0.423790 0.725262 0.767996
O O21 0.476219 0.798043 0.000000
#
# Coordination Sequence:
#
# PCOD9428152 Si02
#       8
#     8   8   8   8   8   8   8   8
#     4   9  19  36  54  83 121 152 188 237 294 348
#     4  11  24  42  61  84 121 162 200 243 302 361
#     4  11  22  39  62  86 118 158 200 246 298 357
#     4   9  18  33  57  86 118 151 184 233 296 349
#     4  11  21  37  64  91 115 151 201 249 298 351
#     4  10  21  38  61  87 118 156 196 247 300 346
#     4  11  23  38  62  91 120 154 200 253 298 353
#     4  10  24  43  61  83 120 166 200 242 303 362
#
# _framework density 24.858246999999999
#
# number of rings (size 3 to 8) (size 9 to 14) (size 15 to 20)
#    0.000    1.750    2.500    1.500    3.500    1.750 
#    0.000    1.250    0.000    1.500    0.000    0.000 
#    0.000    0.000    0.000    0.000    0.000    0.000 
#
# Total GULP energy -357618.948502 kJ/mol
# GULP energy per Si atom -5587.796070 kJ/mol
# Density = 2.480167 g / cm^3
# Si number density = 24.858247 Si / 1000 Ang^3
#
#
#
# Elastic Constant Matrix: (Units=GPa)
#
#
# Indices 1 2 3 4 5 6 
#
# 1 96.2039 -18.4318 -3.7637 0.0000 0.0000 0.0000
# 2 -18.4318 63.9891 -8.9030 0.0000 0.0000 0.0000
# 3 -3.7637 -8.9030 80.8389 0.0000 0.0000 0.0000
# 4 0.0000 0.0000 0.0000 13.0648 0.0000 0.0000
# 5 0.0000 0.0000 0.0000 0.0000 7.6094 0.0000
# 6 0.0000 0.0000 0.0000 0.0000 0.0000 35.1581
#
#
#
# Elastic Compliance Matrix: (Units=1/GPa)
#
#
# Indices 1 2 3 4 5 6 
#
# 1 0.011063 0.003309 0.000879 0.000000 0.000000 0.000000
# 2 0.003309 0.016861 0.002011 0.000000 0.000000 0.000000
# 3 0.000879 0.002011 0.012633 0.000000 0.000000 0.000000
# 4 0.000000 0.000000 0.000000 0.076541 0.000000 0.000000
# 5 0.000000 0.000000 0.000000 0.000000 0.131416 0.000000
# 6 0.000000 0.000000 0.000000 0.000000 0.000000 0.028443
#
#
# Mechanical properties :
#
#
# Convention : Reuss Voigt Hill
#
# Bulk Modulus (GPa) = 18.88387 19.87054 19.37721
# Shear Modulus (GPa) = 17.71736 29.30850 23.51293
#
# Velocity S-wave (km/s) = 2.67261 3.43742 3.07885
# Velocity P-wave (km/s) = 4.13967 4.87497 4.52229
#
# Compressibility (1/GPa) = 0.05295524
#
# Stress axis : x y z
#
# Youngs Moduli (GPa) = 90.39162 59.30984 79.15960
#
# Poissons Ratio (x) = -0.19626 -0.06962
# Poissons Ratio (y) = -0.29911 -0.15919
# Poissons Ratio (z) = -0.07950 -0.11927
#
# Static dielectric constant tensor:
#      x y z
#    x 2.008320 0.000000 0.000000 
#    y 0.000000 1.958990 0.000000 
#    z 0.000000 0.000000 1.945610 
# 
# From -- ./inp_files/6735.got.cif
#   From: 2010.05.17/outbox.cif.g08.bks.cpg/sg55_4_cif.got.tgz:6735.got - 2010.06.03 13:27:54.
