data_PCOD9428907
_publ_section_title
;
Structure prediction by ZEFSAII (Michael W. Deem and Ramdas Pophale) SiO2 
 PCOD9428907
Probable space group: P B A M
;
_chemical_formula_sum "Si O2"
_cell_formula_units_Z 32
_cell_length_a 8.771760
_cell_length_b 10.649979
_cell_length_c 13.900217
_cell_angle_alpha 90.000000
_cell_angle_beta 90.000000
_cell_angle_gamma 90.000000
_cell_volume 1298.545203
_symmetry_space_group_name_H-M "P B A M"
_symmetry_group_IT_number 55
_symmetry_cell_setting 'orthorhombic'
loop_
_space_group_symop_operation_xyz
x,y,z
-x,-y,z
1/2+x,1/2-y,-z
1/2-x,1/2+y,-z
-x,-y,-z
x,y,-z
1/2-x,1/2+y,z
1/2+x,1/2-y,z
loop_
_atom_site_type_symbol
_atom_site_label
_atom_site_fract_x
_atom_site_fract_y
_atom_site_fract_z
Si Si1 0.653707 0.443256 0.387212
Si Si2 0.057488 0.367320 0.182360
Si Si3 0.605664 0.621361 0.888314
Si Si4 0.399221 0.837168 0.611867
O O1 0.500000 0.500000 0.341428
O O2 0.623247 0.430929 0.500000
O O3 0.783255 0.547294 0.382624
O O4 0.676890 0.297402 0.363477
O O5 0.240655 0.372219 0.174250
O O6 0.999748 0.356896 0.293338
O O7 0.000000 0.500000 0.142533
O O8 0.992356 0.246478 0.129063
O O9 0.500000 0.500000 0.870662
O O10 0.654199 0.616074 0.000000
O O11 0.460142 0.835725 0.500000
#
# Coordination Sequence:
#
# PCOD9428907 Si02
#       4
#     8   8   8   8
#     4   9  20  39  62  89 134 192 246 296 347 408
#     4  12  28  45  76 114 147 193 246 304 369 449
#     4  11  27  52  79 107 146 190 243 315 383 444
#     4  10  24  41  65 102 147 197 243 293 353 428
#
# _framework density 24.642961
#
# number of rings (size 3 to 8) (size 9 to 14) (size 15 to 20)
#    0.000    1.500    0.000    2.250   10.500    4.500 
#    0.000    0.000    0.000    0.000    0.000    0.000 
#    0.000    0.000    0.000    0.000    0.000    0.000 
#
# Total GULP energy -178830.181009 kJ/mol
# GULP energy per Si atom -5588.443157 kJ/mol
# Density = 2.458687 g / cm^3
# Si number density = 24.642961 Si / 1000 Ang^3
#
#
#
# Elastic Constant Matrix: (Units=GPa)
#
#
# Indices 1 2 3 4 5 6 
#
# 1 89.4359 50.5618 13.5782 0.0000 0.0000 0.0000
# 2 50.5618 249.7324 16.0482 0.0000 0.0000 0.0000
# 3 13.5782 16.0482 131.8403 0.0000 0.0000 0.0000
# 4 0.0000 0.0000 0.0000 19.7302 0.0000 0.0000
# 5 0.0000 0.0000 0.0000 0.0000 40.4333 0.0000
# 6 0.0000 0.0000 0.0000 0.0000 0.0000 30.4814
#
#
#
# Elastic Compliance Matrix: (Units=1/GPa)
#
#
# Indices 1 2 3 4 5 6 
#
# 1 0.012758 -0.002518 -0.001007 0.000000 0.000000 0.000000
# 2 -0.002518 0.004533 -0.000292 0.000000 0.000000 0.000000
# 3 -0.001007 -0.000292 0.007724 0.000000 0.000000 0.000000
# 4 0.000000 0.000000 0.000000 0.050684 0.000000 0.000000
# 5 0.000000 0.000000 0.000000 0.000000 0.024732 0.000000
# 6 0.000000 0.000000 0.000000 0.000000 0.000000 0.032807
#
#
# Mechanical properties :
#
#
# Convention : Reuss Voigt Hill
#
# Bulk Modulus (GPa) = 57.54103 70.15386 63.84744
# Shear Modulus (GPa) = 34.09087 44.18366 39.13726
#
# Velocity S-wave (km/s) = 3.72343 4.23892 3.98951
# Velocity P-wave (km/s) = 6.47193 7.24485 6.86927
#
# Compressibility (1/GPa) = 0.01737890
#
# Stress axis : x y z
#
# Youngs Moduli (GPa) = 78.38334 220.60770 129.46188
#
# Poissons Ratio (x) = 0.55555 0.13042
# Poissons Ratio (y) = 0.19739 0.03786
# Poissons Ratio (z) = 0.07896 0.06451
#
# Static dielectric constant tensor:
#      x y z
#    x 1.987940 0.000000 0.000000 
#    y 0.000000 1.965510 0.000000 
#    z 0.000000 0.000000 1.966940 
# 
# From -- ./inp_files/16845.got.cif
#   From: 2010.05.17/outbox.cif.g08.bks.cpg/sg55_9_cif.got.tgz:16845.got - 2010.06.03 13:27:54.
