data_PCOD9428563
_publ_section_title
;
Structure prediction by ZEFSAII (Michael W. Deem and Ramdas Pophale) SiO2 
 PCOD9428563
Probable space group: P B A M
;
_chemical_formula_sum "Si O2"
_cell_formula_units_Z 48
_cell_length_a 9.662572
_cell_length_b 28.235995
_cell_length_c 7.698269
_cell_angle_alpha 90.000000
_cell_angle_beta 90.000000
_cell_angle_gamma 90.000000
_cell_volume 2100.336704
_symmetry_space_group_name_H-M "P B A M"
_symmetry_group_IT_number 55
_symmetry_cell_setting 'orthorhombic'
loop_
_space_group_symop_operation_xyz
x,y,z
-x,-y,z
1/2+x,1/2-y,-z
1/2-x,1/2+y,-z
-x,-y,-z
x,y,-z
1/2-x,1/2+y,z
1/2+x,1/2-y,z
loop_
_atom_site_type_symbol
_atom_site_label
_atom_site_fract_x
_atom_site_fract_y
_atom_site_fract_z
Si Si1 0.201019 0.615004 0.292008
Si Si2 0.988593 0.852096 0.301013
Si Si3 0.842357 0.491433 0.710466
Si Si4 0.081840 0.954069 0.797684
Si Si5 0.504558 0.805686 0.790022
Si Si6 0.204419 0.774988 0.200873
O O1 0.217926 0.612681 0.500000
O O2 0.333631 0.644360 0.224921
O O3 0.202569 0.560982 0.228608
O O4 0.059111 0.642177 0.254359
O O5 0.981479 0.835342 0.500000
O O6 0.043729 0.905826 0.296032
O O7 0.096334 0.818267 0.206967
O O8 0.834247 0.492463 0.500000
O O9 0.741085 0.531467 0.780763
O O10 0.000000 0.500000 0.760711
O O11 0.044929 0.947986 0.000000
O O12 0.000000 0.000000 0.728045
O O13 0.621105 0.769281 0.721435
O O14 0.352570 0.790773 0.724325
O O15 0.500872 0.802715 0.000000
O O16 0.231403 0.762675 0.000000
#
# Coordination Sequence:
#
# PCOD9428563 Si02
#       6
#     8   8   8   8   8   8
#     4  10  22  39  59  87 121 157 201 246 293 354
#     4  11  23  39  62  88 119 160 200 245 297 352
#     4  10  22  40  61  86 121 163 203 246 296 350
#     4  11  23  39  61  90 121 158 202 248 295 350
#     4  10  22  40  64  89 120 156 193 243 300 356
#     4  10  22  41  63  91 120 154 197 243 297 357
#
# _framework density 22.853480000000001
#
# number of rings (size 3 to 8) (size 9 to 14) (size 15 to 20)
#    0.000    1.667    1.667    2.000    2.333    5.667 
#    0.000    0.000    0.000    0.000    0.000    0.000 
#    0.000    0.000    0.000    0.000    0.000    0.000 
#
# Total GULP energy -268384.366251 kJ/mol
# GULP energy per Si atom -5591.340964 kJ/mol
# Density = 2.280146 g / cm^3
# Si number density = 22.853480 Si / 1000 Ang^3
#
#
#
# Elastic Constant Matrix: (Units=GPa)
#
#
# Indices 1 2 3 4 5 6 
#
# 1 117.6023 6.3515 1.5443 0.0000 0.0000 0.0000
# 2 6.3515 61.1135 -6.2218 0.0000 0.0000 0.0000
# 3 1.5443 -6.2218 42.9950 0.0000 0.0000 0.0000
# 4 0.0000 0.0000 0.0000 17.9744 0.0000 0.0000
# 5 0.0000 0.0000 0.0000 0.0000 -94.5258 0.0000
# 6 0.0000 0.0000 0.0000 0.0000 0.0000 39.5282
#
#
#
# Elastic Compliance Matrix: (Units=1/GPa)
#
#
# Indices 1 2 3 4 5 6 
#
# 1 0.008560 -0.000935 -0.000443 0.000000 0.000000 0.000000
# 2 -0.000935 0.016710 0.002452 0.000000 0.000000 0.000000
# 3 -0.000443 0.002452 0.023629 0.000000 0.000000 0.000000
# 4 0.000000 0.000000 0.000000 0.055635 0.000000 0.000000
# 5 0.000000 0.000000 0.000000 0.000000 -0.010579 0.000000
# 6 0.000000 0.000000 0.000000 0.000000 0.000000 0.025298
#
#
# Mechanical properties :
#
#
# Convention : Reuss Voigt Hill
#
# Bulk Modulus (GPa) = 19.58980 25.00654 22.29817
# Shear Modulus (GPa) = 37.28022 7.26450 22.27236
#
# Velocity S-wave (km/s) = 4.04328 1.78483 3.12520
# Velocity P-wave (km/s) = 5.51253 3.90043 4.77501
#
# Compressibility (1/GPa) = 0.05104697
#
# Stress axis : x y z
#
# Youngs Moduli (GPa) = 116.82891 59.84542 42.32056
#
# Poissons Ratio (x) = 0.05594 0.01873
# Poissons Ratio (y) = 0.10920 -0.10375
# Poissons Ratio (z) = 0.05172 -0.14672
#
# Static dielectric constant tensor:
#      x y z
#    x 1.862630 0.000000 0.000000 
#    y 0.000000 1.823470 0.000000 
#    z 0.000000 0.000000 1.854590 
# 
# From -- ./inp_files/2783.got.cif
#   From: 2010.05.17/outbox.cif.g08.bks.cpg/sg55_2_cif.got.tgz:2783.got - 2010.06.03 13:27:54.
