data_PCOD9428277
_publ_section_title
;
Structure prediction by ZEFSAII (Michael W. Deem and Ramdas Pophale) SiO2 
 PCOD9428277
Probable space group: P B A M
;
_chemical_formula_sum "Si O2"
_cell_formula_units_Z 32
_cell_length_a 12.067574
_cell_length_b 5.013835
_cell_length_c 21.369781
_cell_angle_alpha 90.000000
_cell_angle_beta 90.000000
_cell_angle_gamma 90.000000
_cell_volume 1292.974857
_symmetry_space_group_name_H-M "P B A M"
_symmetry_group_IT_number 55
_symmetry_cell_setting 'orthorhombic'
loop_
_space_group_symop_operation_xyz
x,y,z
-x,-y,z
1/2+x,1/2-y,-z
1/2-x,1/2+y,-z
-x,-y,-z
x,y,-z
1/2-x,1/2+y,z
1/2+x,1/2-y,z
loop_
_atom_site_type_symbol
_atom_site_label
_atom_site_fract_x
_atom_site_fract_y
_atom_site_fract_z
Si Si1 0.000000 0.000000 0.897454
Si Si2 0.829917 0.207191 0.000000
Si Si3 0.927439 0.761232 0.303577
Si Si4 0.819028 0.684427 0.822966
Si Si5 0.821523 0.952155 0.568727
O O1 0.929554 0.789781 0.856343
O O2 0.089033 0.852588 0.941837
O O3 0.772374 0.496170 0.000000
O O4 0.835818 0.696482 0.252003
O O5 0.886499 0.865261 0.370310
O O6 0.000000 0.500000 0.312444
O O7 0.000000 0.000000 0.275808
O O8 0.778053 0.391850 0.839383
O O9 0.872240 0.898906 0.500000
O O10 0.713110 0.760851 0.571312
#
# Coordination Sequence:
#
# PCOD9428277 Si02
#       5
#     4   4   8   8   8
#     4  11  26  46  76 106 143 182 238 282 329 422
#     4  11  26  49  74 108 144 185 225 284 344 396
#     4  12  24  41  63  94 135 174 227 289 341 409
#     4  12  26  44  69 101 140 185 228 283 345 401
#     4  10  21  39  62  88 123 171 226 282 344 412
#
# _framework density 24.749130999999998
#
# number of rings (size 3 to 8) (size 9 to 14) (size 15 to 20)
#    0.000    0.750    1.250    6.000    0.000    5.000 
#    0.000    0.000    0.000    0.000    0.000    0.000 
#    0.000    0.000    0.000    0.000    0.000    0.000 
#
# Total GULP energy -179409.832931 kJ/mol
# GULP energy per Si atom -5606.557279 kJ/mol
# Density = 2.469280 g / cm^3
# Si number density = 24.749131 Si / 1000 Ang^3
#
#
#
# Elastic Constant Matrix: (Units=GPa)
#
#
# Indices 1 2 3 4 5 6 
#
# 1 83.9625 3.1113 49.9731 0.0000 0.0000 0.0000
# 2 3.1113 50.3272 -10.7847 0.0000 0.0000 0.0000
# 3 49.9731 -10.7847 141.2108 0.0000 0.0000 0.0000
# 4 0.0000 0.0000 0.0000 20.6628 0.0000 0.0000
# 5 0.0000 0.0000 0.0000 0.0000 64.0173 0.0000
# 6 0.0000 0.0000 0.0000 0.0000 0.0000 44.4999
#
#
#
# Elastic Compliance Matrix: (Units=1/GPa)
#
#
# Indices 1 2 3 4 5 6 
#
# 1 0.015312 -0.002143 -0.005582 0.000000 0.000000 0.000000
# 2 -0.002143 0.020500 0.002324 0.000000 0.000000 0.000000
# 3 -0.005582 0.002324 0.009235 0.000000 0.000000 0.000000
# 4 0.000000 0.000000 0.000000 0.048396 0.000000 0.000000
# 5 0.000000 0.000000 0.000000 0.000000 0.015621 0.000000
# 6 0.000000 0.000000 0.000000 0.000000 0.000000 0.022472
#
#
# Mechanical properties :
#
#
# Convention : Reuss Voigt Hill
#
# Bulk Modulus (GPa) = 29.20167 40.01110 34.60638
# Shear Modulus (GPa) = 32.51955 41.38272 36.95113
#
# Velocity S-wave (km/s) = 3.62880 4.09355 3.86816
# Velocity P-wave (km/s) = 5.42054 6.20844 5.82782
#
# Compressibility (1/GPa) = 0.03424462
#
# Stress axis : x y z
#
# Youngs Moduli (GPa) = 65.30792 48.77931 108.28737
#
# Poissons Ratio (x) = 0.10453 0.60451
# Poissons Ratio (y) = 0.13995 -0.25166
# Poissons Ratio (z) = 0.36458 -0.11337
#
# Static dielectric constant tensor:
#      x y z
#    x 1.966310 0.000000 0.000000 
#    y 0.000000 1.880350 0.000000 
#    z 0.000000 0.000000 1.957210 
# 
# From -- ./inp_files/22784.got.cif
#   From: 2010.05.17/outbox.cif.g08.bks.cpg/sg55_12_cif.got.tgz:22784.got - 2010.06.03 13:27:54.
