data_PCOD9428116
_publ_section_title
;
Structure prediction by ZEFSAII (Michael W. Deem and Ramdas Pophale) SiO2 
 PCOD9428116
Probable space group: P B A M
;
_chemical_formula_sum "Si O2"
_cell_formula_units_Z 48
_cell_length_a 8.131096
_cell_length_b 14.324055
_cell_length_c 16.863885
_cell_angle_alpha 90.000000
_cell_angle_beta 90.000000
_cell_angle_gamma 90.000000
_cell_volume 1964.141177
_symmetry_space_group_name_H-M "P B A M"
_symmetry_group_IT_number 55
_symmetry_cell_setting 'orthorhombic'
loop_
_space_group_symop_operation_xyz
x,y,z
-x,-y,z
1/2+x,1/2-y,-z
1/2-x,1/2+y,-z
-x,-y,-z
x,y,-z
1/2-x,1/2+y,z
1/2+x,1/2-y,z
loop_
_atom_site_type_symbol
_atom_site_label
_atom_site_fract_x
_atom_site_fract_y
_atom_site_fract_z
Si Si1 0.957338 0.217846 0.908911
Si Si2 0.831067 0.274409 0.590261
Si Si3 0.138810 0.380112 0.660368
Si Si4 0.356893 0.884462 0.154630
Si Si5 0.165940 0.062217 0.157677
Si Si6 0.167347 0.057569 0.655915
O O1 0.007300 0.323792 0.890240
O O2 0.118499 0.153748 0.891209
O O3 0.812311 0.174783 0.855958
O O4 0.908559 0.206419 0.000000
O O5 0.833638 0.242504 0.500000
O O6 0.794718 0.188098 0.647609
O O7 0.686993 0.350592 0.604244
O O8 0.993709 0.331029 0.613027
O O9 0.098166 0.385117 0.752993
O O10 0.191301 0.482986 0.634614
O O11 0.308558 0.990334 0.131163
O O12 0.188138 0.084275 0.251053
O O13 0.000000 0.000000 0.152911
O O14 0.000000 0.000000 0.647504
#
# Coordination Sequence:
#
# PCOD9428116 Si02
#       6
#     8   8   8   8   8   8
#     4  11  21  35  58  87 119 151 190 243 296 348
#     4  12  25  40  62  91 123 157 198 252 305 353
#     4  11  23  41  63  86 118 161 205 247 295 359
#     4  10  21  38  59  83 113 154 198 238 287 350
#     4   8  18  36  58  82 110 151 197 234 280 348
#     4  10  21  40  64  89 120 158 202 246 294 358
#
# _framework density 24.438161000000001
#
# number of rings (size 3 to 8) (size 9 to 14) (size 15 to 20)
#    0.000    1.667    0.000    5.500    0.000    6.000 
#    0.000    2.500    0.000    2.000    0.000    0.000 
#    0.000    0.000    0.000    0.000    0.000    0.000 
#
# Total GULP energy -268800.394776 kJ/mol
# GULP energy per Si atom -5600.008225 kJ/mol
# Density = 2.438254 g / cm^3
# Si number density = 24.438161 Si / 1000 Ang^3
#
#
#
# Elastic Constant Matrix: (Units=GPa)
#
#
# Indices 1 2 3 4 5 6 
#
# 1 82.2946 2.7115 -3.0086 0.0000 0.0000 0.0000
# 2 2.7115 109.2473 19.1920 0.0000 0.0000 0.0000
# 3 -3.0086 19.1920 40.4883 0.0000 0.0000 0.0000
# 4 0.0000 0.0000 0.0000 21.9504 0.0000 0.0000
# 5 0.0000 0.0000 0.0000 0.0000 6.5480 0.0000
# 6 0.0000 0.0000 0.0000 0.0000 0.0000 45.1190
#
#
#
# Elastic Compliance Matrix: (Units=1/GPa)
#
#
# Indices 1 2 3 4 5 6 
#
# 1 0.012210 -0.000504 0.001146 0.000000 0.000000 0.000000
# 2 -0.000504 0.010006 -0.004780 0.000000 0.000000 0.000000
# 3 0.001146 -0.004780 0.027050 0.000000 0.000000 0.000000
# 4 0.000000 0.000000 0.000000 0.045557 0.000000 0.000000
# 5 0.000000 0.000000 0.000000 0.000000 0.152718 0.000000
# 6 0.000000 0.000000 0.000000 0.000000 0.000000 0.022164
#
#
# Mechanical properties :
#
#
# Convention : Reuss Voigt Hill
#
# Bulk Modulus (GPa) = 24.39698 29.98000 27.18849
# Shear Modulus (GPa) = 17.14416 28.93250 23.03833
#
# Velocity S-wave (km/s) = 2.65152 3.44453 3.07370
# Velocity P-wave (km/s) = 4.40215 5.30227 4.87303
#
# Compressibility (1/GPa) = 0.04098867
#
# Stress axis : x y z
#
# Youngs Moduli (GPa) = 81.90006 99.94149 36.96903
#
# Poissons Ratio (x) = 0.05042 -0.04238
# Poissons Ratio (y) = 0.04131 0.17673
# Poissons Ratio (z) = -0.09389 0.47776
#
# Static dielectric constant tensor:
#      x y z
#    x 2.078520 0.000000 0.000000 
#    y 0.000000 1.944630 0.000000 
#    z 0.000000 0.000000 1.832200 
# 
# From -- ./inp_files/20781.got.cif
#   From: 2010.05.17/outbox.cif.g08.bks.cpg/sg55_11_cif.got.tgz:20781.got - 2010.06.03 13:27:54.
