data_PCOD9428991
_publ_section_title
;
Structure prediction by ZEFSAII (Michael W. Deem and Ramdas Pophale) SiO2 
 PCOD9428991
Probable space group: P B A M
;
_chemical_formula_sum "Si O2"
_cell_formula_units_Z 56
_cell_length_a 14.278346
_cell_length_b 30.229079
_cell_length_c 7.596997
_cell_angle_alpha 90.000000
_cell_angle_beta 90.000000
_cell_angle_gamma 90.000000
_cell_volume 3279.025335
_symmetry_space_group_name_H-M "P B A M"
_symmetry_group_IT_number 55
_symmetry_cell_setting 'orthorhombic'
loop_
_space_group_symop_operation_xyz
x,y,z
-x,-y,z
1/2+x,1/2-y,-z
1/2-x,1/2+y,-z
-x,-y,-z
x,y,-z
1/2-x,1/2+y,z
1/2+x,1/2-y,z
loop_
_atom_site_type_symbol
_atom_site_label
_atom_site_fract_x
_atom_site_fract_y
_atom_site_fract_z
Si Si1 0.587413 0.100614 0.287154
Si Si2 0.262231 0.176998 0.716124
Si Si3 0.679632 0.193389 0.795420
Si Si4 0.613328 0.005163 0.704723
Si Si5 0.371979 0.091127 0.715756
Si Si6 0.370609 0.264003 0.710308
Si Si7 0.925362 0.780037 0.701929
O O1 0.585942 0.098046 0.500000
O O2 0.643201 0.144265 0.237397
O O3 0.478528 0.102976 0.230953
O O4 0.630238 0.054039 0.220278
O O5 0.261114 0.178044 0.500000
O O6 0.301825 0.129679 0.770652
O O7 0.331762 0.216531 0.773826
O O8 0.158120 0.189964 0.778130
O O9 0.787091 0.201512 0.742439
O O10 0.616512 0.230302 0.700367
O O11 0.670915 0.203711 0.000000
O O12 0.642703 0.006421 0.500000
O O13 0.650133 0.958716 0.778796
O O14 0.500000 0.000000 0.706691
O O15 0.372046 0.089941 0.500000
O O16 0.381941 0.259042 0.500000
O O17 0.471456 0.277949 0.783324
O O18 0.936664 0.795059 0.500000
#
# Coordination Sequence:
#
# PCOD9428991 Si02
#       7
#     8   8   8   8   8   8   8
#     4   9  15  25  41  59  82 113 145 170 195 239
#     4   8  13  21  37  61  82 100 126 162 205 245
#     4  11  21  29  40  61  87 112 138 170 209 248
#     4   7  11  19  34  58  83 106 134 167 201 239
#     4   8  12  20  38  64  88 106 129 166 208 247
#     4   9  17  30  45  59  79 109 143 173 200 238
#     4   9  17  30  46  62  81 108 141 173 205 245
#
# _framework density 17.078244999999999
#
# number of rings (size 3 to 8) (size 9 to 14) (size 15 to 20)
#    0.000    3.286    0.000    4.714    0.000    2.857 
#    0.000    0.000    0.000    3.857    0.000    1.000 
#    0.000    8.000    0.000    0.000    0.000    0.000 
#
# Total GULP energy -311807.304561 kJ/mol
# GULP energy per Si atom -5567.987581 kJ/mol
# Density = 1.703937 g / cm^3
# Si number density = 17.078245 Si / 1000 Ang^3
#
#
#
# Elastic Constant Matrix: (Units=GPa)
#
#
# Indices 1 2 3 4 5 6 
#
# 1 100.3289 50.1764 -2.8622 0.0000 0.0000 0.0000
# 2 50.1764 114.8924 -14.8820 0.0000 0.0000 0.0000
# 3 -2.8622 -14.8820 35.1204 0.0000 0.0000 0.0000
# 4 0.0000 0.0000 0.0000 -18.8665 0.0000 0.0000
# 5 0.0000 0.0000 0.0000 0.0000 20.7169 0.0000
# 6 0.0000 0.0000 0.0000 0.0000 0.0000 20.1030
#
#
#
# Elastic Compliance Matrix: (Units=1/GPa)
#
#
# Indices 1 2 3 4 5 6 
#
# 1 0.012818 -0.005780 -0.001405 0.000000 0.000000 0.000000
# 2 -0.005780 0.011815 0.004536 0.000000 0.000000 0.000000
# 3 -0.001405 0.004536 0.030281 0.000000 0.000000 0.000000
# 4 0.000000 0.000000 0.000000 -0.053004 0.000000 0.000000
# 5 0.000000 0.000000 0.000000 0.000000 0.048270 0.000000
# 6 0.000000 0.000000 0.000000 0.000000 0.000000 0.049744
#
#
# Mechanical properties :
#
#
# Convention : Reuss Voigt Hill
#
# Bulk Modulus (GPa) = 20.15438 35.02291 27.58864
# Shear Modulus (GPa) = 41.06440 18.91798 29.99119
#
# Velocity S-wave (km/s) = 4.90888 3.33186 4.19514
# Velocity P-wave (km/s) = 6.62995 5.94589 6.29721
#
# Compressibility (1/GPa) = 0.04961700
#
# Stress axis : x y z
#
# Youngs Moduli (GPa) = 78.01701 84.63482 33.02401
#
# Poissons Ratio (x) = 0.48917 0.04638
# Poissons Ratio (y) = 0.45092 -0.14979
# Poissons Ratio (z) = 0.10958 -0.38388
#
# Static dielectric constant tensor:
#      x y z
#    x 1.573790 0.000000 0.000000 
#    y 0.000000 1.595460 0.000000 
#    z 0.000000 0.000000 1.601710 
# 
# From -- ./inp_files/6862.got.cif
#   From: 2010.05.17/outbox.cif.g08.bks.cpg/sg55_4_cif.got.tgz:6862.got - 2010.06.03 13:27:54.
