data_PCOD9428994
_publ_section_title
;
Structure prediction by ZEFSAII (Michael W. Deem and Ramdas Pophale) SiO2 
 PCOD9428994
Probable space group: P B A M
;
_chemical_formula_sum "Si O2"
_cell_formula_units_Z 56
_cell_length_a 7.902315
_cell_length_b 22.941470
_cell_length_c 16.102198
_cell_angle_alpha 90.000000
_cell_angle_beta 90.000000
_cell_angle_gamma 90.000000
_cell_volume 2919.179109
_symmetry_space_group_name_H-M "P B A M"
_symmetry_group_IT_number 55
_symmetry_cell_setting 'orthorhombic'
loop_
_space_group_symop_operation_xyz
x,y,z
-x,-y,z
1/2+x,1/2-y,-z
1/2-x,1/2+y,-z
-x,-y,-z
x,y,-z
1/2-x,1/2+y,z
1/2+x,1/2-y,z
loop_
_atom_site_type_symbol
_atom_site_label
_atom_site_fract_x
_atom_site_fract_y
_atom_site_fract_z
Si Si1 0.981669 0.658143 0.265990
Si Si2 0.132073 0.577861 0.404065
Si Si3 0.931369 0.790834 0.091064
Si Si4 0.452753 0.161316 0.090314
Si Si5 0.993681 0.855048 0.405750
Si Si6 0.615856 0.716719 0.260893
Si Si7 0.169449 0.969882 0.600283
O O1 0.019846 0.614189 0.340345
O O2 0.003761 0.628684 0.175280
O O3 0.111658 0.713131 0.264416
O O4 0.800955 0.689714 0.270305
O O5 0.067935 0.577638 0.500000
O O6 0.314660 0.611086 0.405458
O O7 0.177523 0.511909 0.376191
O O8 0.933525 0.720254 0.091524
O O9 0.036117 0.805128 0.173693
O O10 0.742060 0.816116 0.094247
O O11 0.003983 0.807697 0.000000
O O12 0.476446 0.132774 0.000000
O O13 0.021815 0.834210 0.500000
O O14 0.004608 0.805571 0.337793
O O15 0.139428 0.902294 0.383312
O O16 0.164693 0.974689 0.500000
O O17 0.000000 0.000000 0.634504
#
# Coordination Sequence:
#
# PCOD9428994 Si02
#       7
#     8   8   8   8   8   8   8
#     4  11  21  31  44  64  93 125 154 184 220 266
#     4   9  17  31  50  69  90 117 150 187 224 264
#     4   9  16  27  44  64  86 113 146 184 223 263
#     4   9  16  27  44  64  86 113 146 184 223 263
#     4   9  17  31  50  69  90 117 150 187 224 264
#     4  11  21  31  44  64  93 125 154 184 220 266
#     4   7  12  26  49  71  86 107 144 187 227 264
#
# _framework density 19.183474
#
# number of rings (size 3 to 8) (size 9 to 14) (size 15 to 20)
#    0.000    2.714    0.000    6.857    0.000    2.857 
#    0.000    0.714    0.000    2.571    0.000    1.000 
#    0.000    8.000    0.000    0.000    0.000    0.000 
#
# Total GULP energy -312034.361169 kJ/mol
# GULP energy per Si atom -5572.042164 kJ/mol
# Density = 1.913981 g / cm^3
# Si number density = 19.183474 Si / 1000 Ang^3
#
#
#
# Elastic Constant Matrix: (Units=GPa)
#
#
# Indices 1 2 3 4 5 6 
#
# 1 71.5757 -1.5218 19.3291 0.0000 0.0000 0.0000
# 2 -1.5218 15.2951 22.7036 0.0000 0.0000 0.0000
# 3 19.3291 22.7036 118.4265 0.0000 0.0000 0.0000
# 4 0.0000 0.0000 0.0000 0.6487 0.0000 0.0000
# 5 0.0000 0.0000 0.0000 0.0000 17.3775 0.0000
# 6 0.0000 0.0000 0.0000 0.0000 0.0000 12.1302
#
#
#
# Elastic Compliance Matrix: (Units=1/GPa)
#
#
# Indices 1 2 3 4 5 6 
#
# 1 0.015169 0.007246 -0.003865 0.000000 0.000000 0.000000
# 2 0.007246 0.094848 -0.019366 0.000000 0.000000 0.000000
# 3 -0.003865 -0.019366 0.012788 0.000000 0.000000 0.000000
# 4 0.000000 0.000000 0.000000 1.541466 0.000000 0.000000
# 5 0.000000 0.000000 0.000000 0.000000 0.057546 0.000000
# 6 0.000000 0.000000 0.000000 0.000000 0.000000 0.082439
#
#
# Mechanical properties :
#
#
# Convention : Reuss Voigt Hill
#
# Bulk Modulus (GPa) = 11.00898 31.81325 21.41111
# Shear Modulus (GPa) = 2.67881 17.01703 9.84792
#
# Velocity S-wave (km/s) = 1.18298 2.98160 2.26819
# Velocity P-wave (km/s) = 2.75992 5.33600 4.24795
#
# Compressibility (1/GPa) = 0.09083495
#
# Stress axis : x y z
#
# Youngs Moduli (GPa) = 65.92371 10.54321 78.20088
#
# Poissons Ratio (x) = -0.07640 0.30225
# Poissons Ratio (y) = -0.47771 1.51444
# Poissons Ratio (z) = 0.25480 0.20418
#
# Static dielectric constant tensor:
#      x y z
#    x 1.750030 0.000000 0.000000 
#    y 0.000000 1.671710 0.000000 
#    z 0.000000 0.000000 1.700150 
# 
# From -- ./inp_files/17903.got.cif
#   From: 2010.05.17/outbox.cif.g08.bks.cpg/sg55_9_cif.got.tgz:17903.got - 2010.06.03 13:27:54.
