data_PCOD9428320
_publ_section_title
;
Structure prediction by ZEFSAII (Michael W. Deem and Ramdas Pophale) SiO2 
 PCOD9428320
Probable space group: P B A M
;
_chemical_formula_sum "Si O2"
_cell_formula_units_Z 56
_cell_length_a 10.363915
_cell_length_b 14.084078
_cell_length_c 15.680303
_cell_angle_alpha 90.000000
_cell_angle_beta 90.000000
_cell_angle_gamma 90.000000
_cell_volume 2288.794044
_symmetry_space_group_name_H-M "P B A M"
_symmetry_group_IT_number 55
_symmetry_cell_setting 'orthorhombic'
loop_
_space_group_symop_operation_xyz
x,y,z
-x,-y,z
1/2+x,1/2-y,-z
1/2-x,1/2+y,-z
-x,-y,-z
x,y,-z
1/2-x,1/2+y,z
1/2+x,1/2-y,z
loop_
_atom_site_type_symbol
_atom_site_label
_atom_site_fract_x
_atom_site_fract_y
_atom_site_fract_z
Si Si1 0.342700 0.576151 0.125648
Si Si2 0.100812 0.732227 0.759881
Si Si3 0.794130 0.922730 0.314573
Si Si4 0.036620 0.217044 0.404449
Si Si5 0.956739 0.391881 0.097500
Si Si6 0.380362 0.358975 0.909600
Si Si7 0.373308 0.934068 0.401495
O O1 0.199805 0.612551 0.104100
O O2 0.463168 0.635505 0.091742
O O3 0.342167 0.468538 0.093468
O O4 0.836702 0.182428 0.000000
O O5 0.183397 0.650448 0.715213
O O6 0.002249 0.675889 0.823873
O O7 0.050448 0.790043 0.679199
O O8 0.166944 0.803225 0.826898
O O9 0.865039 0.869485 0.391518
O O10 0.870251 0.931068 0.226671
O O11 0.735666 0.022400 0.342078
O O12 0.479235 0.284752 0.500000
O O13 0.099151 0.322226 0.392846
O O14 0.000000 0.500000 0.113900
O O15 0.996491 0.368546 0.000000
O O16 0.337316 0.950104 0.500000
O O17 0.500000 0.000000 0.386020
#
# Coordination Sequence:
#
# PCOD9428320 Si02
#       7
#     8   8   8   8   8   8   8
#     4  10  22  39  65  92 123 168 212 259 312 382
#     4  11  24  38  62  94 122 164 209 264 314 373
#     4  11  23  39  65  93 133 160 211 276 319 384
#     4  11  24  42  64  93 128 167 214 265 325 389
#     4  10  22  40  62  93 130 163 203 259 322 374
#     4  11  22  42  66  89 127 170 218 259 310 384
#     4  10  21  39  65  91 120 167 217 262 325 392
#
# _framework density 24.467032
#
# number of rings (size 3 to 8) (size 9 to 14) (size 15 to 20)
#    0.000    1.429    2.857    2.571    6.000    0.571 
#    0.000    0.000    0.000    0.857    0.000    0.000 
#    0.000    0.000    0.000    0.000    0.000    0.000 
#
# Total GULP energy -312855.892662 kJ/mol
# GULP energy per Si atom -5586.712369 kJ/mol
# Density = 2.441134 g / cm^3
# Si number density = 24.467032 Si / 1000 Ang^3
#
#
#
# Elastic Constant Matrix: (Units=GPa)
#
#
# Indices 1 2 3 4 5 6 
#
# 1 36.8975 3.3332 24.4981 0.0000 0.0000 0.0000
# 2 3.3332 74.4742 23.7616 0.0000 0.0000 0.0000
# 3 24.4981 23.7616 177.4030 0.0000 0.0000 0.0000
# 4 0.0000 0.0000 0.0000 43.5821 0.0000 0.0000
# 5 0.0000 0.0000 0.0000 0.0000 9.3567 0.0000
# 6 0.0000 0.0000 0.0000 0.0000 0.0000 17.9438
#
#
#
# Elastic Compliance Matrix: (Units=1/GPa)
#
#
# Indices 1 2 3 4 5 6 
#
# 1 0.029838 -0.000022 -0.004117 0.000000 0.000000 0.000000
# 2 -0.000022 0.014027 -0.001876 0.000000 0.000000 0.000000
# 3 -0.004117 -0.001876 0.006457 0.000000 0.000000 0.000000
# 4 0.000000 0.000000 0.000000 0.022945 0.000000 0.000000
# 5 0.000000 0.000000 0.000000 0.000000 0.106875 0.000000
# 6 0.000000 0.000000 0.000000 0.000000 0.000000 0.055729
#
#
# Mechanical properties :
#
#
# Convention : Reuss Voigt Hill
#
# Bulk Modulus (GPa) = 26.11545 43.55117 34.83331
# Shear Modulus (GPa) = 19.18172 29.98866 24.58519
#
# Velocity S-wave (km/s) = 2.80301 3.50476 3.17334
# Velocity P-wave (km/s) = 4.60138 5.84948 5.26256
#
# Compressibility (1/GPa) = 0.03829151
#
# Stress axis : x y z
#
# Youngs Moduli (GPa) = 33.51449 71.29143 154.87740
#
# Poissons Ratio (x) = 0.00155 0.63770
# Poissons Ratio (y) = 0.00073 0.29052
# Poissons Ratio (z) = 0.13800 0.13373
#
# Static dielectric constant tensor:
#      x y z
#    x 2.010510 0.000000 0.000000 
#    y 0.000000 1.940520 0.000000 
#    z 0.000000 0.000000 1.954120 
# 
# From -- ./inp_files/18357.got.cif
#   From: 2010.05.17/outbox.cif.g08.bks.cpg/sg55_10_cif.got.tgz:18357.got - 2010.06.03 13:27:54.
