data_PCOD9428606
_publ_section_title
;
Structure prediction by ZEFSAII (Michael W. Deem and Ramdas Pophale) SiO2 
 PCOD9428606
Probable space group: P B A M
;
_chemical_formula_sum "Si O2"
_cell_formula_units_Z 52
_cell_length_a 11.574431
_cell_length_b 9.566083
_cell_length_c 23.500835
_cell_angle_alpha 90.000000
_cell_angle_beta 90.000000
_cell_angle_gamma 90.000000
_cell_volume 2602.058692
_symmetry_space_group_name_H-M "P B A M"
_symmetry_group_IT_number 55
_symmetry_cell_setting 'orthorhombic'
loop_
_space_group_symop_operation_xyz
x,y,z
-x,-y,z
1/2+x,1/2-y,-z
1/2-x,1/2+y,-z
-x,-y,-z
x,y,-z
1/2-x,1/2+y,z
1/2+x,1/2-y,z
loop_
_atom_site_type_symbol
_atom_site_label
_atom_site_fract_x
_atom_site_fract_y
_atom_site_fract_z
Si Si1 0.891363 0.407148 0.087301
Si Si2 0.500000 0.500000 0.696815
Si Si3 0.194338 0.065408 0.000000
Si Si4 0.970991 0.193732 0.000000
Si Si5 0.630363 0.996154 0.782887
Si Si6 0.203353 0.843596 0.371480
Si Si7 0.820018 0.787114 0.736916
Si Si8 0.627033 0.941470 0.568188
O O1 0.877139 0.430581 0.154086
O O2 0.000000 0.500000 0.069461
O O3 0.774751 0.444780 0.054694
O O4 0.927216 0.262032 0.058886
O O5 0.599386 0.572450 0.658964
O O6 0.563608 0.378911 0.733018
O O7 0.110083 0.199047 0.000000
O O8 0.100687 0.946914 0.000000
O O9 0.672178 0.157472 0.780802
O O10 0.500000 0.000000 0.758672
O O11 0.717299 0.896020 0.749465
O O12 0.289788 0.785071 0.323034
O O13 0.152881 0.709628 0.404478
O O14 0.276319 0.949409 0.410334
O O15 0.631278 0.930087 0.500000
O O16 0.500000 0.000000 0.584220
#
# Coordination Sequence:
#
# PCOD9428606 Si02
#       8
#     8   4   4   4   8   8   8   8
#     4  10  24  40  65  90 132 167 212 269 329 394
#     4  12  24  42  73 104 132 179 236 276 334 418
#     4  10  22  39  65  99 124 168 215 268 320 401
#     4  10  22  39  67  95 124 170 217 262 326 393
#     4  11  26  44  67  98 137 176 225 283 340 396
#     4  12  23  45  69 100 136 181 227 282 338 407
#     4  12  24  45  71  99 134 181 228 277 344 403
#     4  11  25  44  68 101 138 178 226 282 344 409
#
# _framework density 19.984178
#
# number of rings (size 3 to 8) (size 9 to 14) (size 15 to 20)
#    0.000    0.923    3.077    3.231    6.462    2.462 
#    0.000    2.308    0.000    0.000    0.000    0.000 
#    0.000    0.000    0.000    0.000    0.000    0.000 
#
# Total GULP energy -290307.890961 kJ/mol
# GULP energy per Si atom -5582.844057 kJ/mol
# Density = 1.993869 g / cm^3
# Si number density = 19.984178 Si / 1000 Ang^3
#
#
#
# Elastic Constant Matrix: (Units=GPa)
#
#
# Indices 1 2 3 4 5 6 
#
# 1 101.3842 30.3288 10.1615 0.0000 0.0000 0.0000
# 2 30.3288 97.0492 18.2312 0.0000 0.0000 0.0000
# 3 10.1615 18.2312 62.9151 0.0000 0.0000 0.0000
# 4 0.0000 0.0000 0.0000 109.1465 0.0000 0.0000
# 5 0.0000 0.0000 0.0000 0.0000 -93.0775 0.0000
# 6 0.0000 0.0000 0.0000 0.0000 0.0000 55.2524
#
#
#
# Elastic Compliance Matrix: (Units=1/GPa)
#
#
# Indices 1 2 3 4 5 6 
#
# 1 0.010920 -0.003259 -0.000819 0.000000 0.000000 0.000000
# 2 -0.003259 0.011870 -0.002913 0.000000 0.000000 0.000000
# 3 -0.000819 -0.002913 0.016871 0.000000 0.000000 0.000000
# 4 0.000000 0.000000 0.000000 0.009162 0.000000 0.000000
# 5 0.000000 0.000000 0.000000 0.000000 -0.010744 0.000000
# 6 0.000000 0.000000 0.000000 0.000000 0.000000 0.018099
#
#
# Mechanical properties :
#
#
# Convention : Reuss Voigt Hill
#
# Bulk Modulus (GPa) = 38.94356 42.08795 40.51576
# Shear Modulus (GPa) = 63.51586 27.77275 45.64431
#
# Velocity S-wave (km/s) = 5.64376 3.73196 4.78433
# Velocity P-wave (km/s) = 7.87394 6.29892 7.13005
#
# Compressibility (1/GPa) = 0.02567818
#
# Stress axis : x y z
#
# Youngs Moduli (GPa) = 91.57122 84.24801 59.27348
#
# Poissons Ratio (x) = 0.27455 0.04857
# Poissons Ratio (y) = 0.29841 0.17268
# Poissons Ratio (z) = 0.07504 0.24543
#
# Static dielectric constant tensor:
#      x y z
#    x 1.677830 0.000000 0.000000 
#    y 0.000000 1.617180 0.000000 
#    z 0.000000 0.000000 1.672260 
# 
# From -- ./inp_files/23939.got.cif
#   From: 2010.05.17/outbox.cif.g08.bks.cpg/sg55_12_cif.got.tgz:23939.got - 2010.06.03 13:27:54.
