data_PCOD9428648
_publ_section_title
;
Structure prediction by ZEFSAII (Michael W. Deem and Ramdas Pophale) SiO2 
 PCOD9428648
Probable space group: P B A M
;
_chemical_formula_sum "Si O2"
_cell_formula_units_Z 58
_cell_length_a 18.994257
_cell_length_b 17.890298
_cell_length_c 7.704881
_cell_angle_alpha 90.000000
_cell_angle_beta 90.000000
_cell_angle_gamma 90.000000
_cell_volume 2618.218096
_symmetry_space_group_name_H-M "P B A M"
_symmetry_group_IT_number 55
_symmetry_cell_setting 'orthorhombic'
loop_
_space_group_symop_operation_xyz
x,y,z
-x,-y,z
1/2+x,1/2-y,-z
1/2-x,1/2+y,-z
-x,-y,-z
x,y,-z
1/2-x,1/2+y,z
1/2+x,1/2-y,z
loop_
_atom_site_type_symbol
_atom_site_label
_atom_site_fract_x
_atom_site_fract_y
_atom_site_fract_z
Si Si1 0.803701 0.719596 0.210355
Si Si2 0.000000 0.500000 0.500000
Si Si3 0.422888 0.075726 0.803156
Si Si4 0.161842 0.978446 0.300196
Si Si5 0.853614 0.266543 0.791588
Si Si6 0.817801 0.550598 0.705054
Si Si7 0.453395 0.365985 0.299005
Si Si8 0.112080 0.137137 0.199574
O O1 0.724308 0.741470 0.266306
O O2 0.827312 0.638940 0.276289
O O3 0.855160 0.786005 0.266821
O O4 0.804217 0.715961 0.000000
O O5 0.979618 0.439009 0.345695
O O6 0.374656 0.147756 0.758355
O O7 0.373328 0.002484 0.797310
O O8 0.450644 0.085969 0.000000
O O9 0.168181 0.952557 0.500000
O O10 0.239226 0.965868 0.225853
O O11 0.099258 0.928675 0.222972
O O12 0.140925 0.064380 0.294544
O O13 0.911217 0.211205 0.712926
O O14 0.855363 0.256816 0.000000
O O15 0.824239 0.530844 0.500000
O O16 0.468419 0.385128 0.500000
O O17 0.528144 0.361546 0.208248
O O18 0.135204 0.129031 0.000000
#
# Coordination Sequence:
#
# PCOD9428648 Si02
#       8
#     8   2   8   8   8   8   8   8
#     4  10  22  41  64  94 133 171 219 279 336 400
#     4  12  26  48  68  98 132 176 230 284 348 418
#     4  11  25  46  72 101 137 180 229 290 345 407
#     4  10  22  40  63  94 131 170 216 270 331 398
#     4  10  22  42  68  96 127 173 226 273 336 406
#     4  11  22  41  67 100 132 174 228 277 338 405
#     4  11  23  40  63  92 132 175 214 268 333 398
#     4  11  24  40  61  93 129 169 216 268 329 399
#
# _framework density 22.152470000000001
#
# number of rings (size 3 to 8) (size 9 to 14) (size 15 to 20)
#    0.000    1.379    2.069    2.690    0.966    7.172 
#    0.000    1.379    0.000    0.000    0.000    0.000 
#    0.000    0.000    0.000    0.000    0.000    0.000 
#
# Total GULP energy -323832.734210 kJ/mol
# GULP energy per Si atom -5583.323004 kJ/mol
# Density = 2.210205 g / cm^3
# Si number density = 22.152470 Si / 1000 Ang^3
#
#
#
# Elastic Constant Matrix: (Units=GPa)
#
#
# Indices 1 2 3 4 5 6 
#
# 1 38.9017 26.5127 0.5496 0.0000 0.0000 0.0000
# 2 26.5127 130.5853 3.1792 0.0000 0.0000 0.0000
# 3 0.5496 3.1792 67.5886 0.0000 0.0000 0.0000
# 4 0.0000 0.0000 0.0000 28.3428 0.0000 0.0000
# 5 0.0000 0.0000 0.0000 0.0000 11.7329 0.0000
# 6 0.0000 0.0000 0.0000 0.0000 0.0000 83.8843
#
#
#
# Elastic Compliance Matrix: (Units=1/GPa)
#
#
# Indices 1 2 3 4 5 6 
#
# 1 0.029834 -0.006058 0.000042 0.000000 0.000000 0.000000
# 2 -0.006058 0.008897 -0.000369 0.000000 0.000000 0.000000
# 3 0.000042 -0.000369 0.014812 0.000000 0.000000 0.000000
# 4 0.000000 0.000000 0.000000 0.035282 0.000000 0.000000
# 5 0.000000 0.000000 0.000000 0.000000 0.085230 0.000000
# 6 0.000000 0.000000 0.000000 0.000000 0.000000 0.011921
#
#
# Mechanical properties :
#
#
# Convention : Reuss Voigt Hill
#
# Bulk Modulus (GPa) = 24.52595 33.06206 28.79401
# Shear Modulus (GPa) = 23.54730 38.58094 31.06412
#
# Velocity S-wave (km/s) = 3.26385 4.17779 3.74877
# Velocity P-wave (km/s) = 5.02982 6.18296 5.63596
#
# Compressibility (1/GPa) = 0.04077313
#
# Stress axis : x y z
#
# Youngs Moduli (GPa) = 33.51869 112.39967 67.51095
#
# Poissons Ratio (x) = 0.68094 -0.00286
# Poissons Ratio (y) = 0.20306 0.02493
# Poissons Ratio (z) = -0.00142 0.04150
#
# Static dielectric constant tensor:
#      x y z
#    x 1.833770 0.000000 0.000000 
#    y 0.000000 1.768120 0.000000 
#    z 0.000000 0.000000 1.663710 
# 
# From -- ./inp_files/7708.got.cif
#   From: 2010.05.17/outbox.cif.g08.bks.cpg/sg55_4_cif.got.tgz:7708.got - 2010.06.03 13:27:54.
