data_PCOD9428246
_publ_section_title
;
Structure prediction by ZEFSAII (Michael W. Deem and Ramdas Pophale) SiO2 
 PCOD9428246
Probable space group: P B A M
;
_chemical_formula_sum "Si O2"
_cell_formula_units_Z 64
_cell_length_a 20.791189
_cell_length_b 9.424364
_cell_length_c 16.007315
_cell_angle_alpha 90.000000
_cell_angle_beta 90.000000
_cell_angle_gamma 90.000000
_cell_volume 3136.533058
_symmetry_space_group_name_H-M "P B A M"
_symmetry_group_IT_number 55
_symmetry_cell_setting 'orthorhombic'
loop_
_space_group_symop_operation_xyz
x,y,z
-x,-y,z
1/2+x,1/2-y,-z
1/2-x,1/2+y,-z
-x,-y,-z
x,y,-z
1/2-x,1/2+y,z
1/2+x,1/2-y,z
loop_
_atom_site_type_symbol
_atom_site_label
_atom_site_fract_x
_atom_site_fract_y
_atom_site_fract_z
Si Si1 0.196266 0.002244 0.234011
Si Si2 0.610695 0.700046 0.156199
Si Si3 0.742459 0.250601 0.656794
Si Si4 0.519107 0.354916 0.094065
Si Si5 0.424871 0.041217 0.752471
Si Si6 0.661520 0.995576 0.406338
Si Si7 0.256380 0.176179 0.093672
Si Si8 0.127835 0.361781 0.097964
O O1 0.195756 0.137134 0.295915
O O2 0.243768 0.056643 0.162059
O O3 0.130953 0.955062 0.189338
O O4 0.223126 0.859858 0.278942
O O5 0.550393 0.718354 0.095112
O O6 0.588326 0.791908 0.235768
O O7 0.675862 0.750943 0.111679
O O8 0.793727 0.357643 0.614431
O O9 0.703981 0.139658 0.599730
O O10 0.500000 0.500000 0.139057
O O11 0.574301 0.253858 0.124720
O O12 0.541031 0.391261 0.000000
O O13 0.391009 0.993791 0.667065
O O14 0.500000 0.000000 0.756000
O O15 0.386588 0.979965 0.833123
O O16 0.635681 0.981153 0.500000
O O17 0.196719 0.285172 0.100983
O O18 0.255343 0.116623 0.000000
O O19 0.116367 0.402907 0.000000
#
# Coordination Sequence:
#
# PCOD9428246 Si02
#       8
#     8   8   8   8   8   8   8   8
#     4  11  20  39  60  91 131 173 210 263 328 390
#     4  12  23  39  62  91 123 172 221 274 332 389
#     4  10  21  40  66  98 132 161 204 260 328 403
#     4  10  21  39  58  81 119 170 228 274 320 387
#     4  12  25  43  65  93 127 174 225 270 325 395
#     4  11  23  42  71 103 132 165 207 266 336 405
#     4  11  24  37  58  94 133 171 223 282 335 385
#     4  10  23  42  61  88 129 176 221 276 329 388
#
# _framework density 20.404695
#
# number of rings (size 3 to 8) (size 9 to 14) (size 15 to 20)
#    0.000    1.125    3.750    3.000    3.500    3.500 
#    0.000    0.000    0.000    0.000    0.000    0.875 
#    0.000    0.000    0.000    0.000    0.000    0.000 
#
# Total GULP energy -357106.814419 kJ/mol
# GULP energy per Si atom -5579.793975 kJ/mol
# Density = 2.035825 g / cm^3
# Si number density = 20.404695 Si / 1000 Ang^3
#
#
#
# Elastic Constant Matrix: (Units=GPa)
#
#
# Indices 1 2 3 4 5 6 
#
# 1 123.3493 23.3466 27.4902 0.0000 0.0000 0.0000
# 2 23.3466 96.3894 31.8684 0.0000 0.0000 0.0000
# 3 27.4902 31.8684 109.1266 0.0000 0.0000 0.0000
# 4 0.0000 0.0000 0.0000 16.2769 0.0000 0.0000
# 5 0.0000 0.0000 0.0000 0.0000 14.2382 0.0000
# 6 0.0000 0.0000 0.0000 0.0000 0.0000 32.5342
#
#
#
# Elastic Compliance Matrix: (Units=1/GPa)
#
#
# Indices 1 2 3 4 5 6 
#
# 1 0.008793 -0.001547 -0.001763 0.000000 0.000000 0.000000
# 2 -0.001547 0.011755 -0.003043 0.000000 0.000000 0.000000
# 3 -0.001763 -0.003043 0.010497 0.000000 0.000000 0.000000
# 4 0.000000 0.000000 0.000000 0.061437 0.000000 0.000000
# 5 0.000000 0.000000 0.000000 0.000000 0.070234 0.000000
# 6 0.000000 0.000000 0.000000 0.000000 0.000000 0.030737
#
#
# Mechanical properties :
#
#
# Convention : Reuss Voigt Hill
#
# Bulk Modulus (GPa) = 54.53125 54.91953 54.72539
# Shear Modulus (GPa) = 23.55474 29.02053 26.28763
#
# Velocity S-wave (km/s) = 3.40130 3.77536 3.59320
# Velocity P-wave (km/s) = 6.49677 6.78071 6.64026
#
# Compressibility (1/GPa) = 0.01833811
#
# Stress axis : x y z
#
# Youngs Moduli (GPa) = 113.72954 85.06731 95.26885
#
# Poissons Ratio (x) = 0.13158 0.16799
# Poissons Ratio (y) = 0.17591 0.28993
# Poissons Ratio (z) = 0.20054 0.25889
#
# Static dielectric constant tensor:
#      x y z
#    x 1.778880 0.000000 0.000000 
#    y 0.000000 1.863030 0.000000 
#    z 0.000000 0.000000 1.777710 
# 
# From -- ./inp_files/21947.got.cif
#   From: 2010.05.17/outbox.cif.g08.bks.cpg/sg55_11_cif.got.tgz:21947.got - 2010.06.03 13:27:54.
