data_PCOD9428693
_publ_section_title
;
Structure prediction by ZEFSAII (Michael W. Deem and Ramdas Pophale) SiO2 
 PCOD9428693
Probable space group: P B A M
;
_chemical_formula_sum "Si O2"
_cell_formula_units_Z 40
_cell_length_a 28.284614
_cell_length_b 4.807740
_cell_length_c 12.114775
_cell_angle_alpha 90.000000
_cell_angle_beta 90.000000
_cell_angle_gamma 90.000000
_cell_volume 1647.428528
_symmetry_space_group_name_H-M "P B A M"
_symmetry_group_IT_number 55
_symmetry_cell_setting 'orthorhombic'
loop_
_space_group_symop_operation_xyz
x,y,z
-x,-y,z
1/2+x,1/2-y,-z
1/2-x,1/2+y,-z
-x,-y,-z
x,y,-z
1/2-x,1/2+y,z
1/2+x,1/2-y,z
loop_
_atom_site_type_symbol
_atom_site_label
_atom_site_fract_x
_atom_site_fract_y
_atom_site_fract_z
Si Si1 0.000000 0.000000 0.811511
Si Si2 0.046614 0.688556 0.381776
Si Si3 0.220243 0.088990 0.000000
Si Si4 0.358058 0.904322 0.684298
Si Si5 0.782849 0.442784 0.500000
Si Si6 0.436545 0.615546 0.000000
Si Si7 0.643814 0.593436 0.171186
O O1 0.037564 0.869585 0.726796
O O2 0.974044 0.799558 0.900018
O O3 0.050335 0.841709 0.500000
O O4 0.092636 0.499324 0.368279
O O5 0.000000 0.500000 0.385310
O O6 0.190569 0.997013 0.106116
O O7 0.231528 0.413401 0.000000
O O8 0.314905 0.985459 0.605731
O O9 0.355532 0.083138 0.797655
O O10 0.357747 0.582199 0.715822
O O11 0.735587 0.629086 0.500000
O O12 0.399612 0.494483 0.094184
#
# Coordination Sequence:
#
# PCOD9428693 Si02
#       7
#     4   8   4   8   4   4   8
#     4  11  21  44  66 102 143 193 238 296 350 419
#     4  11  24  43  69 106 145 192 247 292 364 436
#     4  11  24  43  67 103 134 178 239 293 358 437
#     4  12  25  48  72 104 145 187 239 301 365 431
#     4  12  28  50  75 111 140 186 246 310 376 436
#     4  10  22  41  65 104 143 189 243 290 343 425
#     4  11  25  44  70 101 143 188 232 296 365 426
#
# _framework density 24.280262
#
# number of rings (size 3 to 8) (size 9 to 14) (size 15 to 20)
#    0.000    0.800    3.000    3.900    0.000    7.200 
#    3.600    2.000    0.000    0.000    0.000    0.000 
#    0.000    0.000    0.000    0.000    0.000    0.000 
#
# Total GULP energy -222871.013574 kJ/mol
# GULP energy per Si atom -5571.775339 kJ/mol
# Density = 2.422500 g / cm^3
# Si number density = 24.280262 Si / 1000 Ang^3
#
#
#
# Elastic Constant Matrix: (Units=GPa)
#
#
# Indices 1 2 3 4 5 6 
#
# 1 92.7463 -0.3705 38.6813 0.0000 0.0000 0.0000
# 2 -0.3705 56.6968 10.7754 0.0000 0.0000 0.0000
# 3 38.6813 10.7754 158.2395 0.0000 0.0000 0.0000
# 4 0.0000 0.0000 0.0000 18.2589 0.0000 0.0000
# 5 0.0000 0.0000 0.0000 0.0000 71.0652 0.0000
# 6 0.0000 0.0000 0.0000 0.0000 0.0000 31.4429
#
#
#
# Elastic Compliance Matrix: (Units=1/GPa)
#
#
# Indices 1 2 3 4 5 6 
#
# 1 0.012029 0.000646 -0.002985 0.000000 0.000000 0.000000
# 2 0.000646 0.017904 -0.001377 0.000000 0.000000 0.000000
# 3 -0.002985 -0.001377 0.007143 0.000000 0.000000 0.000000
# 4 0.000000 0.000000 0.000000 0.054768 0.000000 0.000000
# 5 0.000000 0.000000 0.000000 0.000000 0.014072 0.000000
# 6 0.000000 0.000000 0.000000 0.000000 0.000000 0.031804
#
#
# Mechanical properties :
#
#
# Convention : Reuss Voigt Hill
#
# Bulk Modulus (GPa) = 33.73314 45.09500 39.41407
# Shear Modulus (GPa) = 32.25140 41.39314 36.82227
#
# Velocity S-wave (km/s) = 3.64853 4.13341 3.89852
# Velocity P-wave (km/s) = 5.62783 6.43375 6.04424
#
# Compressibility (1/GPa) = 0.02964444
#
# Stress axis : x y z
#
# Youngs Moduli (GPa) = 83.12940 55.85464 139.99973
#
# Poissons Ratio (x) = -0.03607 0.41784
# Poissons Ratio (y) = -0.05369 0.19278
# Poissons Ratio (z) = 0.24810 0.07691
#
# Static dielectric constant tensor:
#      x y z
#    x 1.931910 0.000000 0.000000 
#    y 0.000000 1.918400 0.000000 
#    z 0.000000 0.000000 1.924140 
# 
# From -- ./inp_files/15866.got.cif
#   From: 2010.05.17/outbox.cif.g08.bks.cpg/sg55_8_cif.got.tgz:15866.got - 2010.06.03 13:27:54.
