data_PCOD9428156
_publ_section_title
;
Structure prediction by ZEFSAII (Michael W. Deem and Ramdas Pophale) SiO2 
 PCOD9428156
Probable space group: P B A M
;
_chemical_formula_sum "Si O2"
_cell_formula_units_Z 36
_cell_length_a 9.279898
_cell_length_b 19.523425
_cell_length_c 9.633162
_cell_angle_alpha 90.000000
_cell_angle_beta 90.000000
_cell_angle_gamma 90.000000
_cell_volume 1745.291907
_symmetry_space_group_name_H-M "P B A M"
_symmetry_group_IT_number 55
_symmetry_cell_setting 'orthorhombic'
loop_
_space_group_symop_operation_xyz
x,y,z
-x,-y,z
1/2+x,1/2-y,-z
1/2-x,1/2+y,-z
-x,-y,-z
x,y,-z
1/2-x,1/2+y,z
1/2+x,1/2-y,z
loop_
_atom_site_type_symbol
_atom_site_label
_atom_site_fract_x
_atom_site_fract_y
_atom_site_fract_z
Si Si1 0.483388 0.639766 0.662963
Si Si2 0.227816 0.606277 0.845210
Si Si3 0.000000 0.500000 0.251435
Si Si4 0.306300 0.879262 0.345125
Si Si5 0.010552 0.279658 0.836178
O O1 0.457110 0.652143 0.500000
O O2 0.351343 0.599730 0.731514
O O3 0.638863 0.604225 0.677050
O O4 0.495255 0.710532 0.748408
O O5 0.136275 0.675980 0.821266
O O6 0.112126 0.545484 0.835060
O O7 0.290083 0.608601 0.000000
O O8 0.094454 0.446050 0.336754
O O9 0.319689 0.848341 0.500000
O O10 0.364888 0.827005 0.229942
O O11 0.033949 0.267776 0.000000
#
# Coordination Sequence:
#
# PCOD9428156 Si02
#       5
#     8   8   4   8   8
#     4  11  23  37  57  89 122 151 190 238 290 347
#     4  10  22  40  62  87 117 154 195 240 289 343
#     4  10  22  42  64  84 110 152 202 246 288 342
#     4  10  22  39  61  87 117 155 195 239 289 344
#     4  10  21  38  61  88 118 153 193 236 287 346
#
# _framework density 20.626922
#
# number of rings (size 3 to 8) (size 9 to 14) (size 15 to 20)
#    0.000    1.778    0.000    3.333    0.000   12.444 
#    0.000    3.333    0.000    0.000    0.000    0.000 
#    0.000    0.000    0.000    0.000    0.000    0.000 
#
# Total GULP energy -201159.342196 kJ/mol
# GULP energy per Si atom -5587.759505 kJ/mol
# Density = 2.057997 g / cm^3
# Si number density = 20.626922 Si / 1000 Ang^3
#
#
#
# Elastic Constant Matrix: (Units=GPa)
#
#
# Indices 1 2 3 4 5 6 
#
# 1 128.5097 35.7335 82.2474 0.0000 0.0000 0.0000
# 2 35.7335 64.7874 24.3964 0.0000 0.0000 0.0000
# 3 82.2474 24.3964 146.4692 0.0000 0.0000 0.0000
# 4 0.0000 0.0000 0.0000 13.2111 0.0000 0.0000
# 5 0.0000 0.0000 0.0000 0.0000 33.1274 0.0000
# 6 0.0000 0.0000 0.0000 0.0000 0.0000 9.9646
#
#
#
# Elastic Compliance Matrix: (Units=1/GPa)
#
#
# Indices 1 2 3 4 5 6 
#
# 1 0.013454 -0.004882 -0.006742 0.000000 0.000000 0.000000
# 2 -0.004882 0.018239 -0.000297 0.000000 0.000000 0.000000
# 3 -0.006742 -0.000297 0.010662 0.000000 0.000000 0.000000
# 4 0.000000 0.000000 0.000000 0.075694 0.000000 0.000000
# 5 0.000000 0.000000 0.000000 0.000000 0.030186 0.000000
# 6 0.000000 0.000000 0.000000 0.000000 0.000000 0.100355
#
#
# Mechanical properties :
#
#
# Convention : Reuss Voigt Hill
#
# Bulk Modulus (GPa) = 54.00931 69.39121 61.70026
# Shear Modulus (GPa) = 17.94674 24.41991 21.18332
#
# Velocity S-wave (km/s) = 2.95288 3.44450 3.20812
# Velocity P-wave (km/s) = 6.15360 7.03801 6.61061
#
# Compressibility (1/GPa) = 0.01851533
#
# Stress axis : x y z
#
# Youngs Moduli (GPa) = 74.32974 54.82649 93.78759
#
# Poissons Ratio (x) = 0.26765 0.63227
# Poissons Ratio (y) = 0.36286 0.02783
# Poissons Ratio (z) = 0.50110 0.01627
#
# Static dielectric constant tensor:
#      x y z
#    x 1.741410 0.000000 0.000000 
#    y 0.000000 1.729020 0.000000 
#    z 0.000000 0.000000 1.712170 
# 
# From -- ./inp_files/2132.got.cif
#   From: 2010.05.17/outbox.cif.g08.bks.cpg/sg55_2_cif.got.tgz:2132.got - 2010.06.03 13:27:54.
