data_PCOD9428792
_publ_section_title
;
Structure prediction by ZEFSAII (Michael W. Deem and Ramdas Pophale) SiO2 
 PCOD9428792
Probable space group: P B A M
;
_chemical_formula_sum "Si O2"
_cell_formula_units_Z 58
_cell_length_a 8.681366
_cell_length_b 28.248071
_cell_length_c 11.843160
_cell_angle_alpha 90.000000
_cell_angle_beta 90.000000
_cell_angle_gamma 90.000000
_cell_volume 2904.319955
_symmetry_space_group_name_H-M "P B A M"
_symmetry_group_IT_number 55
_symmetry_cell_setting 'orthorhombic'
loop_
_space_group_symop_operation_xyz
x,y,z
-x,-y,z
1/2+x,1/2-y,-z
1/2-x,1/2+y,-z
-x,-y,-z
x,y,-z
1/2-x,1/2+y,z
1/2+x,1/2-y,z
loop_
_atom_site_type_symbol
_atom_site_label
_atom_site_fract_x
_atom_site_fract_y
_atom_site_fract_z
Si Si1 0.020169 0.891829 0.368700
Si Si2 0.949335 0.270914 0.373143
Si Si3 0.500000 0.500000 0.000000
Si Si4 0.695016 0.537136 0.788232
Si Si5 0.184627 0.631196 0.301378
Si Si6 0.587901 0.121405 0.134300
Si Si7 0.231435 0.809694 0.289943
Si Si8 0.343385 0.029463 0.378771
O O1 0.982008 0.899584 0.500000
O O2 0.091366 0.936632 0.305279
O O3 0.148495 0.851104 0.359172
O O4 0.868051 0.875441 0.300680
O O5 0.931252 0.251653 0.500000
O O6 0.852920 0.319101 0.359509
O O7 0.892238 0.232431 0.282532
O O8 0.124374 0.286119 0.352803
O O9 0.397960 0.473675 0.099360
O O10 0.835537 0.572902 0.818473
O O11 0.752257 0.489052 0.729478
O O12 0.126776 0.585136 0.369288
O O13 0.081754 0.629155 0.187883
O O14 0.696846 0.163948 0.181069
O O15 0.583056 0.120223 0.000000
O O16 0.266225 0.019435 0.500000
O O17 0.500000 0.000000 0.378256
#
# Coordination Sequence:
#
# PCOD9428792 Si02
#       8
#     8   8   2   8   8   8   8   8
#     4  11  22  40  63  95 136 172 212 267 334 400
#     4  11  20  36  61  95 133 166 206 258 319 390
#     4  12  24  40  64  88 124 160 222 278 324 376
#     4  11  23  42  63  93 125 172 223 273 331 388
#     4  11  23  39  60  95 128 173 220 264 324 391
#     4  10  22  46  66  89 128 171 221 278 320 379
#     4  10  23  38  65  98 131 170 214 257 323 393
#     4  11  22  39  63  96 134 173 220 275 333 396
#
# _framework density 19.970251000000001
#
# number of rings (size 3 to 8) (size 9 to 14) (size 15 to 20)
#    0.000    1.241    2.069    4.552    0.000    0.000 
#    4.966    5.862    0.000    0.000    0.000    0.000 
#    0.000    0.000    0.000    0.000    0.000    0.000 
#
# Total GULP energy -323306.175441 kJ/mol
# GULP energy per Si atom -5574.244404 kJ/mol
# Density = 1.992480 g / cm^3
# Si number density = 19.970251 Si / 1000 Ang^3
#
#
#
# Elastic Constant Matrix: (Units=GPa)
#
#
# Indices 1 2 3 4 5 6 
#
# 1 64.6264 -0.2730 40.9582 0.0000 0.0000 0.0000
# 2 -0.2730 76.0218 37.5626 0.0000 0.0000 0.0000
# 3 40.9582 37.5626 130.5135 0.0000 0.0000 0.0000
# 4 0.0000 0.0000 0.0000 15.2791 0.0000 0.0000
# 5 0.0000 0.0000 0.0000 0.0000 37.0845 0.0000
# 6 0.0000 0.0000 0.0000 0.0000 0.0000 36.6845
#
#
#
# Elastic Compliance Matrix: (Units=1/GPa)
#
#
# Indices 1 2 3 4 5 6 
#
# 1 0.020185 0.003733 -0.007409 0.000000 0.000000 0.000000
# 2 0.003733 0.016025 -0.005784 0.000000 0.000000 0.000000
# 3 -0.007409 -0.005784 0.011652 0.000000 0.000000 0.000000
# 4 0.000000 0.000000 0.000000 0.065449 0.000000 0.000000
# 5 0.000000 0.000000 0.000000 0.000000 0.026965 0.000000
# 6 0.000000 0.000000 0.000000 0.000000 0.000000 0.027259
#
#
# Mechanical properties :
#
#
# Convention : Reuss Voigt Hill
#
# Bulk Modulus (GPa) = 34.55062 47.51747 41.03404
# Shear Modulus (GPa) = 25.49691 30.67056 28.08374
#
# Velocity S-wave (km/s) = 3.57703 3.92320 3.75411
# Velocity P-wave (km/s) = 5.86505 6.66091 6.27561
#
# Compressibility (1/GPa) = 0.02894304
#
# Stress axis : x y z
#
# Youngs Moduli (GPa) = 49.54207 62.40131 85.82409
#
# Poissons Ratio (x) = -0.23296 0.63587
# Poissons Ratio (y) = -0.18495 0.49639
# Poissons Ratio (z) = 0.36705 0.36091
#
# Static dielectric constant tensor:
#      x y z
#    x 1.757540 0.000000 0.000000 
#    y 0.000000 1.715190 0.000000 
#    z 0.000000 0.000000 1.651660 
# 
# From -- ./inp_files/12567.got.cif
#   From: 2010.05.17/outbox.cif.g08.bks.cpg/sg55_7_cif.got.tgz:12567.got - 2010.06.03 13:27:54.
