data_PCOD9428873
_publ_section_title
;
Structure prediction by ZEFSAII (Michael W. Deem and Ramdas Pophale) SiO2 
 PCOD9428873
Probable space group: P B A M
;
_chemical_formula_sum "Si O2"
_cell_formula_units_Z 22
_cell_length_a 4.788394
_cell_length_b 10.623944
_cell_length_c 16.247349
_cell_angle_alpha 90.000000
_cell_angle_beta 90.000000
_cell_angle_gamma 90.000000
_cell_volume 826.529122
_symmetry_space_group_name_H-M "P B A M"
_symmetry_group_IT_number 55
_symmetry_cell_setting 'orthorhombic'
loop_
_space_group_symop_operation_xyz
x,y,z
-x,-y,z
1/2+x,1/2-y,-z
1/2-x,1/2+y,-z
-x,-y,-z
x,y,-z
1/2-x,1/2+y,z
1/2+x,1/2-y,z
loop_
_atom_site_type_symbol
_atom_site_label
_atom_site_fract_x
_atom_site_fract_y
_atom_site_fract_z
Si Si1 0.000000 0.500000 0.783026
Si Si2 0.165457 0.338867 0.367119
Si Si3 0.000000 0.000000 0.500000
Si Si4 0.158651 0.164274 0.092985
O O1 0.844591 0.598754 0.722576
O O2 0.778572 0.427674 0.839291
O O3 0.355486 0.214855 0.379913
O O4 0.292843 0.438631 0.429204
O O5 0.340371 0.292609 0.100399
O O6 0.206513 0.116104 0.000000
#
# Coordination Sequence:
#
# PCOD9428873 Si02
#       4
#     4   8   2   8
#     4  12  25  45  74 110 152 200 244 311 389 440
#     4  12  28  48  74 110 147 188 248 308 367 453
#     4  12  28  54  80 102 142 198 236 298 384 446
#     4  10  23  43  68 103 148 199 255 307 362 440
#
# _framework density 26.617334
#
# number of rings (size 3 to 8) (size 9 to 14) (size 15 to 20)
#    0.000    0.727    0.000    6.000    0.000   12.364 
#    0.000    5.455    0.000    0.000    0.000    0.000 
#    0.000    0.000    0.000    0.000    0.000    0.000 
#
# Total GULP energy -123034.657446 kJ/mol
# GULP energy per Si atom -5592.484429 kJ/mol
# Density = 2.655675 g / cm^3
# Si number density = 26.617334 Si / 1000 Ang^3
#
#
#
# Elastic Constant Matrix: (Units=GPa)
#
#
# Indices 1 2 3 4 5 6 
#
# 1 104.4420 35.0871 36.4095 0.0000 0.0000 0.0000
# 2 35.0871 116.6769 47.8167 0.0000 0.0000 0.0000
# 3 36.4095 47.8167 162.6625 0.0000 0.0000 0.0000
# 4 0.0000 0.0000 0.0000 17.7049 0.0000 0.0000
# 5 0.0000 0.0000 0.0000 0.0000 36.2810 0.0000
# 6 0.0000 0.0000 0.0000 0.0000 0.0000 73.9824
#
#
#
# Elastic Compliance Matrix: (Units=1/GPa)
#
#
# Indices 1 2 3 4 5 6 
#
# 1 0.011050 -0.002626 -0.001702 0.000000 0.000000 0.000000
# 2 -0.002626 0.010369 -0.002460 0.000000 0.000000 0.000000
# 3 -0.001702 -0.002460 0.007252 0.000000 0.000000 0.000000
# 4 0.000000 0.000000 0.000000 0.056482 0.000000 0.000000
# 5 0.000000 0.000000 0.000000 0.000000 0.027563 0.000000
# 6 0.000000 0.000000 0.000000 0.000000 0.000000 0.013517
#
#
# Mechanical properties :
#
#
# Convention : Reuss Voigt Hill
#
# Bulk Modulus (GPa) = 66.24518 69.15646 67.70082
# Shear Modulus (GPa) = 34.52139 43.22487 38.87313
#
# Velocity S-wave (km/s) = 3.60523 4.03418 3.82572
# Velocity P-wave (km/s) = 6.50171 6.90924 6.70857
#
# Compressibility (1/GPa) = 0.01509544
#
# Stress axis : x y z
#
# Youngs Moduli (GPa) = 90.49829 96.44582 137.89719
#
# Poissons Ratio (x) = 0.25323 0.23464
# Poissons Ratio (y) = 0.23761 0.33926
# Poissons Ratio (z) = 0.15399 0.23728
#
# Static dielectric constant tensor:
#      x y z
#    x 2.005260 0.000000 0.000000 
#    y 0.000000 2.158570 0.000000 
#    z 0.000000 0.000000 1.868910 
# 
# From -- ./inp_files/16316.got.cif
#   From: 2010.05.17/outbox.cif.g08.bks.cpg/sg55_9_cif.got.tgz:16316.got - 2010.06.03 13:27:54.
