data_PCOD9428808
_publ_section_title
;
Structure prediction by ZEFSAII (Michael W. Deem and Ramdas Pophale) SiO2 
 PCOD9428808
Probable space group: P B A M
;
_chemical_formula_sum "Si O2"
_cell_formula_units_Z 34
_cell_length_a 12.196340
_cell_length_b 11.924479
_cell_length_c 11.561123
_cell_angle_alpha 90.000000
_cell_angle_beta 90.000000
_cell_angle_gamma 90.000000
_cell_volume 1681.391926
_symmetry_space_group_name_H-M "P B A M"
_symmetry_group_IT_number 55
_symmetry_cell_setting 'orthorhombic'
loop_
_space_group_symop_operation_xyz
x,y,z
-x,-y,z
1/2+x,1/2-y,-z
1/2-x,1/2+y,-z
-x,-y,-z
x,y,-z
1/2-x,1/2+y,z
1/2+x,1/2-y,z
loop_
_atom_site_type_symbol
_atom_site_label
_atom_site_fract_x
_atom_site_fract_y
_atom_site_fract_z
Si Si1 0.590630 0.245680 0.500000
Si Si2 0.500000 0.000000 0.500000
Si Si3 0.410345 0.911835 0.861785
Si Si4 0.760031 0.431537 0.500000
Si Si5 0.976064 0.821475 0.751567
Si Si6 0.318123 0.474972 0.745141
O O1 0.709859 0.305276 0.500000
O O2 0.537295 0.291973 0.383163
O O3 0.390688 0.078639 0.500000
O O4 0.581664 0.112104 0.500000
O O5 0.450256 0.790194 0.822017
O O6 0.293266 0.945802 0.810731
O O7 0.500000 0.000000 0.815199
O O8 0.406621 0.917864 0.000000
O O9 0.714527 0.495635 0.613279
O O10 0.096378 0.873969 0.763166
O O11 0.885614 0.915020 0.785143
#
# Coordination Sequence:
#
# PCOD9428808 Si02
#       6
#     4   2   8   4   8   8
#     4  10  23  39  65 103 139 177 222 272 333 419
#     4  12  24  36  60  92 138 192 216 264 332 398
#     4  11  27  45  65  94 131 176 229 285 335 393
#     4  10  23  41  65 103 139 179 228 277 334 417
#     4  10  23  43  71  99 134 176 224 278 341 407
#     4  10  23  44  69 100 134 176 223 280 340 407
#
# _framework density 20.221340999999999
#
# number of rings (size 3 to 8) (size 9 to 14) (size 15 to 20)
#    0.000    1.647    0.000    2.118    9.882    8.471 
#    0.000    2.353    0.000    0.000    0.000    0.000 
#    0.000    0.000    0.000    0.000    0.000    0.000 
#
# Total GULP energy -189551.284480 kJ/mol
# GULP energy per Si atom -5575.037779 kJ/mol
# Density = 2.017532 g / cm^3
# Si number density = 20.221341 Si / 1000 Ang^3
#
#
#
# Elastic Constant Matrix: (Units=GPa)
#
#
# Indices 1 2 3 4 5 6 
#
# 1 197.4123 98.7558 45.9486 0.0000 0.0000 0.0000
# 2 98.7558 151.6538 42.4952 0.0000 0.0000 0.0000
# 3 45.9486 42.4952 51.1483 0.0000 0.0000 0.0000
# 4 0.0000 0.0000 0.0000 37.5860 0.0000 0.0000
# 5 0.0000 0.0000 0.0000 0.0000 17.4969 0.0000
# 6 0.0000 0.0000 0.0000 0.0000 0.0000 21.4133
#
#
#
# Elastic Compliance Matrix: (Units=1/GPa)
#
#
# Indices 1 2 3 4 5 6 
#
# 1 0.008026 -0.004179 -0.003738 0.000000 0.000000 0.000000
# 2 -0.004179 0.010771 -0.005194 0.000000 0.000000 0.000000
# 3 -0.003738 -0.005194 0.027225 0.000000 0.000000 0.000000
# 4 0.000000 0.000000 0.000000 0.026606 0.000000 0.000000
# 5 0.000000 0.000000 0.000000 0.000000 0.057153 0.000000
# 6 0.000000 0.000000 0.000000 0.000000 0.000000 0.046700
#
#
# Mechanical properties :
#
#
# Convention : Reuss Voigt Hill
#
# Bulk Modulus (GPa) = 50.50899 86.06818 68.28858
# Shear Modulus (GPa) = 23.88876 29.50023 26.69450
#
# Velocity S-wave (km/s) = 3.44083 3.82365 3.63728
# Velocity P-wave (km/s) = 6.38890 7.88348 7.17521
#
# Compressibility (1/GPa) = 0.01979845
#
# Stress axis : x y z
#
# Youngs Moduli (GPa) = 124.59135 92.84240 36.73125
#
# Poissons Ratio (x) = 0.38800 0.13731
# Poissons Ratio (y) = 0.52069 0.19080
# Poissons Ratio (z) = 0.46574 0.48226
#
# Static dielectric constant tensor:
#      x y z
#    x 1.691640 0.000000 0.000000 
#    y 0.000000 1.719110 0.000000 
#    z 0.000000 0.000000 1.728400 
# 
# From -- ./inp_files/12878.got.cif
#   From: 2010.05.17/outbox.cif.g08.bks.cpg/sg55_7_cif.got.tgz:12878.got - 2010.06.03 13:27:54.
