data_PCOD9428830
_publ_section_title
;
Structure prediction by ZEFSAII (Michael W. Deem and Ramdas Pophale) SiO2 
 PCOD9428830
Probable space group: P B A M
;
_chemical_formula_sum "Si O2"
_cell_formula_units_Z 58
_cell_length_a 17.072038
_cell_length_b 19.055189
_cell_length_c 7.744064
_cell_angle_alpha 90.000000
_cell_angle_beta 90.000000
_cell_angle_gamma 90.000000
_cell_volume 2519.228512
_symmetry_space_group_name_H-M "P B A M"
_symmetry_group_IT_number 55
_symmetry_cell_setting 'orthorhombic'
loop_
_space_group_symop_operation_xyz
x,y,z
-x,-y,z
1/2+x,1/2-y,-z
1/2-x,1/2+y,-z
-x,-y,-z
x,y,-z
1/2-x,1/2+y,z
1/2+x,1/2-y,z
loop_
_atom_site_type_symbol
_atom_site_label
_atom_site_fract_x
_atom_site_fract_y
_atom_site_fract_z
Si Si1 0.957799 0.703414 0.789741
Si Si2 0.928093 0.422182 0.199181
Si Si3 0.780074 0.335504 0.299609
Si Si4 0.371215 0.580811 0.709675
Si Si5 0.218713 0.304691 0.800165
Si Si6 0.968977 0.151168 0.201026
Si Si7 0.500000 0.000000 0.500000
Si Si8 0.182574 0.929597 0.302946
O O1 0.868678 0.701824 0.725546
O O2 0.003682 0.772850 0.731444
O O3 0.004425 0.633380 0.744748
O O4 0.956127 0.706126 0.000000
O O5 0.848481 0.376979 0.205735
O O6 0.935336 0.481139 0.344629
O O7 0.938880 0.444536 0.000000
O O8 0.788547 0.353534 0.500000
O O9 0.694499 0.362306 0.242689
O O10 0.777954 0.251711 0.280856
O O11 0.379469 0.579087 0.500000
O O12 0.454705 0.602026 0.784348
O O13 0.339327 0.505567 0.769887
O O14 0.251372 0.382945 0.785246
O O15 0.214720 0.285236 0.000000
O O16 0.896876 0.115700 0.295713
O O17 0.946120 0.158711 0.000000
O O18 0.207344 0.940123 0.500000
#
# Coordination Sequence:
#
# PCOD9428830 Si02
#       8
#     8   8   8   8   8   8   2   8
#     4   9  21  41  65  95 129 170 221 274 336 401
#     4  11  24  46  72  99 137 182 228 288 346 407
#     4  11  22  42  67  99 131 174 228 272 333 410
#     4  10  23  41  62  92 135 175 214 267 330 398
#     4  11  22  41  65  95 131 169 218 277 334 398
#     4  11  21  39  66  95 127 167 217 267 324 398
#     4  12  26  48  64 102 132 172 234 288 344 418
#     4  11  24  41  59  91 131 171 213 266 328 393
#
# _framework density 23.022919999999999
#
# number of rings (size 3 to 8) (size 9 to 14) (size 15 to 20)
#    0.000    1.379    2.069    3.103    0.000    5.517 
#    7.448    1.379    0.000    0.000    0.000    0.000 
#    0.000    0.000    0.000    0.000    0.000    0.000 
#
# Total GULP energy -323945.269037 kJ/mol
# GULP energy per Si atom -5585.263259 kJ/mol
# Density = 2.297052 g / cm^3
# Si number density = 23.022920 Si / 1000 Ang^3
#
#
#
# Elastic Constant Matrix: (Units=GPa)
#
#
# Indices 1 2 3 4 5 6 
#
# 1 50.8735 -3.5400 0.2794 0.0000 0.0000 0.0000
# 2 -3.5400 65.5457 -0.7025 0.0000 0.0000 0.0000
# 3 0.2794 -0.7025 78.3804 0.0000 0.0000 0.0000
# 4 0.0000 0.0000 0.0000 19.5289 0.0000 0.0000
# 5 0.0000 0.0000 0.0000 0.0000 73.1331 0.0000
# 6 0.0000 0.0000 0.0000 0.0000 0.0000 14.5395
#
#
#
# Elastic Compliance Matrix: (Units=1/GPa)
#
#
# Indices 1 2 3 4 5 6 
#
# 1 0.019731 0.001065 -0.000061 0.000000 0.000000 0.000000
# 2 0.001065 0.015315 0.000133 0.000000 0.000000 0.000000
# 3 -0.000061 0.000133 0.012760 0.000000 0.000000 0.000000
# 4 0.000000 0.000000 0.000000 0.051206 0.000000 0.000000
# 5 0.000000 0.000000 0.000000 0.000000 0.013674 0.000000
# 6 0.000000 0.000000 0.000000 0.000000 0.000000 0.068778
#
#
# Mechanical properties :
#
#
# Convention : Reuss Voigt Hill
#
# Bulk Modulus (GPa) = 19.96741 20.76369 20.36555
# Shear Modulus (GPa) = 25.52549 34.69116 30.10833
#
# Velocity S-wave (km/s) = 3.33333 3.88598 3.62021
# Velocity P-wave (km/s) = 4.84834 5.40118 5.13221
#
# Compressibility (1/GPa) = 0.05008162
#
# Stress axis : x y z
#
# Youngs Moduli (GPa) = 50.68154 65.29337 78.37172
#
# Poissons Ratio (x) = -0.06954 0.00476
# Poissons Ratio (y) = -0.05398 -0.01046
# Poissons Ratio (z) = 0.00308 -0.00872
#
# Static dielectric constant tensor:
#      x y z
#    x 1.847640 0.000000 0.000000 
#    y 0.000000 1.868510 0.000000 
#    z 0.000000 0.000000 1.867830 
# 
# From -- ./inp_files/7728.got.cif
#   From: 2010.05.17/outbox.cif.g08.bks.cpg/sg55_4_cif.got.tgz:7728.got - 2010.06.03 13:27:54.
