data_PCOD9428892
_publ_section_title
;
Structure prediction by ZEFSAII (Michael W. Deem and Ramdas Pophale) SiO2 
 PCOD9428892
Probable space group: P B A M
;
_chemical_formula_sum "Si O2"
_cell_formula_units_Z 40
_cell_length_a 12.622532
_cell_length_b 16.852511
_cell_length_c 8.225681
_cell_angle_alpha 90.000000
_cell_angle_beta 90.000000
_cell_angle_gamma 90.000000
_cell_volume 1749.778044
_symmetry_space_group_name_H-M "P B A M"
_symmetry_group_IT_number 55
_symmetry_cell_setting 'orthorhombic'
loop_
_space_group_symop_operation_xyz
x,y,z
-x,-y,z
1/2+x,1/2-y,-z
1/2-x,1/2+y,-z
-x,-y,-z
x,y,-z
1/2-x,1/2+y,z
1/2+x,1/2-y,z
loop_
_atom_site_type_symbol
_atom_site_label
_atom_site_fract_x
_atom_site_fract_y
_atom_site_fract_z
Si Si1 0.690496 0.856292 0.812548
Si Si2 0.226427 0.304198 0.689091
Si Si3 0.568743 0.615973 0.186363
Si Si4 0.973286 0.590626 0.696045
Si Si5 0.867481 0.953019 0.685262
O O1 0.758734 0.776869 0.787214
O O2 0.569588 0.853432 0.754398
O O3 0.749677 0.922476 0.707169
O O4 0.693246 0.878945 0.000000
O O5 0.204790 0.285665 0.500000
O O6 0.343194 0.340551 0.708797
O O7 0.137465 0.367429 0.746282
O O8 0.453384 0.613821 0.267593
O O9 0.608399 0.524999 0.194907
O O10 0.565703 0.644139 0.000000
O O11 0.971729 0.587711 0.500000
O O12 0.000000 0.500000 0.753067
O O13 0.883893 0.978767 0.500000
#
# Coordination Sequence:
#
# PCOD9428892 Si02
#       5
#     8   8   8   8   8
#     4  12  26  42  64  95 134 173 218 276 332 387
#     4  11  24  42  66  95 132 175 219 268 329 399
#     4  11  22  39  64  96 130 164 210 267 326 385
#     4  10  23  45  72  99 130 173 226 277 333 406
#     4  11  22  40  65  92 126 170 217 261 318 392
#
# _framework density 22.860040000000001
#
# number of rings (size 3 to 8) (size 9 to 14) (size 15 to 20)
#    0.000    1.000    0.000    8.400    2.800    3.600 
#    0.000    0.000    0.000    0.000    0.000    0.000 
#    0.000    0.000    0.000    0.000    0.000    0.000 
#
# Total GULP energy -223545.795030 kJ/mol
# GULP energy per Si atom -5588.644876 kJ/mol
# Density = 2.280801 g / cm^3
# Si number density = 22.860040 Si / 1000 Ang^3
#
#
#
# Elastic Constant Matrix: (Units=GPa)
#
#
# Indices 1 2 3 4 5 6 
#
# 1 71.8470 9.6506 1.8612 0.0000 0.0000 0.0000
# 2 9.6506 52.9611 -3.0671 0.0000 0.0000 0.0000
# 3 1.8612 -3.0671 67.8723 0.0000 0.0000 0.0000
# 4 0.0000 0.0000 0.0000 29.4983 0.0000 0.0000
# 5 0.0000 0.0000 0.0000 0.0000 -449.9271 0.0000
# 6 0.0000 0.0000 0.0000 0.0000 0.0000 34.8294
#
#
#
# Elastic Compliance Matrix: (Units=1/GPa)
#
#
# Indices 1 2 3 4 5 6 
#
# 1 0.014285 -0.002633 -0.000511 0.000000 0.000000 0.000000
# 2 -0.002633 0.019417 0.000950 0.000000 0.000000 0.000000
# 3 -0.000511 0.000950 0.014790 0.000000 0.000000 0.000000
# 4 0.000000 0.000000 0.000000 0.033900 0.000000 0.000000
# 5 0.000000 0.000000 0.000000 0.000000 -0.002223 0.000000
# 6 0.000000 0.000000 0.000000 0.000000 0.000000 0.028711
#
#
# Mechanical properties :
#
#
# Convention : Reuss Voigt Hill
#
# Bulk Modulus (GPa) = 22.67327 23.28554 22.97940
# Shear Modulus (GPa) = 39.07150 -64.83753 -12.88302
#
# Velocity S-wave (km/s) = 4.13869 -5.33145 -2.37652
# Velocity P-wave (km/s) = 5.72522 5.26222 1.59486
#
# Compressibility (1/GPa) = 0.04410479
#
# Stress axis : x y z
#
# Youngs Moduli (GPa) = 70.00190 51.50257 67.61112
#
# Poissons Ratio (x) = 0.13559 0.03453
# Poissons Ratio (y) = 0.18429 -0.06420
# Poissons Ratio (z) = 0.03575 -0.04891
#
# Static dielectric constant tensor:
#      x y z
#    x 1.849440 0.000000 0.000000 
#    y 0.000000 1.958090 0.000000 
#    z 0.000000 0.000000 1.743880 
# 
# From -- ./inp_files/3645.got.cif
#   From: 2010.05.17/outbox.cif.g08.bks.cpg/sg55_2_cif.got.tgz:3645.got - 2010.06.03 13:27:54.
