data_PCOD9428846
_publ_section_title
;
Structure prediction by ZEFSAII (Michael W. Deem and Ramdas Pophale) SiO2 
 PCOD9428846
Probable space group: P B A M
;
_chemical_formula_sum "Si O2"
_cell_formula_units_Z 48
_cell_length_a 18.709855
_cell_length_b 14.774800
_cell_length_c 8.908084
_cell_angle_alpha 90.000000
_cell_angle_beta 90.000000
_cell_angle_gamma 90.000000
_cell_volume 2462.500550
_symmetry_space_group_name_H-M "P B A M"
_symmetry_group_IT_number 55
_symmetry_cell_setting 'orthorhombic'
loop_
_space_group_symop_operation_xyz
x,y,z
-x,-y,z
1/2+x,1/2-y,-z
1/2-x,1/2+y,-z
-x,-y,-z
x,y,-z
1/2-x,1/2+y,z
1/2+x,1/2-y,z
loop_
_atom_site_type_symbol
_atom_site_label
_atom_site_fract_x
_atom_site_fract_y
_atom_site_fract_z
Si Si1 0.765958 0.722874 0.177494
Si Si2 0.572878 0.443311 0.175989
Si Si3 0.809611 0.415254 0.823613
Si Si4 0.537054 0.903116 0.321331
Si Si5 0.296144 0.448482 0.678359
Si Si6 0.419111 0.752916 0.319952
O O1 0.736575 0.824258 0.199064
O O2 0.713259 0.651003 0.253366
O O3 0.843745 0.715517 0.251623
O O4 0.770388 0.705181 0.000000
O O5 0.500000 0.500000 0.187733
O O6 0.636442 0.499520 0.251963
O O7 0.565389 0.346261 0.254404
O O8 0.589932 0.429492 0.000000
O O9 0.889862 0.397760 0.769922
O O10 0.773442 0.494715 0.728419
O O11 0.807529 0.438377 0.000000
O O12 0.552508 0.896654 0.500000
O O13 0.481658 0.823594 0.281952
O O14 0.500000 0.000000 0.294661
O O15 0.301863 0.445039 0.500000
O O16 0.412957 0.748657 0.500000
#
# Coordination Sequence:
#
# PCOD9428846 Si02
#       6
#     8   8   8   8   8   8
#     4  11  24  42  66  95 130 170 214 263 322 387
#     4  11  25  44  65  91 129 174 218 267 325 388
#     4  11  24  42  66  96 129 168 214 263 320 385
#     4  10  23  42  64  94 131 169 212 263 320 382
#     4  12  25  42  68  96 129 168 215 271 325 382
#     4  11  23  41  67  99 132 170 216 266 323 383
#
# _framework density 19.492381000000002
#
# number of rings (size 3 to 8) (size 9 to 14) (size 15 to 20)
#    0.000    1.000    1.667    4.500    2.333    6.333 
#    0.000    0.000    0.000    0.000    0.000    0.000 
#    0.000    0.000    0.000    0.000    0.000    0.000 
#
# Total GULP energy -268660.127015 kJ/mol
# GULP energy per Si atom -5597.085979 kJ/mol
# Density = 1.944802 g / cm^3
# Si number density = 19.492381 Si / 1000 Ang^3
#
#
#
# Elastic Constant Matrix: (Units=GPa)
#
#
# Indices 1 2 3 4 5 6 
#
# 1 66.1211 -5.5711 29.6404 0.0000 0.0000 0.0000
# 2 -5.5711 60.3296 25.2011 0.0000 0.0000 0.0000
# 3 29.6404 25.2011 92.5942 0.0000 0.0000 0.0000
# 4 0.0000 0.0000 0.0000 41.1250 0.0000 0.0000
# 5 0.0000 0.0000 0.0000 0.0000 6.8841 0.0000
# 6 0.0000 0.0000 0.0000 0.0000 0.0000 32.2610
#
#
#
# Elastic Compliance Matrix: (Units=1/GPa)
#
#
# Indices 1 2 3 4 5 6 
#
# 1 0.018813 0.004798 -0.007328 0.000000 0.000000 0.000000
# 2 0.004798 0.019926 -0.006959 0.000000 0.000000 0.000000
# 3 -0.007328 -0.006959 0.015040 0.000000 0.000000 0.000000
# 4 0.000000 0.000000 0.000000 0.024316 0.000000 0.000000
# 5 0.000000 0.000000 0.000000 0.000000 0.145261 0.000000
# 6 0.000000 0.000000 0.000000 0.000000 0.000000 0.030997
#
#
# Mechanical properties :
#
#
# Convention : Reuss Voigt Hill
#
# Bulk Modulus (GPa) = 28.73511 35.28731 32.01121
# Shear Modulus (GPa) = 17.54809 27.37233 22.46021
#
# Velocity S-wave (km/s) = 3.00368 3.75141 3.39817
# Velocity P-wave (km/s) = 5.17718 6.07507 5.64401
#
# Compressibility (1/GPa) = 0.03480063
#
# Stress axis : x y z
#
# Youngs Moduli (GPa) = 53.15435 50.18642 66.49062
#
# Poissons Ratio (x) = -0.24082 0.48726
# Poissons Ratio (y) = -0.25506 0.46272
# Poissons Ratio (z) = 0.38953 0.34926
#
# Static dielectric constant tensor:
#      x y z
#    x 1.653570 0.000000 0.000000 
#    y 0.000000 1.661690 0.000000 
#    z 0.000000 0.000000 1.650570 
# 
# From -- ./inp_files/7420.got.cif
#   From: 2010.05.17/outbox.cif.g08.bks.cpg/sg55_4_cif.got.tgz:7420.got - 2010.06.03 13:27:54.
