data_PCOD9428699
_publ_section_title
;
Structure prediction by ZEFSAII (Michael W. Deem and Ramdas Pophale) SiO2 
 PCOD9428699
Probable space group: P B A M
;
_chemical_formula_sum "Si O2"
_cell_formula_units_Z 40
_cell_length_a 18.927121
_cell_length_b 10.913370
_cell_length_c 8.488349
_cell_angle_alpha 90.000000
_cell_angle_beta 90.000000
_cell_angle_gamma 90.000000
_cell_volume 1753.342118
_symmetry_space_group_name_H-M "P B A M"
_symmetry_group_IT_number 55
_symmetry_cell_setting 'orthorhombic'
loop_
_space_group_symop_operation_xyz
x,y,z
-x,-y,z
1/2+x,1/2-y,-z
1/2-x,1/2+y,-z
-x,-y,-z
x,y,-z
1/2-x,1/2+y,z
1/2+x,1/2-y,z
loop_
_atom_site_type_symbol
_atom_site_label
_atom_site_fract_x
_atom_site_fract_y
_atom_site_fract_z
Si Si1 0.971658 0.864747 0.321945
Si Si2 0.463402 0.154128 0.817620
Si Si3 0.888363 0.550919 0.315130
Si Si4 0.751264 0.164291 0.816896
Si Si5 0.810268 0.911155 0.311261
O O1 0.973670 0.810349 0.500000
O O2 0.890150 0.869266 0.268487
O O3 0.026196 0.796319 0.209117
O O4 0.000000 0.000000 0.334783
O O5 0.538053 0.107596 0.745580
O O6 0.401137 0.092088 0.719835
O O7 0.456130 0.122052 0.000000
O O8 0.875905 0.572070 0.500000
O O9 0.826416 0.607186 0.213399
O O10 0.742570 0.303296 0.749363
O O11 0.797208 0.051504 0.744638
O O12 0.768871 0.175200 0.000000
O O13 0.805588 0.912015 0.500000
#
# Coordination Sequence:
#
# PCOD9428699 Si02
#       5
#     8   8   8   8   8
#     4  10  22  41  65  92 126 169 215 262 318 388
#     4  11  21  35  59  92 127 161 205 258 319 376
#     4  11  21  37  62  90 122 163 211 258 315 381
#     4  12  25  43  67  97 135 173 221 280 337 392
#     4  11  24  44  69  96 131 177 226 270 330 402
#
# _framework density 22.813572000000001
#
# number of rings (size 3 to 8) (size 9 to 14) (size 15 to 20)
#    0.000    1.000    2.000    7.200    0.000    2.800 
#    0.000    6.000    0.000    0.000    0.000    0.000 
#    0.000    0.000    0.000    0.000    0.000    0.000 
#
# Total GULP energy -223354.441963 kJ/mol
# GULP energy per Si atom -5583.861049 kJ/mol
# Density = 2.276165 g / cm^3
# Si number density = 22.813572 Si / 1000 Ang^3
#
#
#
# Elastic Constant Matrix: (Units=GPa)
#
#
# Indices 1 2 3 4 5 6 
#
# 1 38.9234 12.2127 -16.6458 0.0000 0.0000 0.0000
# 2 12.2127 106.4588 33.3760 0.0000 0.0000 0.0000
# 3 -16.6458 33.3760 76.4691 0.0000 0.0000 0.0000
# 4 0.0000 0.0000 0.0000 19.5084 0.0000 0.0000
# 5 0.0000 0.0000 0.0000 0.0000 19.6354 0.0000
# 6 0.0000 0.0000 0.0000 0.0000 0.0000 35.2760
#
#
#
# Elastic Compliance Matrix: (Units=1/GPa)
#
#
# Indices 1 2 3 4 5 6 
#
# 1 0.032081 -0.006800 0.009951 0.000000 0.000000 0.000000
# 2 -0.006800 0.012324 -0.006859 0.000000 0.000000 0.000000
# 3 0.009951 -0.006859 0.018237 0.000000 0.000000 0.000000
# 4 0.000000 0.000000 0.000000 0.051260 0.000000 0.000000
# 5 0.000000 0.000000 0.000000 0.000000 0.050928 0.000000
# 6 0.000000 0.000000 0.000000 0.000000 0.000000 0.028348
#
#
# Mechanical properties :
#
#
# Convention : Reuss Voigt Hill
#
# Bulk Modulus (GPa) = 18.10737 31.08189 24.59463
# Shear Modulus (GPa) = 22.83079 27.74453 25.28766
#
# Velocity S-wave (km/s) = 3.16690 3.49111 3.33295
# Velocity P-wave (km/s) = 4.61808 5.46848 5.06118
#
# Compressibility (1/GPa) = 0.05522612
#
# Stress axis : x y z
#
# Youngs Moduli (GPa) = 31.17120 81.14373 54.83310
#
# Poissons Ratio (x) = 0.55179 -0.54566
# Poissons Ratio (y) = 0.21197 0.37611
# Poissons Ratio (z) = -0.31020 0.55658
#
# Static dielectric constant tensor:
#      x y z
#    x 1.861340 0.000000 0.000000 
#    y 0.000000 2.068570 0.000000 
#    z 0.000000 0.000000 1.818690 
# 
# From -- ./inp_files/8476.got.cif
#   From: 2010.05.17/outbox.cif.g08.bks.cpg/sg55_5_cif.got.tgz:8476.got - 2010.06.03 13:27:54.
