data_PCOD9428799
_publ_section_title
;
Structure prediction by ZEFSAII (Michael W. Deem and Ramdas Pophale) SiO2 
 PCOD9428799
Probable space group: P B A M
;
_chemical_formula_sum "Si O2"
_cell_formula_units_Z 48
_cell_length_a 7.977883
_cell_length_b 14.728242
_cell_length_c 18.725818
_cell_angle_alpha 90.000000
_cell_angle_beta 90.000000
_cell_angle_gamma 90.000000
_cell_volume 2200.287200
_symmetry_space_group_name_H-M "P B A M"
_symmetry_group_IT_number 55
_symmetry_cell_setting 'orthorhombic'
loop_
_space_group_symop_operation_xyz
x,y,z
-x,-y,z
1/2+x,1/2-y,-z
1/2-x,1/2+y,-z
-x,-y,-z
x,y,-z
1/2-x,1/2+y,z
1/2+x,1/2-y,z
loop_
_atom_site_type_symbol
_atom_site_label
_atom_site_fract_x
_atom_site_fract_y
_atom_site_fract_z
Si Si1 0.000159 0.775534 0.416976
Si Si2 0.297792 0.018603 0.918518
Si Si3 0.669944 0.558879 0.650261
Si Si4 0.646529 0.834541 0.806971
Si Si5 0.315265 0.122395 0.646905
Si Si6 0.249489 0.870487 0.807191
O O1 0.008632 0.753879 0.500000
O O2 0.140399 0.850921 0.395903
O O3 0.024539 0.684158 0.370936
O O4 0.828764 0.826404 0.397477
O O5 0.275275 0.109389 0.872095
O O6 0.500000 0.000000 0.920188
O O7 0.216157 0.937562 0.873003
O O8 0.240271 0.024755 0.000000
O O9 0.500000 0.500000 0.644215
O O10 0.809914 0.484267 0.630230
O O11 0.692924 0.588328 0.732002
O O12 0.722297 0.865615 0.731076
O O13 0.450274 0.858345 0.803229
O O14 0.669436 0.727899 0.816124
#
# Coordination Sequence:
#
# PCOD9428799 Si02
#       6
#     8   8   8   8   8   8
#     4  11  24  41  61  89 124 161 204 258 318 369
#     4   9  20  39  61  91 129 164 203 257 314 365
#     4  10  23  38  64  92 120 164 207 255 308 373
#     4  11  22  37  65  93 122 168 212 260 305 376
#     4  11  22  40  62  89 119 163 206 254 306 372
#     4  11  22  38  63  95 127 161 213 257 309 370
#
# _framework density 21.815334
#
# number of rings (size 3 to 8) (size 9 to 14) (size 15 to 20)
#    0.000    1.500    3.333    1.500    2.333    4.333 
#    0.000    0.000    0.000    5.500    0.000    0.000 
#    0.000    0.000    0.000    0.000    0.000    0.000 
#
# Total GULP energy -268474.384586 kJ/mol
# GULP energy per Si atom -5593.216346 kJ/mol
# Density = 2.176568 g / cm^3
# Si number density = 21.815334 Si / 1000 Ang^3
#
#
#
# Elastic Constant Matrix: (Units=GPa)
#
#
# Indices 1 2 3 4 5 6 
#
# 1 34.1308 -0.4775 -8.9155 0.0000 0.0000 0.0000
# 2 -0.4775 117.8728 25.9761 0.0000 0.0000 0.0000
# 3 -8.9155 25.9761 127.7964 0.0000 0.0000 0.0000
# 4 0.0000 0.0000 0.0000 33.6137 0.0000 0.0000
# 5 0.0000 0.0000 0.0000 0.0000 22.4958 0.0000
# 6 0.0000 0.0000 0.0000 0.0000 0.0000 27.7982
#
#
#
# Elastic Compliance Matrix: (Units=1/GPa)
#
#
# Indices 1 2 3 4 5 6 
#
# 1 0.029857 -0.000354 0.002155 0.000000 0.000000 0.000000
# 2 -0.000354 0.008886 -0.001831 0.000000 0.000000 0.000000
# 3 0.002155 -0.001831 0.008347 0.000000 0.000000 0.000000
# 4 0.000000 0.000000 0.000000 0.029750 0.000000 0.000000
# 5 0.000000 0.000000 0.000000 0.000000 0.044453 0.000000
# 6 0.000000 0.000000 0.000000 0.000000 0.000000 0.035974
#
#
# Mechanical properties :
#
#
# Convention : Reuss Voigt Hill
#
# Bulk Modulus (GPa) = 21.26286 34.77404 28.01845
# Shear Modulus (GPa) = 28.90124 34.32931 31.61528
#
# Velocity S-wave (km/s) = 3.64375 3.97121 3.81100
# Velocity P-wave (km/s) = 5.24122 6.08293 5.67770
#
# Compressibility (1/GPa) = 0.04703036
#
# Stress axis : x y z
#
# Youngs Moduli (GPa) = 33.49301 112.53968 119.79763
#
# Poissons Ratio (x) = 0.03983 -0.25815
# Poissons Ratio (y) = 0.01185 0.21933
# Poissons Ratio (z) = -0.07217 0.20604
#
# Static dielectric constant tensor:
#      x y z
#    x 1.890920 0.000000 0.000000 
#    y 0.000000 1.781620 0.000000 
#    z 0.000000 0.000000 1.727070 
# 
# From -- ./inp_files/20785.got.cif
#   From: 2010.05.17/outbox.cif.g08.bks.cpg/sg55_11_cif.got.tgz:20785.got - 2010.06.03 13:27:54.
