data_PCOD9428580
_publ_section_title
;
Structure prediction by ZEFSAII (Michael W. Deem and Ramdas Pophale) SiO2 
 PCOD9428580
Probable space group: P B A M
;
_chemical_formula_sum "Si O2"
_cell_formula_units_Z 56
_cell_length_a 5.353400
_cell_length_b 34.382773
_cell_length_c 13.310659
_cell_angle_alpha 90.000000
_cell_angle_beta 90.000000
_cell_angle_gamma 90.000000
_cell_volume 2450.022948
_symmetry_space_group_name_H-M "P B A M"
_symmetry_group_IT_number 55
_symmetry_cell_setting 'orthorhombic'
loop_
_space_group_symop_operation_xyz
x,y,z
-x,-y,z
1/2+x,1/2-y,-z
1/2-x,1/2+y,-z
-x,-y,-z
x,y,-z
1/2-x,1/2+y,z
1/2+x,1/2-y,z
loop_
_atom_site_type_symbol
_atom_site_label
_atom_site_fract_x
_atom_site_fract_y
_atom_site_fract_z
Si Si1 0.744669 0.774740 0.116184
Si Si2 0.557735 0.165344 0.236450
Si Si3 0.112054 0.887382 0.112096
Si Si4 0.303297 0.275453 0.616416
Si Si5 0.256775 0.519674 0.617931
Si Si6 0.514443 0.046147 0.108906
Si Si7 0.237274 0.595650 0.280972
O O1 0.021799 0.757233 0.129123
O O2 0.664121 0.807887 0.193250
O O3 0.727489 0.787861 0.000000
O O4 0.674782 0.144147 0.138636
O O5 0.742476 0.191287 0.303007
O O6 0.451319 0.130272 0.303999
O O7 0.220983 0.931446 0.109943
O O8 0.952087 0.885602 0.213469
O O9 0.011720 0.878884 0.000000
O O10 0.289674 0.289221 0.500000
O O11 0.573491 0.255267 0.628867
O O12 0.500000 0.500000 0.666906
O O13 0.258052 0.510485 0.500000
O O14 0.288279 0.565997 0.630072
O O15 0.000000 0.500000 0.655877
O O16 0.375943 0.065705 0.200030
O O17 0.500000 0.000000 0.114623
O O18 0.401929 0.056950 0.000000
#
# Coordination Sequence:
#
# PCOD9428580 Si02
#       7
#     8   8   8   8   8   8   8
#     4  10  22  39  61  88 118 162 215 262 308 370
#     4  11  24  39  61  91 128 171 209 266 321 390
#     4  10  23  39  56  89 130 173 215 262 321 377
#     4  10  23  44  71  99 128 164 211 268 327 389
#     4  10  24  46  71  96 127 168 218 277 330 385
#     4   9  19  36  56  83 119 163 217 270 316 374
#     4  11  24  36  62  91 127 171 214 266 326 394
#
# _framework density 22.856928
#
# number of rings (size 3 to 8) (size 9 to 14) (size 15 to 20)
#    0.000    1.857    0.000    2.143   10.000    2.286 
#    0.000    2.857    0.000    0.000    0.000    0.000 
#    0.000    0.000    0.000    0.000    0.000    0.000 
#
# Total GULP energy -312574.898393 kJ/mol
# GULP energy per Si atom -5581.694614 kJ/mol
# Density = 2.280490 g / cm^3
# Si number density = 22.856928 Si / 1000 Ang^3
#
#
#
# Elastic Constant Matrix: (Units=GPa)
#
#
# Indices 1 2 3 4 5 6 
#
# 1 91.9638 30.2142 9.8779 0.0000 0.0000 0.0000
# 2 30.2142 103.8757 16.3839 0.0000 0.0000 0.0000
# 3 9.8779 16.3839 51.5671 0.0000 0.0000 0.0000
# 4 0.0000 0.0000 0.0000 7.7283 0.0000 0.0000
# 5 0.0000 0.0000 0.0000 0.0000 16.3786 0.0000
# 6 0.0000 0.0000 0.0000 0.0000 0.0000 19.5063
#
#
#
# Elastic Compliance Matrix: (Units=1/GPa)
#
#
# Indices 1 2 3 4 5 6 
#
# 1 0.012100 -0.003320 -0.001263 0.000000 0.000000 0.000000
# 2 -0.003320 0.011046 -0.002873 0.000000 0.000000 0.000000
# 3 -0.001263 -0.002873 0.020547 0.000000 0.000000 0.000000
# 4 0.000000 0.000000 0.000000 0.129395 0.000000 0.000000
# 5 0.000000 0.000000 0.000000 0.000000 0.061055 0.000000
# 6 0.000000 0.000000 0.000000 0.000000 0.000000 0.051265
#
#
# Mechanical properties :
#
#
# Convention : Reuss Voigt Hill
#
# Bulk Modulus (GPa) = 34.74660 40.03983 37.39321
# Shear Modulus (GPa) = 16.13339 21.45134 18.79237
#
# Velocity S-wave (km/s) = 2.65965 3.06683 2.87047
# Velocity P-wave (km/s) = 4.96653 5.48600 5.23272
#
# Compressibility (1/GPa) = 0.02877980
#
# Stress axis : x y z
#
# Youngs Moduli (GPa) = 82.64185 90.53115 48.66865
#
# Poissons Ratio (x) = 0.30060 0.06146
# Poissons Ratio (y) = 0.27441 0.13985
# Poissons Ratio (z) = 0.10437 0.26014
#
# Static dielectric constant tensor:
#      x y z
#    x 1.968860 0.000000 0.000000 
#    y 0.000000 1.824720 0.000000 
#    z 0.000000 0.000000 1.885640 
# 
# From -- ./inp_files/16755.got.cif
#   From: 2010.05.17/outbox.cif.g08.bks.cpg/sg55_9_cif.got.tgz:16755.got - 2010.06.03 13:27:54.
