data_PCOD9428673
_publ_section_title
;
Structure prediction by ZEFSAII (Michael W. Deem and Ramdas Pophale) SiO2 
 PCOD9428673
Probable space group: P B A M
;
_chemical_formula_sum "Si O2"
_cell_formula_units_Z 48
_cell_length_a 16.570833
_cell_length_b 5.179944
_cell_length_c 26.083057
_cell_angle_alpha 90.000000
_cell_angle_beta 90.000000
_cell_angle_gamma 90.000000
_cell_volume 2238.864941
_symmetry_space_group_name_H-M "P B A M"
_symmetry_group_IT_number 55
_symmetry_cell_setting 'orthorhombic'
loop_
_space_group_symop_operation_xyz
x,y,z
-x,-y,z
1/2+x,1/2-y,-z
1/2-x,1/2+y,-z
-x,-y,-z
x,y,-z
1/2-x,1/2+y,z
1/2+x,1/2-y,z
loop_
_atom_site_type_symbol
_atom_site_label
_atom_site_fract_x
_atom_site_fract_y
_atom_site_fract_z
Si Si1 0.801537 0.819338 0.500000
Si Si2 0.000000 0.000000 0.774877
Si Si3 0.915814 0.349087 0.148208
Si Si4 0.197201 0.475568 0.234187
Si Si5 0.802662 0.173281 0.939811
Si Si6 0.574567 0.148845 0.688159
Si Si7 0.193663 0.088806 0.612707
O O1 0.774457 0.520282 0.500000
O O2 0.840470 0.882065 0.554683
O O3 0.964030 0.789433 0.737140
O O4 0.065632 0.881364 0.812475
O O5 0.850807 0.510097 0.180675
O O6 0.876803 0.243047 0.096599
O O7 0.000000 0.500000 0.140478
O O8 0.264982 0.693201 0.237049
O O9 0.140265 0.528333 0.283338
O O10 0.733985 0.390348 0.930100
O O11 0.824043 0.191019 0.000000
O O12 0.622834 0.344290 0.652120
O O13 0.500000 0.000000 0.662276
O O14 0.262179 0.313531 0.618245
#
# Coordination Sequence:
#
# PCOD9428673 Si02
#       7
#     4   4   8   8   8   8   8
#     4   8  16  36  63  91 124 156 210 274 320 376
#     4  12  24  44  61  89 142 172 218 256 328 380
#     4  12  25  42  66  96 131 176 211 266 324 389
#     4  12  24  40  62  89 121 165 220 262 309 376
#     4  10  24  47  72 100 131 166 214 270 323 380
#     4  12  25  41  60  90 133 176 211 270 324 383
#     4  10  22  40  66  96 123 167 219 268 323 383
#
# _framework density 21.439435
#
# number of rings (size 3 to 8) (size 9 to 14) (size 15 to 20)
#    0.000    1.000    3.333    3.000    4.667    0.333 
#    0.000    0.833    0.000    0.500    0.000    0.000 
#    0.000    0.000    0.000    0.000    0.000    0.000 
#
# Total GULP energy -268441.838641 kJ/mol
# GULP energy per Si atom -5592.538305 kJ/mol
# Density = 2.139064 g / cm^3
# Si number density = 21.439435 Si / 1000 Ang^3
#
#
#
# Elastic Constant Matrix: (Units=GPa)
#
#
# Indices 1 2 3 4 5 6 
#
# 1 60.5173 0.9957 29.6663 0.0000 0.0000 0.0000
# 2 0.9957 65.8479 0.0348 0.0000 0.0000 0.0000
# 3 29.6663 0.0348 94.7590 0.0000 0.0000 0.0000
# 4 0.0000 0.0000 0.0000 1.8453 0.0000 0.0000
# 5 0.0000 0.0000 0.0000 0.0000 5.3872 0.0000
# 6 0.0000 0.0000 0.0000 0.0000 0.0000 12.8716
#
#
#
# Elastic Compliance Matrix: (Units=1/GPa)
#
#
# Indices 1 2 3 4 5 6 
#
# 1 0.019526 -0.000292 -0.006113 0.000000 0.000000 0.000000
# 2 -0.000292 0.015191 0.000086 0.000000 0.000000 0.000000
# 3 -0.006113 0.000086 0.012467 0.000000 0.000000 0.000000
# 4 0.000000 0.000000 0.000000 0.541923 0.000000 0.000000
# 5 0.000000 0.000000 0.000000 0.000000 0.185625 0.000000
# 6 0.000000 0.000000 0.000000 0.000000 0.000000 0.077690
#
#
# Mechanical properties :
#
#
# Convention : Reuss Voigt Hill
#
# Bulk Modulus (GPa) = 28.94749 31.39087 30.16918
# Shear Modulus (GPa) = 5.70402 16.71598 11.21000
#
# Velocity S-wave (km/s) = 1.63288 2.79531 2.28911
# Velocity P-wave (km/s) = 4.13357 5.00917 4.59228
#
# Compressibility (1/GPa) = 0.03454531
#
# Stress axis : x y z
#
# Youngs Moduli (GPa) = 51.21492 65.82900 80.21308
#
# Poissons Ratio (x) = 0.01922 0.49032
# Poissons Ratio (y) = 0.01496 -0.00689
# Poissons Ratio (z) = 0.31307 -0.00565
#
# Static dielectric constant tensor:
#      x y z
#    x 1.855410 0.000000 0.000000 
#    y 0.000000 1.833020 0.000000 
#    z 0.000000 0.000000 1.778640 
# 
# From -- ./inp_files/23824.got.cif
#   From: 2010.05.17/outbox.cif.g08.bks.cpg/sg55_12_cif.got.tgz:23824.got - 2010.06.03 13:27:54.
