data_PCOD9429057
_publ_section_title
;
Structure prediction by ZEFSAII (Michael W. Deem and Ramdas Pophale) SiO2 
 PCOD9429057
Probable space group: P B A M
;
_chemical_formula_sum "Si O2"
_cell_formula_units_Z 40
_cell_length_a 23.947874
_cell_length_b 7.638968
_cell_length_c 10.964120
_cell_angle_alpha 90.000000
_cell_angle_beta 90.000000
_cell_angle_gamma 90.000000
_cell_volume 2005.743694
_symmetry_space_group_name_H-M "P B A M"
_symmetry_group_IT_number 55
_symmetry_cell_setting 'orthorhombic'
loop_
_space_group_symop_operation_xyz
x,y,z
-x,-y,z
1/2+x,1/2-y,-z
1/2-x,1/2+y,-z
-x,-y,-z
x,y,-z
1/2-x,1/2+y,z
1/2+x,1/2-y,z
loop_
_atom_site_type_symbol
_atom_site_label
_atom_site_fract_x
_atom_site_fract_y
_atom_site_fract_z
Si Si1 0.676874 0.745857 0.706677
Si Si2 0.957261 0.764124 0.148022
Si Si3 0.210758 0.370735 0.363756
Si Si4 0.423265 0.136031 0.857260
Si Si5 0.388158 0.588487 0.635516
O O1 0.738182 0.664712 0.727751
O O2 0.636066 0.792608 0.817108
O O3 0.641421 0.599895 0.636427
O O4 0.688027 0.933420 0.645606
O O5 0.930739 0.570584 0.168295
O O6 0.926824 0.887995 0.245435
O O7 0.021851 0.739338 0.187269
O O8 0.952996 0.805776 0.000000
O O9 0.234944 0.346211 0.500000
O O10 0.161333 0.231745 0.350195
O O11 0.428370 0.151855 0.000000
O O12 0.413953 0.617165 0.500000
#
# Coordination Sequence:
#
# PCOD9429057 Si02
#       5
#     8   8   8   8   8
#     4  12  22  38  63  91 122 165 212 254 311 372
#     4   9  19  42  69  92 125 169 210 256 315 381
#     4  11  22  38  58  86 125 166 204 250 311 372
#     4   9  20  40  67  94 124 164 212 259 314 376
#     4  11  23  38  61  96 129 162 208 260 309 369
#
# _framework density 19.942729
#
# number of rings (size 3 to 8) (size 9 to 14) (size 15 to 20)
#    0.000    1.600    4.000    3.000    0.000    1.600 
#    0.000   10.000    0.000    0.000    0.000    0.000 
#    0.000    0.000    0.000    0.000    0.000    0.000 
#
# Total GULP energy -222937.137756 kJ/mol
# GULP energy per Si atom -5573.428444 kJ/mol
# Density = 1.989734 g / cm^3
# Si number density = 19.942729 Si / 1000 Ang^3
#
#
#
# Elastic Constant Matrix: (Units=GPa)
#
#
# Indices 1 2 3 4 5 6 
#
# 1 52.8225 35.6484 15.5503 0.0000 0.0000 0.0000
# 2 35.6484 119.2053 28.4149 0.0000 0.0000 0.0000
# 3 15.5503 28.4149 29.2427 0.0000 0.0000 0.0000
# 4 0.0000 0.0000 0.0000 4.2387 0.0000 0.0000
# 5 0.0000 0.0000 0.0000 0.0000 6.2093 0.0000
# 6 0.0000 0.0000 0.0000 0.0000 0.0000 28.9534
#
#
#
# Elastic Compliance Matrix: (Units=1/GPa)
#
#
# Indices 1 2 3 4 5 6 
#
# 1 0.025032 -0.005613 -0.007857 0.000000 0.000000 0.000000
# 2 -0.005613 0.012176 -0.008847 0.000000 0.000000 0.000000
# 3 -0.007857 -0.008847 0.046971 0.000000 0.000000 0.000000
# 4 0.000000 0.000000 0.000000 0.235919 0.000000 0.000000
# 5 0.000000 0.000000 0.000000 0.000000 0.161047 0.000000
# 6 0.000000 0.000000 0.000000 0.000000 0.000000 0.034538
#
#
# Mechanical properties :
#
#
# Convention : Reuss Voigt Hill
#
# Bulk Modulus (GPa) = 25.28719 40.05532 32.67126
# Shear Modulus (GPa) = 8.71839 15.99076 12.35457
#
# Velocity S-wave (km/s) = 2.09313 2.83474 2.49168
# Velocity P-wave (km/s) = 4.30686 5.55366 4.96951
#
# Compressibility (1/GPa) = 0.03954571
#
# Stress axis : x y z
#
# Youngs Moduli (GPa) = 39.94809 82.12685 21.28967
#
# Poissons Ratio (x) = 0.46098 0.16728
# Poissons Ratio (y) = 0.22423 0.18835
# Poissons Ratio (z) = 0.31388 0.72656
#
# Static dielectric constant tensor:
#      x y z
#    x 1.754190 0.000000 0.000000 
#    y 0.000000 1.767420 0.000000 
#    z 0.000000 0.000000 1.704140 
# 
# From -- ./inp_files/15208.got.cif
#   From: 2010.05.17/outbox.cif.g08.bks.cpg/sg55_8_cif.got.tgz:15208.got - 2010.06.03 13:27:54.
