data_PCOD9429076
_publ_section_title
;
Structure prediction by ZEFSAII (Michael W. Deem and Ramdas Pophale) SiO2 
 PCOD9429076
Probable space group: P B A M
;
_chemical_formula_sum "Si O2"
_cell_formula_units_Z 40
_cell_length_a 7.701044
_cell_length_b 20.950367
_cell_length_c 10.547063
_cell_angle_alpha 90.000000
_cell_angle_beta 90.000000
_cell_angle_gamma 90.000000
_cell_volume 1701.659960
_symmetry_space_group_name_H-M "P B A M"
_symmetry_group_IT_number 55
_symmetry_cell_setting 'orthorhombic'
loop_
_space_group_symop_operation_xyz
x,y,z
-x,-y,z
1/2+x,1/2-y,-z
1/2-x,1/2+y,-z
-x,-y,-z
x,y,-z
1/2-x,1/2+y,z
1/2+x,1/2-y,z
loop_
_atom_site_type_symbol
_atom_site_label
_atom_site_fract_x
_atom_site_fract_y
_atom_site_fract_z
Si Si1 0.488383 0.646155 0.000000
Si Si2 0.499938 0.842518 0.245027
Si Si3 0.630004 0.775569 0.000000
Si Si4 0.131787 0.915694 0.753140
Si Si5 0.639011 0.782721 0.500000
Si Si6 0.685321 0.963670 0.851409
Si Si7 0.009208 0.853841 0.500000
O O1 0.639741 0.699786 0.000000
O O2 0.518690 0.606049 0.126747
O O3 0.311454 0.686677 0.000000
O O4 0.527545 0.796318 0.125938
O O5 0.311176 0.874714 0.245367
O O6 0.540963 0.805781 0.373711
O O7 0.639840 0.898845 0.221008
O O8 0.038886 0.896952 0.623415
O O9 0.189535 0.988507 0.776649
O O10 0.643466 0.705968 0.500000
O O11 0.824570 0.817923 0.500000
O O12 0.500000 0.000000 0.857347
O O13 0.733699 0.954247 0.000000
#
# Coordination Sequence:
#
# PCOD9429076 Si02
#       7
#     4   8   4   8   4   8   4
#     4  12  24  39  60  91 125 164 210 262 317 372
#     4  11  22  41  67  94 125 166 212 258 310 372
#     4  12  24  39  60  91 125 164 210 262 317 372
#     4  11  22  41  67  94 125 166 212 258 310 372
#     4  12  26  45  64  91 129 168 212 262 321 378
#     4   9  18  37  66  97 127 163 208 256 307 372
#     4  12  26  45  64  91 129 168 212 262 321 378
#
# _framework density 23.506459
#
# number of rings (size 3 to 8) (size 9 to 14) (size 15 to 20)
#    0.000    1.000    2.000    6.000    0.000    0.800 
#    0.000    9.000    0.000    0.000    0.000    0.000 
#    0.000    0.000    0.000    0.000    0.000    0.000 
#
# Total GULP energy -224288.387260 kJ/mol
# GULP energy per Si atom -5607.209682 kJ/mol
# Density = 2.345296 g / cm^3
# Si number density = 23.506459 Si / 1000 Ang^3
#
#
#
# Elastic Constant Matrix: (Units=GPa)
#
#
# Indices 1 2 3 4 5 6 
#
# 1 110.0856 -9.1470 34.5028 0.0000 0.0000 0.0000
# 2 -9.1470 97.3081 55.4276 0.0000 0.0000 0.0000
# 3 34.5028 55.4276 206.7853 0.0000 0.0000 0.0000
# 4 0.0000 0.0000 0.0000 33.5683 0.0000 0.0000
# 5 0.0000 0.0000 0.0000 0.0000 15.8649 0.0000
# 6 0.0000 0.0000 0.0000 0.0000 0.0000 42.0366
#
#
#
# Elastic Compliance Matrix: (Units=1/GPa)
#
#
# Indices 1 2 3 4 5 6 
#
# 1 0.009978 0.002226 -0.002261 0.000000 0.000000 0.000000
# 2 0.002226 0.012625 -0.003755 0.000000 0.000000 0.000000
# 3 -0.002261 -0.003755 0.006220 0.000000 0.000000 0.000000
# 4 0.000000 0.000000 0.000000 0.029790 0.000000 0.000000
# 5 0.000000 0.000000 0.000000 0.000000 0.063032 0.000000
# 6 0.000000 0.000000 0.000000 0.000000 0.000000 0.023789
#
#
# Mechanical properties :
#
#
# Convention : Reuss Voigt Hill
#
# Bulk Modulus (GPa) = 47.07942 63.97177 55.52559
# Shear Modulus (GPa) = 31.23134 40.52033 35.87583
#
# Velocity S-wave (km/s) = 3.64899 4.15637 3.91091
# Velocity P-wave (km/s) = 6.15023 7.09278 6.63825
#
# Compressibility (1/GPa) = 0.02124071
#
# Stress axis : x y z
#
# Youngs Moduli (GPa) = 100.22468 79.20758 160.77415
#
# Poissons Ratio (x) = -0.17632 0.36359
# Poissons Ratio (y) = -0.22310 0.60379
# Poissons Ratio (z) = 0.22666 0.29746
#
# Static dielectric constant tensor:
#      x y z
#    x 1.962750 0.000000 0.000000 
#    y 0.000000 1.856690 0.000000 
#    z 0.000000 0.000000 1.797130 
# 
# From -- ./inp_files/2421.got.cif
#   From: 2010.05.17/outbox.cif.g08.bks.cpg/sg55_2_cif.got.tgz:2421.got - 2010.06.03 13:27:54.
