data_PCOD9429643
_publ_section_title
;
Structure prediction by ZEFSAII (Michael W. Deem and Ramdas Pophale) SiO2 
 PCOD9429643
Probable space group: P C C N
;
_chemical_formula_sum "Si O2"
_cell_formula_units_Z 64
_cell_length_a 9.860949
_cell_length_b 16.093681
_cell_length_c 22.893433
_cell_angle_alpha 90.000000
_cell_angle_beta 90.000000
_cell_angle_gamma 90.000000
_cell_volume 3633.164181
_symmetry_space_group_name_H-M "P C C N"
_symmetry_group_IT_number 56
_symmetry_cell_setting 'orthorhombic'
loop_
_space_group_symop_operation_xyz
x,y,z
1/2-x,1/2-y,z
1/2+x,-y,1/2-z
-x,1/2+y,1/2-z
-x,-y,-z
1/2+x,1/2+y,-z
1/2-x,y,1/2+z
x,1/2-y,1/2+z
loop_
_atom_site_type_symbol
_atom_site_label
_atom_site_fract_x
_atom_site_fract_y
_atom_site_fract_z
Si Si1 0.692573 0.939401 0.450954
Si Si2 0.721627 0.415388 0.536302
Si Si3 0.548706 0.827075 0.960894
Si Si4 0.028214 0.836946 0.014909
Si Si5 0.328217 0.662967 0.242330
Si Si6 0.941347 0.436407 0.366363
Si Si7 0.347468 0.927300 0.336866
Si Si8 0.416142 0.751006 0.347483
O O1 0.807567 0.869156 0.449090
O O2 0.553464 0.897134 0.471149
O O3 0.735407 0.002442 0.502177
O O4 0.662809 0.995853 0.394306
O O5 0.565575 0.395167 0.525044
O O6 0.817760 0.343171 0.508975
O O7 0.754185 0.424260 0.604924
O O8 0.493626 0.784700 0.901993
O O9 0.537417 0.753854 0.008736
O O10 0.020432 0.877571 0.078783
O O11 0.250000 0.750000 0.228620
O O12 0.380124 0.619497 0.184625
O O13 0.238493 0.596247 0.279224
O O14 0.437774 0.695971 0.289781
O O15 0.067530 0.488696 0.340857
O O16 0.447887 0.847773 0.340316
O O17 0.250000 0.750000 0.356123
#
# Coordination Sequence:
#
# PCOD9429643 Si02
#       8
#     8   8   8   8   8   8   8   8
#     4  11  23  34  52  88 124 148 186 240 296 351
#     4  11  18  36  57  81 105 156 196 232 275 346
#     4  12  20  32  57  89 116 145 195 249 284 330
#     4  11  21  36  59  83 114 158 197 221 297 366
#     4   9  21  36  58  86 111 144 201 249 280 328
#     4  11  21  38  60  82 118 159 189 239 298 361
#     4  10  17  36  63  76 107 149 203 229 277 348
#     4   9  16  33  57  82 105 146 198 237 268 340
#
# _framework density 17.615499
#
# number of rings (size 3 to 8) (size 9 to 14) (size 15 to 20)
#    0.000    1.750    6.250    1.875    0.000    3.000 
#    0.000    0.000    2.750    0.000    0.000    0.000 
#    0.000    0.000    0.000    0.000    0.000    0.000 
#
# Total GULP energy -356668.495110 kJ/mol
# GULP energy per Si atom -5572.945236 kJ/mol
# Density = 1.757541 g / cm^3
# Si number density = 17.615499 Si / 1000 Ang^3
#
#
#
# Elastic Constant Matrix: (Units=GPa)
#
#
# Indices 1 2 3 4 5 6 
#
# 1 40.0791 25.8404 33.6987 0.0000 0.0000 0.0000
# 2 25.8404 84.8826 56.7596 0.0000 0.0000 0.0000
# 3 33.6987 56.7596 113.7781 0.0000 0.0000 0.0000
# 4 0.0000 0.0000 0.0000 33.5924 0.0000 0.0000
# 5 0.0000 0.0000 0.0000 0.0000 13.5936 0.0000
# 6 0.0000 0.0000 0.0000 0.0000 0.0000 32.3092
#
#
#
# Elastic Compliance Matrix: (Units=1/GPa)
#
#
# Indices 1 2 3 4 5 6 
#
# 1 0.034896 -0.005570 -0.007557 0.000000 0.000000 0.000000
# 2 -0.005570 0.018567 -0.007613 0.000000 0.000000 0.000000
# 3 -0.007557 -0.007613 0.014825 0.000000 0.000000 0.000000
# 4 0.000000 0.000000 0.000000 0.029769 0.000000 0.000000
# 5 0.000000 0.000000 0.000000 0.000000 0.073564 0.000000
# 6 0.000000 0.000000 0.000000 0.000000 0.000000 0.030951
#
#
# Mechanical properties :
#
#
# Convention : Reuss Voigt Hill
#
# Bulk Modulus (GPa) = 37.30136 52.37079 44.83607
# Shear Modulus (GPa) = 19.76391 24.06176 21.91284
#
# Velocity S-wave (km/s) = 3.35320 3.69988 3.53080
# Velocity P-wave (km/s) = 6.01774 6.93157 6.49076
#
# Compressibility (1/GPa) = 0.02680868
#
# Stress axis : x y z
#
# Youngs Moduli (GPa) = 28.65698 53.85862 67.45434
#
# Poissons Ratio (x) = 0.30000 0.50973
# Poissons Ratio (y) = 0.15962 0.51351
# Poissons Ratio (z) = 0.21655 0.41001
#
# Static dielectric constant tensor:
#      x y z
#    x 1.615990 0.000000 0.000000 
#    y 0.000000 1.645970 0.000000 
#    z 0.000000 0.000000 1.593010 
# 
# From -- ./inp_files/20697.got.cif
#   From: 2010.05.17/outbox.cif.g08.bks.cpg/sg56_11_cif.got.tgz:20697.got - 2010.06.03 13:42:01.
