data_PCOD9429793
_publ_section_title
;
Structure prediction by ZEFSAII (Michael W. Deem and Ramdas Pophale) SiO2 
 PCOD9429793
Probable space group: P C C N
;
_chemical_formula_sum "Si O2"
_cell_formula_units_Z 60
_cell_length_a 8.106000
_cell_length_b 23.773117
_cell_length_c 14.714868
_cell_angle_alpha 90.000000
_cell_angle_beta 90.000000
_cell_angle_gamma 90.000000
_cell_volume 2835.626966
_symmetry_space_group_name_H-M "P C C N"
_symmetry_group_IT_number 56
_symmetry_cell_setting 'orthorhombic'
loop_
_space_group_symop_operation_xyz
x,y,z
1/2-x,1/2-y,z
1/2+x,-y,1/2-z
-x,1/2+y,1/2-z
-x,-y,-z
1/2+x,1/2+y,-z
1/2-x,y,1/2+z
x,1/2-y,1/2+z
loop_
_atom_site_type_symbol
_atom_site_label
_atom_site_fract_x
_atom_site_fract_y
_atom_site_fract_z
Si Si1 0.799368 0.518482 0.386837
Si Si2 0.789134 0.445132 0.057781
Si Si3 0.635029 0.886436 0.973271
Si Si4 0.864865 0.507224 0.714214
Si Si5 0.639335 0.163414 0.487387
Si Si6 0.984361 0.221202 0.488469
Si Si7 0.750000 0.750000 0.663899
Si Si8 0.352144 0.131895 0.348746
O O1 0.787570 0.485682 0.481313
O O2 0.765519 0.583196 0.409718
O O3 0.663805 0.492829 0.318603
O O4 0.968819 0.511830 0.334093
O O5 0.774743 0.477015 0.152920
O O6 0.974055 0.426436 0.031485
O O7 0.681808 0.388064 0.052929
O O8 0.578467 0.823601 0.949157
O O9 0.716395 0.880675 0.072553
O O10 0.860870 0.574885 0.707654
O O11 0.816909 0.189256 0.458043
O O12 0.553545 0.218170 0.531354
O O13 0.523069 0.142429 0.404936
O O14 0.096820 0.235190 0.402184
O O15 0.697848 0.810734 0.703955
#
# Coordination Sequence:
#
# PCOD9429793 Si02
#       8
#     8   8   8   8   8   8   4   8
#     4  12  24  38  56  86 121 159 201 249 304 366
#     4  11  21  38  60  86 121 156 200 247 307 363
#     4  10  20  34  59  84 117 155 194 247 298 363
#     4  12  25  38  58  86 119 163 202 248 300 371
#     4   9  16  31  55  85 113 149 195 247 295 363
#     4   8  16  29  53  89 109 145 200 241 299 361
#     4   8  16  30  54  82 112 142 194 244 294 356
#     4  10  18  34  56  82 114 151 193 242 296 353
#
# _framework density 21.159341999999999
#
# number of rings (size 3 to 8) (size 9 to 14) (size 15 to 20)
#    0.000    1.867    2.667    2.400    1.867    0.000 
#    0.000    0.000    0.000    6.400    0.000    0.000 
#    0.000    0.000    0.000    0.000    0.000    0.000 
#
# Total GULP energy -334613.115123 kJ/mol
# GULP energy per Si atom -5576.885252 kJ/mol
# Density = 2.111118 g / cm^3
# Si number density = 21.159342 Si / 1000 Ang^3
#
#
#
# Elastic Constant Matrix: (Units=GPa)
#
#
# Indices 1 2 3 4 5 6 
#
# 1 65.3438 18.5530 -13.1494 0.0000 0.0000 0.0000
# 2 18.5530 117.4050 5.9198 0.0000 0.0000 0.0000
# 3 -13.1494 5.9198 36.0709 0.0000 0.0000 0.0000
# 4 0.0000 0.0000 0.0000 1.9823 0.0000 0.0000
# 5 0.0000 0.0000 0.0000 0.0000 7.9121 0.0000
# 6 0.0000 0.0000 0.0000 0.0000 0.0000 39.6922
#
#
#
# Elastic Compliance Matrix: (Units=1/GPa)
#
#
# Indices 1 2 3 4 5 6 
#
# 1 0.017585 -0.003128 0.006924 0.000000 0.000000 0.000000
# 2 -0.003128 0.009145 -0.002641 0.000000 0.000000 0.000000
# 3 0.006924 -0.002641 0.030681 0.000000 0.000000 0.000000
# 4 0.000000 0.000000 0.000000 0.504455 0.000000 0.000000
# 5 0.000000 0.000000 0.000000 0.000000 0.126389 0.000000
# 6 0.000000 0.000000 0.000000 0.000000 0.000000 0.025194
#
#
# Mechanical properties :
#
#
# Convention : Reuss Voigt Hill
#
# Bulk Modulus (GPa) = 16.74472 26.82962 21.78717
# Shear Modulus (GPa) = 6.83951 23.75040 15.29496
#
# Velocity S-wave (km/s) = 1.79983 3.35394 2.69150
# Velocity P-wave (km/s) = 3.50000 5.26364 4.46967
#
# Compressibility (1/GPa) = 0.05972030
#
# Stress axis : x y z
#
# Youngs Moduli (GPa) = 56.86622 109.34936 32.59381
#
# Poissons Ratio (x) = 0.34205 -0.22568
# Poissons Ratio (y) = 0.17788 0.08608
# Poissons Ratio (z) = -0.39374 0.28881
#
# Static dielectric constant tensor:
#      x y z
#    x 1.855390 0.000000 0.000000 
#    y 0.000000 1.818050 0.000000 
#    z 0.000000 0.000000 1.694320 
# 
# From -- ./inp_files/11000.got.cif
#   From: 2010.05.17/outbox.cif.g08.bks.cpg/sg56_6_cif.got.tgz:11000.got - 2010.06.03 13:42:01.
