data_PCOD9429816
_publ_section_title
;
Structure prediction by ZEFSAII (Michael W. Deem and Ramdas Pophale) SiO2 
 PCOD9429816
Probable space group: P C C N
;
_chemical_formula_sum "Si O2"
_cell_formula_units_Z 64
_cell_length_a 12.643290
_cell_length_b 16.907289
_cell_length_c 14.697679
_cell_angle_alpha 90.000000
_cell_angle_beta 90.000000
_cell_angle_gamma 90.000000
_cell_volume 3141.831096
_symmetry_space_group_name_H-M "P C C N"
_symmetry_group_IT_number 56
_symmetry_cell_setting 'orthorhombic'
loop_
_space_group_symop_operation_xyz
x,y,z
1/2-x,1/2-y,z
1/2+x,-y,1/2-z
-x,1/2+y,1/2-z
-x,-y,-z
1/2+x,1/2+y,-z
1/2-x,y,1/2+z
x,1/2-y,1/2+z
loop_
_atom_site_type_symbol
_atom_site_label
_atom_site_fract_x
_atom_site_fract_y
_atom_site_fract_z
Si Si1 0.425859 0.634448 0.231716
Si Si2 0.715847 0.625767 0.040350
Si Si3 0.998091 0.783613 0.839192
Si Si4 0.142811 0.756632 0.604476
Si Si5 0.308530 0.631774 0.777356
Si Si6 0.635552 0.545307 0.209306
Si Si7 0.920505 0.777214 0.534047
Si Si8 0.213489 0.157147 0.171049
O O1 0.484991 0.709003 0.275288
O O2 0.389546 0.667892 0.133985
O O3 0.318227 0.624511 0.290085
O O4 0.512274 0.566976 0.221288
O O5 0.676506 0.555915 0.105047
O O6 0.640410 0.699344 0.070695
O O7 0.837299 0.653193 0.051190
O O8 0.708022 0.620527 0.930883
O O9 0.109985 0.828869 0.849675
O O10 0.908211 0.839861 0.796362
O O11 0.947163 0.748310 0.930618
O O12 0.250000 0.750000 0.546330
O O13 0.175425 0.810001 0.691357
O O14 0.036056 0.794824 0.570085
O O15 0.345931 0.543462 0.758950
O O16 0.708028 0.606110 0.267456
O O17 0.250000 0.250000 0.168233
#
# Coordination Sequence:
#
# PCOD9429816 Si02
#       8
#     8   8   8   8   8   8   8   8
#     4  10  20  39  58  82 117 158 216 252 299 384
#     4  10  21  36  58  97 128 148 218 278 309 373
#     4  10  20  39  63  85 120 162 207 269 315 369
#     4   9  19  36  56  80 115 158 205 249 295 377
#     4  10  25  39  56  92 129 166 206 260 327 409
#     4  12  24  37  66  91 128 176 203 266 346 372
#     4  10  18  34  61  93 113 148 215 271 301 360
#     4  11  21  38  61  97 119 160 219 269 313 373
#
# _framework density 20.370287000000001
#
# number of rings (size 3 to 8) (size 9 to 14) (size 15 to 20)
#    0.000    1.750    5.000    1.125    7.000    1.000 
#    0.000    6.250    0.000    3.000    0.000    0.000 
#    0.000    0.000    0.000    0.000    0.000    0.000 
#
# Total GULP energy -356361.144187 kJ/mol
# GULP energy per Si atom -5568.142878 kJ/mol
# Density = 2.032392 g / cm^3
# Si number density = 20.370287 Si / 1000 Ang^3
#
#
#
# Elastic Constant Matrix: (Units=GPa)
#
#
# Indices 1 2 3 4 5 6 
#
# 1 175.3253 20.2519 16.0644 0.0000 0.0000 0.0000
# 2 20.2519 62.1192 7.7217 0.0000 0.0000 0.0000
# 3 16.0644 7.7217 30.6897 0.0000 0.0000 0.0000
# 4 0.0000 0.0000 0.0000 0.2479 0.0000 0.0000
# 5 0.0000 0.0000 0.0000 0.0000 19.0632 0.0000
# 6 0.0000 0.0000 0.0000 0.0000 0.0000 19.5313
#
#
#
# Elastic Compliance Matrix: (Units=1/GPa)
#
#
# Indices 1 2 3 4 5 6 
#
# 1 0.006152 -0.001657 -0.002803 0.000000 0.000000 0.000000
# 2 -0.001657 0.017064 -0.003426 0.000000 0.000000 0.000000
# 3 -0.002803 -0.003426 0.034914 0.000000 0.000000 0.000000
# 4 0.000000 0.000000 0.000000 4.034166 0.000000 0.000000
# 5 0.000000 0.000000 0.000000 0.000000 0.052457 0.000000
# 6 0.000000 0.000000 0.000000 0.000000 0.000000 0.051200
#
#
# Mechanical properties :
#
#
# Convention : Reuss Voigt Hill
#
# Bulk Modulus (GPa) = 23.60892 39.57889 31.59391
# Shear Modulus (GPa) = 1.18320 22.70824 11.94572
#
# Velocity S-wave (km/s) = 0.76296 3.34244 2.42426
# Velocity P-wave (km/s) = 3.52011 5.86241 4.83523
#
# Compressibility (1/GPa) = 0.04235687
#
# Stress axis : x y z
#
# Youngs Moduli (GPa) = 162.54991 58.60214 28.64218
#
# Poissons Ratio (x) = 0.09711 0.08029
# Poissons Ratio (y) = 0.26938 0.09813
# Poissons Ratio (z) = 0.45567 0.20077
#
# Static dielectric constant tensor:
#      x y z
#    x 1.846630 0.000000 0.000000 
#    y 0.000000 1.680290 0.000000 
#    z 0.000000 0.000000 1.805250 
# 
# From -- ./inp_files/15884.got.cif
#   From: 2010.05.17/outbox.cif.g08.bks.cpg/sg56_8_cif.got.tgz:15884.got - 2010.06.03 13:42:01.
