data_PCOD9429204
_publ_section_title
;
Structure prediction by ZEFSAII (Michael W. Deem and Ramdas Pophale) SiO2 
 PCOD9429204
Probable space group: P B A M
;
_chemical_formula_sum "Si O2"
_cell_formula_units_Z 34
_cell_length_a 5.144317
_cell_length_b 25.070612
_cell_length_c 10.586720
_cell_angle_alpha 90.000000
_cell_angle_beta 90.000000
_cell_angle_gamma 90.000000
_cell_volume 1365.381723
_symmetry_space_group_name_H-M "P B A M"
_symmetry_group_IT_number 55
_symmetry_cell_setting 'orthorhombic'
loop_
_space_group_symop_operation_xyz
x,y,z
-x,-y,z
1/2+x,1/2-y,-z
1/2-x,1/2+y,-z
-x,-y,-z
x,y,-z
1/2-x,1/2+y,z
1/2+x,1/2-y,z
loop_
_atom_site_type_symbol
_atom_site_label
_atom_site_fract_x
_atom_site_fract_y
_atom_site_fract_z
Si Si1 0.685277 0.858299 0.500000
Si Si2 0.313595 0.433243 0.500000
Si Si3 0.699271 0.389714 0.142913
Si Si4 0.785626 0.555622 0.229128
Si Si5 0.000000 0.000000 0.000000
Si Si6 0.333915 0.214545 0.251644
O O1 0.909483 0.903281 0.500000
O O2 0.704776 0.820153 0.378534
O O3 0.406736 0.887140 0.500000
O O4 0.262924 0.464886 0.370309
O O5 0.424386 0.396746 0.210449
O O6 0.781362 0.328515 0.142442
O O7 0.928639 0.420878 0.212444
O O8 0.665478 0.412874 0.000000
O O9 0.707028 0.517980 0.114424
O O10 0.618735 0.239466 0.247236
#
# Coordination Sequence:
#
# PCOD9429204 Si02
#       6
#     4   4   8   8   2   8
#     4  12  22  41  68  97 139 190 231 279 346 403
#     4  12  22  44  72 102 139 186 227 280 354 422
#     4  12  24  46  70  97 141 190 229 283 353 415
#     4  12  25  45  74 105 138 178 229 286 357 417
#     4  12  28  48  80 110 132 180 228 294 344 436
#     4  12  24  39  64 102 137 185 241 288 330 395
#
# _framework density 24.901458999999999
#
# number of rings (size 3 to 8) (size 9 to 14) (size 15 to 20)
#    0.000    0.000    7.059    3.529    0.000    3.294 
#    0.000    0.000    0.000    4.235    0.000    0.000 
#    0.000    0.000    0.000    0.000    0.000    0.000 
#
# Total GULP energy -190252.544169 kJ/mol
# GULP energy per Si atom -5595.663064 kJ/mol
# Density = 2.484478 g / cm^3
# Si number density = 24.901459 Si / 1000 Ang^3
#
#
#
# Elastic Constant Matrix: (Units=GPa)
#
#
# Indices 1 2 3 4 5 6 
#
# 1 106.2524 21.6475 -8.7325 0.0000 0.0000 0.0000
# 2 21.6475 77.8749 20.5403 0.0000 0.0000 0.0000
# 3 -8.7325 20.5403 199.4488 0.0000 0.0000 0.0000
# 4 0.0000 0.0000 0.0000 100.2264 0.0000 0.0000
# 5 0.0000 0.0000 0.0000 0.0000 23.9238 0.0000
# 6 0.0000 0.0000 0.0000 0.0000 0.0000 61.8203
#
#
#
# Elastic Compliance Matrix: (Units=1/GPa)
#
#
# Indices 1 2 3 4 5 6 
#
# 1 0.010085 -0.003001 0.000751 0.000000 0.000000 0.000000
# 2 -0.003001 0.014093 -0.001583 0.000000 0.000000 0.000000
# 3 0.000751 -0.001583 0.005210 0.000000 0.000000 0.000000
# 4 0.000000 0.000000 0.000000 0.009977 0.000000 0.000000
# 5 0.000000 0.000000 0.000000 0.000000 0.041799 0.000000
# 6 0.000000 0.000000 0.000000 0.000000 0.000000 0.016176
#
#
# Mechanical properties :
#
#
# Convention : Reuss Voigt Hill
#
# Bulk Modulus (GPa) = 46.03970 50.05408 48.04689
# Shear Modulus (GPa) = 44.54459 60.53548 52.54003
#
# Velocity S-wave (km/s) = 4.23405 4.93587 4.59837
# Velocity P-wave (km/s) = 6.51397 7.25453 6.89420
#
# Compressibility (1/GPa) = 0.02172039
#
# Stress axis : x y z
#
# Youngs Moduli (GPa) = 99.15989 70.95783 191.95023
#
# Poissons Ratio (x) = 0.21297 -0.14408
# Poissons Ratio (y) = 0.29761 0.30381
# Poissons Ratio (z) = -0.07443 0.11231
#
# Static dielectric constant tensor:
#      x y z
#    x 1.886990 0.000000 0.000000 
#    y 0.000000 1.591340 0.000000 
#    z 0.000000 0.000000 2.019860 
# 
# From -- ./inp_files/11384.got.cif
#   From: 2010.05.17/outbox.cif.g08.bks.cpg/sg55_6_cif.got.tgz:11384.got - 2010.06.03 13:27:54.
