data_PCOD9429205
_publ_section_title
;
Structure prediction by ZEFSAII (Michael W. Deem and Ramdas Pophale) SiO2 
 PCOD9429205
Probable space group: P B A M
;
_chemical_formula_sum "Si O2"
_cell_formula_units_Z 48
_cell_length_a 14.056834
_cell_length_b 11.145914
_cell_length_c 15.527538
_cell_angle_alpha 90.000000
_cell_angle_beta 90.000000
_cell_angle_gamma 90.000000
_cell_volume 2432.796626
_symmetry_space_group_name_H-M "P B A M"
_symmetry_group_IT_number 55
_symmetry_cell_setting 'orthorhombic'
loop_
_space_group_symop_operation_xyz
x,y,z
-x,-y,z
1/2+x,1/2-y,-z
1/2-x,1/2+y,-z
-x,-y,-z
x,y,-z
1/2-x,1/2+y,z
1/2+x,1/2-y,z
loop_
_atom_site_type_symbol
_atom_site_label
_atom_site_fract_x
_atom_site_fract_y
_atom_site_fract_z
Si Si1 0.569688 0.881776 0.599618
Si Si2 0.393783 0.541557 0.192066
Si Si3 0.330758 0.236878 0.000000
Si Si4 0.066307 0.599467 0.138384
Si Si5 0.931211 0.713988 0.281272
Si Si6 0.295482 0.994196 0.273673
Si Si7 0.817207 0.986091 0.000000
O O1 0.592681 0.864367 0.500000
O O2 0.503024 0.775904 0.638148
O O3 0.500000 0.000000 0.607085
O O4 0.663678 0.910500 0.656489
O O5 0.500000 0.500000 0.208257
O O6 0.390806 0.675197 0.229269
O O7 0.313755 0.476855 0.249553
O O8 0.372667 0.531090 0.090229
O O9 0.397811 0.210159 0.081962
O O10 0.288111 0.371133 0.000000
O O11 0.259620 0.122297 0.000000
O O12 0.156466 0.536483 0.183290
O O13 0.000000 0.500000 0.092721
O O14 0.999305 0.644355 0.214626
O O15 0.842704 0.629561 0.302725
#
# Coordination Sequence:
#
# PCOD9429205 Si02
#       7
#     8   8   4   8   8   8   4
#     4   8  15  34  65  98 122 148 196 249 301 372
#     4  12  25  40  57  84 123 167 215 262 318 374
#     4  12  23  40  58  89 117 162 214 276 329 384
#     4   9  18  36  60  84 113 156 213 264 319 386
#     4   9  20  36  62  87 119 158 201 257 314 381
#     4   9  19  36  58  89 118 162 210 252 312 374
#     4  12  29  40  60  83 123 174 222 276 324 379
#
# _framework density 19.730378000000002
#
# number of rings (size 3 to 8) (size 9 to 14) (size 15 to 20)
#    0.000    2.167    1.667    3.500    2.333    3.333 
#    0.000    0.833    0.000    6.000    0.000    0.000 
#    0.000    0.000    0.000    0.000    0.000    0.000 
#
# Total GULP energy -267291.760451 kJ/mol
# GULP energy per Si atom -5568.578343 kJ/mol
# Density = 1.968547 g / cm^3
# Si number density = 19.730378 Si / 1000 Ang^3
#
#
#
# Elastic Constant Matrix: (Units=GPa)
#
#
# Indices 1 2 3 4 5 6 
#
# 1 121.3129 12.9917 44.2938 0.0000 0.0000 0.0000
# 2 12.9917 72.9322 17.8092 0.0000 0.0000 0.0000
# 3 44.2938 17.8092 109.4600 0.0000 0.0000 0.0000
# 4 0.0000 0.0000 0.0000 10.9830 0.0000 0.0000
# 5 0.0000 0.0000 0.0000 0.0000 11.9345 0.0000
# 6 0.0000 0.0000 0.0000 0.0000 0.0000 18.5336
#
#
#
# Elastic Compliance Matrix: (Units=1/GPa)
#
#
# Indices 1 2 3 4 5 6 
#
# 1 0.009717 -0.000803 -0.003802 0.000000 0.000000 0.000000
# 2 -0.000803 0.014345 -0.002009 0.000000 0.000000 0.000000
# 3 -0.003802 -0.002009 0.011001 0.000000 0.000000 0.000000
# 4 0.000000 0.000000 0.000000 0.091050 0.000000 0.000000
# 5 0.000000 0.000000 0.000000 0.000000 0.083790 0.000000
# 6 0.000000 0.000000 0.000000 0.000000 0.000000 0.053956
#
#
# Mechanical properties :
#
#
# Convention : Reuss Voigt Hill
#
# Bulk Modulus (GPa) = 45.79505 50.43272 48.11388
# Shear Modulus (GPa) = 17.58306 23.53092 20.55699
#
# Velocity S-wave (km/s) = 2.98848 3.45719 3.23134
# Velocity P-wave (km/s) = 5.93033 6.44613 6.19360
#
# Compressibility (1/GPa) = 0.02183642
#
# Stress axis : x y z
#
# Youngs Moduli (GPa) = 102.91121 69.71090 90.90118
#
# Poissons Ratio (x) = 0.05595 0.34556
# Poissons Ratio (y) = 0.08260 0.18263
# Poissons Ratio (z) = 0.39122 0.14006
#
# Static dielectric constant tensor:
#      x y z
#    x 1.758250 0.000000 0.000000 
#    y 0.000000 1.773090 0.000000 
#    z 0.000000 0.000000 1.690470 
# 
# From -- ./inp_files/18895.got.cif
#   From: 2010.05.17/outbox.cif.g08.bks.cpg/sg55_10_cif.got.tgz:18895.got - 2010.06.03 13:27:54.
