data_PCOD9429016
_publ_section_title
;
Structure prediction by ZEFSAII (Michael W. Deem and Ramdas Pophale) SiO2 
 PCOD9429016
Probable space group: P B A M
;
_chemical_formula_sum "Si O2"
_cell_formula_units_Z 64
_cell_length_a 14.450190
_cell_length_b 12.307931
_cell_length_c 17.793149
_cell_angle_alpha 90.000000
_cell_angle_beta 90.000000
_cell_angle_gamma 90.000000
_cell_volume 3164.546094
_symmetry_space_group_name_H-M "P B A M"
_symmetry_group_IT_number 55
_symmetry_cell_setting 'orthorhombic'
loop_
_space_group_symop_operation_xyz
x,y,z
-x,-y,z
1/2+x,1/2-y,-z
1/2-x,1/2+y,-z
-x,-y,-z
x,y,-z
1/2-x,1/2+y,z
1/2+x,1/2-y,z
loop_
_atom_site_type_symbol
_atom_site_label
_atom_site_fract_x
_atom_site_fract_y
_atom_site_fract_z
Si Si1 0.381879 0.257002 0.329531
Si Si2 0.921384 0.300479 0.838044
Si Si3 0.614568 0.242076 0.799170
Si Si4 0.733207 0.069247 0.712099
Si Si5 0.408716 0.431521 0.912802
Si Si6 0.551228 0.384543 0.663421
Si Si7 0.746809 0.416250 0.854792
Si Si8 0.748086 0.908752 0.411359
O O1 0.403344 0.192931 0.252111
O O2 0.325788 0.362448 0.301946
O O3 0.476507 0.297672 0.366980
O O4 0.315203 0.190378 0.383522
O O5 0.898660 0.178875 0.866146
O O6 0.851926 0.386132 0.875779
O O7 0.031653 0.309590 0.846891
O O8 0.658669 0.152249 0.745121
O O9 0.573253 0.337659 0.746380
O O10 0.694274 0.301112 0.846093
O O11 0.749750 0.976650 0.774130
O O12 0.709366 0.012637 0.633799
O O13 0.500000 0.500000 0.888687
O O14 0.317927 0.506206 0.903921
O O15 0.422553 0.402973 0.000000
O O16 0.500000 0.500000 0.665836
O O17 0.646895 0.391613 0.618352
O O18 0.747051 0.921803 0.500000
#
# Coordination Sequence:
#
# PCOD9429016 Si02
#       8
#     8   8   8   8   8   8   8   8
#     4  11  21  39  64  94 122 162 224 276 314 384
#     4  11  22  38  67  97 125 174 219 265 318 388
#     4  11  22  36  63  98 124 164 218 272 317 370
#     4  12  20  41  61  94 127 165 222 272 325 389
#     4  11  24  40  66 102 140 175 212 266 332 390
#     4  11  21  38  64  89 118 158 219 271 315 389
#     4  12  20  39  67  96 129 168 220 269 315 384
#     4  12  26  42  61  91 132 171 212 276 350 397
#
# _framework density 20.224067999999999
#
# number of rings (size 3 to 8) (size 9 to 14) (size 15 to 20)
#    0.000    0.625    8.750    0.000    1.750    2.250 
#    0.000    0.000    0.000    3.000    0.000    2.625 
#    0.000    0.000    0.000    0.000    0.000    0.000 
#
# Total GULP energy -357441.613679 kJ/mol
# GULP energy per Si atom -5585.025214 kJ/mol
# Density = 2.017804 g / cm^3
# Si number density = 20.224068 Si / 1000 Ang^3
#
#
#
# Elastic Constant Matrix: (Units=GPa)
#
#
# Indices 1 2 3 4 5 6 
#
# 1 82.6558 37.7413 20.6736 0.0000 0.0000 0.0000
# 2 37.7413 40.0205 2.9289 0.0000 0.0000 0.0000
# 3 20.6736 2.9289 42.1980 0.0000 0.0000 0.0000
# 4 0.0000 0.0000 0.0000 15.8036 0.0000 0.0000
# 5 0.0000 0.0000 0.0000 0.0000 13.3462 0.0000
# 6 0.0000 0.0000 0.0000 0.0000 0.0000 37.5825
#
#
#
# Elastic Compliance Matrix: (Units=1/GPa)
#
#
# Indices 1 2 3 4 5 6 
#
# 1 0.025366 -0.023130 -0.010822 0.000000 0.000000 0.000000
# 2 -0.023130 0.046205 0.008125 0.000000 0.000000 0.000000
# 3 -0.010822 0.008125 0.028436 0.000000 0.000000 0.000000
# 4 0.000000 0.000000 0.000000 0.063277 0.000000 0.000000
# 5 0.000000 0.000000 0.000000 0.000000 0.074928 0.000000
# 6 0.000000 0.000000 0.000000 0.000000 0.000000 0.026608
#
#
# Mechanical properties :
#
#
# Convention : Reuss Voigt Hill
#
# Bulk Modulus (GPa) = 20.68121 31.95131 26.31626
# Shear Modulus (GPa) = 15.03346 20.24850 17.64098
#
# Velocity S-wave (km/s) = 2.72939 3.16762 2.95664
# Velocity P-wave (km/s) = 4.49233 5.40475 4.96953
#
# Compressibility (1/GPa) = 0.04835306
#
# Stress axis : x y z
#
# Youngs Moduli (GPa) = 39.42227 21.64262 35.16690
#
# Poissons Ratio (x) = 0.50059 0.38058
# Poissons Ratio (y) = 0.91183 -0.28572
# Poissons Ratio (z) = 0.42663 -0.17584
#
# Static dielectric constant tensor:
#      x y z
#    x 1.765070 0.000000 0.000000 
#    y 0.000000 1.732850 0.000000 
#    z 0.000000 0.000000 1.684520 
# 
# From -- ./inp_files/21355.got.cif
#   From: 2010.05.17/outbox.cif.g08.bks.cpg/sg55_11_cif.got.tgz:21355.got - 2010.06.03 13:27:54.
