data_PCOD9429152
_publ_section_title
;
Structure prediction by ZEFSAII (Michael W. Deem and Ramdas Pophale) SiO2 
 PCOD9429152
Probable space group: P B A M
;
_chemical_formula_sum "Si O2"
_cell_formula_units_Z 28
_cell_length_a 11.273310
_cell_length_b 4.769971
_cell_length_c 21.561213
_cell_angle_alpha 90.000000
_cell_angle_beta 90.000000
_cell_angle_gamma 90.000000
_cell_volume 1159.418907
_symmetry_space_group_name_H-M "P B A M"
_symmetry_group_IT_number 55
_symmetry_cell_setting 'orthorhombic'
loop_
_space_group_symop_operation_xyz
x,y,z
-x,-y,z
1/2+x,1/2-y,-z
1/2-x,1/2+y,-z
-x,-y,-z
x,y,-z
1/2-x,1/2+y,z
1/2+x,1/2-y,z
loop_
_atom_site_type_symbol
_atom_site_label
_atom_site_fract_x
_atom_site_fract_y
_atom_site_fract_z
Si Si1 0.172843 0.426589 0.000000
Si Si2 0.000000 0.500000 0.606448
Si Si3 0.334032 0.788771 0.291693
Si Si4 0.166778 0.635897 0.500000
Si Si5 0.000000 0.500000 0.892621
Si Si6 0.500000 0.500000 0.191239
O O1 0.097557 0.369370 0.061465
O O2 0.292789 0.251803 0.000000
O O3 0.078204 0.296184 0.649674
O O4 0.087295 0.669466 0.560861
O O5 0.215033 0.604488 0.292138
O O6 0.407956 0.669541 0.234081
O O7 0.216592 0.321867 0.500000
O O8 0.947601 0.247900 0.851426
#
# Coordination Sequence:
#
# PCOD9429152 Si02
#       6
#     4   4   8   4   4   4
#     4  11  24  43  70 100 136 181 228 286 350 409
#     4  11  25  46  72 102 143 181 236 294 350 421
#     4  12  26  44  69 101 139 186 232 284 349 414
#     4  11  26  45  72 104 136 182 232 290 356 420
#     4  11  25  44  68 102 139 179 232 288 346 415
#     4  12  26  45  68 101 142 182 234 290 344 418
#
# _framework density 24.150031999999999
#
# number of rings (size 3 to 8) (size 9 to 14) (size 15 to 20)
#    0.000    0.571    0.000    7.714    0.000   16.000 
#    0.000    0.000    0.000    0.000    0.000    0.000 
#    0.000    0.000    0.000    0.000    0.000    0.000 
#
# Total GULP energy -156758.255576 kJ/mol
# GULP energy per Si atom -5598.509128 kJ/mol
# Density = 2.409506 g / cm^3
# Si number density = 24.150032 Si / 1000 Ang^3
#
#
#
# Elastic Constant Matrix: (Units=GPa)
#
#
# Indices 1 2 3 4 5 6 
#
# 1 72.3771 -9.9251 46.8433 0.0000 0.0000 0.0000
# 2 -9.9251 67.2118 32.7792 0.0000 0.0000 0.0000
# 3 46.8433 32.7792 153.3823 0.0000 0.0000 0.0000
# 4 0.0000 0.0000 0.0000 22.5598 0.0000 0.0000
# 5 0.0000 0.0000 0.0000 0.0000 -32.6259 0.0000
# 6 0.0000 0.0000 0.0000 0.0000 0.0000 53.5113
#
#
#
# Elastic Compliance Matrix: (Units=1/GPa)
#
#
# Indices 1 2 3 4 5 6 
#
# 1 0.019429 0.006433 -0.007309 0.000000 0.000000 0.000000
# 2 0.006433 0.018740 -0.005970 0.000000 0.000000 0.000000
# 3 -0.007309 -0.005970 0.010027 0.000000 0.000000 0.000000
# 4 0.000000 0.000000 0.000000 0.044327 0.000000 0.000000
# 5 0.000000 0.000000 0.000000 0.000000 -0.030651 0.000000
# 6 0.000000 0.000000 0.000000 0.000000 0.000000 0.018688
#
#
# Mechanical properties :
#
#
# Convention : Reuss Voigt Hill
#
# Bulk Modulus (GPa) = 28.97994 48.04066 38.51030
# Shear Modulus (GPa) = 47.28067 23.57396 35.42732
#
# Velocity S-wave (km/s) = 4.42949 3.12772 3.83426
# Velocity P-wave (km/s) = 6.17953 5.74276 5.96514
#
# Compressibility (1/GPa) = 0.03450663
#
# Stress axis : x y z
#
# Youngs Moduli (GPa) = 51.46971 53.36255 99.72621
#
# Poissons Ratio (x) = -0.34330 0.72885
# Poissons Ratio (y) = -0.33113 0.59533
# Poissons Ratio (z) = 0.37617 0.31855
#
# Static dielectric constant tensor:
#      x y z
#    x 1.919830 0.000000 0.000000 
#    y 0.000000 1.902720 0.000000 
#    z 0.000000 0.000000 1.902190 
# 
# From -- ./inp_files/22771.got.cif
#   From: 2010.05.17/outbox.cif.g08.bks.cpg/sg55_12_cif.got.tgz:22771.got - 2010.06.03 13:27:54.
