data_PCOD9429562
_publ_section_title
;
Structure prediction by ZEFSAII (Michael W. Deem and Ramdas Pophale) SiO2 
 PCOD9429562
Probable space group: P C C N
;
_chemical_formula_sum "Si O2"
_cell_formula_units_Z 60
_cell_length_a 8.872298
_cell_length_b 18.735455
_cell_length_c 18.192344
_cell_angle_alpha 90.000000
_cell_angle_beta 90.000000
_cell_angle_gamma 90.000000
_cell_volume 3024.050396
_symmetry_space_group_name_H-M "P C C N"
_symmetry_group_IT_number 56
_symmetry_cell_setting 'orthorhombic'
loop_
_space_group_symop_operation_xyz
x,y,z
1/2-x,1/2-y,z
1/2+x,-y,1/2-z
-x,1/2+y,1/2-z
-x,-y,-z
1/2+x,1/2+y,-z
1/2-x,y,1/2+z
x,1/2-y,1/2+z
loop_
_atom_site_type_symbol
_atom_site_label
_atom_site_fract_x
_atom_site_fract_y
_atom_site_fract_z
Si Si1 0.023964 0.632486 0.577066
Si Si2 0.226691 0.086269 0.357154
Si Si3 0.876852 0.535108 0.783568
Si Si4 0.490371 0.790265 0.113536
Si Si5 0.970192 0.461163 0.077544
Si Si6 0.750000 0.250000 0.763768
Si Si7 0.780552 0.330571 0.024269
Si Si8 0.314006 0.599303 0.228172
O O1 0.123172 0.633901 0.503215
O O2 0.139935 0.617858 0.644202
O O3 0.878225 0.584851 0.593007
O O4 0.959454 0.712298 0.587562
O O5 0.272572 0.081073 0.271341
O O6 0.123327 0.154770 0.372316
O O7 0.131334 0.018066 0.379740
O O8 0.828599 0.453032 0.771057
O O9 0.882043 0.549187 0.871089
O O10 0.042631 0.556194 0.756771
O O11 0.389986 0.775374 0.185555
O O12 0.378963 0.817108 0.049632
O O13 0.879319 0.387638 0.068282
O O14 0.000000 0.500000 0.000000
O O15 0.704477 0.325706 0.728906
O O16 0.750000 0.250000 0.054338
#
# Coordination Sequence:
#
# PCOD9429562 Si02
#       8
#     8   8   8   8   8   4   8   8
#     4   9  19  34  60  93 120 156 211 264 307 378
#     4  11  22  36  62  95 125 163 212 276 323 376
#     4  11  23  39  58  92 129 168 209 268 333 381
#     4  10  16  35  61  95 120 161 209 257 314 382
#     4  12  23  39  65  95 122 169 219 261 323 400
#     4  10  18  32  64  90 120 162 222 258 298 398
#     4  10  19  37  62  90 130 168 204 255 324 390
#     4  10  19  36  58  86 121 160 211 260 317 373
#
# _framework density 19.84094
#
# number of rings (size 3 to 8) (size 9 to 14) (size 15 to 20)
#    0.000    1.600    6.000    2.000    0.000    0.533 
#    1.200    0.000    0.000    0.000   24.267    0.000 
#    0.000    0.000    0.000    0.000    0.000    0.000 
#
# Total GULP energy -334291.318573 kJ/mol
# GULP energy per Si atom -5571.521976 kJ/mol
# Density = 1.979578 g / cm^3
# Si number density = 19.840940 Si / 1000 Ang^3
#
#
#
# Elastic Constant Matrix: (Units=GPa)
#
#
# Indices 1 2 3 4 5 6 
#
# 1 68.8929 46.8088 17.3930 0.0000 0.0000 0.0000
# 2 46.8088 122.9155 26.8307 0.0000 0.0000 0.0000
# 3 17.3930 26.8307 58.0230 0.0000 0.0000 0.0000
# 4 0.0000 0.0000 0.0000 21.8280 0.0000 0.0000
# 5 0.0000 0.0000 0.0000 0.0000 23.8245 0.0000
# 6 0.0000 0.0000 0.0000 0.0000 0.0000 37.8891
#
#
#
# Elastic Compliance Matrix: (Units=1/GPa)
#
#
# Indices 1 2 3 4 5 6 
#
# 1 0.019968 -0.007005 -0.002747 0.000000 0.000000 0.000000
# 2 -0.007005 0.011506 -0.003221 0.000000 0.000000 0.000000
# 3 -0.002747 -0.003221 0.019547 0.000000 0.000000 0.000000
# 4 0.000000 0.000000 0.000000 0.045813 0.000000 0.000000
# 5 0.000000 0.000000 0.000000 0.000000 0.041974 0.000000
# 6 0.000000 0.000000 0.000000 0.000000 0.000000 0.026393
#
#
# Mechanical properties :
#
#
# Convention : Reuss Voigt Hill
#
# Bulk Modulus (GPa) = 39.87690 47.98849 43.93270
# Shear Modulus (GPa) = 25.06213 27.29490 26.17852
#
# Velocity S-wave (km/s) = 3.55794 3.71305 3.63632
# Velocity P-wave (km/s) = 6.08445 6.52851 6.31039
#
# Compressibility (1/GPa) = 0.02507717
#
# Stress axis : x y z
#
# Youngs Moduli (GPa) = 50.08017 86.90893 51.15810
#
# Poissons Ratio (x) = 0.60877 0.14051
# Poissons Ratio (y) = 0.35080 0.16478
# Poissons Ratio (z) = 0.13755 0.27993
#
# Static dielectric constant tensor:
#      x y z
#    x 1.702660 0.000000 0.000000 
#    y 0.000000 1.752670 0.000000 
#    z 0.000000 0.000000 1.789490 
# 
# From -- ./inp_files/15112.got.cif
#   From: 2010.05.17/outbox.cif.g08.bks.cpg/sg56_8_cif.got.tgz:15112.got - 2010.06.03 13:42:01.
