data_PCOD9429481
_publ_section_title
;
Structure prediction by ZEFSAII (Michael W. Deem and Ramdas Pophale) SiO2 
 PCOD9429481
Probable space group: P B A M
;
_chemical_formula_sum "Si O2"
_cell_formula_units_Z 48
_cell_length_a 15.000000
_cell_length_b 9.000000
_cell_length_c 18.000000
_cell_angle_alpha 90.000000
_cell_angle_beta 90.000000
_cell_angle_gamma 90.000000
_cell_volume 2430.000000
_symmetry_space_group_name_H-M "P B A M"
_symmetry_group_IT_number 55
_symmetry_cell_setting 'orthorhombic'
loop_
_space_group_symop_operation_xyz
x,y,z
-x,-y,z
1/2+x,1/2-y,-z
1/2-x,1/2+y,-z
-x,-y,-z
x,y,-z
1/2-x,1/2+y,z
1/2+x,1/2-y,z
loop_
_atom_site_type_symbol
_atom_site_label
_atom_site_fract_x
_atom_site_fract_y
_atom_site_fract_z
Si Si1 0.583336 0.099657 0.651174
Si Si2 0.455685 0.357930 0.654667
Si Si3 0.332251 0.030361 0.500000
Si Si4 0.857658 0.118447 0.500000
Si Si5 0.867119 0.250679 0.804655
Si Si6 0.974422 0.675649 0.087549
Si Si7 0.182074 0.404492 0.804678
O O1 0.535684 0.251667 0.629783
O O2 0.622510 0.027217 0.576440
O O3 0.650779 0.126263 0.719268
O O4 0.500000 0.000000 0.679708
O O5 0.500000 0.500000 0.692151
O O6 0.406584 0.405781 0.578912
O O7 0.398681 0.278996 0.719426
O O8 0.231683 0.975546 0.500000
O O9 0.336480 0.206758 0.500000
O O10 0.831586 0.419017 0.811967
O O11 0.783399 0.143429 0.818158
O O12 0.948807 0.241783 0.863717
O O13 0.883975 0.677634 0.136959
O O14 0.000000 0.500000 0.086272
O O15 0.967123 0.721834 0.000000
#
# Coordination Sequence:
#
# PCOD9429481 Si02
#       7
#     8   8   4   4   8   8   8
#     4  12  21  43  64  86 121 174 215 263 326 388
#     4  12  26  41  65  90 128 168 223 271 326 383
#     4  12  26  39  64  87 129 166 221 268 331 383
#     4  12  26  44  58  95 125 169 217 274 323 387
#     4  11  23  40  64  97 128 168 212 265 321 387
#     4   9  19  40  66  93 128 170 212 260 319 387
#     4  11  22  39  65  93 129 166 215 263 322 387
#
# _framework density 19.753086
#
# number of rings (size 3 to 8) (size 9 to 14) (size 15 to 20)
#    0.000    0.833    5.000    2.500    4.667    0.667 
#    0.000    0.000    0.000    3.500    0.000    0.000 
#    0.000    0.000    0.000    0.000    0.000    0.000 
#
# Total GULP energy -268039.573779 kJ/mol
# GULP energy per Si atom -5584.157787 kJ/mol
# Density = 1.970813 g / cm^3
# Si number density = 19.753086 Si / 1000 Ang^3
#
#
#
# Elastic Constant Matrix: (Units=GPa)
#
#
# Indices 1 2 3 4 5 6 
#
# 1 -3.0145 68.6007 32.6832 0.0000 0.0000 0.0000
# 2 68.6007 52.5026 10.7222 0.0000 0.0000 0.0000
# 3 32.6832 10.7222 141.3663 0.0000 0.0000 0.0000
# 4 0.0000 0.0000 0.0000 12.2930 0.0000 0.0000
# 5 0.0000 0.0000 0.0000 0.0000 27.7778 0.0000
# 6 0.0000 0.0000 0.0000 0.0000 0.0000 47.7216
#
#
#
# Elastic Compliance Matrix: (Units=1/GPa)
#
#
# Indices 1 2 3 4 5 6 
#
# 1 -0.010509 0.013444 0.001410 0.000000 0.000000 0.000000
# 2 0.013444 0.002149 -0.003271 0.000000 0.000000 0.000000
# 3 0.001410 -0.003271 0.006996 0.000000 0.000000 0.000000
# 4 0.000000 0.000000 0.000000 0.081347 0.000000 0.000000
# 5 0.000000 0.000000 0.000000 0.000000 0.036000 0.000000
# 6 0.000000 0.000000 0.000000 0.000000 0.000000 0.020955
#
#
# Mechanical properties :
#
#
# Convention : Reuss Voigt Hill
#
# Bulk Modulus (GPa) = 45.86977 46.09628 45.98303
# Shear Modulus (GPa) = 41.30868 22.81502 32.06185
#
# Velocity S-wave (km/s) = 4.57798 3.40223 4.03318
# Velocity P-wave (km/s) = 7.15653 6.23061 6.70956
#
# Compressibility (1/GPa) = 0.02180085
#
# Stress axis : x y z
#
# Youngs Moduli (GPa) = -95.15450 465.29383 142.94016
#
# Poissons Ratio (x) = -6.25520 -0.20155
# Poissons Ratio (y) = 1.27921 0.46757
# Poissons Ratio (z) = 0.13417 1.52202
#
# Static dielectric constant tensor:
#      x y z
#    x 1.697040 0.000000 0.000000 
#    y 0.000000 1.748320 0.000000 
#    z 0.000000 0.000000 1.673910 
# 
# From -- ./inp_files/21535.got.cif
#   From: 2010.05.17/outbox.ucp.g08.bks.cvg/sg55_11_cif.got.tgz:21535.got - 2010.06.11 16:36:00.
