data_PCOD9429224
_publ_section_title
;
Structure prediction by ZEFSAII (Michael W. Deem and Ramdas Pophale) SiO2 
 PCOD9429224
Probable space group: P B A M
;
_chemical_formula_sum "Si O2"
_cell_formula_units_Z 56
_cell_length_a 6.925100
_cell_length_b 14.243655
_cell_length_c 21.791195
_cell_angle_alpha 90.000000
_cell_angle_beta 90.000000
_cell_angle_gamma 90.000000
_cell_volume 2149.455914
_symmetry_space_group_name_H-M "P B A M"
_symmetry_group_IT_number 55
_symmetry_cell_setting 'orthorhombic'
loop_
_space_group_symop_operation_xyz
x,y,z
-x,-y,z
1/2+x,1/2-y,-z
1/2-x,1/2+y,-z
-x,-y,-z
x,y,-z
1/2-x,1/2+y,z
1/2+x,1/2-y,z
loop_
_atom_site_type_symbol
_atom_site_label
_atom_site_fract_x
_atom_site_fract_y
_atom_site_fract_z
Si Si1 0.225695 0.889293 0.804824
Si Si2 0.697751 0.611504 0.934903
Si Si3 0.719656 0.331849 0.199506
Si Si4 0.268910 0.889138 0.673528
Si Si5 0.750927 0.833785 0.066705
Si Si6 0.727493 0.470451 0.430232
Si Si7 0.673930 0.326611 0.332675
O O1 0.264344 0.933268 0.871264
O O2 0.300551 0.781535 0.802643
O O3 0.299745 0.932149 0.741474
O O4 0.992565 0.877787 0.803524
O O5 0.465272 0.622448 0.934282
O O6 0.769243 0.719972 0.934130
O O7 0.750336 0.567203 0.000000
O O8 0.826517 0.355000 0.135382
O O9 0.787216 0.349240 0.269218
O O10 0.350075 0.784837 0.664790
O O11 0.037534 0.871656 0.673685
O O12 0.315669 0.953414 0.616150
O O13 0.658835 0.856064 0.000000
O O14 0.500000 0.500000 0.433166
O O15 0.795861 0.468064 0.500000
O O16 0.752168 0.372169 0.394609
#
# Coordination Sequence:
#
# PCOD9429224 Si02
#       7
#     8   8   8   8   8   8   8
#     4   8  13  21  34  53  76 103 136 171 206 246
#     4   8  12  17  26  43  69  99 129 163 202 241
#     4   8  13  21  34  53  76 103 136 171 206 246
#     4   9  17  30  48  68  90 117 148 182 219 259
#     4   8  12  17  26  43  69  99 129 163 202 241
#     4   9  18  32  49  69  92 118 148 179 215 265
#     4   9  17  30  48  68  90 117 148 182 219 259
#
# _framework density 26.053104999999999
#
# number of rings (size 3 to 8) (size 9 to 14) (size 15 to 20)
#    0.000    3.571    0.000    0.000    0.000    0.571 
#    0.000    0.714    0.000    0.857    0.000    1.000 
#    0.000    8.000    0.000    0.000    0.000  478.857 
#
# Total GULP energy -312684.408709 kJ/mol
# GULP energy per Si atom -5583.650156 kJ/mol
# Density = 2.599381 g / cm^3
# Si number density = 26.053105 Si / 1000 Ang^3
#
#
#
# Elastic Constant Matrix: (Units=GPa)
#
#
# Indices 1 2 3 4 5 6 
#
# 1 95.8416 3.4108 24.0373 0.0000 0.0000 0.0000
# 2 3.4108 96.6154 59.0788 0.0000 0.0000 0.0000
# 3 24.0373 59.0788 351.8965 0.0000 0.0000 0.0000
# 4 0.0000 0.0000 0.0000 49.6083 0.0000 0.0000
# 5 0.0000 0.0000 0.0000 0.0000 -0.3921 0.0000
# 6 0.0000 0.0000 0.0000 0.0000 0.0000 16.7369
#
#
#
# Elastic Compliance Matrix: (Units=1/GPa)
#
#
# Indices 1 2 3 4 5 6 
#
# 1 0.010616 0.000077 -0.000738 0.000000 0.000000 0.000000
# 2 0.000077 0.011535 -0.001942 0.000000 0.000000 0.000000
# 3 -0.000738 -0.001942 0.003218 0.000000 0.000000 0.000000
# 4 0.000000 0.000000 0.000000 0.020158 0.000000 0.000000
# 5 0.000000 0.000000 0.000000 0.000000 -2.550647 0.000000
# 6 0.000000 0.000000 0.000000 0.000000 0.000000 0.059748
#
#
# Mechanical properties :
#
#
# Convention : Reuss Voigt Hill
#
# Bulk Modulus (GPa) = 49.59634 79.71192 64.65413
# Shear Modulus (GPa) = -2.05470 43.71241 20.82886
#
# Velocity S-wave (km/s) = -0.88903 4.10056 2.83057
# Velocity P-wave (km/s) = 4.24548 7.28573 5.96263
#
# Compressibility (1/GPa) = 0.02016278
#
# Stress axis : x y z
#
# Youngs Moduli (GPa) = 94.19520 86.69266 310.73651
#
# Poissons Ratio (x) = -0.00663 0.22933
# Poissons Ratio (y) = -0.00721 0.60339
# Poissons Ratio (z) = 0.06952 0.16834
#
# Static dielectric constant tensor:
#      x y z
#    x 2.065470 0.000000 0.000000 
#    y 0.000000 -4.002920 0.000000 
#    z 0.000000 0.000000 2.045670 
# 
# From -- ./inp_files/22619.got.cif
#   From: 2010.05.17/outbox.cif.g08.bks.cpg/sg55_12_cif.got.tgz:22619.got - 2010.06.03 13:27:54.
