data_PCOD9429158
_publ_section_title
;
Structure prediction by ZEFSAII (Michael W. Deem and Ramdas Pophale) SiO2 
 PCOD9429158
Probable space group: P B A M
;
_chemical_formula_sum "Si O2"
_cell_formula_units_Z 40
_cell_length_a 9.438592
_cell_length_b 8.705355
_cell_length_c 20.775598
_cell_angle_alpha 90.000000
_cell_angle_beta 90.000000
_cell_angle_gamma 90.000000
_cell_volume 1707.053895
_symmetry_space_group_name_H-M "P B A M"
_symmetry_group_IT_number 55
_symmetry_cell_setting 'orthorhombic'
loop_
_space_group_symop_operation_xyz
x,y,z
-x,-y,z
1/2+x,1/2-y,-z
1/2-x,1/2+y,-z
-x,-y,-z
x,y,-z
1/2-x,1/2+y,z
1/2+x,1/2-y,z
loop_
_atom_site_type_symbol
_atom_site_label
_atom_site_fract_x
_atom_site_fract_y
_atom_site_fract_z
Si Si1 0.554034 0.677752 0.424848
Si Si2 0.845559 0.561025 0.858847
Si Si3 0.836296 0.945854 0.739501
Si Si4 0.870976 0.882229 0.926462
Si Si5 0.174626 0.333742 0.344254
O O1 0.500000 0.500000 0.414913
O O2 0.537384 0.711727 0.500000
O O3 0.713343 0.698128 0.401000
O O4 0.470111 0.794956 0.379231
O O5 0.733715 0.510493 0.804080
O O6 0.862758 0.737948 0.878530
O O7 0.776726 0.473066 0.919591
O O8 0.000000 0.500000 0.840967
O O9 0.734227 0.008472 0.682971
O O10 0.831205 0.767389 0.721536
O O11 0.000000 0.000000 0.735278
O O12 0.891665 0.829690 0.000000
O O13 0.000000 0.000000 0.911834
#
# Coordination Sequence:
#
# PCOD9429158 Si02
#       5
#     8   8   8   8   8
#     4  11  24  45  69 102 141 177 228 293 357 427
#     4  12  27  44  71 110 140 192 248 298 355 423
#     4  12  27  47  68  96 144 183 234 292 351 416
#     4  11  25  48  76 107 150 191 234 293 359 428
#     4  12  22  46  68  99 132 187 227 289 356 417
#
# _framework density 23.432182000000001
#
# number of rings (size 3 to 8) (size 9 to 14) (size 15 to 20)
#    0.000    0.400    4.000    4.200    2.800    6.400 
#    0.000    1.000    0.000    0.000    0.000    0.000 
#    0.000    0.000    0.000    0.000    0.000    0.000 
#
# Total GULP energy -223459.488236 kJ/mol
# GULP energy per Si atom -5586.487206 kJ/mol
# Density = 2.337885 g / cm^3
# Si number density = 23.432182 Si / 1000 Ang^3
#
#
#
# Elastic Constant Matrix: (Units=GPa)
#
#
# Indices 1 2 3 4 5 6 
#
# 1 73.3686 13.8474 10.9090 0.0000 0.0000 0.0000
# 2 13.8474 82.7603 21.3015 0.0000 0.0000 0.0000
# 3 10.9090 21.3015 132.0911 0.0000 0.0000 0.0000
# 4 0.0000 0.0000 0.0000 44.6587 0.0000 0.0000
# 5 0.0000 0.0000 0.0000 0.0000 27.0205 0.0000
# 6 0.0000 0.0000 0.0000 0.0000 0.0000 24.3652
#
#
#
# Elastic Compliance Matrix: (Units=1/GPa)
#
#
# Indices 1 2 3 4 5 6 
#
# 1 0.014159 -0.002158 -0.000821 0.000000 0.000000 0.000000
# 2 -0.002158 0.012935 -0.001908 0.000000 0.000000 0.000000
# 3 -0.000821 -0.001908 0.007946 0.000000 0.000000 0.000000
# 4 0.000000 0.000000 0.000000 0.022392 0.000000 0.000000
# 5 0.000000 0.000000 0.000000 0.000000 0.037009 0.000000
# 6 0.000000 0.000000 0.000000 0.000000 0.000000 0.041042
#
#
# Mechanical properties :
#
#
# Convention : Reuss Voigt Hill
#
# Bulk Modulus (GPa) = 39.57790 42.25953 40.91872
# Shear Modulus (GPa) = 32.53529 35.35304 33.94417
#
# Velocity S-wave (km/s) = 3.73028 3.88846 3.81019
# Velocity P-wave (km/s) = 5.95655 6.18338 6.07102
#
# Compressibility (1/GPa) = 0.02526662
#
# Stress axis : x y z
#
# Youngs Moduli (GPa) = 70.62560 77.30879 125.84910
#
# Poissons Ratio (x) = 0.16681 0.10337
# Poissons Ratio (y) = 0.15239 0.24009
# Poissons Ratio (z) = 0.05801 0.14749
#
# Static dielectric constant tensor:
#      x y z
#    x 0.738840 0.000000 0.000000 
#    y 0.000000 1.598500 0.000000 
#    z 0.000000 0.000000 1.922020 
# 
# From -- ./inp_files/23405.got.cif
#   From: 2010.05.17/outbox.cif.g08.bks.cpg/sg55_12_cif.got.tgz:23405.got - 2010.06.03 13:27:54.
