data_PCOD9429034
_publ_section_title
;
Structure prediction by ZEFSAII (Michael W. Deem and Ramdas Pophale) SiO2 
 PCOD9429034
Probable space group: P B A M
;
_chemical_formula_sum "Si O2"
_cell_formula_units_Z 58
_cell_length_a 23.362690
_cell_length_b 14.491373
_cell_length_c 8.024459
_cell_angle_alpha 90.000000
_cell_angle_beta 90.000000
_cell_angle_gamma 90.000000
_cell_volume 2716.740417
_symmetry_space_group_name_H-M "P B A M"
_symmetry_group_IT_number 55
_symmetry_cell_setting 'orthorhombic'
loop_
_space_group_symop_operation_xyz
x,y,z
-x,-y,z
1/2+x,1/2-y,-z
1/2-x,1/2+y,-z
-x,-y,-z
x,y,-z
1/2-x,1/2+y,z
1/2+x,1/2-y,z
loop_
_atom_site_type_symbol
_atom_site_label
_atom_site_fract_x
_atom_site_fract_y
_atom_site_fract_z
Si Si1 0.893387 0.168896 0.303987
Si Si2 0.390088 0.841494 0.690727
Si Si3 0.696936 0.813647 0.699517
Si Si4 0.674506 0.324973 0.186872
Si Si5 0.493037 0.202381 0.187830
Si Si6 0.093203 0.549826 0.299120
Si Si7 0.000000 0.000000 0.000000
Si Si8 0.420804 0.544363 0.309770
O O1 0.899849 0.191946 0.500000
O O2 0.834969 0.218800 0.247593
O O3 0.946510 0.217744 0.214506
O O4 0.896592 0.059861 0.286469
O O5 0.370197 0.848685 0.500000
O O6 0.345379 0.780367 0.789754
O O7 0.451736 0.791721 0.697036
O O8 0.400756 0.944656 0.756149
O O9 0.704116 0.810700 0.500000
O O10 0.758674 0.831181 0.774148
O O11 0.650936 0.893439 0.738567
O O12 0.632352 0.386011 0.298481
O O13 0.664229 0.356426 0.000000
O O14 0.458931 0.107633 0.223622
O O15 0.514355 0.204037 0.000000
O O16 0.084951 0.550161 0.500000
O O17 0.036410 0.054077 0.152365
O O18 0.444867 0.551953 0.500000
#
# Coordination Sequence:
#
# PCOD9429034 Si02
#       8
#     8   8   8   8   8   8   2   8
#     4   9  21  41  66  92 118 165 215 255 311 378
#     4  11  23  39  61  86 118 161 205 251 309 368
#     4   9  19  41  67  89 119 158 209 260 314 382
#     4  12  26  43  59  91 128 165 210 263 321 383
#     4  11  22  34  58  91 129 159 193 248 308 366
#     4   9  20  40  63  88 117 160 209 250 301 373
#     4  12  26  44  68  98 132 166 226 268 326 394
#     4  11  25  45  68  95 132 174 218 269 327 386
#
# _framework density 21.349112999999999
#
# number of rings (size 3 to 8) (size 9 to 14) (size 15 to 20)
#    0.000    1.655    0.690    4.345    2.897    6.069 
#    0.000    5.517    0.000    0.000    0.000    0.000 
#    0.000    0.000    0.000    0.000    0.000    0.000 
#
# Total GULP energy -323704.674454 kJ/mol
# GULP energy per Si atom -5581.115077 kJ/mol
# Density = 2.130052 g / cm^3
# Si number density = 21.349113 Si / 1000 Ang^3
#
#
#
# Elastic Constant Matrix: (Units=GPa)
#
#
# Indices 1 2 3 4 5 6 
#
# 1 79.8171 6.8041 24.3130 0.0000 0.0000 0.0000
# 2 6.8041 72.1554 18.5076 0.0000 0.0000 0.0000
# 3 24.3130 18.5076 85.1046 0.0000 0.0000 0.0000
# 4 0.0000 0.0000 0.0000 14.5609 0.0000 0.0000
# 5 0.0000 0.0000 0.0000 0.0000 28.4621 0.0000
# 6 0.0000 0.0000 0.0000 0.0000 0.0000 21.7083
#
#
#
# Elastic Compliance Matrix: (Units=1/GPa)
#
#
# Indices 1 2 3 4 5 6 
#
# 1 0.013729 -0.000306 -0.003856 0.000000 0.000000 0.000000
# 2 -0.000306 0.014685 -0.003106 0.000000 0.000000 0.000000
# 3 -0.003856 -0.003106 0.013527 0.000000 0.000000 0.000000
# 4 0.000000 0.000000 0.000000 0.068677 0.000000 0.000000
# 5 0.000000 0.000000 0.000000 0.000000 0.035134 0.000000
# 6 0.000000 0.000000 0.000000 0.000000 0.000000 0.046065
#
#
# Mechanical properties :
#
#
# Convention : Reuss Voigt Hill
#
# Bulk Modulus (GPa) = 36.48843 37.36963 36.92903
# Shear Modulus (GPa) = 23.20315 25.44309 24.32312
#
# Velocity S-wave (km/s) = 3.30031 3.45594 3.37902
# Velocity P-wave (km/s) = 5.62593 5.78504 5.70604
#
# Compressibility (1/GPa) = 0.02740595
#
# Stress axis : x y z
#
# Youngs Moduli (GPa) = 72.83744 68.09900 73.92486
#
# Poissons Ratio (x) = 0.02081 0.28504
# Poissons Ratio (y) = 0.02226 0.22962
# Poissons Ratio (z) = 0.28084 0.21152
#
# Static dielectric constant tensor:
#      x y z
#    x 1.732940 0.000000 0.000000 
#    y 0.000000 1.795160 0.000000 
#    z 0.000000 0.000000 1.993680 
# 
# From -- ./inp_files/9580.got.cif
#   From: 2010.05.17/outbox.cif.g08.bks.cpg/sg55_5_cif.got.tgz:9580.got - 2010.06.03 13:27:54.
