data_PCOD9429920
_publ_section_title
;
Structure prediction by ZEFSAII (Michael W. Deem and Ramdas Pophale) SiO2 
 PCOD9429920
Probable space group: P C C N
;
_chemical_formula_sum "Si O2"
_cell_formula_units_Z 36
_cell_length_a 9.646954
_cell_length_b 10.278354
_cell_length_c 13.942620
_cell_angle_alpha 90.000000
_cell_angle_beta 90.000000
_cell_angle_gamma 90.000000
_cell_volume 1382.477812
_symmetry_space_group_name_H-M "P C C N"
_symmetry_group_IT_number 56
_symmetry_cell_setting 'orthorhombic'
loop_
_space_group_symop_operation_xyz
x,y,z
1/2-x,1/2-y,z
1/2+x,-y,1/2-z
-x,1/2+y,1/2-z
-x,-y,-z
1/2+x,1/2+y,-z
1/2-x,y,1/2+z
x,1/2-y,1/2+z
loop_
_atom_site_type_symbol
_atom_site_label
_atom_site_fract_x
_atom_site_fract_y
_atom_site_fract_z
Si Si1 0.728714 0.894785 0.757750
Si Si2 0.750000 0.250000 0.768604
Si Si3 0.894874 0.268614 0.582565
Si Si4 0.484630 0.483180 0.354094
Si Si5 0.490347 0.306312 0.900158
O O1 0.750000 0.750000 0.800785
O O2 0.642220 0.988556 0.825810
O O3 0.633601 0.867272 0.662478
O O4 0.876839 0.951553 0.730888
O O5 0.846083 0.323682 0.686072
O O6 0.629341 0.309646 0.835028
O O7 0.750000 0.250000 0.527398
O O8 0.942040 0.122491 0.605149
O O9 0.990887 0.348493 0.510671
O O10 0.467915 0.350186 0.412131
#
# Coordination Sequence:
#
# PCOD9429920 Si02
#       5
#     8   4   8   8   8
#     4  10  23  41  65  96 133 170 217 265 325 382
#     4  10  18  38  64  88 126 166 214 256 318 378
#     4  10  21  36  63  94 124 169 217 258 321 378
#     4  11  22  40  67  97 130 169 218 264 319 392
#     4  11  21  40  65  91 133 169 208 272 322 375
#
# _framework density 26.040202000000001
#
# number of rings (size 3 to 8) (size 9 to 14) (size 15 to 20)
#    0.667    0.889    3.333    2.000    0.000    0.000 
#    0.000    6.667    4.889    0.000    0.000    0.000 
#    0.000    0.000    0.000    0.000    0.000    0.000 
#
# Total GULP energy -200766.343925 kJ/mol
# GULP energy per Si atom -5576.842887 kJ/mol
# Density = 2.598093 g / cm^3
# Si number density = 26.040202 Si / 1000 Ang^3
#
#
#
# Elastic Constant Matrix: (Units=GPa)
#
#
# Indices 1 2 3 4 5 6 
#
# 1 106.0362 -1.5723 -6.6356 0.0000 0.0000 0.0000
# 2 -1.5723 98.9401 -8.1046 0.0000 0.0000 0.0000
# 3 -6.6356 -8.1046 54.1775 0.0000 0.0000 0.0000
# 4 0.0000 0.0000 0.0000 -9.2320 0.0000 0.0000
# 5 0.0000 0.0000 0.0000 0.0000 11.0591 0.0000
# 6 0.0000 0.0000 0.0000 0.0000 0.0000 43.6615
#
#
#
# Elastic Compliance Matrix: (Units=1/GPa)
#
#
# Indices 1 2 3 4 5 6 
#
# 1 0.009510 0.000250 0.001202 0.000000 0.000000 0.000000
# 2 0.000250 0.010239 0.001562 0.000000 0.000000 0.000000
# 3 0.001202 0.001562 0.018839 0.000000 0.000000 0.000000
# 4 0.000000 0.000000 0.000000 -0.108319 0.000000 0.000000
# 5 0.000000 0.000000 0.000000 0.000000 0.090423 0.000000
# 6 0.000000 0.000000 0.000000 0.000000 0.000000 0.022903
#
#
# Mechanical properties :
#
#
# Convention : Reuss Voigt Hill
#
# Bulk Modulus (GPa) = 22.41380 25.16987 23.79183
# Shear Modulus (GPa) = 95.34867 27.46215 61.40541
#
# Velocity S-wave (km/s) = 6.05768 3.25099 4.86130
# Velocity P-wave (km/s) = 7.58639 4.87634 6.37699
#
# Compressibility (1/GPa) = 0.04461537
#
# Stress axis : x y z
#
# Youngs Moduli (GPa) = 105.15615 97.66520 53.08195
#
# Poissons Ratio (x) = -0.02438 -0.06381
# Poissons Ratio (y) = -0.02625 -0.08293
# Poissons Ratio (z) = -0.12640 -0.15258
#
# Static dielectric constant tensor:
#      x y z
#    x 2.120550 0.000000 0.000000 
#    y 0.000000 2.197180 0.000000 
#    z 0.000000 0.000000 2.122940 
# 
# From -- ./inp_files/11361.got.cif
#   From: 2010.05.17/outbox.cif.g08.bks.cpg/sg56_6_cif.got.tgz:11361.got - 2010.06.03 13:42:01.
