data_PCOD9429974
_publ_section_title
;
Structure prediction by ZEFSAII (Michael W. Deem and Ramdas Pophale) SiO2 
 PCOD9429974
Probable space group: P C C N
;
_chemical_formula_sum "Si O2"
_cell_formula_units_Z 56
_cell_length_a 7.095418
_cell_length_b 19.662237
_cell_length_c 16.558458
_cell_angle_alpha 90.000000
_cell_angle_beta 90.000000
_cell_angle_gamma 90.000000
_cell_volume 2310.100121
_symmetry_space_group_name_H-M "P C C N"
_symmetry_group_IT_number 56
_symmetry_cell_setting 'orthorhombic'
loop_
_space_group_symop_operation_xyz
x,y,z
1/2-x,1/2-y,z
1/2+x,-y,1/2-z
-x,1/2+y,1/2-z
-x,-y,-z
1/2+x,1/2+y,-z
1/2-x,y,1/2+z
x,1/2-y,1/2+z
loop_
_atom_site_type_symbol
_atom_site_label
_atom_site_fract_x
_atom_site_fract_y
_atom_site_fract_z
Si Si1 0.000000 0.500000 0.218071
Si Si2 0.979973 0.758340 0.907254
Si Si3 0.647664 0.622974 0.824093
Si Si4 0.035620 0.607218 0.905317
Si Si5 0.979973 0.758340 0.092746
Si Si6 0.535620 0.392782 0.405317
Si Si7 0.852336 0.622974 0.675907
O O1 0.923510 0.556228 0.279551
O O2 0.112968 0.549467 0.154935
O O3 0.887032 0.450533 0.154935
O O4 0.076491 0.443772 0.279551
O O5 0.750000 0.750000 0.904649
O O6 0.008509 0.827305 0.858676
O O7 0.070421 0.686466 0.883284
O O8 0.030494 0.769879 0.000000
O O9 0.807461 0.603262 0.889283
O O10 0.750000 0.661971 0.750000
O O11 0.076819 0.596508 0.000000
O O12 0.750000 0.750000 0.095351
O O13 0.070421 0.686466 0.116716
O O14 0.008508 0.827305 0.141324
O O15 0.307461 0.396737 0.389283
#
# Coordination Sequence:
#
# PCOD9429974 Si02
#       7
#     8   8   8   8   8   8   8
#     4  10  19  26  39  66  96 118 138 168 213 260
#     4   8  14  26  44  63  83 109 139 173 216 261
#     4   9  17  27  41  65  92 114 140 175 216 254
#     4   9  17  30  46  63  87 117 145 173 209 258
#     4   8  14  26  44  63  83 109 139 173 216 261
#     4   9  17  30  46  63  87 117 145 173 209 258
#     4   9  17  27  41  65  92 114 140 175 216 254
#
# _framework density 24.241371999999998
#
# number of rings (size 3 to 8) (size 9 to 14) (size 15 to 20)
#    0.000    3.143    0.000    3.000    0.000   13.143 
#    0.000    2.857    0.000    0.000    0.000   36.000 
#    0.000   50.286    0.000    0.000    0.000    0.000 
#
# Total GULP energy -311891.703679 kJ/mol
# GULP energy per Si atom -5569.494709 kJ/mol
# Density = 2.418620 g / cm^3
# Si number density = 24.241372 Si / 1000 Ang^3
#
#
#
# Elastic Constant Matrix: (Units=GPa)
#
#
# Indices 1 2 3 4 5 6 
#
# 1 67.2953 22.9036 21.7953 0.0000 0.0000 0.0000
# 2 22.9036 234.4912 83.1096 0.0000 0.0000 0.0000
# 3 21.7953 83.1096 67.1618 0.0000 0.0000 0.0000
# 4 0.0000 0.0000 0.0000 85.9389 0.0000 0.0000
# 5 0.0000 0.0000 0.0000 0.0000 11.5806 0.0000
# 6 0.0000 0.0000 0.0000 0.0000 0.0000 21.9932
#
#
#
# Elastic Compliance Matrix: (Units=1/GPa)
#
#
# Indices 1 2 3 4 5 6 
#
# 1 0.016640 0.000514 -0.006036 0.000000 0.000000 0.000000
# 2 0.000514 0.007612 -0.009586 0.000000 0.000000 0.000000
# 3 -0.006036 -0.009586 0.028711 0.000000 0.000000 0.000000
# 4 0.000000 0.000000 0.000000 0.011636 0.000000 0.000000
# 5 0.000000 0.000000 0.000000 0.000000 0.086351 0.000000
# 6 0.000000 0.000000 0.000000 0.000000 0.000000 0.045468
#
#
# Mechanical properties :
#
#
# Convention : Reuss Voigt Hill
#
# Bulk Modulus (GPa) = 43.96369 69.39616 56.67992
# Shear Modulus (GPa) = 21.34771 39.97854 30.66312
#
# Velocity S-wave (km/s) = 2.97076 4.06542 3.56041
# Velocity P-wave (km/s) = 5.47197 7.12223 6.35093
#
# Compressibility (1/GPa) = 0.02274604
#
# Stress axis : x y z
#
# Youngs Moduli (GPa) = 60.09658 131.37208 34.83002
#
# Poissons Ratio (x) = -0.06754 0.21024
# Poissons Ratio (y) = -0.03089 0.33389
# Poissons Ratio (z) = 0.36275 1.25937
#
# Static dielectric constant tensor:
#      x y z
#    x 2.192430 0.000000 0.000000 
#    y 0.000000 2.009480 0.000000 
#    z 0.000000 0.000000 1.905340 
# 
# From -- ./inp_files/15852.got.cif
#   From: 2010.05.17/outbox.cif.g08.bks.cpg/sg56_8_cif.got.tgz:15852.got - 2010.06.03 13:42:01.
