data_PCOD9429390
_publ_section_title
;
Structure prediction by ZEFSAII (Michael W. Deem and Ramdas Pophale) SiO2 
 PCOD9429390
Probable space group: P B A M
;
_chemical_formula_sum "Si O2"
_cell_formula_units_Z 48
_cell_length_a 15.000000
_cell_length_b 18.000000
_cell_length_c 9.000000
_cell_angle_alpha 90.000000
_cell_angle_beta 90.000000
_cell_angle_gamma 90.000000
_cell_volume 2430.000000
_symmetry_space_group_name_H-M "P B A M"
_symmetry_group_IT_number 55
_symmetry_cell_setting 'orthorhombic'
loop_
_space_group_symop_operation_xyz
x,y,z
-x,-y,z
1/2+x,1/2-y,-z
1/2-x,1/2+y,-z
-x,-y,-z
x,y,-z
1/2-x,1/2+y,z
1/2+x,1/2-y,z
loop_
_atom_site_type_symbol
_atom_site_label
_atom_site_fract_x
_atom_site_fract_y
_atom_site_fract_z
Si Si1 0.992706 0.778416 0.674317
Si Si2 0.453523 0.578898 0.172811
Si Si3 0.254399 0.577562 0.826295
Si Si4 0.335409 0.237690 0.828400
Si Si5 0.838778 0.689054 0.178643
Si Si6 0.097168 0.474487 0.818504
O O1 0.984779 0.775151 0.500000
O O2 0.007174 0.861266 0.733826
O O3 0.902468 0.749623 0.749247
O O4 0.076682 0.732142 0.731991
O O5 0.500000 0.500000 0.174792
O O6 0.353399 0.572457 0.235869
O O7 0.448750 0.604528 0.000000
O O8 0.218910 0.661176 0.823493
O O9 0.177018 0.526166 0.762051
O O10 0.263908 0.555076 0.000000
O O11 0.264226 0.299590 0.778651
O O12 0.361743 0.251546 0.000000
O O13 0.878906 0.609622 0.218694
O O14 0.841601 0.697590 0.000000
O O15 0.000000 0.500000 0.766416
O O16 0.095481 0.479883 0.000000
#
# Coordination Sequence:
#
# PCOD9429390 Si02
#       6
#     8   8   8   8   8   8
#     4  12  25  39  58  84 123 162 197 238 296 368
#     4  10  21  38  63  89 115 150 201 253 293 343
#     4   9  17  33  57  88 117 146 187 243 303 347
#     4  10  20  36  61  87 114 149 200 253 296 349
#     4  10  20  37  62  89 114 148 199 251 297 345
#     4   9  17  29  53  88 119 143 178 239 302 349
#
# _framework density 19.753086
#
# number of rings (size 3 to 8) (size 9 to 14) (size 15 to 20)
#    0.000    2.000    1.667    2.500    2.333    3.667 
#    0.000    0.000    0.000    4.500    0.000    0.000 
#    0.000    0.000    0.000    0.000    0.000    0.000 
#
# Total GULP energy -267773.958432 kJ/mol
# GULP energy per Si atom -5578.624134 kJ/mol
# Density = 1.970813 g / cm^3
# Si number density = 19.753086 Si / 1000 Ang^3
#
#
#
# Elastic Constant Matrix: (Units=GPa)
#
#
# Indices 1 2 3 4 5 6 
#
# 1 71.2060 9.3831 21.2495 0.0000 0.0000 0.0000
# 2 9.3831 40.8246 11.3199 0.0000 0.0000 0.0000
# 3 21.2495 11.3199 9.1058 0.0000 0.0000 0.0000
# 4 0.0000 0.0000 0.0000 -3.8634 0.0000 0.0000
# 5 0.0000 0.0000 0.0000 0.0000 -19.1769 0.0000
# 6 0.0000 0.0000 0.0000 0.0000 0.0000 27.6319
#
#
#
# Elastic Compliance Matrix: (Units=1/GPa)
#
#
# Indices 1 2 3 4 5 6 
#
# 1 0.092834 0.059109 -0.290122 0.000000 0.000000 0.000000
# 2 0.059109 0.075016 -0.231195 0.000000 0.000000 0.000000
# 3 -0.290122 -0.231195 1.074269 0.000000 0.000000 0.000000
# 4 0.000000 0.000000 0.000000 -0.258841 0.000000 0.000000
# 5 0.000000 0.000000 0.000000 0.000000 -0.052146 0.000000
# 6 0.000000 0.000000 0.000000 0.000000 0.000000 0.036190
#
#
# Mechanical properties :
#
#
# Convention : Reuss Voigt Hill
#
# Bulk Modulus (GPa) = 3.14759 22.78238 12.96499
# Shear Modulus (GPa) = 2.50296 6.19722 4.35009
#
# Velocity S-wave (km/s) = 1.12689 1.77318 1.48560
# Velocity P-wave (km/s) = 1.81386 3.96873 3.08552
#
# Compressibility (1/GPa) = 0.31770351
#
# Stress axis : x y z
#
# Youngs Moduli (GPa) = 10.77193 13.33051 0.93087
#
# Poissons Ratio (x) = -0.78795 0.27006
# Poissons Ratio (y) = -0.63672 0.21521
# Poissons Ratio (z) = 3.12517 3.08195
#
# Static dielectric constant tensor:
#      x y z
#    x 1.706200 0.000000 0.000000 
#    y 0.000000 1.732700 0.000000 
#    z 0.000000 0.000000 1.676250 
# 
# From -- ./inp_files/5610.got.cif
#   From: 2010.05.17/outbox.ucp.g08.bks.cvg/sg55_3_cif.got.tgz:5610.got - 2010.06.11 16:36:00.
