data_PCOD9429438
_publ_section_title
;
Structure prediction by ZEFSAII (Michael W. Deem and Ramdas Pophale) SiO2 
 PCOD9429438
Probable space group: P B A M
;
_chemical_formula_sum "Si O2"
_cell_formula_units_Z 64
_cell_length_a 12.000000
_cell_length_b 30.000000
_cell_length_c 9.000000
_cell_angle_alpha 90.000000
_cell_angle_beta 90.000000
_cell_angle_gamma 90.000000
_cell_volume 3240.000000
_symmetry_space_group_name_H-M "P B A M"
_symmetry_group_IT_number 55
_symmetry_cell_setting 'orthorhombic'
loop_
_space_group_symop_operation_xyz
x,y,z
-x,-y,z
1/2+x,1/2-y,-z
1/2-x,1/2+y,-z
-x,-y,-z
x,y,-z
1/2-x,1/2+y,z
1/2+x,1/2-y,z
loop_
_atom_site_type_symbol
_atom_site_label
_atom_site_fract_x
_atom_site_fract_y
_atom_site_fract_z
Si Si1 0.407869 0.344204 0.823502
Si Si2 0.749006 0.726286 0.331139
Si Si3 0.703390 0.096185 0.831536
Si Si4 0.633171 0.010755 0.323877
Si Si5 0.835342 0.326740 0.331495
Si Si6 0.882351 0.882777 0.323295
Si Si7 0.940834 0.686159 0.166001
Si Si8 0.875993 0.978388 0.178260
O O1 0.336201 0.301990 0.769174
O O2 0.328686 0.387594 0.796616
O O3 0.520965 0.349978 0.733523
O O4 0.426864 0.341471 0.000000
O O5 0.739805 0.709568 0.500000
O O6 0.717833 0.777733 0.327622
O O7 0.874108 0.718972 0.273563
O O8 0.650054 0.062547 0.715974
O O9 0.631904 0.141212 0.834749
O O10 0.701974 0.077253 0.000000
O O11 0.639957 0.000933 0.500000
O O12 0.500000 0.000000 0.280061
O O13 0.752087 0.992238 0.248926
O O14 0.875893 0.335145 0.500000
O O15 0.738636 0.361513 0.297421
O O16 0.937965 0.326411 0.221308
O O17 0.894693 0.890656 0.500000
O O18 0.890880 0.927739 0.230286
O O19 0.943297 0.704876 0.000000
O O20 0.865669 0.983373 0.000000
O O21 0.000000 0.000000 0.218490
#
# Coordination Sequence:
#
# PCOD9429438 Si02
#       8
#     8   8   8   8   8   8   8   8
#     4  10  21  39  62  92 124 158 205 256 302 362
#     4  10  21  39  62  87 119 163 207 249 304 363
#     4   9  20  39  61  87 120 157 199 246 302 365
#     4  11  25  41  62  94 127 162 208 259 312 379
#     4  10  24  41  59  85 122 163 202 248 302 365
#     4  11  24  41  63  93 127 163 206 255 312 373
#     4  10  22  39  61  90 121 155 202 254 304 360
#     4  11  25  45  68  95 128 167 211 263 324 387
#
# _framework density 19.753086
#
# number of rings (size 3 to 8) (size 9 to 14) (size 15 to 20)
#    0.000    1.750    0.000    3.750    3.500   10.000 
#    0.000    0.000    0.000    0.000    0.000    0.000 
#    0.000    0.000    0.000    0.000    0.000    0.000 
#
# Total GULP energy -356846.397449 kJ/mol
# GULP energy per Si atom -5575.724960 kJ/mol
# Density = 1.970813 g / cm^3
# Si number density = 19.753086 Si / 1000 Ang^3
#
#
#
# Elastic Constant Matrix: (Units=GPa)
#
#
# Indices 1 2 3 4 5 6 
#
# 1 99.3076 5.0057 40.0774 0.0000 0.0000 0.0000
# 2 5.0057 35.7906 11.5257 0.0000 0.0000 0.0000
# 3 40.0774 11.5257 61.0236 0.0000 0.0000 0.0000
# 4 0.0000 0.0000 0.0000 25.0406 0.0000 0.0000
# 5 0.0000 0.0000 0.0000 0.0000 33.3448 0.0000
# 6 0.0000 0.0000 0.0000 0.0000 0.0000 15.3712
#
#
#
# Elastic Compliance Matrix: (Units=1/GPa)
#
#
# Indices 1 2 3 4 5 6 
#
# 1 0.013738 0.001048 -0.009220 0.000000 0.000000 0.000000
# 2 0.001048 0.029830 -0.006322 0.000000 0.000000 0.000000
# 3 -0.009220 -0.006322 0.023637 0.000000 0.000000 0.000000
# 4 0.000000 0.000000 0.000000 0.039935 0.000000 0.000000
# 5 0.000000 0.000000 0.000000 0.000000 0.029990 0.000000
# 6 0.000000 0.000000 0.000000 0.000000 0.000000 0.065057
#
#
# Mechanical properties :
#
#
# Convention : Reuss Voigt Hill
#
# Bulk Modulus (GPa) = 26.16777 34.37104 30.26940
# Shear Modulus (GPa) = 20.49907 24.05219 22.27563
#
# Velocity S-wave (km/s) = 3.22493 3.49326 3.36177
# Velocity P-wave (km/s) = 5.20990 5.80591 5.51596
#
# Compressibility (1/GPa) = 0.03821495
#
# Stress axis : x y z
#
# Youngs Moduli (GPa) = 72.79108 33.52359 42.30714
#
# Poissons Ratio (x) = -0.03513 0.39009
# Poissons Ratio (y) = -0.07627 0.26748
# Poissons Ratio (z) = 0.67116 0.21194
#
# Static dielectric constant tensor:
#      x y z
#    x 1.713820 0.000000 0.000000 
#    y 0.000000 1.716610 0.000000 
#    z 0.000000 0.000000 1.693510 
# 
# From -- ./inp_files/4690.got.cif
#   From: 2010.05.17/outbox.ucp.g08.bks.cvg/sg55_3_cif.got.tgz:4690.got - 2010.06.11 16:36:00.
