data_PCOD9429876
_publ_section_title
;
Structure prediction by ZEFSAII (Michael W. Deem and Ramdas Pophale) SiO2 
 PCOD9429876
Probable space group: P C C N
;
_chemical_formula_sum "Si O2"
_cell_formula_units_Z 32
_cell_length_a 7.410872
_cell_length_b 5.554643
_cell_length_c 32.510440
_cell_angle_alpha 90.000000
_cell_angle_beta 90.000000
_cell_angle_gamma 90.000000
_cell_volume 1338.284079
_symmetry_space_group_name_H-M "P C C N"
_symmetry_group_IT_number 56
_symmetry_cell_setting 'orthorhombic'
loop_
_space_group_symop_operation_xyz
x,y,z
1/2-x,1/2-y,z
1/2+x,-y,1/2-z
-x,1/2+y,1/2-z
-x,-y,-z
1/2+x,1/2+y,-z
1/2-x,y,1/2+z
x,1/2-y,1/2+z
loop_
_atom_site_type_symbol
_atom_site_label
_atom_site_fract_x
_atom_site_fract_y
_atom_site_fract_z
Si Si1 0.457472 0.673405 0.771861
Si Si2 0.049596 0.869441 0.863567
Si Si3 0.975578 0.879950 0.445134
Si Si4 0.750000 0.750000 0.592246
Si Si5 0.250000 0.750000 0.508440
O O1 0.250000 0.750000 0.774895
O O2 0.460506 0.407467 0.751214
O O3 0.531388 0.649309 0.818388
O O4 0.250000 0.750000 0.862581
O O5 0.949322 0.746171 0.901455
O O6 0.098260 0.136558 0.878142
O O7 0.074463 0.718707 0.479416
O O8 0.138091 0.069360 0.435863
O O9 0.806689 0.024538 0.463132
#
# Coordination Sequence:
#
# PCOD9429876 Si02
#       5
#     8   8   8   4   4
#     4  11  25  44  71 103 137 179 228 287 347 425
#     4   9  20  38  64  88 123 169 219 261 344 414
#     4  10  20  38  56  90 119 175 207 283 324 412
#     4  10  18  36  64  84 114 172 220 252 334 410
#     4  10  20  38  56  84 136 152 228 272 334 392
#
# _framework density 23.911216
#
# number of rings (size 3 to 8) (size 9 to 14) (size 15 to 20)
#    0.000    2.000    3.750    0.750   10.500    1.000 
#    2.250    2.500    0.000    0.000    0.000    0.000 
#    0.000    0.000    0.000    0.000    0.000    0.000 
#
# Total GULP energy -178773.363062 kJ/mol
# GULP energy per Si atom -5586.667596 kJ/mol
# Density = 2.385679 g / cm^3
# Si number density = 23.911216 Si / 1000 Ang^3
#
#
#
# Elastic Constant Matrix: (Units=GPa)
#
#
# Indices 1 2 3 4 5 6 
#
# 1 84.0542 38.0141 50.2015 0.0000 0.0000 0.0000
# 2 38.0141 134.6591 99.4874 0.0000 0.0000 0.0000
# 3 50.2015 99.4874 234.1063 0.0000 0.0000 0.0000
# 4 0.0000 0.0000 0.0000 31.2449 0.0000 0.0000
# 5 0.0000 0.0000 0.0000 0.0000 16.3083 0.0000
# 6 0.0000 0.0000 0.0000 0.0000 0.0000 46.6771
#
#
#
# Elastic Compliance Matrix: (Units=1/GPa)
#
#
# Indices 1 2 3 4 5 6 
#
# 1 0.014229 -0.002569 -0.001959 0.000000 0.000000 0.000000
# 2 -0.002569 0.011289 -0.004246 0.000000 0.000000 0.000000
# 3 -0.001959 -0.004246 0.006496 0.000000 0.000000 0.000000
# 4 0.000000 0.000000 0.000000 0.032005 0.000000 0.000000
# 5 0.000000 0.000000 0.000000 0.000000 0.061319 0.000000
# 6 0.000000 0.000000 0.000000 0.000000 0.000000 0.021424
#
#
# Mechanical properties :
#
#
# Convention : Reuss Voigt Hill
#
# Bulk Modulus (GPa) = 69.13634 92.02505 80.58070
# Shear Modulus (GPa) = 29.56242 36.52049 33.04145
#
# Velocity S-wave (km/s) = 3.51998 3.91236 3.72134
# Velocity P-wave (km/s) = 6.74514 7.67974 7.22756
#
# Compressibility (1/GPa) = 0.01446417
#
# Stress axis : x y z
#
# Youngs Moduli (GPa) = 70.27725 88.58397 153.93323
#
# Poissons Ratio (x) = 0.22759 0.30163
# Poissons Ratio (y) = 0.18056 0.65366
# Poissons Ratio (z) = 0.13771 0.37616
#
# Static dielectric constant tensor:
#      x y z
#    x 1.953810 0.000000 0.000000 
#    y 0.000000 2.077620 0.000000 
#    z 0.000000 0.000000 1.915000 
# 
# From -- ./inp_files/22693.got.cif
#   From: 2010.05.17/outbox.cif.g08.bks.cpg/sg56_12_cif.got.tgz:22693.got - 2010.06.03 13:42:01.
