data_PCOD9429435
_publ_section_title
;
Structure prediction by ZEFSAII (Michael W. Deem and Ramdas Pophale) SiO2 
 PCOD9429435
Probable space group: P B A M
;
_chemical_formula_sum "Si O2"
_cell_formula_units_Z 40
_cell_length_a 9.000000
_cell_length_b 24.000000
_cell_length_c 9.000000
_cell_angle_alpha 90.000000
_cell_angle_beta 90.000000
_cell_angle_gamma 90.000000
_cell_volume 1944.000000
_symmetry_space_group_name_H-M "P B A M"
_symmetry_group_IT_number 55
_symmetry_cell_setting 'orthorhombic'
loop_
_space_group_symop_operation_xyz
x,y,z
-x,-y,z
1/2+x,1/2-y,-z
1/2-x,1/2+y,-z
-x,-y,-z
x,y,-z
1/2-x,1/2+y,z
1/2+x,1/2-y,z
loop_
_atom_site_type_symbol
_atom_site_label
_atom_site_fract_x
_atom_site_fract_y
_atom_site_fract_z
Si Si1 0.137679 0.795536 0.168983
Si Si2 0.163971 0.215323 0.333027
Si Si3 0.678156 0.413083 0.335891
Si Si4 0.674229 0.597909 0.667937
Si Si5 0.675556 0.003950 0.163040
O O1 0.255729 0.748831 0.205266
O O2 0.206717 0.854588 0.212854
O O3 0.007462 0.786693 0.288009
O O4 0.085435 0.794936 0.000000
O O5 0.183701 0.238177 0.500000
O O6 0.217041 0.151796 0.333190
O O7 0.718977 0.435073 0.500000
O O8 0.500066 0.417361 0.321798
O O9 0.755703 0.444877 0.204155
O O10 0.702029 0.617165 0.500000
O O11 0.769181 0.545135 0.710814
O O12 0.500000 0.000000 0.162937
O O13 0.727638 0.022464 0.000000
#
# Coordination Sequence:
#
# PCOD9429435 Si02
#       5
#     8   8   8   8   8
#     4  11  22  37  59  88 118 149 190 238 287 336
#     4  10  21  39  60  84 116 153 192 233 283 342
#     4   9  20  38  60  83 107 143 190 232 274 334
#     4  10  21  39  61  83 110 147 191 233 279 341
#     4  11  24  38  54  82 117 148 183 231 285 337
#
# _framework density 20.576132000000001
#
# number of rings (size 3 to 8) (size 9 to 14) (size 15 to 20)
#    0.000    1.800    0.000    5.400    0.000   10.400 
#    0.000    4.000    0.000    0.000    0.000    0.000 
#    0.000    0.000    0.000    0.000    0.000    0.000 
#
# Total GULP energy -223051.906597 kJ/mol
# GULP energy per Si atom -5576.297665 kJ/mol
# Density = 2.052930 g / cm^3
# Si number density = 20.576132 Si / 1000 Ang^3
#
#
#
# Elastic Constant Matrix: (Units=GPa)
#
#
# Indices 1 2 3 4 5 6 
#
# 1 3.3605 39.4011 23.1557 0.0000 0.0000 0.0000
# 2 39.4011 50.9397 27.2377 0.0000 0.0000 0.0000
# 3 23.1557 27.2377 95.8235 0.0000 0.0000 0.0000
# 4 0.0000 0.0000 0.0000 47.4212 0.0000 0.0000
# 5 0.0000 0.0000 0.0000 0.0000 14.6447 0.0000
# 6 0.0000 0.0000 0.0000 0.0000 0.0000 17.0673
#
#
#
# Elastic Compliance Matrix: (Units=1/GPa)
#
#
# Indices 1 2 3 4 5 6 
#
# 1 -0.036806 0.027963 0.000946 0.000000 0.000000 0.000000
# 2 0.027963 0.001904 -0.007299 0.000000 0.000000 0.000000
# 3 0.000946 -0.007299 0.012282 0.000000 0.000000 0.000000
# 4 0.000000 0.000000 0.000000 0.021088 0.000000 0.000000
# 5 0.000000 0.000000 0.000000 0.000000 0.068284 0.000000
# 6 0.000000 0.000000 0.000000 0.000000 0.000000 0.058592
#
#
# Mechanical properties :
#
#
# Convention : Reuss Voigt Hill
#
# Bulk Modulus (GPa) = 48.54148 36.63474 42.58811
# Shear Modulus (GPa) = 56.18628 19.84859 38.01743
#
# Velocity S-wave (km/s) = 5.23123 3.10924 4.30309
# Velocity P-wave (km/s) = 7.75436 5.54373 6.74029
#
# Compressibility (1/GPa) = 0.02060094
#
# Stress axis : x y z
#
# Youngs Moduli (GPa) = -27.16929 525.10413 81.42014
#
# Poissons Ratio (x) = -14.68372 -0.07699
# Poissons Ratio (y) = 0.75975 0.59426
# Poissons Ratio (z) = 0.02569 3.83256
#
# Static dielectric constant tensor:
#      x y z
#    x 1.734270 0.000000 0.000000 
#    y 0.000000 1.738060 0.000000 
#    z 0.000000 0.000000 1.711010 
# 
# From -- ./inp_files/2278.got.cif
#   From: 2010.05.17/outbox.ucp.g08.bks.cvg/sg55_2_cif.got.tgz:2278.got - 2010.06.11 16:36:00.
