data_PCOD9429810
_publ_section_title
;
Structure prediction by ZEFSAII (Michael W. Deem and Ramdas Pophale) SiO2 
 PCOD9429810
Probable space group: P C C N
;
_chemical_formula_sum "Si O2"
_cell_formula_units_Z 48
_cell_length_a 17.939840
_cell_length_b 13.011541
_cell_length_c 8.565918
_cell_angle_alpha 90.000000
_cell_angle_beta 90.000000
_cell_angle_gamma 90.000000
_cell_volume 1999.499098
_symmetry_space_group_name_H-M "P C C N"
_symmetry_group_IT_number 56
_symmetry_cell_setting 'orthorhombic'
loop_
_space_group_symop_operation_xyz
x,y,z
1/2-x,1/2-y,z
1/2+x,-y,1/2-z
-x,1/2+y,1/2-z
-x,-y,-z
1/2+x,1/2+y,-z
1/2-x,y,1/2+z
x,1/2-y,1/2+z
loop_
_atom_site_type_symbol
_atom_site_label
_atom_site_fract_x
_atom_site_fract_y
_atom_site_fract_z
Si Si1 0.478219 0.688194 0.260661
Si Si2 0.122080 0.452606 0.595719
Si Si3 0.828221 0.116624 0.692108
Si Si4 0.541778 0.395650 0.089822
Si Si5 0.250000 0.250000 0.878963
Si Si6 0.250000 0.750000 0.559110
Si Si7 0.642836 0.708505 0.378809
O O1 0.415221 0.623948 0.348877
O O2 0.450585 0.804919 0.287381
O O3 0.559492 0.675667 0.338350
O O4 0.477328 0.660044 0.077104
O O5 0.176050 0.508792 0.717762
O O6 0.110440 0.526809 0.443375
O O7 0.140399 0.332570 0.590517
O O8 0.033831 0.452310 0.642510
O O9 0.811325 0.200125 0.828491
O O10 0.780466 0.157659 0.548746
O O11 0.305681 0.311961 0.768905
O O12 0.194078 0.323504 0.976226
#
# Coordination Sequence:
#
# PCOD9429810 Si02
#       7
#     8   8   8   8   4   4   8
#     4  10  18  34  60  80 104 146 192 224 270 340
#     4   9  18  32  54  80 110 140 180 228 276 319
#     4  10  20  36  56  79 108 143 185 230 278 336
#     4   9  18  32  56  85 108 140 186 235 274 320
#     4  10  22  36  54  80 110 146 184 226 284 342
#     4  10  22  36  54  80 110 146 184 226 284 342
#     4  10  20  36  56  79 108 143 185 230 278 336
#
# _framework density 24.006012999999999
#
# number of rings (size 3 to 8) (size 9 to 14) (size 15 to 20)
#    0.000    2.333    0.000    4.000    0.000    1.333 
#    0.000    0.000    0.000  101.000    0.000    0.000 
#    0.000    0.000    0.000    0.000    0.000    0.000 
#
# Total GULP energy -267442.253596 kJ/mol
# GULP energy per Si atom -5571.713617 kJ/mol
# Density = 2.395137 g / cm^3
# Si number density = 24.006013 Si / 1000 Ang^3
#
#
#
# Elastic Constant Matrix: (Units=GPa)
#
#
# Indices 1 2 3 4 5 6 
#
# 1 132.6780 13.4318 38.9771 0.0000 0.0000 0.0000
# 2 13.4318 78.3766 22.5175 0.0000 0.0000 0.0000
# 3 38.9771 22.5175 88.6618 0.0000 0.0000 0.0000
# 4 0.0000 0.0000 0.0000 26.2535 0.0000 0.0000
# 5 0.0000 0.0000 0.0000 0.0000 22.1798 0.0000
# 6 0.0000 0.0000 0.0000 0.0000 0.0000 30.9297
#
#
#
# Elastic Compliance Matrix: (Units=1/GPa)
#
#
# Indices 1 2 3 4 5 6 
#
# 1 0.008668 -0.000421 -0.003703 0.000000 0.000000 0.000000
# 2 -0.000421 0.013784 -0.003315 0.000000 0.000000 0.000000
# 3 -0.003703 -0.003315 0.013749 0.000000 0.000000 0.000000
# 4 0.000000 0.000000 0.000000 0.038090 0.000000 0.000000
# 5 0.000000 0.000000 0.000000 0.000000 0.045086 0.000000
# 6 0.000000 0.000000 0.000000 0.000000 0.000000 0.032331
#
#
# Mechanical properties :
#
#
# Convention : Reuss Voigt Hill
#
# Bulk Modulus (GPa) = 46.90484 49.95214 48.42849
# Shear Modulus (GPa) = 28.78611 30.85859 29.82235
#
# Velocity S-wave (km/s) = 3.46659 3.58921 3.52843
# Velocity P-wave (km/s) = 5.96692 6.16684 6.06771
#
# Compressibility (1/GPa) = 0.02131976
#
# Stress axis : x y z
#
# Youngs Moduli (GPa) = 115.37125 72.54983 72.73308
#
# Poissons Ratio (x) = 0.03058 0.26936
# Poissons Ratio (y) = 0.04862 0.24114
# Poissons Ratio (z) = 0.42727 0.24053
#
# Static dielectric constant tensor:
#      x y z
#    x 1.990160 0.000000 0.000000 
#    y 0.000000 2.077780 0.000000 
#    z 0.000000 0.000000 1.978910 
# 
# From -- ./inp_files/4425.got.cif
#   From: 2010.05.17/outbox.cif.g08.bks.cpg/sg56_3_cif.got.tgz:4425.got - 2010.06.03 13:42:01.
