data_PCOD9429791
_publ_section_title
;
Structure prediction by ZEFSAII (Michael W. Deem and Ramdas Pophale) SiO2 
 PCOD9429791
Probable space group: P C C N
;
_chemical_formula_sum "Si O2"
_cell_formula_units_Z 64
_cell_length_a 26.378665
_cell_length_b 19.292053
_cell_length_c 5.314117
_cell_angle_alpha 90.000000
_cell_angle_beta 90.000000
_cell_angle_gamma 90.000000
_cell_volume 2704.346719
_symmetry_space_group_name_H-M "P C C N"
_symmetry_group_IT_number 56
_symmetry_cell_setting 'orthorhombic'
loop_
_space_group_symop_operation_xyz
x,y,z
1/2-x,1/2-y,z
1/2+x,-y,1/2-z
-x,1/2+y,1/2-z
-x,-y,-z
1/2+x,1/2+y,-z
1/2-x,y,1/2+z
x,1/2-y,1/2+z
loop_
_atom_site_type_symbol
_atom_site_label
_atom_site_fract_x
_atom_site_fract_y
_atom_site_fract_z
Si Si1 0.222278 0.977408 0.723413
Si Si2 0.950062 0.085655 0.592479
Si Si3 0.065183 0.436722 0.166797
Si Si4 0.560055 0.276687 0.283267
Si Si5 0.264808 0.135475 0.688364
Si Si6 0.674980 0.220997 0.256143
Si Si7 0.144130 0.571501 0.574433
Si Si8 0.627530 0.577405 0.815174
O O1 0.245406 0.951759 0.463994
O O2 0.166167 0.950236 0.799270
O O3 0.232459 0.061303 0.715805
O O4 0.937349 0.147930 0.404197
O O5 0.008179 0.091424 0.675268
O O6 0.847122 0.999104 0.778309
O O7 0.913889 0.085023 0.838574
O O8 0.058125 0.515577 0.067105
O O9 0.092391 0.429522 0.436904
O O10 0.097277 0.403817 0.936894
O O11 0.535549 0.268863 0.008175
O O12 0.617054 0.249709 0.229649
O O13 0.240455 0.171108 0.452860
O O14 0.323880 0.123816 0.639841
O O15 0.697287 0.232805 0.980900
O O16 0.671176 0.141867 0.341760
#
# Coordination Sequence:
#
# PCOD9429791 Si02
#       8
#     8   8   8   8   8   8   8   8
#     4  10  21  35  50  81  93 129 180 225 290 328
#     4  10  22  40  56  81 116 141 193 229 276 352
#     4  10  25  36  53  82 113 156 172 226 290 339
#     4  10  20  35  55  80  99 135 188 237 269 316
#     4  10  18  34  54  79 101 132 188 232 262 331
#     4  10  21  35  49  81  92 127 179 225 289 314
#     4  11  21  34  62  73 104 135 172 248 265 329
#     4  11  22  35  55  81 109 144 184 225 283 327
#
# _framework density 23.665604999999999
#
# number of rings (size 3 to 8) (size 9 to 14) (size 15 to 20)
#    0.000    1.750    5.000    0.750    5.250    6.500 
#    0.000    0.000    0.000    2.250    0.000    0.000 
#    0.000    0.000    0.000    0.000    0.000   43.750 
#
# Total GULP energy -357269.405684 kJ/mol
# GULP energy per Si atom -5582.334464 kJ/mol
# Density = 2.361174 g / cm^3
# Si number density = 23.665605 Si / 1000 Ang^3
#
#
#
# Elastic Constant Matrix: (Units=GPa)
#
#
# Indices 1 2 3 4 5 6 
#
# 1 100.7463 14.6661 45.3307 0.0000 0.0000 0.0000
# 2 14.6661 41.6958 0.7082 0.0000 0.0000 0.0000
# 3 45.3307 0.7082 165.8584 0.0000 0.0000 0.0000
# 4 0.0000 0.0000 0.0000 -0.2718 0.0000 0.0000
# 5 0.0000 0.0000 0.0000 0.0000 40.3717 0.0000
# 6 0.0000 0.0000 0.0000 0.0000 0.0000 11.0660
#
#
#
# Elastic Compliance Matrix: (Units=1/GPa)
#
#
# Indices 1 2 3 4 5 6 
#
# 1 0.012000 -0.004165 -0.003262 0.000000 0.000000 0.000000
# 2 -0.004165 0.025431 0.001030 0.000000 0.000000 0.000000
# 3 -0.003262 0.001030 0.006916 0.000000 0.000000 0.000000
# 4 0.000000 0.000000 0.000000 -3.679706 0.000000 0.000000
# 5 0.000000 0.000000 0.000000 0.000000 0.024770 0.000000
# 6 0.000000 0.000000 0.000000 0.000000 0.000000 0.090367
#
#
# Mechanical properties :
#
#
# Convention : Reuss Voigt Hill
#
# Bulk Modulus (GPa) = 31.69349 47.74560 39.71955
# Shear Modulus (GPa) = -1.42983 26.73957 12.65487
#
# Velocity S-wave (km/s) = -0.77813 3.36503 2.31495
# Velocity P-wave (km/s) = 3.55161 5.94280 4.89545
#
# Compressibility (1/GPa) = 0.03155222
#
# Stress axis : x y z
#
# Youngs Moduli (GPa) = 83.33325 39.32222 144.58478
#
# Poissons Ratio (x) = 0.16380 0.47163
# Poissons Ratio (y) = 0.34712 -0.14890
# Poissons Ratio (z) = 0.27183 -0.04050
#
# Static dielectric constant tensor:
#      x y z
#    x 1.976300 0.000000 0.000000 
#    y 0.000000 1.916810 0.000000 
#    z 0.000000 0.000000 1.998950 
# 
# From -- ./inp_files/1257.got.cif
#   From: 2010.05.17/outbox.cif.g08.bks.cpg/sg56_1_cif.got.tgz:1257.got - 2010.06.03 13:42:01.
