data_PCOD9429400
_publ_section_title
;
Structure prediction by ZEFSAII (Michael W. Deem and Ramdas Pophale) SiO2 
 PCOD9429400
Probable space group: P B A M
;
_chemical_formula_sum "Si O2"
_cell_formula_units_Z 64
_cell_length_a 24.000000
_cell_length_b 15.000000
_cell_length_c 9.000000
_cell_angle_alpha 90.000000
_cell_angle_beta 90.000000
_cell_angle_gamma 90.000000
_cell_volume 3240.000000
_symmetry_space_group_name_H-M "P B A M"
_symmetry_group_IT_number 55
_symmetry_cell_setting 'orthorhombic'
loop_
_space_group_symop_operation_xyz
x,y,z
-x,-y,z
1/2+x,1/2-y,-z
1/2-x,1/2+y,-z
-x,-y,-z
x,y,-z
1/2-x,1/2+y,z
1/2+x,1/2-y,z
loop_
_atom_site_type_symbol
_atom_site_label
_atom_site_fract_x
_atom_site_fract_y
_atom_site_fract_z
Si Si1 0.657210 0.895222 0.323645
Si Si2 0.552072 0.223319 0.322855
Si Si3 0.838580 0.607701 0.675943
Si Si4 0.112994 0.099569 0.322179
Si Si5 0.438248 0.223137 0.176259
Si Si6 0.610299 0.606674 0.677160
Si Si7 0.728669 0.392617 0.169198
Si Si8 0.225826 0.890738 0.168726
O O1 0.654766 0.880814 0.500000
O O2 0.608684 0.841069 0.244076
O O3 0.717016 0.864880 0.260353
O O4 0.652184 0.001977 0.296139
O O5 0.540989 0.216918 0.500000
O O6 0.606311 0.163759 0.290403
O O7 0.567076 0.326246 0.288043
O O8 0.498704 0.193120 0.232122
O O9 0.826496 0.617080 0.500000
O O10 0.784845 0.639991 0.767012
O O11 0.121614 0.099735 0.500000
O O12 0.170451 0.129439 0.246209
O O13 0.099815 0.997070 0.280361
O O14 0.428031 0.322035 0.241470
O O15 0.434399 0.224166 0.000000
O O16 0.604254 0.614623 0.500000
O O17 0.673405 0.629656 0.727108
O O18 0.729466 0.501104 0.166522
O O19 0.731192 0.360651 0.000000
O O20 0.215967 0.860104 0.000000
#
# Coordination Sequence:
#
# PCOD9429400 Si02
#       8
#     8   8   8   8   8   8   8   8
#     4  10  20  37  60  84 112 148 188 230 277 330
#     4  10  22  41  60  81 110 145 189 233 273 326
#     4   9  19  36  60  86 113 148 188 229 274 329
#     4   9  19  36  60  86 113 148 188 229 274 329
#     4  12  26  41  56  79 110 145 189 237 285 336
#     4  10  20  37  60  84 112 148 188 230 277 330
#     4   9  17  31  54  85 119 150 182 225 277 331
#     4   9  17  31  54  85 119 150 182 225 277 331
#
# _framework density 19.753086
#
# number of rings (size 3 to 8) (size 9 to 14) (size 15 to 20)
#    0.000    2.250    0.000    2.625    0.000    7.000 
#    0.000    8.750    0.000    0.000    0.000    0.000 
#    0.000    0.000    0.000    0.000    0.000    0.000 
#
# Total GULP energy -357610.018492 kJ/mol
# GULP energy per Si atom -5587.656539 kJ/mol
# Density = 1.970813 g / cm^3
# Si number density = 19.753086 Si / 1000 Ang^3
#
#
#
# Elastic Constant Matrix: (Units=GPa)
#
#
# Indices 1 2 3 4 5 6 
#
# 1 61.4812 4.0159 26.6694 0.0000 0.0000 0.0000
# 2 4.0159 29.0564 14.5886 0.0000 0.0000 0.0000
# 3 26.6694 14.5886 54.4447 0.0000 0.0000 0.0000
# 4 0.0000 0.0000 0.0000 18.2988 0.0000 0.0000
# 5 0.0000 0.0000 0.0000 0.0000 133.3657 0.0000
# 6 0.0000 0.0000 0.0000 0.0000 0.0000 7.8051
#
#
#
# Elastic Compliance Matrix: (Units=1/GPa)
#
#
# Indices 1 2 3 4 5 6 
#
# 1 0.020821 0.002592 -0.010894 0.000000 0.000000 0.000000
# 2 0.002592 0.040088 -0.012011 0.000000 0.000000 0.000000
# 3 -0.010894 -0.012011 0.026922 0.000000 0.000000 0.000000
# 4 0.000000 0.000000 0.000000 0.054648 0.000000 0.000000
# 5 0.000000 0.000000 0.000000 0.000000 0.007498 0.000000
# 6 0.000000 0.000000 0.000000 0.000000 0.000000 0.128122
#
#
# Mechanical properties :
#
#
# Convention : Reuss Voigt Hill
#
# Bulk Modulus (GPa) = 21.18417 26.17001 23.67709
# Shear Modulus (GPa) = 14.94943 38.54114 26.74529
#
# Velocity S-wave (km/s) = 2.75401 4.42197 3.68364
# Velocity P-wave (km/s) = 4.56733 6.27288 5.48678
#
# Compressibility (1/GPa) = 0.04720506
#
# Stress axis : x y z
#
# Youngs Moduli (GPa) = 48.02766 24.94498 37.14449
#
# Poissons Ratio (x) = -0.06465 0.40464
# Poissons Ratio (y) = -0.12447 0.44615
# Poissons Ratio (z) = 0.52320 0.29962
#
# Static dielectric constant tensor:
#      x y z
#    x 1.666670 0.000000 0.000000 
#    y 0.000000 1.719420 0.000000 
#    z 0.000000 0.000000 1.662270 
# 
# From -- ./inp_files/9659.got.cif
#   From: 2010.05.17/outbox.ucp.g08.bks.cvg/sg55_5_cif.got.tgz:9659.got - 2010.06.11 16:36:00.
