data_PCOD9429770
_publ_section_title
;
Structure prediction by ZEFSAII (Michael W. Deem and Ramdas Pophale) SiO2 
 PCOD9429770
Probable space group: P C C N
;
_chemical_formula_sum "Si O2"
_cell_formula_units_Z 64
_cell_length_a 22.142844
_cell_length_b 8.277613
_cell_length_c 16.375926
_cell_angle_alpha 90.000000
_cell_angle_beta 90.000000
_cell_angle_gamma 90.000000
_cell_volume 3001.541730
_symmetry_space_group_name_H-M "P C C N"
_symmetry_group_IT_number 56
_symmetry_cell_setting 'orthorhombic'
loop_
_space_group_symop_operation_xyz
x,y,z
1/2-x,1/2-y,z
1/2+x,-y,1/2-z
-x,1/2+y,1/2-z
-x,-y,-z
1/2+x,1/2+y,-z
1/2-x,y,1/2+z
x,1/2-y,1/2+z
loop_
_atom_site_type_symbol
_atom_site_label
_atom_site_fract_x
_atom_site_fract_y
_atom_site_fract_z
Si Si1 0.497573 0.885963 0.876583
Si Si2 0.368061 0.817812 0.666048
Si Si3 0.002116 0.704253 0.227065
Si Si4 0.715120 0.104442 0.928354
Si Si5 0.060892 0.137866 0.914103
Si Si6 0.696826 0.862144 0.343601
Si Si7 0.379268 0.135663 0.034576
Si Si8 0.067519 0.688875 0.493496
O O1 0.509727 0.726037 0.822354
O O2 0.557522 0.922163 0.927313
O O3 0.442801 0.844695 0.936536
O O4 0.488826 0.033292 0.814800
O O5 0.427775 0.753799 0.711693
O O6 0.315758 0.682634 0.653639
O O7 0.389283 0.829566 0.570988
O O8 0.342933 0.991796 0.696902
O O9 0.957877 0.825141 0.177838
O O10 0.750000 0.250000 0.470736
O O11 0.763488 0.969928 0.905139
O O12 0.664183 0.014579 0.978316
O O13 0.081479 0.958437 0.933291
O O14 0.107707 0.261229 0.954296
O O15 0.999017 0.166202 0.965794
O O16 0.750000 0.750000 0.301978
O O17 0.652378 0.746960 0.395357
#
# Coordination Sequence:
#
# PCOD9429770 Si02
#       8
#     8   8   8   8   8   8   8   8
#     4  11  23  34  50  77 112 145 181 215 262 335
#     4  10  18  33  55  79 112 138 170 225 275 313
#     4  11  23  34  50  77 112 146 180 216 261 334
#     4   9  18  31  50  81 108 127 176 228 269 309
#     4   9  18  31  51  76 106 140 170 204 259 326
#     4   9  18  31  52  81 106 131 174 224 271 311
#     4  10  18  33  55  79 110 138 172 221 277 320
#     4   9  18  31  51  76 106 141 169 204 262 322
#
# _framework density 21.322375999999998
#
# number of rings (size 3 to 8) (size 9 to 14) (size 15 to 20)
#    0.000    2.250    2.500    0.750    5.250    1.500 
#    0.000    0.000    0.000    0.000    0.000   26.250 
#    0.000    0.000    0.000    0.000    0.000    0.000 
#
# Total GULP energy -356832.745308 kJ/mol
# GULP energy per Si atom -5575.511645 kJ/mol
# Density = 2.127385 g / cm^3
# Si number density = 21.322376 Si / 1000 Ang^3
#
#
#
# Elastic Constant Matrix: (Units=GPa)
#
#
# Indices 1 2 3 4 5 6 
#
# 1 72.7670 28.3805 3.2441 0.0000 0.0000 0.0000
# 2 28.3805 98.3081 11.4259 0.0000 0.0000 0.0000
# 3 3.2441 11.4259 46.0218 0.0000 0.0000 0.0000
# 4 0.0000 0.0000 0.0000 28.5969 0.0000 0.0000
# 5 0.0000 0.0000 0.0000 0.0000 9.9848 0.0000
# 6 0.0000 0.0000 0.0000 0.0000 0.0000 39.2925
#
#
#
# Elastic Compliance Matrix: (Units=1/GPa)
#
#
# Indices 1 2 3 4 5 6 
#
# 1 0.015486 -0.004473 0.000019 0.000000 0.000000 0.000000
# 2 -0.004473 0.011766 -0.002606 0.000000 0.000000 0.000000
# 3 0.000019 -0.002606 0.022374 0.000000 0.000000 0.000000
# 4 0.000000 0.000000 0.000000 0.034969 0.000000 0.000000
# 5 0.000000 0.000000 0.000000 0.000000 0.100152 0.000000
# 6 0.000000 0.000000 0.000000 0.000000 0.000000 0.025450
#
#
# Mechanical properties :
#
#
# Convention : Reuss Voigt Hill
#
# Bulk Modulus (GPa) = 28.16348 33.68867 30.92608
# Shear Modulus (GPa) = 21.17267 27.17792 24.17530
#
# Velocity S-wave (km/s) = 3.15458 3.57405 3.37085
# Velocity P-wave (km/s) = 5.14835 5.73287 5.44846
#
# Compressibility (1/GPa) = 0.03550698
#
# Stress axis : x y z
#
# Youngs Moduli (GPa) = 64.57377 84.98883 44.69376
#
# Poissons Ratio (x) = 0.38015 -0.00084
# Poissons Ratio (y) = 0.28883 0.11647
# Poissons Ratio (z) = -0.00122 0.22147
#
# Static dielectric constant tensor:
#      x y z
#    x 1.829300 0.000000 0.000000 
#    y 0.000000 1.896300 0.000000 
#    z 0.000000 0.000000 1.715280 
# 
# From -- ./inp_files/16971.got.cif
#   From: 2010.05.17/outbox.cif.g08.bks.cpg/sg56_9_cif.got.tgz:16971.got - 2010.06.03 13:42:01.
