data_PCOD9429092
_publ_section_title
;
Structure prediction by ZEFSAII (Michael W. Deem and Ramdas Pophale) SiO2 
 PCOD9429092
Probable space group: P B A M
;
_chemical_formula_sum "Si O2"
_cell_formula_units_Z 48
_cell_length_a 28.935631
_cell_length_b 7.975358
_cell_length_c 7.944180
_cell_angle_alpha 90.000000
_cell_angle_beta 90.000000
_cell_angle_gamma 90.000000
_cell_volume 1833.294436
_symmetry_space_group_name_H-M "P B A M"
_symmetry_group_IT_number 55
_symmetry_cell_setting 'orthorhombic'
loop_
_space_group_symop_operation_xyz
x,y,z
-x,-y,z
1/2+x,1/2-y,-z
1/2-x,1/2+y,-z
-x,-y,-z
x,y,-z
1/2-x,1/2+y,z
1/2+x,1/2-y,z
loop_
_atom_site_type_symbol
_atom_site_label
_atom_site_fract_x
_atom_site_fract_y
_atom_site_fract_z
Si Si1 0.851768 0.153986 0.705149
Si Si2 0.515640 0.757016 0.200565
Si Si3 0.429979 0.576966 0.695515
Si Si4 0.760632 0.984573 0.695949
Si Si5 0.179253 0.325544 0.194869
Si Si6 0.906185 0.485152 0.802322
O O1 0.855676 0.165089 0.500000
O O2 0.875878 0.314327 0.784147
O O3 0.880825 0.988804 0.761453
O O4 0.798513 0.125176 0.745223
O O5 0.540242 0.595276 0.282044
O O6 0.461117 0.723743 0.225587
O O7 0.544215 0.918786 0.263909
O O8 0.523180 0.750397 0.000000
O O9 0.426365 0.614757 0.500000
O O10 0.748692 0.000841 0.500000
O O11 0.790356 0.816349 0.716979
O O12 0.713640 0.014164 0.794706
O O13 0.129287 0.376586 0.270562
O O14 0.173370 0.280935 0.000000
O O15 0.911603 0.522934 0.000000
#
# Coordination Sequence:
#
# PCOD9429092 Si02
#       6
#     8   8   8   8   8   8
#     4   9  19  33  51  75 105 136 170 210 255 303
#     4   9  15  25  42  68  99 131 165 205 248 294
#     4   9  15  25  42  68  99 131 165 205 248 294
#     4  11  23  39  57  79 105 136 172 214 260 311
#     4  11  23  39  57  79 105 136 172 214 260 311
#     4   9  19  33  51  75 105 136 170 210 255 303
#
# _framework density 26.182373999999999
#
# number of rings (size 3 to 8) (size 9 to 14) (size 15 to 20)
#    0.000    2.333    0.000    4.000    0.000    6.667 
#    0.000    0.000    0.000    1.000    0.000    7.000 
#    0.000    0.000    0.000    0.000    0.000    0.000 
#
# Total GULP energy -268400.850337 kJ/mol
# GULP energy per Si atom -5591.684382 kJ/mol
# Density = 2.612278 g / cm^3
# Si number density = 26.182374 Si / 1000 Ang^3
#
#
#
# Elastic Constant Matrix: (Units=GPa)
#
#
# Indices 1 2 3 4 5 6 
#
# 1 176.2042 9.3889 22.7398 0.0000 0.0000 0.0000
# 2 9.3889 98.6130 7.4787 0.0000 0.0000 0.0000
# 3 22.7398 7.4787 62.2738 0.0000 0.0000 0.0000
# 4 0.0000 0.0000 0.0000 36.3343 0.0000 0.0000
# 5 0.0000 0.0000 0.0000 0.0000 27.3576 0.0000
# 6 0.0000 0.0000 0.0000 0.0000 0.0000 53.1165
#
#
#
# Elastic Compliance Matrix: (Units=1/GPa)
#
#
# Indices 1 2 3 4 5 6 
#
# 1 0.005972 -0.000407 -0.002132 0.000000 0.000000 0.000000
# 2 -0.000407 0.010262 -0.001084 0.000000 0.000000 0.000000
# 3 -0.002132 -0.001084 0.016967 0.000000 0.000000 0.000000
# 4 0.000000 0.000000 0.000000 0.027522 0.000000 0.000000
# 5 0.000000 0.000000 0.000000 0.000000 0.036553 0.000000
# 6 0.000000 0.000000 0.000000 0.000000 0.000000 0.018827
#
#
# Mechanical properties :
#
#
# Convention : Reuss Voigt Hill
#
# Bulk Modulus (GPa) = 38.52785 46.25621 42.39203
# Shear Modulus (GPa) = 37.87909 43.19391 40.53650
#
# Velocity S-wave (km/s) = 3.80773 4.06610 3.93903
# Velocity P-wave (km/s) = 5.83771 6.30472 6.07570
#
# Compressibility (1/GPa) = 0.02595525
#
# Stress axis : x y z
#
# Youngs Moduli (GPa) = 167.44697 97.45081 58.93887
#
# Poissons Ratio (x) = 0.03965 0.12565
# Poissons Ratio (y) = 0.06814 0.06388
# Poissons Ratio (z) = 0.35697 0.10561
#
# Static dielectric constant tensor:
#      x y z
#    x 2.094300 0.000000 0.000000 
#    y 0.000000 2.199410 0.000000 
#    z 0.000000 0.000000 1.895830 
# 
# From -- ./inp_files/10488.got.cif
#   From: 2010.05.17/outbox.cif.g08.bks.cpg/sg55_6_cif.got.tgz:10488.got - 2010.06.03 13:27:54.
