data_PCOD9429689
_publ_section_title
;
Structure prediction by ZEFSAII (Michael W. Deem and Ramdas Pophale) SiO2 
 PCOD9429689
Probable space group: P C C N
;
_chemical_formula_sum "Si O2"
_cell_formula_units_Z 48
_cell_length_a 14.674588
_cell_length_b 8.506394
_cell_length_c 13.166684
_cell_angle_alpha 90.000000
_cell_angle_beta 90.000000
_cell_angle_gamma 90.000000
_cell_volume 1643.568557
_symmetry_space_group_name_H-M "P C C N"
_symmetry_group_IT_number 56
_symmetry_cell_setting 'orthorhombic'
loop_
_space_group_symop_operation_xyz
x,y,z
1/2-x,1/2-y,z
1/2+x,-y,1/2-z
-x,1/2+y,1/2-z
-x,-y,-z
1/2+x,1/2+y,-z
1/2-x,y,1/2+z
x,1/2-y,1/2+z
loop_
_atom_site_type_symbol
_atom_site_label
_atom_site_fract_x
_atom_site_fract_y
_atom_site_fract_z
Si Si1 0.382083 0.667899 0.520894
Si Si2 0.389719 0.000533 0.516329
Si Si3 0.084777 0.006769 0.250973
Si Si4 0.382981 0.647018 0.756719
Si Si5 0.843074 0.675870 0.764918
Si Si6 0.100418 0.164468 0.505164
O O1 0.354161 0.834952 0.473932
O O2 0.355133 0.669840 0.638886
O O3 0.354188 0.500668 0.476342
O O4 0.493065 0.664863 0.522939
O O5 0.375838 0.997895 0.637050
O O6 0.500000 0.000000 0.500000
O O7 0.356402 0.168321 0.479555
O O8 0.101856 0.828807 0.292637
O O9 0.115288 0.175844 0.297403
O O10 0.978424 0.050539 0.234591
O O11 0.321939 0.494052 0.785065
O O12 0.750000 0.750000 0.800993
O O13 0.899357 0.658169 0.870300
#
# Coordination Sequence:
#
# PCOD9429689 Si02
#       6
#     8   8   8   8   8   8
#     4   8  14  24  42  66  91 115 152 193 236 284
#     4   8  14  24  40  65  91 116 150 198 241 278
#     4  10  18  30  49  72  99 130 169 214 250 301
#     4  10  18  30  49  74 100 129 170 213 250 303
#     4  10  20  32  48  72 103 130 164 212 265 305
#     4   8  14  26  42  63  91 120 150 190 241 289
#
# _framework density 29.204742
#
# number of rings (size 3 to 8) (size 9 to 14) (size 15 to 20)
#    0.000    3.000    1.667    0.000    0.000    0.667 
#    0.000    0.000    0.000    1.000    0.000    0.000 
#    0.000    0.000    0.000    0.000    0.000    0.000 
#
# Total GULP energy -267892.855865 kJ/mol
# GULP energy per Si atom -5581.101164 kJ/mol
# Density = 2.913827 g / cm^3
# Si number density = 29.204742 Si / 1000 Ang^3
#
#
#
# Elastic Constant Matrix: (Units=GPa)
#
#
# Indices 1 2 3 4 5 6 
#
# 1 56.7194 12.3795 5.0343 0.0000 0.0000 0.0000
# 2 12.3795 435.5522 72.1714 0.0000 0.0000 0.0000
# 3 5.0343 72.1714 88.2993 0.0000 0.0000 0.0000
# 4 0.0000 0.0000 0.0000 70.5882 0.0000 0.0000
# 5 0.0000 0.0000 0.0000 0.0000 -2.5828 0.0000
# 6 0.0000 0.0000 0.0000 0.0000 0.0000 33.4425
#
#
#
# Elastic Compliance Matrix: (Units=1/GPa)
#
#
# Indices 1 2 3 4 5 6 
#
# 1 0.017777 -0.000390 -0.000695 0.000000 0.000000 0.000000
# 2 -0.000390 0.002664 -0.002155 0.000000 0.000000 0.000000
# 3 -0.000695 -0.002155 0.013126 0.000000 0.000000 0.000000
# 4 0.000000 0.000000 0.000000 0.014167 0.000000 0.000000
# 5 0.000000 0.000000 0.000000 0.000000 -0.387181 0.000000
# 6 0.000000 0.000000 0.000000 0.000000 0.000000 0.029902
#
#
# Mechanical properties :
#
#
# Convention : Reuss Voigt Hill
#
# Bulk Modulus (GPa) = 36.91712 84.41571 60.66641
# Shear Modulus (GPa) = -17.00482 53.02196 18.00857
#
# Velocity S-wave (km/s) = -2.41563 4.26552 2.48590
# Velocity P-wave (km/s) = 2.21086 7.29569 5.39050
#
# Compressibility (1/GPa) = 0.02708771
#
# Stress axis : x y z
#
# Youngs Moduli (GPa) = 56.25098 375.35261 76.18260
#
# Poissons Ratio (x) = 0.14645 0.05292
# Poissons Ratio (y) = 0.02195 0.16420
# Poissons Ratio (z) = 0.03908 0.80900
#
# Static dielectric constant tensor:
#      x y z
#    x 2.264090 0.000000 0.000000 
#    y 0.000000 2.436880 0.000000 
#    z 0.000000 0.000000 1.940610 
# 
# From -- ./inp_files/18072.got.cif
#   From: 2010.05.17/outbox.cif.g08.bks.cpg/sg56_10_cif.got.tgz:18072.got - 2010.06.03 13:42:01.
