data_PCOD9429295
_publ_section_title
;
Structure prediction by ZEFSAII (Michael W. Deem and Ramdas Pophale) SiO2 
 PCOD9429295
Probable space group: P B A M
;
_chemical_formula_sum "Si O2"
_cell_formula_units_Z 48
_cell_length_a 9.000000
_cell_length_b 30.000000
_cell_length_c 9.000000
_cell_angle_alpha 90.000000
_cell_angle_beta 90.000000
_cell_angle_gamma 90.000000
_cell_volume 2430.000000
_symmetry_space_group_name_H-M "P B A M"
_symmetry_group_IT_number 55
_symmetry_cell_setting 'orthorhombic'
loop_
_space_group_symop_operation_xyz
x,y,z
-x,-y,z
1/2+x,1/2-y,-z
1/2-x,1/2+y,-z
-x,-y,-z
x,y,-z
1/2-x,1/2+y,z
1/2+x,1/2-y,z
loop_
_atom_site_type_symbol
_atom_site_label
_atom_site_fract_x
_atom_site_fract_y
_atom_site_fract_z
Si Si1 0.010231 0.366029 0.326470
Si Si2 0.335049 0.220917 0.680993
Si Si3 0.903144 0.456605 0.176385
Si Si4 0.343391 0.391590 0.325544
Si Si5 0.506090 0.307653 0.681911
Si Si6 0.327775 0.490319 0.667449
O O1 0.968316 0.370874 0.500000
O O2 0.941143 0.319751 0.271955
O O3 0.954988 0.410191 0.244516
O O4 0.187968 0.365602 0.319081
O O5 0.338648 0.222171 0.500000
O O6 0.391806 0.269205 0.730140
O O7 0.168906 0.208506 0.725564
O O8 0.743573 0.470864 0.236553
O O9 0.000000 0.500000 0.223577
O O10 0.908676 0.453693 0.000000
O O11 0.379997 0.400159 0.500000
O O12 0.464483 0.357228 0.264571
O O13 0.315484 0.440862 0.262590
O O14 0.501254 0.309611 0.500000
O O15 0.500000 0.500000 0.654215
O O16 0.260540 0.490297 0.500000
#
# Coordination Sequence:
#
# PCOD9429295 Si02
#       6
#     8   8   8   8   8   8
#     4  10  19  32  53  78 104 138 178 220 268 313
#     4   9  17  27  45  73 106 139 169 211 264 319
#     4  11  23  38  55  77 107 145 184 222 267 321
#     4   9  17  29  46  72 106 138 169 215 265 312
#     4   9  16  27  43  71 109 139 168 209 264 319
#     4  10  21  35  55  81 109 141 179 224 272 319
#
# _framework density 19.753086
#
# number of rings (size 3 to 8) (size 9 to 14) (size 15 to 20)
#    0.000    2.333    1.667    1.500    2.333    5.000 
#    0.000    0.000    0.000    0.000    0.000    5.833 
#    0.000    0.000    0.000    0.000    0.000    0.000 
#
# Total GULP energy -267541.258494 kJ/mol
# GULP energy per Si atom -5573.776219 kJ/mol
# Density = 1.970813 g / cm^3
# Si number density = 19.753086 Si / 1000 Ang^3
#
#
#
# Elastic Constant Matrix: (Units=GPa)
#
#
# Indices 1 2 3 4 5 6 
#
# 1 29.7213 -2.9299 2.6173 0.0000 0.0000 0.0000
# 2 -2.9299 69.0177 2.8827 0.0000 0.0000 0.0000
# 3 2.6173 2.8827 7.7039 0.0000 0.0000 0.0000
# 4 0.0000 0.0000 0.0000 318.7685 0.0000 0.0000
# 5 0.0000 0.0000 0.0000 0.0000 -5.0764 0.0000
# 6 0.0000 0.0000 0.0000 0.0000 0.0000 37.6227
#
#
#
# Elastic Compliance Matrix: (Units=1/GPa)
#
#
# Indices 1 2 3 4 5 6 
#
# 1 0.034956 0.002011 -0.012629 0.000000 0.000000 0.000000
# 2 0.002011 0.014835 -0.006234 0.000000 0.000000 0.000000
# 3 -0.012629 -0.006234 0.136429 0.000000 0.000000 0.000000
# 4 0.000000 0.000000 0.000000 0.003137 0.000000 0.000000
# 5 0.000000 0.000000 0.000000 0.000000 -0.196991 0.000000
# 6 0.000000 0.000000 0.000000 0.000000 0.000000 0.026580
#
#
# Mechanical properties :
#
#
# Convention : Reuss Voigt Hill
#
# Bulk Modulus (GPa) = 6.55669 12.39815 9.47742
# Shear Modulus (GPa) = 48.31464 77.18782 62.75123
#
# Velocity S-wave (km/s) = 4.95100 6.25789 5.64241
# Velocity P-wave (km/s) = 6.00081 7.64886 6.87440
#
# Compressibility (1/GPa) = 0.15251596
#
# Stress axis : x y z
#
# Youngs Moduli (GPa) = 28.60713 67.40897 7.32984
#
# Poissons Ratio (x) = -0.13559 0.09257
# Poissons Ratio (y) = -0.05754 0.04570
# Poissons Ratio (z) = 0.36128 0.42026
#
# Static dielectric constant tensor:
#      x y z
#    x 1.776130 0.000000 0.000000 
#    y 0.000000 1.700650 0.000000 
#    z 0.000000 0.000000 1.665590 
# 
# From -- ./inp_files/2866.got.cif
#   From: 2010.05.17/outbox.ucp.g08.bks.cvg/sg55_2_cif.got.tgz:2866.got - 2010.06.11 16:36:00.
