data_PCOD9429403
_publ_section_title
;
Structure prediction by ZEFSAII (Michael W. Deem and Ramdas Pophale) SiO2 
 PCOD9429403
Probable space group: P B A M
;
_chemical_formula_sum "Si O2"
_cell_formula_units_Z 64
_cell_length_a 12.000000
_cell_length_b 30.000000
_cell_length_c 9.000000
_cell_angle_alpha 90.000000
_cell_angle_beta 90.000000
_cell_angle_gamma 90.000000
_cell_volume 3240.000000
_symmetry_space_group_name_H-M "P B A M"
_symmetry_group_IT_number 55
_symmetry_cell_setting 'orthorhombic'
loop_
_space_group_symop_operation_xyz
x,y,z
-x,-y,z
1/2+x,1/2-y,-z
1/2-x,1/2+y,-z
-x,-y,-z
x,y,-z
1/2-x,1/2+y,z
1/2+x,1/2-y,z
loop_
_atom_site_type_symbol
_atom_site_label
_atom_site_fract_x
_atom_site_fract_y
_atom_site_fract_z
Si Si1 0.772796 0.830709 0.322253
Si Si2 0.801715 0.933448 0.681095
Si Si3 0.839499 0.158516 0.320326
Si Si4 0.716787 0.023084 0.680877
Si Si5 0.510227 0.270404 0.322128
Si Si6 0.455120 0.182271 0.175851
Si Si7 0.449346 0.433061 0.679955
Si Si8 0.607170 0.113089 0.680042
O O1 0.750992 0.829248 0.500000
O O2 0.781745 0.882528 0.276246
O O3 0.886184 0.803519 0.297423
O O4 0.669550 0.810606 0.234903
O O5 0.802340 0.933793 0.500000
O O6 0.927629 0.945942 0.730345
O O7 0.714215 0.971519 0.728435
O O8 0.836018 0.160524 0.500000
O O9 0.716809 0.142241 0.275495
O O10 0.897337 0.204086 0.271436
O O11 0.923235 0.118166 0.282397
O O12 0.713010 0.023640 0.500000
O O13 0.631131 0.061850 0.726185
O O14 0.839964 0.040147 0.726773
O O15 0.503116 0.262229 0.500000
O O16 0.524243 0.224038 0.239102
O O17 0.502694 0.137027 0.247647
O O18 0.460283 0.180191 0.000000
O O19 0.450833 0.436605 0.500000
O O20 0.598202 0.114317 0.500000
#
# Coordination Sequence:
#
# PCOD9429403 Si02
#       8
#     8   8   8   8   8   8   8   8
#     4  10  21  38  61  86 114 146 186 230 277 338
#     4   9  14  24  46  81 118 147 176 220 276 329
#     4   8  14  27  51  82 111 139 171 213 265 326
#     4   8  14  23  45  81 118 148 177 220 275 329
#     4  10  20  37  61  86 109 139 182 229 281 339
#     4  12  27  42  56  76 109 149 192 239 285 331
#     4   8  11  19  38  74 120 149 164 200 267 333
#     4   9  18  35  57  82 113 148 188 227 270 328
#
# _framework density 19.753086
#
# number of rings (size 3 to 8) (size 9 to 14) (size 15 to 20)
#    0.000    2.750    1.250    3.000    1.750    2.000 
#    0.000    0.625    0.000    4.500    0.000    0.000 
#    0.000    3.250    0.000    0.000    0.000    0.000 
#
# Total GULP energy -356631.317411 kJ/mol
# GULP energy per Si atom -5572.364335 kJ/mol
# Density = 1.970813 g / cm^3
# Si number density = 19.753086 Si / 1000 Ang^3
#
#
#
# Elastic Constant Matrix: (Units=GPa)
#
#
# Indices 1 2 3 4 5 6 
#
# 1 23.8162 -3.5319 16.7851 0.0000 0.0000 0.0000
# 2 -3.5319 87.8282 18.3379 0.0000 0.0000 0.0000
# 3 16.7851 18.3379 19.0103 0.0000 0.0000 0.0000
# 4 0.0000 0.0000 0.0000 -4.2878 0.0000 0.0000
# 5 0.0000 0.0000 0.0000 0.0000 -2.3659 0.0000
# 6 0.0000 0.0000 0.0000 0.0000 0.0000 13.1067
#
#
#
# Elastic Compliance Matrix: (Units=1/GPa)
#
#
# Indices 1 2 3 4 5 6 
#
# 1 0.289885 0.081516 -0.334585 0.000000 0.000000 0.000000
# 2 0.081516 0.037180 -0.107839 0.000000 0.000000 0.000000
# 3 -0.334585 -0.107839 0.452049 0.000000 0.000000 0.000000
# 4 0.000000 0.000000 0.000000 -0.233222 0.000000 0.000000
# 5 0.000000 0.000000 0.000000 0.000000 -0.422680 0.000000
# 6 0.000000 0.000000 0.000000 0.000000 0.000000 0.076297
#
#
# Mechanical properties :
#
#
# Convention : Reuss Voigt Hill
#
# Bulk Modulus (GPa) = 17.45306 21.53741 19.49523
# Shear Modulus (GPa) = 5.31675 7.89486 6.60580
#
# Velocity S-wave (km/s) = 1.64239 2.00136 1.83070
# Velocity P-wave (km/s) = 3.52865 4.03331 3.78939
#
# Compressibility (1/GPa) = 0.05729655
#
# Stress axis : x y z
#
# Youngs Moduli (GPa) = 3.44965 26.89614 2.21215
#
# Poissons Ratio (x) = -2.19248 0.74015
# Poissons Ratio (y) = -0.28120 0.23856
# Poissons Ratio (z) = 1.15420 2.90047
#
# Static dielectric constant tensor:
#      x y z
#    x 1.706490 0.000000 0.000000 
#    y 0.000000 1.752350 0.000000 
#    z 0.000000 0.000000 1.652320 
# 
# From -- ./inp_files/4574.got.cif
#   From: 2010.05.17/outbox.ucp.g08.bks.cvg/sg55_3_cif.got.tgz:4574.got - 2010.06.11 16:36:00.
