data_PCOD9429176
_publ_section_title
;
Structure prediction by ZEFSAII (Michael W. Deem and Ramdas Pophale) SiO2 
 PCOD9429176
Probable space group: P B A M
;
_chemical_formula_sum "Si O2"
_cell_formula_units_Z 48
_cell_length_a 8.224578
_cell_length_b 19.073379
_cell_length_c 13.400774
_cell_angle_alpha 90.000000
_cell_angle_beta 90.000000
_cell_angle_gamma 90.000000
_cell_volume 2102.186028
_symmetry_space_group_name_H-M "P B A M"
_symmetry_group_IT_number 55
_symmetry_cell_setting 'orthorhombic'
loop_
_space_group_symop_operation_xyz
x,y,z
-x,-y,z
1/2+x,1/2-y,-z
1/2-x,1/2+y,-z
-x,-y,-z
x,y,-z
1/2-x,1/2+y,z
1/2+x,1/2-y,z
loop_
_atom_site_type_symbol
_atom_site_label
_atom_site_fract_x
_atom_site_fract_y
_atom_site_fract_z
Si Si1 0.972716 0.228043 0.000000
Si Si2 0.282939 0.205432 0.500000
Si Si3 0.852424 0.643323 0.500000
Si Si4 0.799434 0.367585 0.000000
Si Si5 0.702269 0.716945 0.206207
Si Si6 0.611202 0.336639 0.297690
Si Si7 0.383131 0.907852 0.718681
Si Si8 0.728784 0.951637 0.794039
O O1 0.954918 0.313786 0.000000
O O2 0.877912 0.206015 0.099583
O O3 0.144798 0.186963 0.000000
O O4 0.267045 0.289766 0.500000
O O5 0.467172 0.178085 0.500000
O O6 0.188223 0.176263 0.595709
O O7 0.837320 0.599357 0.397826
O O8 0.791794 0.419415 0.095608
O O9 0.564825 0.696839 0.286001
O O10 0.769790 0.794056 0.222768
O O11 0.851706 0.666403 0.229533
O O12 0.618086 0.415683 0.259148
O O13 0.571032 0.927269 0.730426
O O14 0.280220 0.965156 0.780477
#
# Coordination Sequence:
#
# PCOD9429176 Si02
#       8
#     4   4   4   4   8   8   8   8
#     4  12  24  41  73 105 135 179 227 296 350 413
#     4  12  24  39  76 103 135 180 228 297 348 411
#     4  12  24  44  71 106 137 183 240 284 361 409
#     4  12  26  44  73 104 138 181 240 286 360 411
#     4  12  24  42  69 104 138 179 231 293 352 410
#     4  12  23  42  68 104 138 175 233 291 344 412
#     4  11  27  44  70 100 143 187 233 288 346 424
#     4  11  25  47  67 100 140 187 231 287 341 423
#
# _framework density 22.833375
#
# number of rings (size 3 to 8) (size 9 to 14) (size 15 to 20)
#    0.000    0.333    6.667    2.000    2.333    4.667 
#    0.000    0.833    0.000    2.000    0.000    0.000 
#    0.000    0.000    0.000    0.000    0.000    0.000 
#
# Total GULP energy -268604.405819 kJ/mol
# GULP energy per Si atom -5595.925121 kJ/mol
# Density = 2.278141 g / cm^3
# Si number density = 22.833375 Si / 1000 Ang^3
#
#
#
# Elastic Constant Matrix: (Units=GPa)
#
#
# Indices 1 2 3 4 5 6 
#
# 1 60.6228 -9.8317 1.4946 0.0000 0.0000 0.0000
# 2 -9.8317 66.1518 36.5866 0.0000 0.0000 0.0000
# 3 1.4946 36.5866 164.7543 0.0000 0.0000 0.0000
# 4 0.0000 0.0000 0.0000 29.2572 0.0000 0.0000
# 5 0.0000 0.0000 0.0000 0.0000 29.7855 0.0000
# 6 0.0000 0.0000 0.0000 0.0000 0.0000 29.5897
#
#
#
# Elastic Compliance Matrix: (Units=1/GPa)
#
#
# Indices 1 2 3 4 5 6 
#
# 1 0.016998 0.002977 -0.000815 0.000000 0.000000 0.000000
# 2 0.002977 0.017755 -0.003970 0.000000 0.000000 0.000000
# 3 -0.000815 -0.003970 0.006959 0.000000 0.000000 0.000000
# 4 0.000000 0.000000 0.000000 0.034180 0.000000 0.000000
# 5 0.000000 0.000000 0.000000 0.000000 0.033573 0.000000
# 6 0.000000 0.000000 0.000000 0.000000 0.000000 0.033796
#
#
# Mechanical properties :
#
#
# Convention : Reuss Voigt Hill
#
# Bulk Modulus (GPa) = 26.24937 38.66977 32.45957
# Shear Modulus (GPa) = 31.33327 35.27844 33.30586
#
# Velocity S-wave (km/s) = 3.70842 3.93496 3.82337
# Velocity P-wave (km/s) = 5.46420 6.13332 5.80840
#
# Compressibility (1/GPa) = 0.03809615
#
# Stress axis : x y z
#
# Youngs Moduli (GPa) = 58.82910 56.32272 143.70707
#
# Poissons Ratio (x) = -0.16769 0.11717
# Poissons Ratio (y) = -0.17515 0.57049
# Poissons Ratio (z) = 0.04797 0.22359
#
# Static dielectric constant tensor:
#      x y z
#    x 1.866150 0.000000 0.000000 
#    y 0.000000 1.846420 0.000000 
#    z 0.000000 0.000000 1.851530 
# 
# From -- ./inp_files/17438.got.cif
#   From: 2010.05.17/outbox.cif.g08.bks.cpg/sg55_9_cif.got.tgz:17438.got - 2010.06.03 13:27:54.
