data_PCOD9429895
_publ_section_title
;
Structure prediction by ZEFSAII (Michael W. Deem and Ramdas Pophale) SiO2 
 PCOD9429895
Probable space group: P C C N
;
_chemical_formula_sum "Si O2"
_cell_formula_units_Z 60
_cell_length_a 19.098196
_cell_length_b 10.164818
_cell_length_c 14.060670
_cell_angle_alpha 90.000000
_cell_angle_beta 90.000000
_cell_angle_gamma 90.000000
_cell_volume 2729.593459
_symmetry_space_group_name_H-M "P C C N"
_symmetry_group_IT_number 56
_symmetry_cell_setting 'orthorhombic'
loop_
_space_group_symop_operation_xyz
x,y,z
1/2-x,1/2-y,z
1/2+x,-y,1/2-z
-x,1/2+y,1/2-z
-x,-y,-z
1/2+x,1/2+y,-z
1/2-x,y,1/2+z
x,1/2-y,1/2+z
loop_
_atom_site_type_symbol
_atom_site_label
_atom_site_fract_x
_atom_site_fract_y
_atom_site_fract_z
Si Si1 0.915012 0.994811 0.800107
Si Si2 0.677062 0.710850 0.061033
Si Si3 0.750000 0.250000 0.069119
Si Si4 0.869517 0.963158 0.437084
Si Si5 0.218425 0.524331 0.577585
Si Si6 0.524552 0.767727 0.887533
Si Si7 0.473529 0.117605 0.427093
Si Si8 0.613857 0.379698 0.618851
O O1 0.934446 0.850352 0.837578
O O2 0.842141 0.040825 0.846308
O O3 0.902992 0.999831 0.688140
O O4 0.975857 0.091974 0.838726
O O5 0.750000 0.750000 0.115244
O O6 0.608080 0.637404 0.103756
O O7 0.653485 0.842919 0.006674
O O8 0.700110 0.608245 0.979547
O O9 0.809348 0.321332 0.129442
O O10 0.716689 0.358912 0.999434
O O11 0.932220 0.902536 0.376243
O O12 0.798265 0.009931 0.386113
O O13 0.892439 0.076257 0.509706
O O14 0.445079 0.774914 0.854374
O O15 0.517685 0.738476 0.000543
O O16 0.500000 0.000000 0.500000
#
# Coordination Sequence:
#
# PCOD9429895 Si02
#       8
#     8   8   4   8   8   8   8   8
#     4  11  22  36  61  90 122 161 201 262 305 362
#     4   9  16  30  61  87 111 146 208 252 283 355
#     4  10  24  40  62  88 122 170 204 246 314 378
#     4   9  19  37  64  88 115 160 201 251 302 375
#     4  10  18  37  65  87 115 158 212 239 301 373
#     4  10  20  38  63  85 121 163 207 249 299 376
#     4   9  16  31  56  87 107 156 211 236 296 370
#     4  11  24  39  58  93 132 154 200 264 317 360
#
# _framework density 21.981296
#
# number of rings (size 3 to 8) (size 9 to 14) (size 15 to 20)
#    0.000    2.133    4.000    1.200    1.867    2.667 
#    0.000    4.000   14.667    0.000    0.000    0.000 
#    0.000    0.000    0.000    0.000    0.000    0.000 
#
# Total GULP energy -334187.364728 kJ/mol
# GULP energy per Si atom -5569.789412 kJ/mol
# Density = 2.193127 g / cm^3
# Si number density = 21.981296 Si / 1000 Ang^3
#
#
#
# Elastic Constant Matrix: (Units=GPa)
#
#
# Indices 1 2 3 4 5 6 
#
# 1 146.7300 33.6512 33.9754 0.0000 0.0000 0.0000
# 2 33.6512 38.6400 -3.3081 0.0000 0.0000 0.0000
# 3 33.9754 -3.3081 28.2641 0.0000 0.0000 0.0000
# 4 0.0000 0.0000 0.0000 2.9324 0.0000 0.0000
# 5 0.0000 0.0000 0.0000 0.0000 6.2433 0.0000
# 6 0.0000 0.0000 0.0000 0.0000 0.0000 43.6871
#
#
#
# Elastic Compliance Matrix: (Units=1/GPa)
#
#
# Indices 1 2 3 4 5 6 
#
# 1 0.014519 -0.014282 -0.019124 0.000000 0.000000 0.000000
# 2 -0.014282 0.040190 0.021871 0.000000 0.000000 0.000000
# 3 -0.019124 0.021871 0.060929 0.000000 0.000000 0.000000
# 4 0.000000 0.000000 0.000000 0.341022 0.000000 0.000000
# 5 0.000000 0.000000 0.000000 0.000000 0.160171 0.000000
# 6 0.000000 0.000000 0.000000 0.000000 0.000000 0.022890
#
#
# Mechanical properties :
#
#
# Convention : Reuss Voigt Hill
#
# Bulk Modulus (GPa) = 10.80276 38.03013 24.41644
# Shear Modulus (GPa) = 7.20828 20.52693 13.86761
#
# Velocity S-wave (km/s) = 1.81284 3.05919 2.51446
# Velocity P-wave (km/s) = 3.05075 5.46048 4.42289
#
# Compressibility (1/GPa) = 0.09256897
#
# Stress axis : x y z
#
# Youngs Moduli (GPa) = 68.87639 24.88179 16.41258
#
# Poissons Ratio (x) = 0.35535 0.31388
# Poissons Ratio (y) = 0.98366 -0.35896
# Poissons Ratio (z) = 1.31720 -0.54420
#
# Static dielectric constant tensor:
#      x y z
#    x 1.907490 0.000000 0.000000 
#    y 0.000000 1.870410 0.000000 
#    z 0.000000 0.000000 1.791250 
# 
# From -- ./inp_files/12836.got.cif
#   From: 2010.05.17/outbox.cif.g08.bks.cpg/sg56_7_cif.got.tgz:12836.got - 2010.06.03 13:42:01.
