data_PCOD9429786
_publ_section_title
;
Structure prediction by ZEFSAII (Michael W. Deem and Ramdas Pophale) SiO2 
 PCOD9429786
Probable space group: P C C N
;
_chemical_formula_sum "Si O2"
_cell_formula_units_Z 44
_cell_length_a 7.380220
_cell_length_b 15.262407
_cell_length_c 17.527903
_cell_angle_alpha 90.000000
_cell_angle_beta 90.000000
_cell_angle_gamma 90.000000
_cell_volume 1974.341616
_symmetry_space_group_name_H-M "P C C N"
_symmetry_group_IT_number 56
_symmetry_cell_setting 'orthorhombic'
loop_
_space_group_symop_operation_xyz
x,y,z
1/2-x,1/2-y,z
1/2+x,-y,1/2-z
-x,1/2+y,1/2-z
-x,-y,-z
1/2+x,1/2+y,-z
1/2-x,y,1/2+z
x,1/2-y,1/2+z
loop_
_atom_site_type_symbol
_atom_site_label
_atom_site_fract_x
_atom_site_fract_y
_atom_site_fract_z
Si Si1 0.750000 0.750000 0.724655
Si Si2 0.228524 0.411723 0.387576
Si Si3 0.814727 0.885005 0.439950
Si Si4 0.853653 0.031312 0.845568
Si Si5 0.498841 0.762812 0.366626
Si Si6 0.181868 0.581850 0.304264
O O1 0.730668 0.665601 0.671351
O O2 0.917229 0.741045 0.783153
O O3 0.310242 0.396280 0.469945
O O4 0.280646 0.505580 0.352019
O O5 0.007280 0.417982 0.393468
O O6 0.640586 0.827021 0.412312
O O7 0.984045 0.827242 0.412891
O O8 0.784682 0.977409 0.397588
O O9 0.760785 0.087955 0.780125
O O10 0.978321 0.959063 0.801332
O O11 0.334122 0.827639 0.348585
#
# Coordination Sequence:
#
# PCOD9429786 Si02
#       6
#     4   8   8   8   8   8
#     4  10  18  34  50  88 108 156 202 256 310 360
#     4  10  19  29  58  83 118 150 208 251 305 374
#     4   9  16  32  49  91 109 156 199 255 301 362
#     4   9  19  31  56  81 122 150 206 252 306 373
#     4   9  18  29  57  75 123 154 198 251 301 363
#     4   9  18  33  52  87 114 162 203 255 307 370
#
# _framework density 22.285910999999999
#
# number of rings (size 3 to 8) (size 9 to 14) (size 15 to 20)
#    1.091    1.818    0.000    4.909    0.000    0.000 
#    0.000    0.909    0.000    4.364    0.000   10.182 
#    0.000    0.000    0.000    0.000    0.000    0.000 
#
# Total GULP energy -245354.794144 kJ/mol
# GULP energy per Si atom -5576.245321 kJ/mol
# Density = 2.223519 g / cm^3
# Si number density = 22.285911 Si / 1000 Ang^3
#
#
#
# Elastic Constant Matrix: (Units=GPa)
#
#
# Indices 1 2 3 4 5 6 
#
# 1 42.0983 15.2067 48.7102 0.0000 0.0000 0.0000
# 2 15.2067 119.6070 80.7203 0.0000 0.0000 0.0000
# 3 48.7102 80.7203 169.7418 0.0000 0.0000 0.0000
# 4 0.0000 0.0000 0.0000 0.8646 0.0000 0.0000
# 5 0.0000 0.0000 0.0000 0.0000 18.7132 0.0000
# 6 0.0000 0.0000 0.0000 0.0000 0.0000 33.6743
#
#
#
# Elastic Compliance Matrix: (Units=1/GPa)
#
#
# Indices 1 2 3 4 5 6 
#
# 1 0.036576 0.003583 -0.012200 0.000000 0.000000 0.000000
# 2 0.003583 0.012663 -0.007050 0.000000 0.000000 0.000000
# 3 -0.012200 -0.007050 0.012745 0.000000 0.000000 0.000000
# 4 0.000000 0.000000 0.000000 1.156574 0.000000 0.000000
# 5 0.000000 0.000000 0.000000 0.000000 0.053438 0.000000
# 6 0.000000 0.000000 0.000000 0.000000 0.000000 0.029696
#
#
# Mechanical properties :
#
#
# Convention : Reuss Voigt Hill
#
# Bulk Modulus (GPa) = 32.62630 68.96906 50.79768
# Shear Modulus (GPa) = 3.72233 23.10442 13.41338
#
# Velocity S-wave (km/s) = 1.29379 3.22332 2.45598
# Velocity P-wave (km/s) = 4.11139 6.69833 5.55748
#
# Compressibility (1/GPa) = 0.03065012
#
# Stress axis : x y z
#
# Youngs Moduli (GPa) = 27.34047 78.96891 78.46167
#
# Poissons Ratio (x) = -0.28298 0.95724
# Poissons Ratio (y) = -0.09797 0.55318
# Poissons Ratio (z) = 0.33356 0.55675
#
# Static dielectric constant tensor:
#      x y z
#    x 1.975000 0.000000 0.000000 
#    y 0.000000 1.846320 0.000000 
#    z 0.000000 0.000000 1.734770 
# 
# From -- ./inp_files/10574.got.cif
#   From: 2010.05.17/outbox.cif.g08.bks.cpg/sg56_6_cif.got.tgz:10574.got - 2010.06.03 13:42:01.
