data_PCOD9429160
_publ_section_title
;
Structure prediction by ZEFSAII (Michael W. Deem and Ramdas Pophale) SiO2 
 PCOD9429160
Probable space group: P B A M
;
_chemical_formula_sum "Si O2"
_cell_formula_units_Z 40
_cell_length_a 10.116300
_cell_length_b 9.832817
_cell_length_c 18.717108
_cell_angle_alpha 90.000000
_cell_angle_beta 90.000000
_cell_angle_gamma 90.000000
_cell_volume 1861.823050
_symmetry_space_group_name_H-M "P B A M"
_symmetry_group_IT_number 55
_symmetry_cell_setting 'orthorhombic'
loop_
_space_group_symop_operation_xyz
x,y,z
-x,-y,z
1/2+x,1/2-y,-z
1/2-x,1/2+y,-z
-x,-y,-z
x,y,-z
1/2-x,1/2+y,z
1/2+x,1/2-y,z
loop_
_atom_site_type_symbol
_atom_site_label
_atom_site_fract_x
_atom_site_fract_y
_atom_site_fract_z
Si Si1 0.979183 0.839671 0.255478
Si Si2 0.065888 0.369865 0.624241
Si Si3 0.115552 0.736315 0.500000
Si Si4 0.342847 0.018493 0.918897
Si Si5 0.754426 0.015594 0.500000
Si Si6 0.263093 0.267568 0.167892
O O1 0.919701 0.753785 0.321815
O O2 0.867915 0.807813 0.196654
O O3 0.121101 0.783934 0.227301
O O4 0.000000 0.000000 0.270043
O O5 0.181975 0.425764 0.572184
O O6 0.000000 0.500000 0.663294
O O7 0.958525 0.318426 0.568228
O O8 0.115557 0.896679 0.500000
O O9 0.251488 0.646879 0.500000
O O10 0.315098 0.171583 0.894883
O O11 0.500000 0.000000 0.915904
O O12 0.276265 0.913691 0.863739
O O13 0.297521 0.993018 0.000000
#
# Coordination Sequence:
#
# PCOD9429160 Si02
#       6
#     8   8   4   8   4   8
#     4  12  27  43  66  97 139 175 222 269 335 389
#     4   9  22  40  62  87 121 173 215 269 324 393
#     4   9  19  39  60  88 122 158 216 269 327 382
#     4  11  24  45  73 101 133 176 219 271 334 390
#     4   9  19  39  60  88 122 158 216 269 327 382
#     4  12  25  46  66 101 136 172 222 274 322 401
#
# _framework density 21.484318999999999
#
# number of rings (size 3 to 8) (size 9 to 14) (size 15 to 20)
#    0.000    1.400    4.000    1.800    5.600    1.600 
#    0.000    3.000    0.000    0.000    0.000    0.000 
#    0.000    0.000    0.000    0.000    0.000    0.000 
#
# Total GULP energy -223148.674902 kJ/mol
# GULP energy per Si atom -5578.716873 kJ/mol
# Density = 2.143542 g / cm^3
# Si number density = 21.484319 Si / 1000 Ang^3
#
#
#
# Elastic Constant Matrix: (Units=GPa)
#
#
# Indices 1 2 3 4 5 6 
#
# 1 49.8667 17.5821 0.2164 0.0000 0.0000 0.0000
# 2 17.5821 101.6586 17.3887 0.0000 0.0000 0.0000
# 3 0.2164 17.3887 62.4889 0.0000 0.0000 0.0000
# 4 0.0000 0.0000 0.0000 55.0431 0.0000 0.0000
# 5 0.0000 0.0000 0.0000 0.0000 78.8032 0.0000
# 6 0.0000 0.0000 0.0000 0.0000 0.0000 32.6247
#
#
#
# Elastic Compliance Matrix: (Units=1/GPa)
#
#
# Indices 1 2 3 4 5 6 
#
# 1 0.021416 -0.003876 0.001004 0.000000 0.000000 0.000000
# 2 -0.003876 0.011030 -0.003056 0.000000 0.000000 0.000000
# 3 0.001004 -0.003056 0.016850 0.000000 0.000000 0.000000
# 4 0.000000 0.000000 0.000000 0.018168 0.000000 0.000000
# 5 0.000000 0.000000 0.000000 0.000000 0.012690 0.000000
# 6 0.000000 0.000000 0.000000 0.000000 0.000000 0.030652
#
#
# Mechanical properties :
#
#
# Convention : Reuss Voigt Hill
#
# Bulk Modulus (GPa) = 26.70886 31.59874 29.15380
# Shear Modulus (GPa) = 36.99899 45.21600 41.10750
#
# Velocity S-wave (km/s) = 4.15437 4.59257 4.37896
# Velocity P-wave (km/s) = 5.95571 6.54691 6.25830
#
# Compressibility (1/GPa) = 0.03744076
#
# Stress axis : x y z
#
# Youngs Moduli (GPa) = 46.69499 90.66307 59.34817
#
# Poissons Ratio (x) = 0.35138 -0.05960
# Poissons Ratio (y) = 0.18097 0.18136
# Poissons Ratio (z) = -0.04690 0.27705
#
# Static dielectric constant tensor:
#      x y z
#    x 1.834410 0.000000 0.000000 
#    y 0.000000 1.840780 0.000000 
#    z 0.000000 0.000000 1.204020 
# 
# From -- ./inp_files/21188.got.cif
#   From: 2010.05.17/outbox.cif.g08.bks.cpg/sg55_11_cif.got.tgz:21188.got - 2010.06.03 13:27:54.
