data_PCOD9429742
_publ_section_title
;
Structure prediction by ZEFSAII (Michael W. Deem and Ramdas Pophale) SiO2 
 PCOD9429742
Probable space group: P C C N
;
_chemical_formula_sum "Si O2"
_cell_formula_units_Z 56
_cell_length_a 10.818865
_cell_length_b 16.476534
_cell_length_c 13.462500
_cell_angle_alpha 90.000000
_cell_angle_beta 90.000000
_cell_angle_gamma 90.000000
_cell_volume 2399.790207
_symmetry_space_group_name_H-M "P C C N"
_symmetry_group_IT_number 56
_symmetry_cell_setting 'orthorhombic'
loop_
_space_group_symop_operation_xyz
x,y,z
1/2-x,1/2-y,z
1/2+x,-y,1/2-z
-x,1/2+y,1/2-z
-x,-y,-z
1/2+x,1/2+y,-z
1/2-x,y,1/2+z
x,1/2-y,1/2+z
loop_
_atom_site_type_symbol
_atom_site_label
_atom_site_fract_x
_atom_site_fract_y
_atom_site_fract_z
Si Si1 0.108003 0.976204 0.697041
Si Si2 0.393937 0.369589 0.215945
Si Si3 0.917390 0.166635 0.919813
Si Si4 0.717669 0.144754 0.220831
Si Si5 0.565904 0.250473 0.119227
Si Si6 0.658063 0.606327 0.157232
Si Si7 0.301777 0.007969 0.543548
O O1 0.230985 0.943089 0.755202
O O2 0.999502 0.911899 0.715214
O O3 0.079753 0.055044 0.761528
O O4 0.164288 0.990604 0.588031
O O5 0.440656 0.286708 0.163788
O O6 0.274441 0.359511 0.284043
O O7 0.364435 0.431385 0.124479
O O8 0.830389 0.177988 0.825742
O O9 0.058828 0.168446 0.885306
O O10 0.878579 0.076808 0.960724
O O11 0.909732 0.232234 0.005214
O O12 0.605192 0.159789 0.146209
O O13 0.833284 0.192315 0.174805
O O14 0.696804 0.551000 0.062993
#
# Coordination Sequence:
#
# PCOD9429742 Si02
#       7
#     8   8   8   8   8   8   8
#     4   9  19  34  54  85 120 152 195 260 301 357
#     4  10  19  34  55  83 124 156 197 252 302 358
#     4  11  20  36  62  86 118 162 205 244 313 370
#     4   9  21  36  58  87 114 154 206 254 297 347
#     4  10  20  38  62  84 120 160 205 254 298 362
#     4  11  20  32  59  88 120 160 193 245 318 372
#     4  10  18  32  55  87 115 153 201 245 310 365
#
# _framework density 23.335373000000001
#
# number of rings (size 3 to 8) (size 9 to 14) (size 15 to 20)
#    0.000    2.000    2.857    2.143    0.000    2.857 
#    0.000    2.143   12.571    1.714    0.000    0.000 
#    0.000    0.000    0.000    0.000    0.000    0.000 
#
# Total GULP energy -312752.729114 kJ/mol
# GULP energy per Si atom -5584.870163 kJ/mol
# Density = 2.328226 g / cm^3
# Si number density = 23.335373 Si / 1000 Ang^3
#
#
#
# Elastic Constant Matrix: (Units=GPa)
#
#
# Indices 1 2 3 4 5 6 
#
# 1 66.6979 5.6386 43.3486 0.0000 0.0000 0.0000
# 2 5.6386 19.7562 10.1811 0.0000 0.0000 0.0000
# 3 43.3486 10.1811 118.7881 0.0000 0.0000 0.0000
# 4 0.0000 0.0000 0.0000 26.5214 0.0000 0.0000
# 5 0.0000 0.0000 0.0000 0.0000 31.5931 0.0000
# 6 0.0000 0.0000 0.0000 0.0000 0.0000 24.7384
#
#
#
# Elastic Compliance Matrix: (Units=1/GPa)
#
#
# Indices 1 2 3 4 5 6 
#
# 1 0.019730 -0.002010 -0.007028 0.000000 0.000000 0.000000
# 2 -0.002010 0.053161 -0.003823 0.000000 0.000000 0.000000
# 3 -0.007028 -0.003823 0.011311 0.000000 0.000000 0.000000
# 4 0.000000 0.000000 0.000000 0.037705 0.000000 0.000000
# 5 0.000000 0.000000 0.000000 0.000000 0.031652 0.000000
# 6 0.000000 0.000000 0.000000 0.000000 0.000000 0.040423
#
#
# Mechanical properties :
#
#
# Convention : Reuss Voigt Hill
#
# Bulk Modulus (GPa) = 17.09959 35.95322 26.52641
# Shear Modulus (GPa) = 20.90328 26.30885 23.60607
#
# Velocity S-wave (km/s) = 2.99620 3.36136 3.18402
# Velocity P-wave (km/s) = 4.39469 5.52319 4.99093
#
# Compressibility (1/GPa) = 0.05848093
#
# Stress axis : x y z
#
# Youngs Moduli (GPa) = 50.68307 18.81092 88.41217
#
# Poissons Ratio (x) = 0.03780 0.62135
# Poissons Ratio (y) = 0.10185 0.33800
# Poissons Ratio (z) = 0.35619 0.07191
#
# Static dielectric constant tensor:
#      x y z
#    x 1.947030 0.000000 0.000000 
#    y 0.000000 1.989420 0.000000 
#    z 0.000000 0.000000 1.842700 
# 
# From -- ./inp_files/7273.got.cif
#   From: 2010.05.17/outbox.cif.g08.bks.cpg/sg56_4_cif.got.tgz:7273.got - 2010.06.03 13:42:01.
