data_PCOD9429999
_publ_section_title
;
Structure prediction by ZEFSAII (Michael W. Deem and Ramdas Pophale) SiO2 
 PCOD9429999
Probable space group: P C C N
;
_chemical_formula_sum "Si O2"
_cell_formula_units_Z 64
_cell_length_a 17.480069
_cell_length_b 7.775131
_cell_length_c 18.386135
_cell_angle_alpha 90.000000
_cell_angle_beta 90.000000
_cell_angle_gamma 90.000000
_cell_volume 2498.856415
_symmetry_space_group_name_H-M "P C C N"
_symmetry_group_IT_number 56
_symmetry_cell_setting 'orthorhombic'
loop_
_space_group_symop_operation_xyz
x,y,z
1/2-x,1/2-y,z
1/2+x,-y,1/2-z
-x,1/2+y,1/2-z
-x,-y,-z
1/2+x,1/2+y,-z
1/2-x,y,1/2+z
x,1/2-y,1/2+z
loop_
_atom_site_type_symbol
_atom_site_label
_atom_site_fract_x
_atom_site_fract_y
_atom_site_fract_z
Si Si1 0.686039 0.638353 0.751082
Si Si2 0.097224 0.466198 0.263563
Si Si3 0.171313 0.150259 0.521975
Si Si4 0.002451 0.837046 0.118088
Si Si5 0.700258 0.416824 0.349283
Si Si6 0.331129 0.660470 0.895638
Si Si7 0.899961 0.515183 0.483044
Si Si8 0.901383 0.994581 0.620649
O O1 0.750000 0.750000 0.707959
O O2 0.623531 0.783422 0.770135
O O3 0.737997 0.549839 0.811969
O O4 0.642007 0.513109 0.697424
O O5 0.017616 0.427266 0.304782
O O6 0.124868 0.598197 0.202110
O O7 0.149114 0.530053 0.331179
O O8 0.250000 0.250000 0.523546
O O9 0.149507 0.092922 0.441651
O O10 0.173068 0.991989 0.575274
O O11 0.387937 0.204156 0.548943
O O12 0.973085 0.638885 0.122061
O O13 0.082661 0.882642 0.081914
O O14 0.954506 0.939363 0.053503
O O15 0.750000 0.250000 0.354976
O O16 0.250000 0.750000 0.882010
O O17 0.399764 0.803724 0.898698
O O18 0.329141 0.563965 0.972422
#
# Coordination Sequence:
#
# PCOD9429999 Si02
#       8
#     8   8   8   8   8   8   8   8
#     4   9  16  31  52  76 107 146 189 234 287 357
#     4   9  17  32  56  80 105 146 196 241 290 355
#     4  11  22  36  54  78 113 156 189 230 301 378
#     4   8  17  35  57  81 107 145 197 245 289 348
#     4  11  22  35  53  82 118 149 189 247 311 375
#     4  11  19  29  52  87 120 148 187 248 310 361
#     4   9  19  35  55  79 112 150 190 237 294 361
#     4  10  19  31  53  84 116 147 191 248 302 354
#
# _framework density 25.611716999999999
#
# number of rings (size 3 to 8) (size 9 to 14) (size 15 to 20)
#    0.000    2.250    0.000    5.625    0.000    3.000 
#    0.000    0.000    0.000    3.000    0.000    3.500 
#    0.000    0.000    0.000    0.000    0.000    0.500 
#
# Total GULP energy -357160.343270 kJ/mol
# GULP energy per Si atom -5580.630364 kJ/mol
# Density = 2.555342 g / cm^3
# Si number density = 25.611717 Si / 1000 Ang^3
#
#
#
# Elastic Constant Matrix: (Units=GPa)
#
#
# Indices 1 2 3 4 5 6 
#
# 1 34.2237 -1.1029 24.1302 0.0000 0.0000 0.0000
# 2 -1.1029 105.5455 0.8008 0.0000 0.0000 0.0000
# 3 24.1302 0.8008 58.2493 0.0000 0.0000 0.0000
# 4 0.0000 0.0000 0.0000 31.1004 0.0000 0.0000
# 5 0.0000 0.0000 0.0000 0.0000 30.7317 0.0000
# 6 0.0000 0.0000 0.0000 0.0000 0.0000 19.5877
#
#
#
# Elastic Compliance Matrix: (Units=1/GPa)
#
#
# Indices 1 2 3 4 5 6 
#
# 1 0.041308 0.000562 -0.017120 0.000000 0.000000 0.000000
# 2 0.000562 0.009483 -0.000363 0.000000 0.000000 0.000000
# 3 -0.017120 -0.000363 0.024265 0.000000 0.000000 0.000000
# 4 0.000000 0.000000 0.000000 0.032154 0.000000 0.000000
# 5 0.000000 0.000000 0.000000 0.000000 0.032540 0.000000
# 6 0.000000 0.000000 0.000000 0.000000 0.000000 0.051052
#
#
# Mechanical properties :
#
#
# Convention : Reuss Voigt Hill
#
# Bulk Modulus (GPa) = 24.26401 27.29721 25.78061
# Shear Modulus (GPa) = 20.97462 27.89666 24.43564
#
# Velocity S-wave (km/s) = 2.86483 3.30391 3.09217
# Velocity P-wave (km/s) = 4.52077 5.02351 4.77875
#
# Compressibility (1/GPa) = 0.04121331
#
# Stress axis : x y z
#
# Youngs Moduli (GPa) = 24.20810 105.44953 41.21210
#
# Poissons Ratio (x) = -0.05921 0.70556
# Poissons Ratio (y) = -0.01359 0.01496
# Poissons Ratio (z) = 0.41445 0.03828
#
# Static dielectric constant tensor:
#      x y z
#    x 2.212600 0.000000 0.000000 
#    y 0.000000 2.035750 0.000000 
#    z 0.000000 0.000000 1.978250 
# 
# From -- ./inp_files/16863.got.cif
#   From: 2010.05.17/outbox.cif.g08.bks.cpg/sg56_9_cif.got.tgz:16863.got - 2010.06.03 13:42:01.
