data_PCOD9429928
_publ_section_title
;
Structure prediction by ZEFSAII (Michael W. Deem and Ramdas Pophale) SiO2 
 PCOD9429928
Probable space group: P C C N
;
_chemical_formula_sum "Si O2"
_cell_formula_units_Z 36
_cell_length_a 24.589284
_cell_length_b 7.728516
_cell_length_c 9.465042
_cell_angle_alpha 90.000000
_cell_angle_beta 90.000000
_cell_angle_gamma 90.000000
_cell_volume 1798.724039
_symmetry_space_group_name_H-M "P C C N"
_symmetry_group_IT_number 56
_symmetry_cell_setting 'orthorhombic'
loop_
_space_group_symop_operation_xyz
x,y,z
1/2-x,1/2-y,z
1/2+x,-y,1/2-z
-x,1/2+y,1/2-z
-x,-y,-z
1/2+x,1/2+y,-z
1/2-x,y,1/2+z
x,1/2-y,1/2+z
loop_
_atom_site_type_symbol
_atom_site_label
_atom_site_fract_x
_atom_site_fract_y
_atom_site_fract_z
Si Si1 0.250000 0.250000 0.814237
Si Si2 0.676868 0.626154 0.434551
Si Si3 0.576718 0.419772 0.482838
Si Si4 0.070715 0.310920 0.513105
Si Si5 0.535886 0.381609 0.175946
O O1 0.287229 0.360086 0.706045
O O2 0.212112 0.355183 0.923335
O O3 0.639769 0.455940 0.445811
O O4 0.632710 0.785723 0.434380
O O5 0.557232 0.612188 0.524596
O O6 0.547425 0.367226 0.339259
O O7 0.564824 0.277639 0.598129
O O8 0.062314 0.441382 0.383869
O O9 0.027191 0.374279 0.629192
#
# Coordination Sequence:
#
# PCOD9429928 Si02
#       5
#     4   8   8   8   8
#     4  10  18  38  66  86 108 168 204 270 308 354
#     4   9  21  37  62  88 119 152 218 248 312 357
#     4  10  24  38  60  94 125 165 203 250 299 379
#     4   9  23  38  59  93 126 169 195 251 297 387
#     4  11  22  38  64  91 135 162 200 241 318 369
#
# _framework density 20.014188999999998
#
# number of rings (size 3 to 8) (size 9 to 14) (size 15 to 20)
#    1.333    0.889    0.000    2.000    6.222    3.556 
#    0.000    0.000    0.000   22.667    0.000    0.000 
#    0.000    0.000    0.000    0.000    0.000    0.000 
#
# Total GULP energy -200835.682548 kJ/mol
# GULP energy per Si atom -5578.768960 kJ/mol
# Density = 1.996864 g / cm^3
# Si number density = 20.014189 Si / 1000 Ang^3
#
#
#
# Elastic Constant Matrix: (Units=GPa)
#
#
# Indices 1 2 3 4 5 6 
#
# 1 115.0016 2.9534 52.3618 0.0000 0.0000 0.0000
# 2 2.9534 94.3552 35.9881 0.0000 0.0000 0.0000
# 3 52.3618 35.9881 104.5865 0.0000 0.0000 0.0000
# 4 0.0000 0.0000 0.0000 14.7511 0.0000 0.0000
# 5 0.0000 0.0000 0.0000 0.0000 19.5105 0.0000
# 6 0.0000 0.0000 0.0000 0.0000 0.0000 12.1511
#
#
#
# Elastic Compliance Matrix: (Units=1/GPa)
#
#
# Indices 1 2 3 4 5 6 
#
# 1 0.011625 0.002136 -0.006555 0.000000 0.000000 0.000000
# 2 0.002136 0.012592 -0.005402 0.000000 0.000000 0.000000
# 3 -0.006555 -0.005402 0.014702 0.000000 0.000000 0.000000
# 4 0.000000 0.000000 0.000000 0.067792 0.000000 0.000000
# 5 0.000000 0.000000 0.000000 0.000000 0.051255 0.000000
# 6 0.000000 0.000000 0.000000 0.000000 0.000000 0.082297
#
#
# Mechanical properties :
#
#
# Convention : Reuss Voigt Hill
#
# Bulk Modulus (GPa) = 51.87578 55.17221 53.52399
# Shear Modulus (GPa) = 18.77359 24.12521 21.44940
#
# Velocity S-wave (km/s) = 3.06602 3.47566 3.27725
# Velocity P-wave (km/s) = 6.20562 6.61312 6.41261
#
# Compressibility (1/GPa) = 0.01927682
#
# Stress axis : x y z
#
# Youngs Moduli (GPa) = 86.01804 79.41585 68.01566
#
# Poissons Ratio (x) = -0.16967 0.44588
# Poissons Ratio (y) = -0.18377 0.36745
# Poissons Ratio (z) = 0.56389 0.42904
#
# Static dielectric constant tensor:
#      x y z
#    x 1.778590 0.000000 0.000000 
#    y 0.000000 1.738510 0.000000 
#    z 0.000000 0.000000 1.684220 
# 
# From -- ./inp_files/4896.got.cif
#   From: 2010.05.17/outbox.cif.g08.bks.cpg/sg56_3_cif.got.tgz:4896.got - 2010.06.03 13:42:01.
