data_PCOD9429314
_publ_section_title
;
Structure prediction by ZEFSAII (Michael W. Deem and Ramdas Pophale) SiO2 
 PCOD9429314
Probable space group: P B A M
;
_chemical_formula_sum "Si O2"
_cell_formula_units_Z 64
_cell_length_a 30.000000
_cell_length_b 12.000000
_cell_length_c 9.000000
_cell_angle_alpha 90.000000
_cell_angle_beta 90.000000
_cell_angle_gamma 90.000000
_cell_volume 3240.000000
_symmetry_space_group_name_H-M "P B A M"
_symmetry_group_IT_number 55
_symmetry_cell_setting 'orthorhombic'
loop_
_space_group_symop_operation_xyz
x,y,z
-x,-y,z
1/2+x,1/2-y,-z
1/2-x,1/2+y,-z
-x,-y,-z
x,y,-z
1/2-x,1/2+y,z
1/2+x,1/2-y,z
loop_
_atom_site_type_symbol
_atom_site_label
_atom_site_fract_x
_atom_site_fract_y
_atom_site_fract_z
Si Si1 0.688589 0.268438 0.824127
Si Si2 0.280948 0.187612 0.321965
Si Si3 0.830209 0.540308 0.671018
Si Si4 0.936533 0.546810 0.327635
Si Si5 0.556321 0.804964 0.679801
Si Si6 0.535004 0.290948 0.679222
Si Si7 0.360042 0.338241 0.319921
Si Si8 0.391317 0.568368 0.821910
O O1 0.733055 0.314923 0.750738
O O2 0.683684 0.141713 0.773223
O O3 0.645187 0.338257 0.777456
O O4 0.692054 0.276226 0.000000
O O5 0.276455 0.192522 0.500000
O O6 0.311355 0.293045 0.276774
O O7 0.307811 0.075464 0.286220
O O8 0.817209 0.565759 0.500000
O O9 0.883455 0.530489 0.673769
O O10 0.951678 0.553461 0.500000
O O11 0.954351 0.429771 0.263246
O O12 0.946960 0.669414 0.267335
O O13 0.557623 0.815944 0.500000
O O14 0.517331 0.717759 0.713579
O O15 0.603684 0.755474 0.724304
O O16 0.540884 0.299514 0.500000
O O17 0.562059 0.388874 0.756102
O O18 0.361360 0.348410 0.500000
O O19 0.374681 0.452799 0.246352
O O20 0.393415 0.561453 0.000000
#
# Coordination Sequence:
#
# PCOD9429314 Si02
#       8
#     8   8   8   8   8   8   8   8
#     4  11  25  41  58  82 116 154 192 236 283 338
#     4  10  22  39  62  90 116 146 186 238 290 339
#     4  10  19  36  63  91 118 146 184 234 288 343
#     4   9  15  29  56  90 121 143 174 226 285 339
#     4   9  17  32  57  91 120 142 180 234 287 337
#     4  10  19  33  60  90 115 148 188 231 281 339
#     4  10  21  39  61  84 113 148 189 236 284 337
#     4  11  25  42  56  77 115 157 196 238 281 330
#
# _framework density 19.753086
#
# number of rings (size 3 to 8) (size 9 to 14) (size 15 to 20)
#    0.000    2.000    2.500    1.125    1.750    4.500 
#    0.000    3.125    0.000    3.000    0.000    0.000 
#    0.000    0.000    0.000    0.000    0.000    0.000 
#
# Total GULP energy -357161.673732 kJ/mol
# GULP energy per Si atom -5580.651152 kJ/mol
# Density = 1.970813 g / cm^3
# Si number density = 19.753086 Si / 1000 Ang^3
#
#
#
# Elastic Constant Matrix: (Units=GPa)
#
#
# Indices 1 2 3 4 5 6 
#
# 1 48.4001 -15.5659 8.3146 0.0000 0.0000 0.0000
# 2 -15.5659 39.7747 11.2605 0.0000 0.0000 0.0000
# 3 8.3146 11.2605 9.0614 0.0000 0.0000 0.0000
# 4 0.0000 0.0000 0.0000 -22.0557 0.0000 0.0000
# 5 0.0000 0.0000 0.0000 0.0000 0.2092 0.0000
# 6 0.0000 0.0000 0.0000 0.0000 0.0000 15.2601
#
#
#
# Elastic Compliance Matrix: (Units=1/GPa)
#
#
# Indices 1 2 3 4 5 6 
#
# 1 0.067775 0.068082 -0.146794 0.000000 0.000000 0.000000
# 2 0.068082 0.107179 -0.195661 0.000000 0.000000 0.000000
# 3 -0.146794 -0.195661 0.488200 0.000000 0.000000 0.000000
# 4 0.000000 0.000000 0.000000 -0.045340 0.000000 0.000000
# 5 0.000000 0.000000 0.000000 0.000000 4.779976 0.000000
# 6 0.000000 0.000000 0.000000 0.000000 0.000000 0.065530
#
#
# Mechanical properties :
#
#
# Convention : Reuss Voigt Hill
#
# Bulk Modulus (GPa) = 8.74070 11.69496 10.21783
# Shear Modulus (GPa) = 0.82642 4.89784 2.86213
#
# Velocity S-wave (km/s) = 0.64752 1.57636 1.20503
# Velocity P-wave (km/s) = 2.23464 3.04083 2.66836
#
# Compressibility (1/GPa) = 0.11440730
#
# Stress axis : x y z
#
# Youngs Moduli (GPa) = 14.75475 9.33018 2.04834
#
# Poissons Ratio (x) = -0.63522 0.30068
# Poissons Ratio (y) = -1.00454 0.40078
# Poissons Ratio (z) = 2.16591 1.82556
#
# Static dielectric constant tensor:
#      x y z
#    x 1.709730 0.000000 0.000000 
#    y 0.000000 1.699250 0.000000 
#    z 0.000000 0.000000 1.660630 
# 
# From -- ./inp_files/4653.got.cif
#   From: 2010.05.17/outbox.ucp.g08.bks.cvg/sg55_3_cif.got.tgz:4653.got - 2010.06.11 16:36:00.
