data_PCOD9429380
_publ_section_title
;
Structure prediction by ZEFSAII (Michael W. Deem and Ramdas Pophale) SiO2 
 PCOD9429380
Probable space group: P B A M
;
_chemical_formula_sum "Si O2"
_cell_formula_units_Z 56
_cell_length_a 15.000000
_cell_length_b 15.000000
_cell_length_c 15.000000
_cell_angle_alpha 90.000000
_cell_angle_beta 90.000000
_cell_angle_gamma 90.000000
_cell_volume 3375.000000
_symmetry_space_group_name_H-M "P B A M"
_symmetry_group_IT_number 55
_symmetry_cell_setting 'orthorhombic'
loop_
_space_group_symop_operation_xyz
x,y,z
-x,-y,z
1/2+x,1/2-y,-z
1/2-x,1/2+y,-z
-x,-y,-z
x,y,-z
1/2-x,1/2+y,z
1/2+x,1/2-y,z
loop_
_atom_site_type_symbol
_atom_site_label
_atom_site_fract_x
_atom_site_fract_y
_atom_site_fract_z
Si Si1 0.130368 0.570252 0.897879
Si Si2 0.268379 0.802523 0.607856
Si Si3 0.950028 0.728343 0.711610
Si Si4 0.248703 0.509232 0.603421
Si Si5 0.923187 0.630634 0.103262
Si Si6 0.150453 0.652471 0.288640
Si Si7 0.444646 0.591409 0.604955
O O1 0.130224 0.462825 0.879546
O O2 0.170074 0.628628 0.816041
O O3 0.026646 0.600075 0.899252
O O4 0.164580 0.584176 0.000000
O O5 0.264732 0.784085 0.500000
O O6 0.369699 0.800243 0.645281
O O7 0.209812 0.730660 0.664282
O O8 0.236558 0.904550 0.623325
O O9 0.917928 0.700849 0.813398
O O10 0.964692 0.831101 0.677472
O O11 0.046154 0.679598 0.701667
O O12 0.221986 0.513695 0.500000
O O13 0.175441 0.560698 0.661165
O O14 0.341215 0.563117 0.613386
O O15 0.901723 0.660280 0.000000
O O16 0.500000 0.500000 0.618400
O O17 0.460012 0.619727 0.500000
#
# Coordination Sequence:
#
# PCOD9429380 Si02
#       7
#     8   8   8   8   8   8   8
#     4   8  15  30  53  80 111 145 178 221 277 341
#     4  11  23  37  53  79 113 149 189 232 281 337
#     4  11  21  34  57  84 108 145 189 235 288 343
#     4  10  21  36  53  75 109 147 182 229 281 328
#     4   8  15  30  53  82 112 140 177 224 282 345
#     4  11  21  35  56  81 112 144 183 238 285 330
#     4  10  20  36  55  75 105 152 201 230 262 333
#
# _framework density 16.592593000000001
#
# number of rings (size 3 to 8) (size 9 to 14) (size 15 to 20)
#    0.000    2.143    1.429    3.429    0.000    5.143 
#    0.000    2.143    0.000    1.286    0.000    0.000 
#    0.000    0.000    0.000    0.000    0.000    0.000 
#
# Total GULP energy -311808.782904 kJ/mol
# GULP energy per Si atom -5568.013980 kJ/mol
# Density = 1.655483 g / cm^3
# Si number density = 16.592593 Si / 1000 Ang^3
#
#
#
# Elastic Constant Matrix: (Units=GPa)
#
#
# Indices 1 2 3 4 5 6 
#
# 1 55.4588 15.8204 33.7090 0.0000 0.0000 0.0000
# 2 15.8204 103.5180 76.7283 0.0000 0.0000 0.0000
# 3 33.7090 76.7283 150.7325 0.0000 0.0000 0.0000
# 4 0.0000 0.0000 0.0000 39.8665 0.0000 0.0000
# 5 0.0000 0.0000 0.0000 0.0000 26.0796 0.0000
# 6 0.0000 0.0000 0.0000 0.0000 0.0000 32.0185
#
#
#
# Elastic Compliance Matrix: (Units=1/GPa)
#
#
# Indices 1 2 3 4 5 6 
#
# 1 0.020880 0.000434 -0.004890 0.000000 0.000000 0.000000
# 2 0.000434 0.015522 -0.007998 0.000000 0.000000 0.000000
# 3 -0.004890 -0.007998 0.011799 0.000000 0.000000 0.000000
# 4 0.000000 0.000000 0.000000 0.025084 0.000000 0.000000
# 5 0.000000 0.000000 0.000000 0.000000 0.038344 0.000000
# 6 0.000000 0.000000 0.000000 0.000000 0.000000 0.031232
#
#
# Mechanical properties :
#
#
# Convention : Reuss Voigt Hill
#
# Bulk Modulus (GPa) = 42.93360 62.46941 52.70150
# Shear Modulus (GPa) = 28.48422 31.82301 30.15361
#
# Velocity S-wave (km/s) = 4.14778 4.38414 4.26760
# Velocity P-wave (km/s) = 6.99072 7.95979 7.49094
#
# Compressibility (1/GPa) = 0.02329178
#
# Stress axis : x y z
#
# Youngs Moduli (GPa) = 47.89252 64.42310 84.75011
#
# Poissons Ratio (x) = -0.02794 0.41445
# Poissons Ratio (y) = -0.02077 0.67787
# Poissons Ratio (z) = 0.23421 0.51528
#
# Static dielectric constant tensor:
#      x y z
#    x 1.567290 0.000000 0.000000 
#    y 0.000000 1.585790 0.000000 
#    z 0.000000 0.000000 1.584000 
# 
# From -- ./inp_files/19043.got.cif
#   From: 2010.05.17/outbox.ucp.g08.bks.cvg/sg55_10_cif.got.tgz:19043.got - 2010.06.11 16:36:00.
