data_PCOD9429512
_publ_section_title
;
Structure prediction by ZEFSAII (Michael W. Deem and Ramdas Pophale) SiO2 
 PCOD9429512
Probable space group: P C C N
;
_chemical_formula_sum "Si O2"
_cell_formula_units_Z 48
_cell_length_a 7.351831
_cell_length_b 15.311127
_cell_length_c 16.362714
_cell_angle_alpha 90.000000
_cell_angle_beta 90.000000
_cell_angle_gamma 90.000000
_cell_volume 1841.865925
_symmetry_space_group_name_H-M "P C C N"
_symmetry_group_IT_number 56
_symmetry_cell_setting 'orthorhombic'
loop_
_space_group_symop_operation_xyz
x,y,z
1/2-x,1/2-y,z
1/2+x,-y,1/2-z
-x,1/2+y,1/2-z
-x,-y,-z
1/2+x,1/2+y,-z
1/2-x,y,1/2+z
x,1/2-y,1/2+z
loop_
_atom_site_type_symbol
_atom_site_label
_atom_site_fract_x
_atom_site_fract_y
_atom_site_fract_z
Si Si1 0.376109 0.927595 0.598933
Si Si2 0.029152 0.216677 0.107829
Si Si3 0.246573 0.088417 0.008627
Si Si4 0.920951 0.586279 0.153443
Si Si5 0.750000 0.750000 0.746766
Si Si6 0.750000 0.250000 0.470699
Si Si7 0.627306 0.049206 0.696001
O O1 0.557774 0.918125 0.541823
O O2 0.293022 0.831573 0.588044
O O3 0.242812 0.998676 0.557790
O O4 0.469298 0.978123 0.674641
O O5 0.081394 0.266564 0.191316
O O6 0.909869 0.134101 0.141079
O O7 0.916758 0.259773 0.035018
O O8 0.206446 0.166327 0.070993
O O9 0.402385 0.102124 0.942555
O O10 0.808014 0.666691 0.194272
O O11 0.100144 0.576047 0.209374
O O12 0.809703 0.497335 0.168586
#
# Coordination Sequence:
#
# PCOD9429512 Si02
#       7
#     8   8   8   8   4   4   8
#     4   8  15  29  50  76  99 125 168 216 252 289
#     4   9  19  35  53  75 103 135 173 213 255 301
#     4   8  15  31  53  69  94 139 173 196 249 316
#     4  10  19  34  54  74 100 135 171 206 254 309
#     4  10  22  34  46  76 114 136 160 212 268 304
#     4  10  16  28  56  80  94 126 182 220 244 288
#     4   9  19  36  53  72 104 140 168 203 256 316
#
# _framework density 26.060528999999999
#
# number of rings (size 3 to 8) (size 9 to 14) (size 15 to 20)
#    0.000    3.000    0.000    3.000    0.000    3.333 
#    0.000   11.667    0.000    8.000    0.000    0.000 
#    0.000    0.000    0.000    0.000    0.000    0.000 
#
# Total GULP energy -268253.240792 kJ/mol
# GULP energy per Si atom -5588.609183 kJ/mol
# Density = 2.600121 g / cm^3
# Si number density = 26.060529 Si / 1000 Ang^3
#
#
#
# Elastic Constant Matrix: (Units=GPa)
#
#
# Indices 1 2 3 4 5 6 
#
# 1 47.9516 -2.1940 -6.9461 0.0000 0.0000 0.0000
# 2 -2.1940 107.0462 27.3819 0.0000 0.0000 0.0000
# 3 -6.9461 27.3819 111.3328 0.0000 0.0000 0.0000
# 4 0.0000 0.0000 0.0000 22.0785 0.0000 0.0000
# 5 0.0000 0.0000 0.0000 0.0000 27.5146 0.0000
# 6 0.0000 0.0000 0.0000 0.0000 0.0000 26.7924
#
#
#
# Elastic Compliance Matrix: (Units=1/GPa)
#
#
# Indices 1 2 3 4 5 6 
#
# 1 0.021046 0.000102 0.001288 0.000000 0.000000 0.000000
# 2 0.000102 0.009969 -0.002446 0.000000 0.000000 0.000000
# 3 0.001288 -0.002446 0.009664 0.000000 0.000000 0.000000
# 4 0.000000 0.000000 0.000000 0.045293 0.000000 0.000000
# 5 0.000000 0.000000 0.000000 0.000000 0.036344 0.000000
# 6 0.000000 0.000000 0.000000 0.000000 0.000000 0.037324
#
#
# Mechanical properties :
#
#
# Convention : Reuss Voigt Hill
#
# Bulk Modulus (GPa) = 25.92856 33.64601 29.78728
# Shear Modulus (GPa) = 28.63566 31.81635 30.22600
#
# Velocity S-wave (km/s) = 3.31843 3.49788 3.40933
# Velocity P-wave (km/s) = 4.96524 5.40854 5.19162
#
# Compressibility (1/GPa) = 0.03856752
#
# Stress axis : x y z
#
# Youngs Moduli (GPa) = 47.51588 100.30672 103.47764
#
# Poissons Ratio (x) = -0.01022 -0.13328
# Poissons Ratio (y) = -0.00484 0.25306
# Poissons Ratio (z) = -0.06120 0.24531
#
# Static dielectric constant tensor:
#      x y z
#    x 2.199210 0.000000 0.000000 
#    y 0.000000 2.017170 0.000000 
#    z 0.000000 0.000000 2.038750 
# 
# From -- ./inp_files/15001.got.cif
#   From: 2010.05.17/outbox.cif.g08.bks.cpg/sg56_8_cif.got.tgz:15001.got - 2010.06.03 13:42:01.
