data_PCOD9429680
_publ_section_title
;
Structure prediction by ZEFSAII (Michael W. Deem and Ramdas Pophale) SiO2 
 PCOD9429680
Probable space group: P C C N
;
_chemical_formula_sum "Si O2"
_cell_formula_units_Z 56
_cell_length_a 25.155721
_cell_length_b 5.483814
_cell_length_c 17.989179
_cell_angle_alpha 90.000000
_cell_angle_beta 90.000000
_cell_angle_gamma 90.000000
_cell_volume 2481.594561
_symmetry_space_group_name_H-M "P C C N"
_symmetry_group_IT_number 56
_symmetry_cell_setting 'orthorhombic'
loop_
_space_group_symop_operation_xyz
x,y,z
1/2-x,1/2-y,z
1/2+x,-y,1/2-z
-x,1/2+y,1/2-z
-x,-y,-z
1/2+x,1/2+y,-z
1/2-x,y,1/2+z
x,1/2-y,1/2+z
loop_
_atom_site_type_symbol
_atom_site_label
_atom_site_fract_x
_atom_site_fract_y
_atom_site_fract_z
Si Si1 0.562866 0.746196 0.504151
Si Si2 0.445997 0.747845 0.052389
Si Si3 0.308622 0.821853 0.890752
Si Si4 0.152098 0.705537 0.725114
Si Si5 0.186584 0.208861 0.716202
Si Si6 0.858043 0.678797 0.616617
Si Si7 0.470843 0.742156 0.225285
O O1 0.583254 0.496234 0.468867
O O2 0.498979 0.748329 0.500889
O O3 0.582842 0.763555 0.589158
O O4 0.580908 0.989541 0.462486
O O5 0.464240 0.760901 0.136900
O O6 0.250000 0.750000 0.913321
O O7 0.312716 0.822119 0.800176
O O8 0.344633 0.591129 0.911647
O O9 0.324447 0.092753 0.914988
O O10 0.161756 0.453202 0.682076
O O11 0.090871 0.726320 0.751187
O O12 0.171930 0.946110 0.682592
O O13 0.250000 0.250000 0.723991
O O14 0.156488 0.183936 0.796463
O O15 0.501085 0.490557 0.246132
#
# Coordination Sequence:
#
# PCOD9429680 Si02
#       7
#     8   8   8   8   8   8   8
#     4  10  21  38  59  79 106 159 192 242 275 333
#     4  10  23  40  55  80 116 148 207 232 277 338
#     4  10  19  31  51  86 117 139 180 242 300 353
#     4  10  20  33  52  81 114 155 177 228 304 347
#     4  10  19  34  56  89 118 142 187 246 301 356
#     4  10  18  29  54  79 109 141 184 222 297 335
#     4  12  26  39  59  86 121 162 197 250 293 346
#
# _framework density 22.566134000000002
#
# number of rings (size 3 to 8) (size 9 to 14) (size 15 to 20)
#    0.000    1.714    0.000    6.857    8.000    0.000 
#    0.000    0.000    0.000    0.000    0.000   34.000 
#    0.000    0.000    0.000    0.000    0.000    0.000 
#
# Total GULP energy -312249.175744 kJ/mol
# GULP energy per Si atom -5575.878138 kJ/mol
# Density = 2.251477 g / cm^3
# Si number density = 22.566134 Si / 1000 Ang^3
#
#
#
# Elastic Constant Matrix: (Units=GPa)
#
#
# Indices 1 2 3 4 5 6 
#
# 1 69.6412 10.6462 -6.6514 0.0000 0.0000 0.0000
# 2 10.6462 202.6006 9.8250 0.0000 0.0000 0.0000
# 3 -6.6514 9.8250 42.3984 0.0000 0.0000 0.0000
# 4 0.0000 0.0000 0.0000 9.9774 0.0000 0.0000
# 5 0.0000 0.0000 0.0000 0.0000 49.6106 0.0000
# 6 0.0000 0.0000 0.0000 0.0000 0.0000 27.6039
#
#
#
# Elastic Compliance Matrix: (Units=1/GPa)
#
#
# Indices 1 2 3 4 5 6 
#
# 1 0.014737 -0.000897 0.002520 0.000000 0.000000 0.000000
# 2 -0.000897 0.005046 -0.001310 0.000000 0.000000 0.000000
# 3 0.002520 -0.001310 0.024285 0.000000 0.000000 0.000000
# 4 0.000000 0.000000 0.000000 0.100227 0.000000 0.000000
# 5 0.000000 0.000000 0.000000 0.000000 0.020157 0.000000
# 6 0.000000 0.000000 0.000000 0.000000 0.000000 0.036227
#
#
# Mechanical properties :
#
#
# Convention : Reuss Voigt Hill
#
# Bulk Modulus (GPa) = 22.37424 38.03108 30.20266
# Shear Modulus (GPa) = 23.26115 37.49306 30.37710
#
# Velocity S-wave (km/s) = 3.21409 4.08054 3.67295
# Velocity P-wave (km/s) = 4.86932 6.25227 5.60362
#
# Compressibility (1/GPa) = 0.04469425
#
# Stress axis : x y z
#
# Youngs Moduli (GPa) = 67.85624 198.15848 41.17821
#
# Poissons Ratio (x) = 0.17767 -0.10376
# Poissons Ratio (y) = 0.06084 0.05395
# Poissons Ratio (z) = -0.17098 0.25960
#
# Static dielectric constant tensor:
#      x y z
#    x 1.836970 0.000000 0.000000 
#    y 0.000000 1.947040 0.000000 
#    z 0.000000 0.000000 1.713320 
# 
# From -- ./inp_files/19571.got.cif
#   From: 2010.05.17/outbox.cif.g08.bks.cpg/sg56_10_cif.got.tgz:19571.got - 2010.06.03 13:42:01.
