data_PCOD9429847
_publ_section_title
;
Structure prediction by ZEFSAII (Michael W. Deem and Ramdas Pophale) SiO2 
 PCOD9429847
Probable space group: P C C N
;
_chemical_formula_sum "Si O2"
_cell_formula_units_Z 52
_cell_length_a 8.999223
_cell_length_b 7.498039
_cell_length_c 29.448628
_cell_angle_alpha 90.000000
_cell_angle_beta 90.000000
_cell_angle_gamma 90.000000
_cell_volume 1987.091084
_symmetry_space_group_name_H-M "P C C N"
_symmetry_group_IT_number 56
_symmetry_cell_setting 'orthorhombic'
loop_
_space_group_symop_operation_xyz
x,y,z
1/2-x,1/2-y,z
1/2+x,-y,1/2-z
-x,1/2+y,1/2-z
-x,-y,-z
1/2+x,1/2+y,-z
1/2-x,y,1/2+z
x,1/2-y,1/2+z
loop_
_atom_site_type_symbol
_atom_site_label
_atom_site_fract_x
_atom_site_fract_y
_atom_site_fract_z
Si Si1 0.420141 0.763364 0.026219
Si Si2 0.195832 0.427932 0.278326
Si Si3 0.017437 0.549649 0.644077
Si Si4 0.509890 0.969696 0.798629
Si Si5 0.250000 0.750000 0.189867
Si Si6 0.068027 0.056816 0.397445
Si Si7 0.888235 0.440598 0.562687
O O1 0.250000 0.750000 0.044222
O O2 0.397235 0.719490 0.973016
O O3 0.479465 0.932520 0.054600
O O4 0.546215 0.614684 0.037307
O O5 0.250000 0.250000 0.303485
O O6 0.119657 0.357484 0.232523
O O7 0.347312 0.537625 0.275429
O O8 0.077736 0.511393 0.312645
O O9 0.182437 0.591885 0.659632
O O10 0.956710 0.739390 0.622745
O O11 0.001901 0.411603 0.603718
O O12 0.602232 0.157449 0.789817
O O13 0.484096 0.951283 0.852226
O O14 0.232699 0.992271 0.412514
#
# Coordination Sequence:
#
# PCOD9429847 Si02
#       7
#     8   8   8   8   4   8   8
#     4  10  22  36  63  95 117 157 217 271 313 387
#     4  12  21  40  63  96 134 169 224 263 325 385
#     4  10  18  35  63  90 123 172 215 263 316 396
#     4  11  24  36  64  98 128 177 214 272 317 395
#     4  10  20  34  60  94 122 174 226 254 320 384
#     4  10  20  39  64  92 127 164 211 259 333 383
#     4  10  20  37  62  91 124 162 206 272 330 366
#
# _framework density 26.168903
#
# number of rings (size 3 to 8) (size 9 to 14) (size 15 to 20)
#    0.000    1.538    4.615    2.769    9.692    0.615 
#    0.000    0.000    8.462    0.000    0.000    0.000 
#    0.000    0.000    0.000    0.000    0.000    0.000 
#
# Total GULP energy -289532.286260 kJ/mol
# GULP energy per Si atom -5567.928582 kJ/mol
# Density = 2.610934 g / cm^3
# Si number density = 26.168903 Si / 1000 Ang^3
#
#
#
# Elastic Constant Matrix: (Units=GPa)
#
#
# Indices 1 2 3 4 5 6 
#
# 1 159.6903 19.5214 74.1478 0.0000 0.0000 0.0000
# 2 19.5214 41.4141 30.1669 0.0000 0.0000 0.0000
# 3 74.1478 30.1669 160.4672 0.0000 0.0000 0.0000
# 4 0.0000 0.0000 0.0000 29.7344 0.0000 0.0000
# 5 0.0000 0.0000 0.0000 0.0000 47.9278 0.0000
# 6 0.0000 0.0000 0.0000 0.0000 0.0000 29.3310
#
#
#
# Elastic Compliance Matrix: (Units=1/GPa)
#
#
# Indices 1 2 3 4 5 6 
#
# 1 0.008028 -0.001254 -0.003474 0.000000 0.000000 0.000000
# 2 -0.001254 0.028173 -0.004717 0.000000 0.000000 0.000000
# 3 -0.003474 -0.004717 0.008724 0.000000 0.000000 0.000000
# 4 0.000000 0.000000 0.000000 0.033631 0.000000 0.000000
# 5 0.000000 0.000000 0.000000 0.000000 0.020865 0.000000
# 6 0.000000 0.000000 0.000000 0.000000 0.000000 0.034094
#
#
# Mechanical properties :
#
#
# Convention : Reuss Voigt Hill
#
# Bulk Modulus (GPa) = 38.40858 67.69374 53.05116
# Shear Modulus (GPa) = 31.03978 37.24768 34.14373
#
# Velocity S-wave (km/s) = 3.44776 3.77683 3.61604
# Velocity P-wave (km/s) = 5.52797 6.70399 6.14418
#
# Compressibility (1/GPa) = 0.02603585
#
# Stress axis : x y z
#
# Youngs Moduli (GPa) = 124.55674 35.49446 114.62824
#
# Poissons Ratio (x) = 0.04450 0.39822
# Poissons Ratio (y) = 0.15617 0.54071
# Poissons Ratio (z) = 0.43271 0.16743
#
# Static dielectric constant tensor:
#      x y z
#    x 2.112210 0.000000 0.000000 
#    y 0.000000 2.286280 0.000000 
#    z 0.000000 0.000000 2.156100 
# 
# From -- ./inp_files/22054.got.cif
#   From: 2010.05.17/outbox.cif.g08.bks.cpg/sg56_12_cif.got.tgz:22054.got - 2010.06.03 13:42:01.
