data_PCOD9429989
_publ_section_title
;
Structure prediction by ZEFSAII (Michael W. Deem and Ramdas Pophale) SiO2 
 PCOD9429989
Probable space group: P C C N
;
_chemical_formula_sum "Si O2"
_cell_formula_units_Z 48
_cell_length_a 18.792421
_cell_length_b 15.219183
_cell_length_c 9.159849
_cell_angle_alpha 90.000000
_cell_angle_beta 90.000000
_cell_angle_gamma 90.000000
_cell_volume 2619.765308
_symmetry_space_group_name_H-M "P C C N"
_symmetry_group_IT_number 56
_symmetry_cell_setting 'orthorhombic'
loop_
_space_group_symop_operation_xyz
x,y,z
1/2-x,1/2-y,z
1/2+x,-y,1/2-z
-x,1/2+y,1/2-z
-x,-y,-z
1/2+x,1/2+y,-z
1/2-x,y,1/2+z
x,1/2-y,1/2+z
loop_
_atom_site_type_symbol
_atom_site_label
_atom_site_fract_x
_atom_site_fract_y
_atom_site_fract_z
Si Si1 0.947020 0.130561 0.952995
Si Si2 0.560624 0.562395 0.435136
Si Si3 0.818947 0.812174 0.980040
Si Si4 0.395659 0.327330 0.325093
Si Si5 0.898194 0.540851 0.608826
Si Si6 0.523363 0.229677 0.184420
O O1 0.930141 0.171941 0.795532
O O2 0.029686 0.095773 0.937869
O O3 0.940114 0.211240 0.063842
O O4 0.904265 0.048319 0.016544
O O5 0.500000 0.500000 0.500000
O O6 0.608890 0.586729 0.574323
O O7 0.594797 0.528115 0.284073
O O8 0.527101 0.656597 0.389597
O O9 0.750000 0.750000 0.972881
O O10 0.871162 0.752103 0.074404
O O11 0.827826 0.904294 0.065385
O O12 0.847018 0.829860 0.817770
O O13 0.474330 0.300269 0.271359
#
# Coordination Sequence:
#
# PCOD9429989 Si02
#       6
#     8   8   8   8   8   8
#     4  10  19  30  52  74 112 146 187 234 296 357
#     4  11  21  30  53  77 109 149 187 244 294 363
#     4  12  23  36  53  73 108 160 201 239 284 339
#     4  12  19  36  49  75 108 147 198 228 287 351
#     4  10  20  35  49  78 107 154 196 240 285 355
#     4  11  17  31  49  75 106 151 178 231 293 361
#
# _framework density 18.322253
#
# number of rings (size 3 to 8) (size 9 to 14) (size 15 to 20)
#    0.000    1.000    8.333    1.500    4.667    0.000 
#    0.000    0.833    0.000    0.000    0.000    0.000 
#    0.000    1.333    6.333    0.167    0.000    0.000 
#
# Total GULP energy -267356.503273 kJ/mol
# GULP energy per Si atom -5569.927152 kJ/mol
# Density = 1.828055 g / cm^3
# Si number density = 18.322253 Si / 1000 Ang^3
#
#
#
# Elastic Constant Matrix: (Units=GPa)
#
#
# Indices 1 2 3 4 5 6 
#
# 1 21.3951 1.9847 22.0969 0.0000 0.0000 0.0000
# 2 1.9847 37.6000 23.8844 0.0000 0.0000 0.0000
# 3 22.0969 23.8844 131.7953 0.0000 0.0000 0.0000
# 4 0.0000 0.0000 0.0000 35.1414 0.0000 0.0000
# 5 0.0000 0.0000 0.0000 0.0000 8.3397 0.0000
# 6 0.0000 0.0000 0.0000 0.0000 0.0000 27.1442
#
#
#
# Elastic Compliance Matrix: (Units=1/GPa)
#
#
# Indices 1 2 3 4 5 6 
#
# 1 0.056923 0.003456 -0.010170 0.000000 0.000000 0.000000
# 2 0.003456 0.030265 -0.006064 0.000000 0.000000 0.000000
# 3 -0.010170 -0.006064 0.010392 0.000000 0.000000 0.000000
# 4 0.000000 0.000000 0.000000 0.028456 0.000000 0.000000
# 5 0.000000 0.000000 0.000000 0.000000 0.119909 0.000000
# 6 0.000000 0.000000 0.000000 0.000000 0.000000 0.036840
#
#
# Mechanical properties :
#
#
# Convention : Reuss Voigt Hill
#
# Bulk Modulus (GPa) = 13.88452 31.85804 22.87128
# Shear Modulus (GPa) = 15.04438 23.64668 19.34553
#
# Velocity S-wave (km/s) = 2.86859 3.59639 3.25291
# Velocity P-wave (km/s) = 4.30885 5.88818 5.15931
#
# Compressibility (1/GPa) = 0.07202267
#
# Stress axis : x y z
#
# Youngs Moduli (GPa) = 17.56767 33.04093 96.23161
#
# Poissons Ratio (x) = -0.11417 0.97867
# Poissons Ratio (y) = -0.06071 0.58357
# Poissons Ratio (z) = 0.17866 0.20037
#
# Static dielectric constant tensor:
#      x y z
#    x 1.837330 0.000000 0.000000 
#    y 0.000000 1.690050 0.000000 
#    z 0.000000 0.000000 1.706750 
# 
# From -- ./inp_files/3377.got.cif
#   From: 2010.05.17/outbox.cif.g08.bks.cpg/sg56_2_cif.got.tgz:3377.got - 2010.06.03 13:42:01.
