data_PCOD9429901
_publ_section_title
;
Structure prediction by ZEFSAII (Michael W. Deem and Ramdas Pophale) SiO2 
 PCOD9429901
Probable space group: P C C N
;
_chemical_formula_sum "Si O2"
_cell_formula_units_Z 24
_cell_length_a 7.746924
_cell_length_b 7.398596
_cell_length_c 14.685698
_cell_angle_alpha 90.000000
_cell_angle_beta 90.000000
_cell_angle_gamma 90.000000
_cell_volume 841.730767
_symmetry_space_group_name_H-M "P C C N"
_symmetry_group_IT_number 56
_symmetry_cell_setting 'orthorhombic'
loop_
_space_group_symop_operation_xyz
x,y,z
1/2-x,1/2-y,z
1/2+x,-y,1/2-z
-x,1/2+y,1/2-z
-x,-y,-z
1/2+x,1/2+y,-z
1/2-x,y,1/2+z
x,1/2-y,1/2+z
loop_
_atom_site_type_symbol
_atom_site_label
_atom_site_fract_x
_atom_site_fract_y
_atom_site_fract_z
Si Si1 0.309955 0.960662 0.042421
Si Si2 0.851582 0.982884 0.136263
Si Si3 0.510823 0.848323 0.806673
O O1 0.250000 0.750000 0.044874
O O2 0.337590 0.045687 0.141234
O O3 0.182468 0.054244 0.969284
O O4 0.500000 0.000000 0.000000
O O5 0.668428 0.046361 0.177470
O O6 0.972516 0.156718 0.148629
O O7 0.938558 0.835517 0.200777
#
# Coordination Sequence:
#
# PCOD9429901 Si02
#       3
#     8   8   8
#     4  10  18  37  69 107 149 190 244 308 381 456
#     4  10  21  42  67 106 141 191 244 302 377 449
#     4  10  22  39  71 103 146 190 241 309 373 453
#
# _framework density 28.512681000000001
#
# number of rings (size 3 to 8) (size 9 to 14) (size 15 to 20)
#    0.000    2.000    6.667    0.000    4.667    1.333 
#    0.000    1.667    0.000    8.000    0.000    4.667 
#    0.000    0.000    0.000    0.000    0.000    0.000 
#
# Total GULP energy -134650.151152 kJ/mol
# GULP energy per Si atom -5610.422965 kJ/mol
# Density = 2.844779 g / cm^3
# Si number density = 28.512681 Si / 1000 Ang^3
#
#
#
# Elastic Constant Matrix: (Units=GPa)
#
#
# Indices 1 2 3 4 5 6 
#
# 1 195.4694 49.0768 64.8940 0.0000 0.0000 0.0000
# 2 49.0768 181.7719 48.0325 0.0000 0.0000 0.0000
# 3 64.8940 48.0325 178.5270 0.0000 0.0000 0.0000
# 4 0.0000 0.0000 0.0000 24.7282 0.0000 0.0000
# 5 0.0000 0.0000 0.0000 0.0000 72.6235 0.0000
# 6 0.0000 0.0000 0.0000 0.0000 0.0000 54.0353
#
#
#
# Elastic Compliance Matrix: (Units=1/GPa)
#
#
# Indices 1 2 3 4 5 6 
#
# 1 0.006026 -0.001128 -0.001887 0.000000 0.000000 0.000000
# 2 -0.001128 0.006134 -0.001240 0.000000 0.000000 0.000000
# 3 -0.001887 -0.001240 0.006621 0.000000 0.000000 0.000000
# 4 0.000000 0.000000 0.000000 0.040440 0.000000 0.000000
# 5 0.000000 0.000000 0.000000 0.000000 0.013770 0.000000
# 6 0.000000 0.000000 0.000000 0.000000 0.000000 0.018506
#
#
# Mechanical properties :
#
#
# Convention : Reuss Voigt Hill
#
# Bulk Modulus (GPa) = 97.37225 97.75277 97.56251
# Shear Modulus (GPa) = 48.34215 56.52839 52.43527
#
# Velocity S-wave (km/s) = 4.12207 4.45744 4.29303
# Velocity P-wave (km/s) = 7.54187 7.80064 7.67235
#
# Compressibility (1/GPa) = 0.01026987
#
# Stress axis : x y z
#
# Youngs Moduli (GPa) = 165.96032 163.03284 151.03768
#
# Poissons Ratio (x) = 0.18395 0.28496
# Poissons Ratio (y) = 0.18725 0.18731
# Poissons Ratio (z) = 0.31312 0.20218
#
# Static dielectric constant tensor:
#      x y z
#    x 2.193220 0.000000 0.000000 
#    y 0.000000 2.194100 0.000000 
#    z 0.000000 0.000000 2.179000 
# 
# From -- ./inp_files/9932.got.cif
#   From: 2010.05.17/outbox.cif.g08.bks.cpg/sg56_5_cif.got.tgz:9932.got - 2010.06.03 13:42:01.
