data_PCOD9429690
_publ_section_title
;
Structure prediction by ZEFSAII (Michael W. Deem and Ramdas Pophale) SiO2 
 PCOD9429690
Probable space group: P C C N
;
_chemical_formula_sum "Si O2"
_cell_formula_units_Z 52
_cell_length_a 20.680433
_cell_length_b 5.547420
_cell_length_c 22.405637
_cell_angle_alpha 90.000000
_cell_angle_beta 90.000000
_cell_angle_gamma 90.000000
_cell_volume 2570.442961
_symmetry_space_group_name_H-M "P C C N"
_symmetry_group_IT_number 56
_symmetry_cell_setting 'orthorhombic'
loop_
_space_group_symop_operation_xyz
x,y,z
1/2-x,1/2-y,z
1/2+x,-y,1/2-z
-x,1/2+y,1/2-z
-x,-y,-z
1/2+x,1/2+y,-z
1/2-x,y,1/2+z
x,1/2-y,1/2+z
loop_
_atom_site_type_symbol
_atom_site_label
_atom_site_fract_x
_atom_site_fract_y
_atom_site_fract_z
Si Si1 0.947951 0.332713 0.190686
Si Si2 0.642231 0.577031 0.846345
Si Si3 0.013876 0.473932 0.596796
Si Si4 0.445427 0.308043 0.483222
Si Si5 0.250000 0.750000 0.122629
Si Si6 0.915754 0.833998 0.239834
Si Si7 0.814609 0.627032 0.962060
O O1 0.914727 0.592546 0.198679
O O2 0.011891 0.345027 0.232332
O O3 0.906721 0.097464 0.211124
O O4 0.976329 0.249814 0.126661
O O5 0.572007 0.454167 0.858321
O O6 0.701543 0.400605 0.836242
O O7 0.631170 0.771605 0.794890
O O8 0.662062 0.700544 0.908324
O O9 0.046817 0.393152 0.535206
O O10 0.964691 0.683112 0.578692
O O11 0.500000 0.500000 0.500000
O O12 0.373152 0.407134 0.491970
O O13 0.204968 0.605511 0.076009
O O14 0.750000 0.750000 0.988377
#
# Coordination Sequence:
#
# PCOD9429690 Si02
#       7
#     8   8   8   8   4   8   8
#     4   9  18  31  48  74 104 137 166 207 255 322
#     4   9  18  31  49  75 105 133 170 217 271 326
#     4   9  19  32  48  75 108 135 171 223 274 322
#     4  10  19  31  51  77 104 137 175 223 277 319
#     4  10  18  30  50  72 102 138 174 214 270 320
#     4   9  18  30  49  74 103 134 170 203 259 315
#     4   9  19  33  49  73 104 137 173 218 267 331
#
# _framework density 20.229977000000002
#
# number of rings (size 3 to 8) (size 9 to 14) (size 15 to 20)
#    0.000    2.769    0.000    0.923    4.308    1.231 
#    0.000    0.000    0.000    0.000    4.000    0.000 
#    0.000    0.000    0.000    0.000    0.000    0.000 
#
# Total GULP energy -289612.206223 kJ/mol
# GULP energy per Si atom -5569.465504 kJ/mol
# Density = 2.018393 g / cm^3
# Si number density = 20.229977 Si / 1000 Ang^3
#
#
#
# Elastic Constant Matrix: (Units=GPa)
#
#
# Indices 1 2 3 4 5 6 
#
# 1 88.4740 14.2529 12.0051 0.0000 0.0000 0.0000
# 2 14.2529 50.1728 7.6608 0.0000 0.0000 0.0000
# 3 12.0051 7.6608 34.5577 0.0000 0.0000 0.0000
# 4 0.0000 0.0000 0.0000 21.5821 0.0000 0.0000
# 5 0.0000 0.0000 0.0000 0.0000 4.7989 0.0000
# 6 0.0000 0.0000 0.0000 0.0000 0.0000 20.0090
#
#
#
# Elastic Compliance Matrix: (Units=1/GPa)
#
#
# Indices 1 2 3 4 5 6 
#
# 1 0.012265 -0.002933 -0.003611 0.000000 0.000000 0.000000
# 2 -0.002933 0.021331 -0.003710 0.000000 0.000000 0.000000
# 3 -0.003611 -0.003710 0.031014 0.000000 0.000000 0.000000
# 4 0.000000 0.000000 0.000000 0.046335 0.000000 0.000000
# 5 0.000000 0.000000 0.000000 0.000000 0.208380 0.000000
# 6 0.000000 0.000000 0.000000 0.000000 0.000000 0.049977
#
#
# Mechanical properties :
#
#
# Convention : Reuss Voigt Hill
#
# Bulk Modulus (GPa) = 22.67418 26.78245 24.72831
# Shear Modulus (GPa) = 12.36066 18.56373 15.46219
#
# Velocity S-wave (km/s) = 2.47454 3.03254 2.76763
# Velocity P-wave (km/s) = 4.40420 5.05266 4.73954
#
# Compressibility (1/GPa) = 0.04410304
#
# Stress axis : x y z
#
# Youngs Moduli (GPa) = 81.53168 46.88071 32.24376
#
# Poissons Ratio (x) = 0.13750 0.11642
# Poissons Ratio (y) = 0.23913 0.11962
# Poissons Ratio (z) = 0.29438 0.17391
#
# Static dielectric constant tensor:
#      x y z
#    x 1.741810 0.000000 0.000000 
#    y 0.000000 1.789340 0.000000 
#    z 0.000000 0.000000 1.741230 
# 
# From -- ./inp_files/17565.got.cif
#   From: 2010.05.17/outbox.cif.g08.bks.cpg/sg56_9_cif.got.tgz:17565.got - 2010.06.03 13:42:01.
