data_PCOD9429677
_publ_section_title
;
Structure prediction by ZEFSAII (Michael W. Deem and Ramdas Pophale) SiO2 
 PCOD9429677
Probable space group: P C C N
;
_chemical_formula_sum "Si O2"
_cell_formula_units_Z 40
_cell_length_a 22.346842
_cell_length_b 7.268876
_cell_length_c 9.454562
_cell_angle_alpha 90.000000
_cell_angle_beta 90.000000
_cell_angle_gamma 90.000000
_cell_volume 1535.765237
_symmetry_space_group_name_H-M "P C C N"
_symmetry_group_IT_number 56
_symmetry_cell_setting 'orthorhombic'
loop_
_space_group_symop_operation_xyz
x,y,z
1/2-x,1/2-y,z
1/2+x,-y,1/2-z
-x,1/2+y,1/2-z
-x,-y,-z
1/2+x,1/2+y,-z
1/2-x,y,1/2+z
x,1/2-y,1/2+z
loop_
_atom_site_type_symbol
_atom_site_label
_atom_site_fract_x
_atom_site_fract_y
_atom_site_fract_z
Si Si1 0.174697 0.049899 0.437596
Si Si2 0.057320 0.610797 0.650003
Si Si3 0.738525 0.473187 0.290135
Si Si4 0.872003 0.353430 0.627949
Si Si5 0.044186 0.138575 0.414073
O O1 0.206838 0.074029 0.287141
O O2 0.222815 0.058667 0.560495
O O3 0.157724 0.834103 0.428760
O O4 0.111803 0.146740 0.470096
O O5 0.085018 0.779049 0.745680
O O6 0.096710 0.576016 0.512865
O O7 0.052790 0.443615 0.757286
O O8 0.992568 0.676288 0.599663
O O9 0.750000 0.250000 0.304781
O O10 0.678931 0.480526 0.193434
O O11 0.000000 0.000000 0.500000
#
# Coordination Sequence:
#
# PCOD9429677 Si02
#       5
#     8   8   8   8   8
#     4  10  20  30  54  80 125 152 191 251 320 354
#     4  11  21  37  62  87 125 164 203 252 313 376
#     4  10  18  29  51  86 121 153 191 255 318 368
#     4  10  18  33  54  87 121 152 196 250 313 364
#     4  11  22  40  59  89 130 162 205 261 310 371
#
# _framework density 26.045648
#
# number of rings (size 3 to 8) (size 9 to 14) (size 15 to 20)
#    0.000    1.600    6.000    1.800    5.600    0.800 
#    0.000    0.000    0.000    0.000    0.000   11.200 
#    0.000    0.000    0.000    0.000    0.000    0.000 
#
# Total GULP energy -224191.072833 kJ/mol
# GULP energy per Si atom -5604.776821 kJ/mol
# Density = 2.598637 g / cm^3
# Si number density = 26.045648 Si / 1000 Ang^3
#
#
#
# Elastic Constant Matrix: (Units=GPa)
#
#
# Indices 1 2 3 4 5 6 
#
# 1 139.3083 24.5936 61.3433 0.0000 0.0000 0.0000
# 2 24.5936 71.2996 20.5273 0.0000 0.0000 0.0000
# 3 61.3433 20.5273 137.1387 0.0000 0.0000 0.0000
# 4 0.0000 0.0000 0.0000 4.6057 0.0000 0.0000
# 5 0.0000 0.0000 0.0000 0.0000 63.7338 0.0000
# 6 0.0000 0.0000 0.0000 0.0000 0.0000 36.4523
#
#
#
# Elastic Compliance Matrix: (Units=1/GPa)
#
#
# Indices 1 2 3 4 5 6 
#
# 1 0.009226 -0.002084 -0.003815 0.000000 0.000000 0.000000
# 2 -0.002084 0.015128 -0.001332 0.000000 0.000000 0.000000
# 3 -0.003815 -0.001332 0.009198 0.000000 0.000000 0.000000
# 4 0.000000 0.000000 0.000000 0.217123 0.000000 0.000000
# 5 0.000000 0.000000 0.000000 0.000000 0.015690 0.000000
# 6 0.000000 0.000000 0.000000 0.000000 0.000000 0.027433
#
#
# Mechanical properties :
#
#
# Convention : Reuss Voigt Hill
#
# Bulk Modulus (GPa) = 52.38554 62.29724 57.34139
# Shear Modulus (GPa) = 15.89204 37.04386 26.46795
#
# Velocity S-wave (km/s) = 2.47282 3.77539 3.19127
# Velocity P-wave (km/s) = 5.32069 6.55554 5.97013
#
# Compressibility (1/GPa) = 0.01908924
#
# Stress axis : x y z
#
# Youngs Moduli (GPa) = 108.38764 66.10388 108.72211
#
# Poissons Ratio (x) = 0.13776 0.41477
# Poissons Ratio (y) = 0.22589 0.14483
# Poissons Ratio (z) = 0.41350 0.08806
#
# Static dielectric constant tensor:
#      x y z
#    x 0.826260 0.000000 0.000000 
#    y 0.000000 2.130070 0.000000 
#    z 0.000000 0.000000 1.649860 
# 
# From -- ./inp_files/2042.got.cif
#   From: 2010.05.17/outbox.cif.g08.bks.cpg/sg56_2_cif.got.tgz:2042.got - 2010.06.03 13:42:01.
