data_PCOD9429573
_publ_section_title
;
Structure prediction by ZEFSAII (Michael W. Deem and Ramdas Pophale) SiO2 
 PCOD9429573
Probable space group: P C C N
;
_chemical_formula_sum "Si O2"
_cell_formula_units_Z 48
_cell_length_a 7.288010
_cell_length_b 21.213992
_cell_length_c 11.632144
_cell_angle_alpha 90.000000
_cell_angle_beta 90.000000
_cell_angle_gamma 90.000000
_cell_volume 1798.420028
_symmetry_space_group_name_H-M "P C C N"
_symmetry_group_IT_number 56
_symmetry_cell_setting 'orthorhombic'
loop_
_space_group_symop_operation_xyz
x,y,z
1/2-x,1/2-y,z
1/2+x,-y,1/2-z
-x,1/2+y,1/2-z
-x,-y,-z
1/2+x,1/2+y,-z
1/2-x,y,1/2+z
x,1/2-y,1/2+z
loop_
_atom_site_type_symbol
_atom_site_label
_atom_site_fract_x
_atom_site_fract_y
_atom_site_fract_z
Si Si1 0.660717 0.552350 0.986470
Si Si2 0.929130 0.876528 0.182703
Si Si3 0.971787 0.260809 0.875285
Si Si4 0.542253 0.138798 0.679897
Si Si5 0.561708 0.150261 0.075077
Si Si6 0.677195 0.440720 0.373238
O O1 0.581502 0.613655 0.922732
O O2 0.802116 0.512446 0.910744
O O3 0.500000 0.500000 0.000000
O O4 0.709278 0.578044 0.113825
O O5 0.929353 0.805257 0.138056
O O6 0.934292 0.868542 0.319196
O O7 0.126251 0.907262 0.150508
O O8 0.750000 0.250000 0.867774
O O9 0.020642 0.308571 0.771090
O O10 0.006020 0.291573 0.999180
O O11 0.736410 0.162174 0.628653
O O12 0.575429 0.075365 0.755471
O O13 0.593570 0.095897 0.981552
#
# Coordination Sequence:
#
# PCOD9429573 Si02
#       6
#     8   8   8   8   8   8
#     4  10  18  32  47  69 100 135 173 200 239 299
#     4  10  19  25  43  67  98 139 156 195 235 299
#     4  11  18  24  40  67 100 137 157 185 248 311
#     4  10  18  28  45  68  98 133 160 202 244 292
#     4  10  17  27  40  65 100 130 164 183 238 300
#     4   9  18  30  47  64  95 141 164 203 238 293
#
# _framework density 26.690094999999999
#
# number of rings (size 3 to 8) (size 9 to 14) (size 15 to 20)
#    0.000    2.000    8.333    0.000    4.667    0.000 
#    0.000    0.000    0.000   40.000    0.000    0.000 
#    0.000   10.667    0.000    0.000    0.000    0.000 
#
# Total GULP energy -268964.293305 kJ/mol
# GULP energy per Si atom -5603.422777 kJ/mol
# Density = 2.662935 g / cm^3
# Si number density = 26.690095 Si / 1000 Ang^3
#
#
#
# Elastic Constant Matrix: (Units=GPa)
#
#
# Indices 1 2 3 4 5 6 
#
# 1 69.7146 15.5384 21.5653 0.0000 0.0000 0.0000
# 2 15.5384 129.1050 53.4629 0.0000 0.0000 0.0000
# 3 21.5653 53.4629 170.9168 0.0000 0.0000 0.0000
# 4 0.0000 0.0000 0.0000 49.5473 0.0000 0.0000
# 5 0.0000 0.0000 0.0000 0.0000 12.5975 0.0000
# 6 0.0000 0.0000 0.0000 0.0000 0.0000 22.4161
#
#
#
# Elastic Compliance Matrix: (Units=1/GPa)
#
#
# Indices 1 2 3 4 5 6 
#
# 1 0.015082 -0.001180 -0.001534 0.000000 0.000000 0.000000
# 2 -0.001180 0.008991 -0.002663 0.000000 0.000000 0.000000
# 3 -0.001534 -0.002663 0.006877 0.000000 0.000000 0.000000
# 4 0.000000 0.000000 0.000000 0.020183 0.000000 0.000000
# 5 0.000000 0.000000 0.000000 0.000000 0.079381 0.000000
# 6 0.000000 0.000000 0.000000 0.000000 0.000000 0.044611
#
#
# Mechanical properties :
#
#
# Convention : Reuss Voigt Hill
#
# Bulk Modulus (GPa) = 49.51645 61.20774 55.36210
# Shear Modulus (GPa) = 25.95914 35.52348 30.74131
#
# Velocity S-wave (km/s) = 3.12206 3.65219 3.39748
# Velocity P-wave (km/s) = 5.62041 6.38492 6.01482
#
# Compressibility (1/GPa) = 0.02019531
#
# Stress axis : x y z
#
# Youngs Moduli (GPa) = 66.30568 111.22767 145.40315
#
# Poissons Ratio (x) = 0.13125 0.22302
# Poissons Ratio (y) = 0.07824 0.38726
# Poissons Ratio (z) = 0.10170 0.29624
#
# Static dielectric constant tensor:
#      x y z
#    x 2.167250 0.000000 0.000000 
#    y 0.000000 2.006080 0.000000 
#    z 0.000000 0.000000 2.110360 
# 
# From -- ./inp_files/7157.got.cif
#   From: 2010.05.17/outbox.cif.g08.bks.cpg/sg56_4_cif.got.tgz:7157.got - 2010.06.03 13:42:01.
