data_PCOD9429051
_publ_section_title
;
Structure prediction by ZEFSAII (Michael W. Deem and Ramdas Pophale) SiO2 
 PCOD9429051
Probable space group: P B A M
;
_chemical_formula_sum "Si O2"
_cell_formula_units_Z 48
_cell_length_a 15.934407
_cell_length_b 9.179438
_cell_length_c 14.588307
_cell_angle_alpha 90.000000
_cell_angle_beta 90.000000
_cell_angle_gamma 90.000000
_cell_volume 2133.815634
_symmetry_space_group_name_H-M "P B A M"
_symmetry_group_IT_number 55
_symmetry_cell_setting 'orthorhombic'
loop_
_space_group_symop_operation_xyz
x,y,z
-x,-y,z
1/2+x,1/2-y,-z
1/2-x,1/2+y,-z
-x,-y,-z
x,y,-z
1/2-x,1/2+y,z
1/2+x,1/2-y,z
loop_
_atom_site_type_symbol
_atom_site_label
_atom_site_fract_x
_atom_site_fract_y
_atom_site_fract_z
Si Si1 0.188315 0.569955 0.284545
Si Si2 0.908451 0.227667 0.396034
Si Si3 0.585634 0.156376 0.395569
Si Si4 0.636041 0.426977 0.100204
Si Si5 0.885920 0.945028 0.294100
Si Si6 0.812325 0.268746 0.100788
O O1 0.174499 0.692227 0.362134
O O2 0.134428 0.434528 0.319313
O O3 0.285744 0.531410 0.280427
O O4 0.156530 0.642073 0.189485
O O5 0.902481 0.176416 0.500000
O O6 0.984424 0.342687 0.390265
O O7 0.924470 0.094331 0.329108
O O8 0.610401 0.118018 0.500000
O O9 0.604899 0.323811 0.371396
O O10 0.584139 0.399706 0.192535
O O11 0.713563 0.312458 0.101275
O O12 0.670279 0.595298 0.106370
O O13 0.594666 0.413033 0.000000
O O14 0.844300 0.316624 0.000000
#
# Coordination Sequence:
#
# PCOD9429051 Si02
#       6
#     8   8   8   8   8   8
#     4  11  22  37  61  91 115 149 194 249 291 331
#     4  11  23  41  60  81 116 160 197 233 296 363
#     4  11  25  41  58  81 118 162 199 235 290 361
#     4   9  18  33  56  87 120 151 186 236 295 350
#     4  11  22  37  61  91 115 149 194 249 291 331
#     4   9  18  33  56  87 120 151 186 236 295 350
#
# _framework density 22.494914000000001
#
# number of rings (size 3 to 8) (size 9 to 14) (size 15 to 20)
#    0.000    1.667    1.667    3.000    7.000    6.667 
#    0.000    0.000    0.000    6.000    0.000    0.000 
#    0.000    0.000    0.000    0.000    0.000    0.000 
#
# Total GULP energy -268000.856354 kJ/mol
# GULP energy per Si atom -5583.351174 kJ/mol
# Density = 2.244371 g / cm^3
# Si number density = 22.494914 Si / 1000 Ang^3
#
#
#
# Elastic Constant Matrix: (Units=GPa)
#
#
# Indices 1 2 3 4 5 6 
#
# 1 33.5155 -2.9476 23.9276 0.0000 0.0000 0.0000
# 2 -2.9476 45.9428 -2.6285 0.0000 0.0000 0.0000
# 3 23.9276 -2.6285 135.2608 0.0000 0.0000 0.0000
# 4 0.0000 0.0000 0.0000 41.6682 0.0000 0.0000
# 5 0.0000 0.0000 0.0000 0.0000 6.2647 0.0000
# 6 0.0000 0.0000 0.0000 0.0000 0.0000 29.0262
#
#
#
# Elastic Compliance Matrix: (Units=1/GPa)
#
#
# Indices 1 2 3 4 5 6 
#
# 1 0.034307 0.001856 -0.006033 0.000000 0.000000 0.000000
# 2 0.001856 0.021891 0.000097 0.000000 0.000000 0.000000
# 3 -0.006033 0.000097 0.008462 0.000000 0.000000 0.000000
# 4 0.000000 0.000000 0.000000 0.023999 0.000000 0.000000
# 5 0.000000 0.000000 0.000000 0.000000 0.159624 0.000000
# 6 0.000000 0.000000 0.000000 0.000000 0.000000 0.034452
#
#
# Mechanical properties :
#
#
# Convention : Reuss Voigt Hill
#
# Bulk Modulus (GPa) = 17.69895 27.93581 22.81738
# Shear Modulus (GPa) = 16.14319 28.48300 22.31309
#
# Velocity S-wave (km/s) = 2.68178 3.56223 3.15289
# Velocity P-wave (km/s) = 4.18023 5.41894 4.83938
#
# Compressibility (1/GPa) = 0.05650052
#
# Stress axis : x y z
#
# Youngs Moduli (GPa) = 29.14841 45.68125 118.17222
#
# Poissons Ratio (x) = -0.08478 0.71292
# Poissons Ratio (y) = -0.05410 -0.01147
# Poissons Ratio (z) = 0.17585 -0.00443
#
# Static dielectric constant tensor:
#      x y z
#    x 1.874060 0.000000 0.000000 
#    y 0.000000 1.838910 0.000000 
#    z 0.000000 0.000000 1.853120 
# 
# From -- ./inp_files/17311.got.cif
#   From: 2010.05.17/outbox.cif.g08.bks.cpg/sg55_9_cif.got.tgz:17311.got - 2010.06.03 13:27:54.
