data_PCOD9429128
_publ_section_title
;
Structure prediction by ZEFSAII (Michael W. Deem and Ramdas Pophale) SiO2 
 PCOD9429128
Probable space group: P B A M
;
_chemical_formula_sum "Si O2"
_cell_formula_units_Z 56
_cell_length_a 8.423959
_cell_length_b 13.523177
_cell_length_c 21.567965
_cell_angle_alpha 90.000000
_cell_angle_beta 90.000000
_cell_angle_gamma 90.000000
_cell_volume 2456.994289
_symmetry_space_group_name_H-M "P B A M"
_symmetry_group_IT_number 55
_symmetry_cell_setting 'orthorhombic'
loop_
_space_group_symop_operation_xyz
x,y,z
-x,-y,z
1/2+x,1/2-y,-z
1/2-x,1/2+y,-z
-x,-y,-z
x,y,-z
1/2-x,1/2+y,z
1/2+x,1/2-y,z
loop_
_atom_site_type_symbol
_atom_site_label
_atom_site_fract_x
_atom_site_fract_y
_atom_site_fract_z
Si Si1 0.856382 0.434320 0.634839
Si Si2 0.386135 0.223696 0.741108
Si Si3 0.373970 0.675311 0.830630
Si Si4 0.734779 0.455220 0.069863
Si Si5 0.611628 0.296413 0.571899
Si Si6 0.708066 0.636838 0.359930
Si Si7 0.925083 0.655247 0.069608
O O1 0.916785 0.365314 0.691791
O O2 0.764525 0.364154 0.587310
O O3 0.733748 0.521821 0.653198
O O4 0.000000 0.500000 0.609730
O O5 0.510694 0.297606 0.773642
O O6 0.295518 0.173246 0.797444
O O7 0.276138 0.298302 0.701904
O O8 0.379447 0.581361 0.875658
O O9 0.392236 0.765427 0.878254
O O10 0.801184 0.565629 0.077583
O O11 0.896622 0.388731 0.072384
O O12 0.669504 0.444887 0.000000
O O13 0.570217 0.299902 0.500000
O O14 0.666349 0.187330 0.592878
O O15 0.465456 0.337891 0.612185
O O16 0.903315 0.696277 0.000000
#
# Coordination Sequence:
#
# PCOD9429128 Si02
#       7
#     8   8   8   8   8   8   8
#     4  11  24  44  67  92 131 182 221 270 340 390
#     4  11  25  40  61  92 126 166 222 270 317 393
#     4  12  21  39  62  92 123 165 219 268 327 388
#     4   9  19  37  61  89 122 165 211 263 330 397
#     4  11  24  42  70 105 134 170 224 275 325 400
#     4  11  23  45  66  93 138 179 215 271 337 392
#     4   9  19  38  61  89 125 163 210 266 331 401
#
# _framework density 22.792076000000002
#
# number of rings (size 3 to 8) (size 9 to 14) (size 15 to 20)
#    0.000    1.429    1.429    6.429    0.000    4.286 
#    0.000    2.143    0.000    1.714    0.000    0.000 
#    0.000    0.000    0.000    0.000    0.000    0.000 
#
# Total GULP energy -312763.906349 kJ/mol
# GULP energy per Si atom -5585.069756 kJ/mol
# Density = 2.274020 g / cm^3
# Si number density = 22.792076 Si / 1000 Ang^3
#
#
#
# Elastic Constant Matrix: (Units=GPa)
#
#
# Indices 1 2 3 4 5 6 
#
# 1 73.2292 24.4149 22.5518 0.0000 0.0000 0.0000
# 2 24.4149 101.1302 28.0786 0.0000 0.0000 0.0000
# 3 22.5518 28.0786 109.3268 0.0000 0.0000 0.0000
# 4 0.0000 0.0000 0.0000 16.0557 0.0000 0.0000
# 5 0.0000 0.0000 0.0000 0.0000 16.7285 0.0000
# 6 0.0000 0.0000 0.0000 0.0000 0.0000 36.5781
#
#
#
# Elastic Compliance Matrix: (Units=1/GPa)
#
#
# Indices 1 2 3 4 5 6 
#
# 1 0.015412 -0.003056 -0.002394 0.000000 0.000000 0.000000
# 2 -0.003056 0.011253 -0.002260 0.000000 0.000000 0.000000
# 3 -0.002394 -0.002260 0.010221 0.000000 0.000000 0.000000
# 4 0.000000 0.000000 0.000000 0.062283 0.000000 0.000000
# 5 0.000000 0.000000 0.000000 0.000000 0.059778 0.000000
# 6 0.000000 0.000000 0.000000 0.000000 0.000000 0.027339
#
#
# Mechanical properties :
#
#
# Convention : Reuss Voigt Hill
#
# Bulk Modulus (GPa) = 46.58455 48.19742 47.39099
# Shear Modulus (GPa) = 23.93920 27.78186 25.86053
#
# Velocity S-wave (km/s) = 3.24440 3.49510 3.37208
# Velocity P-wave (km/s) = 5.87521 6.12210 5.99993
#
# Compressibility (1/GPa) = 0.02146635
#
# Stress axis : x y z
#
# Youngs Moduli (GPa) = 64.88453 88.86148 97.83610
#
# Poissons Ratio (x) = 0.27156 0.23425
# Poissons Ratio (y) = 0.19829 0.22110
# Poissons Ratio (z) = 0.15535 0.20081
#
# Static dielectric constant tensor:
#      x y z
#    x 1.955370 0.000000 0.000000 
#    y 0.000000 1.826210 0.000000 
#    z 0.000000 0.000000 1.812540 
# 
# From -- ./inp_files/22609.got.cif
#   From: 2010.05.17/outbox.cif.g08.bks.cpg/sg55_12_cif.got.tgz:22609.got - 2010.06.03 13:27:54.
