data_PCOD9429309
_publ_section_title
;
Structure prediction by ZEFSAII (Michael W. Deem and Ramdas Pophale) SiO2 
 PCOD9429309
Probable space group: P B A M
;
_chemical_formula_sum "Si O2"
_cell_formula_units_Z 64
_cell_length_a 15.000000
_cell_length_b 24.000000
_cell_length_c 9.000000
_cell_angle_alpha 90.000000
_cell_angle_beta 90.000000
_cell_angle_gamma 90.000000
_cell_volume 3240.000000
_symmetry_space_group_name_H-M "P B A M"
_symmetry_group_IT_number 55
_symmetry_cell_setting 'orthorhombic'
loop_
_space_group_symop_operation_xyz
x,y,z
-x,-y,z
1/2+x,1/2-y,-z
1/2-x,1/2+y,-z
-x,-y,-z
x,y,-z
1/2-x,1/2+y,z
1/2+x,1/2-y,z
loop_
_atom_site_type_symbol
_atom_site_label
_atom_site_fract_x
_atom_site_fract_y
_atom_site_fract_z
Si Si1 0.990968 0.737833 0.329200
Si Si2 0.455227 0.887806 0.675376
Si Si3 0.782514 0.538727 0.674939
Si Si4 0.237166 0.163401 0.821491
Si Si5 0.802794 0.229179 0.670054
Si Si6 0.144601 0.885266 0.178752
Si Si7 0.047598 0.147978 0.822879
Si Si8 0.126331 0.567507 0.822881
O O1 0.960255 0.746263 0.500000
O O2 0.961529 0.676736 0.278377
O O3 0.098048 0.744034 0.330801
O O4 0.960028 0.787772 0.225347
O O5 0.478563 0.889518 0.500000
O O6 0.358258 0.913818 0.693353
O O7 0.526813 0.924429 0.763201
O O8 0.766754 0.531085 0.500000
O O9 0.695717 0.561946 0.756578
O O10 0.823069 0.483273 0.745865
O O11 0.243279 0.223209 0.743882
O O12 0.320753 0.124409 0.786114
O O13 0.146719 0.131263 0.775539
O O14 0.235981 0.171570 0.000000
O O15 0.776126 0.217502 0.500000
O O16 0.810583 0.171644 0.759742
O O17 0.041380 0.882478 0.231954
O O18 0.148033 0.885160 0.000000
O O19 0.044294 0.143735 0.000000
O O20 0.126891 0.560001 0.000000
#
# Coordination Sequence:
#
# PCOD9429309 Si02
#       8
#     8   8   8   8   8   8   8   8
#     4   9  18  33  53  81 115 148 184 224 276 340
#     4  10  21  38  57  82 116 153 189 232 285 341
#     4  11  24  40  60  83 113 153 196 240 289 343
#     4  10  21  37  57  85 116 150 192 236 285 340
#     4  10  19  33  56  83 114 150 185 228 281 337
#     4  10  21  39  60  83 114 149 190 238 287 337
#     4   9  20  37  57  82 115 151 187 233 287 337
#     4  11  23  39  60  85 116 151 194 241 287 341
#
# _framework density 19.753086
#
# number of rings (size 3 to 8) (size 9 to 14) (size 15 to 20)
#    0.000    2.000    1.250    1.875    1.750    5.000 
#    0.000    0.625    0.000    3.750    0.000    0.000 
#    0.000    0.000    0.000    0.000    0.000    0.000 
#
# Total GULP energy -357305.514823 kJ/mol
# GULP energy per Si atom -5582.898669 kJ/mol
# Density = 1.970813 g / cm^3
# Si number density = 19.753086 Si / 1000 Ang^3
#
#
#
# Elastic Constant Matrix: (Units=GPa)
#
#
# Indices 1 2 3 4 5 6 
#
# 1 58.1107 -21.8250 16.8641 0.0000 0.0000 0.0000
# 2 -21.8250 -3.3699 -6.0119 0.0000 0.0000 0.0000
# 3 16.8641 -6.0119 28.6261 0.0000 0.0000 0.0000
# 4 0.0000 0.0000 0.0000 29.7060 0.0000 0.0000
# 5 0.0000 0.0000 0.0000 0.0000 14.1189 0.0000
# 6 0.0000 0.0000 0.0000 0.0000 0.0000 11.9876
#
#
#
# Elastic Compliance Matrix: (Units=1/GPa)
#
#
# Indices 1 2 3 4 5 6 
#
# 1 0.008310 -0.032798 -0.011784 0.000000 0.000000 0.000000
# 2 -0.032798 -0.086421 0.001172 0.000000 0.000000 0.000000
# 3 -0.011784 0.001172 0.042121 0.000000 0.000000 0.000000
# 4 0.000000 0.000000 0.000000 0.033663 0.000000 0.000000
# 5 0.000000 0.000000 0.000000 0.000000 0.070827 0.000000
# 6 0.000000 0.000000 0.000000 0.000000 0.000000 0.083420
#
#
# Mechanical properties :
#
#
# Convention : Reuss Voigt Hill
#
# Bulk Modulus (GPa) = -8.14272 6.82460 -0.65906
# Shear Modulus (GPa) = 25.27778 17.45182 21.36480
#
# Velocity S-wave (km/s) = 3.58115 2.97559 3.29233
# Velocity P-wave (km/s) = 3.60116 3.90743 3.75742
#
# Compressibility (1/GPa) = -0.12280909
#
# Stress axis : x y z
#
# Youngs Moduli (GPa) = 120.33615 -11.57121 23.74102
#
# Poissons Ratio (x) = -0.37951 0.27975
# Poissons Ratio (y) = 3.94679 -0.02783
# Poissons Ratio (z) = 1.41799 0.01356
#
# Static dielectric constant tensor:
#      x y z
#    x 1.743010 0.000000 0.000000 
#    y 0.000000 1.653730 0.000000 
#    z 0.000000 0.000000 1.666070 
# 
# From -- ./inp_files/6538.got.cif
#   From: 2010.05.17/outbox.ucp.g08.bks.cvg/sg55_4_cif.got.tgz:6538.got - 2010.06.11 16:36:00.
