data_PCOD9429193
_publ_section_title
;
Structure prediction by ZEFSAII (Michael W. Deem and Ramdas Pophale) SiO2 
 PCOD9429193
Probable space group: P B A M
;
_chemical_formula_sum "Si O2"
_cell_formula_units_Z 48
_cell_length_a 8.397818
_cell_length_b 14.663586
_cell_length_c 18.017175
_cell_angle_alpha 90.000000
_cell_angle_beta 90.000000
_cell_angle_gamma 90.000000
_cell_volume 2218.673242
_symmetry_space_group_name_H-M "P B A M"
_symmetry_group_IT_number 55
_symmetry_cell_setting 'orthorhombic'
loop_
_space_group_symop_operation_xyz
x,y,z
-x,-y,z
1/2+x,1/2-y,-z
1/2-x,1/2+y,-z
-x,-y,-z
x,y,-z
1/2-x,1/2+y,z
1/2+x,1/2-y,z
loop_
_atom_site_type_symbol
_atom_site_label
_atom_site_fract_x
_atom_site_fract_y
_atom_site_fract_z
Si Si1 0.321621 0.533554 0.190248
Si Si2 0.162263 0.345386 0.847409
Si Si3 0.691269 0.883335 0.343038
Si Si4 0.669338 0.546065 0.585088
Si Si5 0.687880 0.823734 0.913405
Si Si6 0.341430 0.802618 0.675886
O O1 0.500000 0.500000 0.206198
O O2 0.224657 0.447874 0.158459
O O3 0.237126 0.569512 0.264836
O O4 0.315530 0.614293 0.130176
O O5 0.265064 0.281122 0.900681
O O6 0.178238 0.303523 0.764688
O O7 0.981317 0.342631 0.874963
O O8 0.810661 0.798650 0.353892
O O9 0.516273 0.840989 0.340244
O O10 0.708281 0.962843 0.402823
O O11 0.500000 0.500000 0.603073
O O12 0.667676 0.577195 0.500000
O O13 0.716828 0.627772 0.639082
O O14 0.681911 0.845488 0.000000
#
# Coordination Sequence:
#
# PCOD9429193 Si02
#       6
#     8   8   8   8   8   8
#     4  12  26  42  72 102 137 185 240 290 351 425
#     4  12  24  44  70 102 138 186 239 289 351 427
#     4  12  25  43  71 106 139 186 237 294 344 420
#     4  11  26  47  73 109 149 186 231 292 357 418
#     4  12  27  46  70 102 143 185 235 301 361 419
#     4  12  24  42  74 103 139 190 240 286 348 422
#
# _framework density 21.634550999999998
#
# number of rings (size 3 to 8) (size 9 to 14) (size 15 to 20)
#    0.000    0.167    5.000    4.000    2.333    4.333 
#    0.000    0.000    0.000    0.000    0.000    0.000 
#    0.000    0.000    0.000    0.000    0.000    0.000 
#
# Total GULP energy -268912.238718 kJ/mol
# GULP energy per Si atom -5602.338307 kJ/mol
# Density = 2.158531 g / cm^3
# Si number density = 21.634551 Si / 1000 Ang^3
#
#
#
# Elastic Constant Matrix: (Units=GPa)
#
#
# Indices 1 2 3 4 5 6 
#
# 1 97.1446 18.0025 19.9756 0.0000 0.0000 0.0000
# 2 18.0025 91.7657 -20.4172 0.0000 0.0000 0.0000
# 3 19.9756 -20.4172 45.4836 0.0000 0.0000 0.0000
# 4 0.0000 0.0000 0.0000 23.8784 0.0000 0.0000
# 5 0.0000 0.0000 0.0000 0.0000 12.8650 0.0000
# 6 0.0000 0.0000 0.0000 0.0000 0.0000 37.9178
#
#
#
# Elastic Compliance Matrix: (Units=1/GPa)
#
#
# Indices 1 2 3 4 5 6 
#
# 1 0.012568 -0.004104 -0.007362 0.000000 0.000000 0.000000
# 2 -0.004104 0.013446 0.007838 0.000000 0.000000 0.000000
# 3 -0.007362 0.007838 0.028738 0.000000 0.000000 0.000000
# 4 0.000000 0.000000 0.000000 0.041879 0.000000 0.000000
# 5 0.000000 0.000000 0.000000 0.000000 0.077730 0.000000
# 6 0.000000 0.000000 0.000000 0.000000 0.000000 0.026373
#
#
# Mechanical properties :
#
#
# Convention : Reuss Voigt Hill
#
# Bulk Modulus (GPa) = 21.05368 29.94620 25.49994
# Shear Modulus (GPa) = 22.33929 29.38779 25.86354
#
# Velocity S-wave (km/s) = 3.21686 3.68961 3.46131
# Velocity P-wave (km/s) = 4.85285 5.65887 5.27129
#
# Compressibility (1/GPa) = 0.04749763
#
# Stress axis : x y z
#
# Youngs Moduli (GPa) = 79.56595 74.36995 34.79764
#
# Poissons Ratio (x) = 0.30518 0.25617
# Poissons Ratio (y) = 0.32650 -0.27275
# Poissons Ratio (z) = 0.58575 -0.58292
#
# Static dielectric constant tensor:
#      x y z
#    x 1.798160 0.000000 0.000000 
#    y 0.000000 1.770610 0.000000 
#    z 0.000000 0.000000 1.752490 
# 
# From -- ./inp_files/20783.got.cif
#   From: 2010.05.17/outbox.cif.g08.bks.cpg/sg55_11_cif.got.tgz:20783.got - 2010.06.03 13:27:54.
