data_PCOD9429391
_publ_section_title
;
Structure prediction by ZEFSAII (Michael W. Deem and Ramdas Pophale) SiO2 
 PCOD9429391
Probable space group: P B A M
;
_chemical_formula_sum "Si O2"
_cell_formula_units_Z 48
_cell_length_a 12.000000
_cell_length_b 15.000000
_cell_length_c 15.000000
_cell_angle_alpha 90.000000
_cell_angle_beta 90.000000
_cell_angle_gamma 90.000000
_cell_volume 2700.000000
_symmetry_space_group_name_H-M "P B A M"
_symmetry_group_IT_number 55
_symmetry_cell_setting 'orthorhombic'
loop_
_space_group_symop_operation_xyz
x,y,z
-x,-y,z
1/2+x,1/2-y,-z
1/2-x,1/2+y,-z
-x,-y,-z
x,y,-z
1/2-x,1/2+y,z
1/2+x,1/2-y,z
loop_
_atom_site_type_symbol
_atom_site_label
_atom_site_fract_x
_atom_site_fract_y
_atom_site_fract_z
Si Si1 0.253967 0.328494 0.759859
Si Si2 0.753914 0.882270 0.774276
Si Si3 0.632079 0.026261 0.891646
Si Si4 0.903137 0.425787 0.604361
Si Si5 0.914952 0.724989 0.397774
Si Si6 0.496660 0.602572 0.296865
O O1 0.268514 0.223863 0.787298
O O2 0.183547 0.390189 0.831660
O O3 0.176924 0.316683 0.670239
O O4 0.378620 0.369386 0.739276
O O5 0.692572 0.916395 0.680967
O O6 0.888466 0.895201 0.769679
O O7 0.700788 0.942036 0.852400
O O8 0.500000 0.000000 0.876397
O O9 0.645516 0.039449 0.000000
O O10 0.865013 0.440232 0.500000
O O11 0.000000 0.500000 0.623533
O O12 0.974068 0.334980 0.606687
O O13 0.873731 0.724730 0.500000
O O14 0.954620 0.823088 0.367321
O O15 0.500000 0.500000 0.329228
#
# Coordination Sequence:
#
# PCOD9429391 Si02
#       6
#     8   8   8   8   8   8
#     4  11  23  42  67  92 132 173 212 266 328 392
#     4  11  22  39  68  91 131 168 213 263 326 386
#     4  11  25  45  70  97 125 163 219 276 328 395
#     4  10  20  36  61  92 125 170 221 262 308 377
#     4  10  22  39  61  91 128 172 217 260 306 375
#     4  11  23  40  61  94 127 177 210 260 321 381
#
# _framework density 17.777778000000001
#
# number of rings (size 3 to 8) (size 9 to 14) (size 15 to 20)
#    0.000    1.333    3.333    2.500    2.333    4.333 
#    0.000    1.667    0.000    0.000    0.000    0.000 
#    0.000    0.000    0.000    0.000    0.000    0.000 
#
# Total GULP energy -267567.186435 kJ/mol
# GULP energy per Si atom -5574.316384 kJ/mol
# Density = 1.773731 g / cm^3
# Si number density = 17.777778 Si / 1000 Ang^3
#
#
#
# Elastic Constant Matrix: (Units=GPa)
#
#
# Indices 1 2 3 4 5 6 
#
# 1 136.2243 33.5541 58.7017 0.0000 0.0000 0.0000
# 2 33.5541 133.8193 49.1239 0.0000 0.0000 0.0000
# 3 58.7017 49.1239 133.8253 0.0000 0.0000 0.0000
# 4 0.0000 0.0000 0.0000 32.9963 0.0000 0.0000
# 5 0.0000 0.0000 0.0000 0.0000 31.9438 0.0000
# 6 0.0000 0.0000 0.0000 0.0000 0.0000 39.2332
#
#
#
# Elastic Compliance Matrix: (Units=1/GPa)
#
#
# Indices 1 2 3 4 5 6 
#
# 1 0.009155 -0.000949 -0.003667 0.000000 0.000000 0.000000
# 2 -0.000949 0.008735 -0.002790 0.000000 0.000000 0.000000
# 3 -0.003667 -0.002790 0.010105 0.000000 0.000000 0.000000
# 4 0.000000 0.000000 0.000000 0.030306 0.000000 0.000000
# 5 0.000000 0.000000 0.000000 0.000000 0.031305 0.000000
# 6 0.000000 0.000000 0.000000 0.000000 0.000000 0.025489
#
#
# Mechanical properties :
#
#
# Convention : Reuss Voigt Hill
#
# Bulk Modulus (GPa) = 75.86124 76.29204 76.07664
# Shear Modulus (GPa) = 37.22941 38.33392 37.78166
#
# Velocity S-wave (km/s) = 4.58116 4.64862 4.61501
# Velocity P-wave (km/s) = 8.41114 8.47469 8.44297
#
# Compressibility (1/GPa) = 0.01318196
#
# Stress axis : x y z
#
# Youngs Moduli (GPa) = 109.23025 114.48232 98.95891
#
# Poissons Ratio (x) = 0.10868 0.36291
# Poissons Ratio (y) = 0.10369 0.27609
# Poissons Ratio (z) = 0.40058 0.31940
#
# Static dielectric constant tensor:
#      x y z
#    x 1.618410 0.000000 0.000000 
#    y 0.000000 1.653660 0.000000 
#    z 0.000000 0.000000 1.620120 
# 
# From -- ./inp_files/18267.got.cif
#   From: 2010.05.17/outbox.ucp.g08.bks.cvg/sg55_10_cif.got.tgz:18267.got - 2010.06.11 16:36:00.
