data_PCOD9429603
_publ_section_title
;
Structure prediction by ZEFSAII (Michael W. Deem and Ramdas Pophale) SiO2 
 PCOD9429603
Probable space group: P C C N
;
_chemical_formula_sum "Si O2"
_cell_formula_units_Z 64
_cell_length_a 9.599180
_cell_length_b 21.947692
_cell_length_c 18.213579
_cell_angle_alpha 90.000000
_cell_angle_beta 90.000000
_cell_angle_gamma 90.000000
_cell_volume 3837.234021
_symmetry_space_group_name_H-M "P C C N"
_symmetry_group_IT_number 56
_symmetry_cell_setting 'orthorhombic'
loop_
_space_group_symop_operation_xyz
x,y,z
1/2-x,1/2-y,z
1/2+x,-y,1/2-z
-x,1/2+y,1/2-z
-x,-y,-z
1/2+x,1/2+y,-z
1/2-x,y,1/2+z
x,1/2-y,1/2+z
loop_
_atom_site_type_symbol
_atom_site_label
_atom_site_fract_x
_atom_site_fract_y
_atom_site_fract_z
Si Si1 0.207625 0.180043 0.420454
Si Si2 0.205333 0.932667 0.213842
Si Si3 0.784120 0.924002 0.795764
Si Si4 0.987505 0.592944 0.169284
Si Si5 0.082923 0.405058 0.337772
Si Si6 0.611291 0.043328 0.118876
Si Si7 0.150813 0.005525 0.961684
Si Si8 0.826914 0.897747 0.442977
O O1 0.250000 0.250000 0.413865
O O2 0.079667 0.149231 0.374968
O O3 0.341178 0.145061 0.386572
O O4 0.174239 0.159841 0.503487
O O5 0.349846 0.906135 0.185117
O O6 0.167184 0.934313 0.301156
O O7 0.079458 0.898995 0.173690
O O8 0.210073 0.003783 0.190240
O O9 0.917911 0.907159 0.749272
O O10 0.655965 0.911084 0.740930
O O11 0.762972 0.888226 0.870096
O O12 0.938369 0.528043 0.131986
O O13 0.114960 0.466483 0.382142
O O14 0.477249 0.078342 0.085679
O O15 0.739402 0.046882 0.060990
O O16 0.246180 0.050472 0.010332
O O17 0.000000 0.000000 0.000000
#
# Coordination Sequence:
#
# PCOD9429603 Si02
#       8
#     8   8   8   8   8   8   8   8
#     4  10  23  42  58  76 105 149 205 244 274 330
#     4  11  18  30  57  87 119 147 173 224 290 344
#     4  10  17  31  54  85 121 147 176 221 279 351
#     4  10  20  34  57  83 116 151 185 226 287 343
#     4  10  19  36  52  84 111 148 190 227 275 337
#     4  11  20  33  52  88 125 147 175 220 293 367
#     4  11  22  30  48  82 122 154 179 218 274 349
#     4  11  20  34  56  79 120 150 185 228 285 342
#
# _framework density 16.678681000000001
#
# number of rings (size 3 to 8) (size 9 to 14) (size 15 to 20)
#    0.000    1.500    7.500    1.875    1.750    0.000 
#    0.000    3.125    0.000    0.000    0.000    0.000 
#    0.000    0.000    0.000    0.000    0.000    0.000 
#
# Total GULP energy -356364.806861 kJ/mol
# GULP energy per Si atom -5568.200107 kJ/mol
# Density = 1.664072 g / cm^3
# Si number density = 16.678681 Si / 1000 Ang^3
#
#
#
# Elastic Constant Matrix: (Units=GPa)
#
#
# Indices 1 2 3 4 5 6 
#
# 1 150.3587 29.1298 42.2236 0.0000 0.0000 0.0000
# 2 29.1298 60.8909 27.7394 0.0000 0.0000 0.0000
# 3 42.2236 27.7394 84.1876 0.0000 0.0000 0.0000
# 4 0.0000 0.0000 0.0000 10.3164 0.0000 0.0000
# 5 0.0000 0.0000 0.0000 0.0000 14.8314 0.0000
# 6 0.0000 0.0000 0.0000 0.0000 0.0000 5.3401
#
#
#
# Elastic Compliance Matrix: (Units=1/GPa)
#
#
# Indices 1 2 3 4 5 6 
#
# 1 0.008019 -0.002358 -0.003245 0.000000 0.000000 0.000000
# 2 -0.002358 0.020017 -0.005413 0.000000 0.000000 0.000000
# 3 -0.003245 -0.005413 0.015289 0.000000 0.000000 0.000000
# 4 0.000000 0.000000 0.000000 0.096933 0.000000 0.000000
# 5 0.000000 0.000000 0.000000 0.000000 0.067425 0.000000
# 6 0.000000 0.000000 0.000000 0.000000 0.000000 0.187261
#
#
# Mechanical properties :
#
#
# Convention : Reuss Voigt Hill
#
# Bulk Modulus (GPa) = 46.96268 54.84697 50.90482
# Shear Modulus (GPa) = 11.79045 19.18721 15.48883
#
# Velocity S-wave (km/s) = 2.66168 3.39544 3.05070
# Velocity P-wave (km/s) = 6.13714 6.95183 6.55715
#
# Compressibility (1/GPa) = 0.02129350
#
# Stress axis : x y z
#
# Youngs Moduli (GPa) = 124.70712 49.95834 65.40588
#
# Poissons Ratio (x) = 0.11780 0.21223
# Poissons Ratio (y) = 0.29405 0.35403
# Poissons Ratio (z) = 0.40465 0.27041
#
# Static dielectric constant tensor:
#      x y z
#    x 2.171350 0.000000 0.000000 
#    y 0.000000 1.554550 0.000000 
#    z 0.000000 0.000000 1.597130 
# 
# From -- ./inp_files/15263.got.cif
#   From: 2010.05.17/outbox.cif.g08.bks.cpg/sg56_8_cif.got.tgz:15263.got - 2010.06.03 13:42:01.
