data_PCOD9429183
_publ_section_title
;
Structure prediction by ZEFSAII (Michael W. Deem and Ramdas Pophale) SiO2 
 PCOD9429183
Probable space group: P B A M
;
_chemical_formula_sum "Si O2"
_cell_formula_units_Z 48
_cell_length_a 9.363441
_cell_length_b 13.021967
_cell_length_c 18.048474
_cell_angle_alpha 90.000000
_cell_angle_beta 90.000000
_cell_angle_gamma 90.000000
_cell_volume 2200.658010
_symmetry_space_group_name_H-M "P B A M"
_symmetry_group_IT_number 55
_symmetry_cell_setting 'orthorhombic'
loop_
_space_group_symop_operation_xyz
x,y,z
-x,-y,z
1/2+x,1/2-y,-z
1/2-x,1/2+y,-z
-x,-y,-z
x,y,-z
1/2-x,1/2+y,z
1/2+x,1/2-y,z
loop_
_atom_site_type_symbol
_atom_site_label
_atom_site_fract_x
_atom_site_fract_y
_atom_site_fract_z
Si Si1 0.405889 0.602101 0.580185
Si Si2 0.553051 0.185534 0.134456
Si Si3 0.777792 0.039393 0.194583
Si Si4 0.536648 0.713383 0.721528
Si Si5 0.138635 0.569875 0.664047
Si Si6 0.729928 0.370373 0.083806
O O1 0.500000 0.500000 0.579056
O O2 0.421782 0.654925 0.500000
O O3 0.456114 0.663061 0.652605
O O4 0.243974 0.569188 0.594822
O O5 0.651948 0.086611 0.143798
O O6 0.560803 0.234699 0.216450
O O7 0.630680 0.269453 0.084263
O O8 0.389711 0.160873 0.112528
O O9 0.873695 0.128709 0.231724
O O10 0.713136 0.981281 0.264904
O O11 0.839630 0.952537 0.140126
O O12 0.615504 0.811617 0.686371
O O13 0.000000 0.500000 0.650576
O O14 0.741671 0.409973 0.000000
#
# Coordination Sequence:
#
# PCOD9429183 Si02
#       6
#     8   8   8   8   8   8
#     4  11  26  45  70 105 146 190 231 289 362 420
#     4  12  24  46  70 101 138 182 242 287 351 432
#     4  12  22  45  71 105 134 180 246 288 346 420
#     4  12  24  44  76 105 139 186 239 297 340 428
#     4  12  24  44  74 107 139 181 241 295 352 423
#     4  12  27  44  68 101 144 186 230 299 364 415
#
# _framework density 21.811657
#
# number of rings (size 3 to 8) (size 9 to 14) (size 15 to 20)
#    0.000    0.167    6.667    3.000    0.000    3.000 
#    0.000    2.500    0.000    0.000    0.000    0.000 
#    0.000    0.000    0.000    0.000    0.000    0.000 
#
# Total GULP energy -268270.975347 kJ/mol
# GULP energy per Si atom -5588.978653 kJ/mol
# Density = 2.176201 g / cm^3
# Si number density = 21.811657 Si / 1000 Ang^3
#
#
#
# Elastic Constant Matrix: (Units=GPa)
#
#
# Indices 1 2 3 4 5 6 
#
# 1 68.4990 46.6043 37.8409 0.0000 0.0000 0.0000
# 2 46.6043 100.7236 22.2694 0.0000 0.0000 0.0000
# 3 37.8409 22.2694 107.6306 0.0000 0.0000 0.0000
# 4 0.0000 0.0000 0.0000 8.7191 0.0000 0.0000
# 5 0.0000 0.0000 0.0000 0.0000 5.6633 0.0000
# 6 0.0000 0.0000 0.0000 0.0000 0.0000 36.2312
#
#
#
# Elastic Compliance Matrix: (Units=1/GPa)
#
#
# Indices 1 2 3 4 5 6 
#
# 1 0.025283 -0.010200 -0.006779 0.000000 0.000000 0.000000
# 2 -0.010200 0.014519 0.000582 0.000000 0.000000 0.000000
# 3 -0.006779 0.000582 0.011554 0.000000 0.000000 0.000000
# 4 0.000000 0.000000 0.000000 0.114691 0.000000 0.000000
# 5 0.000000 0.000000 0.000000 0.000000 0.176574 0.000000
# 6 0.000000 0.000000 0.000000 0.000000 0.000000 0.027601
#
#
# Mechanical properties :
#
#
# Convention : Reuss Voigt Hill
#
# Bulk Modulus (GPa) = 53.87047 54.47584 54.17315
# Shear Modulus (GPa) = 12.21893 21.46530 16.84212
#
# Velocity S-wave (km/s) = 2.36943 3.14047 2.78179
# Velocity P-wave (km/s) = 5.67778 6.17899 5.93368
#
# Compressibility (1/GPa) = 0.01856305
#
# Stress axis : x y z
#
# Youngs Moduli (GPa) = 39.55241 68.87629 86.55100
#
# Poissons Ratio (x) = 0.70251 0.58670
# Poissons Ratio (y) = 0.40342 -0.05037
# Poissons Ratio (z) = 0.26811 -0.04008
#
# Static dielectric constant tensor:
#      x y z
#    x 1.843530 0.000000 0.000000 
#    y 0.000000 1.868470 0.000000 
#    z 0.000000 0.000000 1.775550 
# 
# From -- ./inp_files/20798.got.cif
#   From: 2010.05.17/outbox.cif.g08.bks.cpg/sg55_11_cif.got.tgz:20798.got - 2010.06.03 13:27:54.
