data_PCOD9429780
_publ_section_title
;
Structure prediction by ZEFSAII (Michael W. Deem and Ramdas Pophale) SiO2 
 PCOD9429780
Probable space group: P C C N
;
_chemical_formula_sum "Si O2"
_cell_formula_units_Z 60
_cell_length_a 33.081189
_cell_length_b 9.401166
_cell_length_c 9.821724
_cell_angle_alpha 90.000000
_cell_angle_beta 90.000000
_cell_angle_gamma 90.000000
_cell_volume 3054.573345
_symmetry_space_group_name_H-M "P C C N"
_symmetry_group_IT_number 56
_symmetry_cell_setting 'orthorhombic'
loop_
_space_group_symop_operation_xyz
x,y,z
1/2-x,1/2-y,z
1/2+x,-y,1/2-z
-x,1/2+y,1/2-z
-x,-y,-z
1/2+x,1/2+y,-z
1/2-x,y,1/2+z
x,1/2-y,1/2+z
loop_
_atom_site_type_symbol
_atom_site_label
_atom_site_fract_x
_atom_site_fract_y
_atom_site_fract_z
Si Si1 0.376837 0.600239 0.265080
Si Si2 0.534400 0.407709 0.172573
Si Si3 0.834588 0.470756 0.980727
Si Si4 0.123087 0.556945 0.296006
Si Si5 0.750000 0.750000 0.280967
Si Si6 0.744456 0.564927 0.026312
Si Si7 0.037793 0.626482 0.645706
Si Si8 0.179687 0.632040 0.530264
O O1 0.368703 0.515935 0.403353
O O2 0.380642 0.770654 0.284937
O O3 0.418189 0.564874 0.187793
O O4 0.335934 0.587677 0.178109
O O5 0.576779 0.490188 0.196597
O O6 0.531349 0.274930 0.275263
O O7 0.496911 0.514244 0.183165
O O8 0.536786 0.351470 0.016917
O O9 0.853384 0.502949 0.833960
O O10 0.792927 0.551678 0.012467
O O11 0.825378 0.301051 0.981288
O O12 0.150151 0.544800 0.429589
O O13 0.772093 0.652062 0.394527
O O14 0.732773 0.638085 0.169547
O O15 0.724287 0.412638 0.010689
#
# Coordination Sequence:
#
# PCOD9429780 Si02
#       8
#     8   8   8   8   4   8   8   8
#     4   9  18  32  53  85 114 145 172 225 290 348
#     4  10  21  38  62  86 119 155 193 236 289 348
#     4  10  20  33  57  88 112 133 182 236 295 326
#     4   9  18  32  53  85 114 145 172 225 290 348
#     4  10  24  38  54  70 104 158 208 204 268 338
#     4  11  21  38  58  76 109 151 192 232 264 331
#     4  10  21  38  62  86 119 155 193 236 289 348
#     4  10  18  33  59  86 110 131 184 238 293 322
#
# _framework density 19.642676999999999
#
# number of rings (size 3 to 8) (size 9 to 14) (size 15 to 20)
#    0.000    2.133    1.333    2.000    5.600    0.533 
#    0.000    5.333   17.600    0.000    0.000    0.000 
#    0.000    0.000    0.000    0.000    0.000    0.000 
#
# Total GULP energy -334109.561893 kJ/mol
# GULP energy per Si atom -5568.492698 kJ/mol
# Density = 1.959797 g / cm^3
# Si number density = 19.642677 Si / 1000 Ang^3
#
#
#
# Elastic Constant Matrix: (Units=GPa)
#
#
# Indices 1 2 3 4 5 6 
#
# 1 69.2784 3.9396 -8.0123 0.0000 0.0000 0.0000
# 2 3.9396 21.5378 3.8252 0.0000 0.0000 0.0000
# 3 -8.0123 3.8252 77.0642 0.0000 0.0000 0.0000
# 4 0.0000 0.0000 0.0000 18.8077 0.0000 0.0000
# 5 0.0000 0.0000 0.0000 0.0000 15.6475 0.0000
# 6 0.0000 0.0000 0.0000 0.0000 0.0000 20.8183
#
#
#
# Elastic Compliance Matrix: (Units=1/GPa)
#
#
# Indices 1 2 3 4 5 6 
#
# 1 0.014801 -0.003007 0.001688 0.000000 0.000000 0.000000
# 2 -0.003007 0.047454 -0.002668 0.000000 0.000000 0.000000
# 3 0.001688 -0.002668 0.013284 0.000000 0.000000 0.000000
# 4 0.000000 0.000000 0.000000 0.053170 0.000000 0.000000
# 5 0.000000 0.000000 0.000000 0.000000 0.063908 0.000000
# 6 0.000000 0.000000 0.000000 0.000000 0.000000 0.048035
#
#
# Mechanical properties :
#
#
# Convention : Reuss Voigt Hill
#
# Bulk Modulus (GPa) = 14.80066 18.59839 16.69953
# Shear Modulus (GPa) = 18.44018 22.26322 20.35170
#
# Velocity S-wave (km/s) = 3.06728 3.37027 3.22234
# Velocity P-wave (km/s) = 4.48281 4.96325 4.72914
#
# Compressibility (1/GPa) = 0.06756455
#
# Stress axis : x y z
#
# Youngs Moduli (GPa) = 67.56416 21.07307 75.27779
#
# Poissons Ratio (x) = 0.06337 -0.12707
# Poissons Ratio (y) = 0.20317 0.20085
# Poissons Ratio (z) = -0.11405 0.05623
#
# Static dielectric constant tensor:
#      x y z
#    x 1.717130 0.000000 0.000000 
#    y 0.000000 1.703140 0.000000 
#    z 0.000000 0.000000 1.706270 
# 
# From -- ./inp_files/5192.got.cif
#   From: 2010.05.17/outbox.cif.g08.bks.cpg/sg56_3_cif.got.tgz:5192.got - 2010.06.03 13:42:01.
