data_PCOD9429803
_publ_section_title
;
Structure prediction by ZEFSAII (Michael W. Deem and Ramdas Pophale) SiO2 
 PCOD9429803
Probable space group: P C C N
;
_chemical_formula_sum "Si O2"
_cell_formula_units_Z 52
_cell_length_a 15.463941
_cell_length_b 11.717508
_cell_length_c 12.030346
_cell_angle_alpha 90.000000
_cell_angle_beta 90.000000
_cell_angle_gamma 90.000000
_cell_volume 2179.884889
_symmetry_space_group_name_H-M "P C C N"
_symmetry_group_IT_number 56
_symmetry_cell_setting 'orthorhombic'
loop_
_space_group_symop_operation_xyz
x,y,z
1/2-x,1/2-y,z
1/2+x,-y,1/2-z
-x,1/2+y,1/2-z
-x,-y,-z
1/2+x,1/2+y,-z
1/2-x,y,1/2+z
x,1/2-y,1/2+z
loop_
_atom_site_type_symbol
_atom_site_label
_atom_site_fract_x
_atom_site_fract_y
_atom_site_fract_z
Si Si1 0.829205 0.610111 0.687308
Si Si2 0.898032 0.082933 0.330989
Si Si3 0.750000 0.250000 0.856248
Si Si4 0.384141 0.579223 0.407870
Si Si5 0.483247 0.703454 0.843714
Si Si6 0.187758 0.598141 0.451166
Si Si7 0.638144 0.858989 0.239756
O O1 0.892331 0.532839 0.761879
O O2 0.812416 0.537396 0.575149
O O3 0.860380 0.738434 0.673867
O O4 0.740005 0.615582 0.757504
O O5 0.814550 0.161579 0.299970
O O6 0.898620 0.060183 0.461119
O O7 0.971196 0.166310 0.285158
O O8 0.693508 0.337766 0.931004
O O9 0.455406 0.668535 0.366919
O O10 0.285116 0.628322 0.402775
O O11 0.389061 0.467595 0.333511
O O12 0.406604 0.636810 0.907129
O O13 0.582284 0.663917 0.851878
#
# Coordination Sequence:
#
# PCOD9429803 Si02
#       7
#     8   8   4   8   8   8   8
#     4   9  21  41  61  86 120 176 206 243 314 389
#     4  10  22  36  68  95 120 160 222 254 315 380
#     4  10  18  34  58  98 118 158 202 264 310 368
#     4  10  21  41  64  88 129 167 201 263 315 373
#     4  11  21  35  63  96 119 160 205 271 314 365
#     4   9  17  36  60  85 121 158 197 258 315 352
#     4  10  23  40  60  86 128 169 208 251 318 374
#
# _framework density 23.854469999999999
#
# number of rings (size 3 to 8) (size 9 to 14) (size 15 to 20)
#    0.000    2.154    3.077    0.000   10.769    0.615 
#    0.000    9.231    0.000    5.538    0.000    0.000 
#    0.000    0.000    0.000    0.000    0.000    0.000 
#
# Total GULP energy -289663.249039 kJ/mol
# GULP energy per Si atom -5570.447097 kJ/mol
# Density = 2.380018 g / cm^3
# Si number density = 23.854470 Si / 1000 Ang^3
#
#
#
# Elastic Constant Matrix: (Units=GPa)
#
#
# Indices 1 2 3 4 5 6 
#
# 1 26.8090 0.8028 -1.1139 0.0000 0.0000 0.0000
# 2 0.8028 96.9429 6.9413 0.0000 0.0000 0.0000
# 3 -1.1139 6.9413 29.1341 0.0000 0.0000 0.0000
# 4 0.0000 0.0000 0.0000 -3.8599 0.0000 0.0000
# 5 0.0000 0.0000 0.0000 0.0000 9.7319 0.0000
# 6 0.0000 0.0000 0.0000 0.0000 0.0000 39.2223
#
#
#
# Elastic Compliance Matrix: (Units=1/GPa)
#
#
# Indices 1 2 3 4 5 6 
#
# 1 0.037377 -0.000419 0.001529 0.000000 0.000000 0.000000
# 2 -0.000419 0.010499 -0.002517 0.000000 0.000000 0.000000
# 3 0.001529 -0.002517 0.034982 0.000000 0.000000 0.000000
# 4 0.000000 0.000000 0.000000 -0.259076 0.000000 0.000000
# 5 0.000000 0.000000 0.000000 0.000000 0.102755 0.000000
# 6 0.000000 0.000000 0.000000 0.000000 0.000000 0.025496
#
#
# Mechanical properties :
#
#
# Convention : Reuss Voigt Hill
#
# Bulk Modulus (GPa) = 12.49323 18.46070 15.47697
# Shear Modulus (GPa) = -270.69766 18.76924 -125.96421
#
# Velocity S-wave (km/s) = -10.66420 2.80808 -7.27461
# Velocity P-wave (km/s) = 12.09896 4.27428 8.00361
#
# Compressibility (1/GPa) = 0.08004332
#
# Stress axis : x y z
#
# Youngs Moduli (GPa) = 26.75442 95.24647 28.58588
#
# Poissons Ratio (x) = 0.03991 -0.04371
# Poissons Ratio (y) = 0.01121 0.07196
# Poissons Ratio (z) = -0.04091 0.23978
#
# Static dielectric constant tensor:
#      x y z
#    x 2.144800 0.000000 0.000000 
#    y 0.000000 1.906690 0.000000 
#    z 0.000000 0.000000 1.937440 
# 
# From -- ./inp_files/12774.got.cif
#   From: 2010.05.17/outbox.cif.g08.bks.cpg/sg56_7_cif.got.tgz:12774.got - 2010.06.03 13:42:01.
