data_PCOD9429498
_publ_section_title
;
Structure prediction by ZEFSAII (Michael W. Deem and Ramdas Pophale) SiO2 
 PCOD9429498
Probable space group: P C C N
;
_chemical_formula_sum "Si O2"
_cell_formula_units_Z 60
_cell_length_a 14.006711
_cell_length_b 5.291826
_cell_length_c 35.327029
_cell_angle_alpha 90.000000
_cell_angle_beta 90.000000
_cell_angle_gamma 90.000000
_cell_volume 2618.477452
_symmetry_space_group_name_H-M "P C C N"
_symmetry_group_IT_number 56
_symmetry_cell_setting 'orthorhombic'
loop_
_space_group_symop_operation_xyz
x,y,z
1/2-x,1/2-y,z
1/2+x,-y,1/2-z
-x,1/2+y,1/2-z
-x,-y,-z
1/2+x,1/2+y,-z
1/2-x,y,1/2+z
x,1/2-y,1/2+z
loop_
_atom_site_type_symbol
_atom_site_label
_atom_site_fract_x
_atom_site_fract_y
_atom_site_fract_z
Si Si1 0.910151 0.644731 0.418414
Si Si2 0.394274 0.847065 0.054778
Si Si3 0.940782 0.577056 0.257558
Si Si4 0.114301 0.519221 0.820661
Si Si5 0.007410 0.512371 0.663081
Si Si6 0.250000 0.250000 0.370835
Si Si7 0.881113 0.727089 0.063467
Si Si8 0.896848 0.273741 0.531897
O O1 0.847914 0.415983 0.433954
O O2 0.947461 0.566906 0.377029
O O3 0.999044 0.687586 0.448495
O O4 0.860324 0.912841 0.422312
O O5 0.505750 0.807808 0.066976
O O6 0.397742 0.849380 0.009407
O O7 0.919868 0.520897 0.301373
O O8 0.022019 0.364769 0.247307
O O9 0.867031 0.524772 0.223866
O O10 0.070910 0.794103 0.828306
O O11 0.207288 0.465999 0.844950
O O12 0.039113 0.293515 0.833300
O O13 0.334389 0.166470 0.398813
O O14 0.845312 0.442658 0.056376
O O15 0.860046 0.938906 0.031929
#
# Coordination Sequence:
#
# PCOD9429498 Si02
#       8
#     8   8   8   8   8   4   8   8
#     4  10  16  24  42  67  88 112 149 200 250 282
#     4  10  18  30  46  65  90 125 164 203 244 283
#     4   8  16  30  48  65  86 124 168 204 241 279
#     4  10  20  32  46  66  97 137 166 195 235 299
#     4  10  18  32  49  68  95 128 170 211 245 282
#     4  12  24  34  48  74 112 140 164 186 238 314
#     4  10  20  30  44  64  91 129 163 194 228 281
#     4  10  18  32  47  62  89 128 168 204 238 278
#
# _framework density 22.914080999999999
#
# number of rings (size 3 to 8) (size 9 to 14) (size 15 to 20)
#    0.000    2.133    0.000    8.000    0.000    2.133 
#    0.000    0.000    0.000    0.000    0.000    0.000 
#    0.000   11.733    0.000    0.800    0.000    0.000 
#
# Total GULP energy -334495.716872 kJ/mol
# GULP energy per Si atom -5574.928615 kJ/mol
# Density = 2.286193 g / cm^3
# Si number density = 22.914081 Si / 1000 Ang^3
#
#
#
# Elastic Constant Matrix: (Units=GPa)
#
#
# Indices 1 2 3 4 5 6 
#
# 1 35.9298 2.9727 3.0300 0.0000 0.0000 0.0000
# 2 2.9727 169.9903 12.7959 0.0000 0.0000 0.0000
# 3 3.0300 12.7959 145.1728 0.0000 0.0000 0.0000
# 4 0.0000 0.0000 0.0000 17.2717 0.0000 0.0000
# 5 0.0000 0.0000 0.0000 0.0000 -1.1446 0.0000
# 6 0.0000 0.0000 0.0000 0.0000 0.0000 7.1645
#
#
#
# Elastic Compliance Matrix: (Units=1/GPa)
#
#
# Indices 1 2 3 4 5 6 
#
# 1 0.027915 -0.000447 -0.000543 0.000000 0.000000 0.000000
# 2 -0.000447 0.005929 -0.000513 0.000000 0.000000 0.000000
# 3 -0.000543 -0.000513 0.006945 0.000000 0.000000 0.000000
# 4 0.000000 0.000000 0.000000 0.057898 0.000000 0.000000
# 5 0.000000 0.000000 0.000000 0.000000 -0.873701 0.000000
# 6 0.000000 0.000000 0.000000 0.000000 0.000000 0.139576
#
#
# Mechanical properties :
#
#
# Convention : Reuss Voigt Hill
#
# Bulk Modulus (GPa) = 26.46802 43.18778 34.82790
# Shear Modulus (GPa) = -8.06664 26.81130 9.37233
#
# Velocity S-wave (km/s) = -1.87830 3.42435 2.02462
# Velocity P-wave (km/s) = 2.62145 5.87567 4.54948
#
# Compressibility (1/GPa) = 0.03778144
#
# Stress axis : x y z
#
# Youngs Moduli (GPa) = 35.82321 168.65840 143.99010
#
# Poissons Ratio (x) = 0.07543 0.07822
# Poissons Ratio (y) = 0.01602 0.07391
# Poissons Ratio (z) = 0.01946 0.08657
#
# Static dielectric constant tensor:
#      x y z
#    x 1.909640 0.000000 0.000000 
#    y 0.000000 1.994980 0.000000 
#    z 0.000000 0.000000 1.901600 
# 
# From -- ./inp_files/23679.got.cif
#   From: 2010.05.17/outbox.cif.g08.bks.cpg/sg56_12_cif.got.tgz:23679.got - 2010.06.03 13:42:01.
