data_PCOD9429355
_publ_section_title
;
Structure prediction by ZEFSAII (Michael W. Deem and Ramdas Pophale) SiO2 
 PCOD9429355
Probable space group: P B A M
;
_chemical_formula_sum "Si O2"
_cell_formula_units_Z 64
_cell_length_a 15.000000
_cell_length_b 24.000000
_cell_length_c 9.000000
_cell_angle_alpha 90.000000
_cell_angle_beta 90.000000
_cell_angle_gamma 90.000000
_cell_volume 3240.000000
_symmetry_space_group_name_H-M "P B A M"
_symmetry_group_IT_number 55
_symmetry_cell_setting 'orthorhombic'
loop_
_space_group_symop_operation_xyz
x,y,z
-x,-y,z
1/2+x,1/2-y,-z
1/2-x,1/2+y,-z
-x,-y,-z
x,y,-z
1/2-x,1/2+y,z
1/2+x,1/2-y,z
loop_
_atom_site_type_symbol
_atom_site_label
_atom_site_fract_x
_atom_site_fract_y
_atom_site_fract_z
Si Si1 0.449967 0.323859 0.323331
Si Si2 0.601472 0.490575 0.320603
Si Si3 0.317176 0.124898 0.165965
Si Si4 0.357636 0.637415 0.677209
Si Si5 0.551190 0.948355 0.330240
Si Si6 0.791612 0.095325 0.681464
Si Si7 0.528747 0.783323 0.834550
Si Si8 0.896635 0.644890 0.670384
O O1 0.453497 0.331827 0.500000
O O2 0.549680 0.336770 0.267433
O O3 0.370635 0.363217 0.270151
O O4 0.432402 0.261190 0.278642
O O5 0.500000 0.500000 0.265679
O O6 0.596490 0.497451 0.500000
O O7 0.631850 0.428268 0.293080
O O8 0.673823 0.535196 0.267290
O O9 0.234127 0.153648 0.246206
O O10 0.359597 0.072957 0.253304
O O11 0.399737 0.167311 0.158612
O O12 0.290807 0.108881 0.000000
O O13 0.350800 0.646542 0.500000
O O14 0.574888 0.963854 0.500000
O O15 0.476125 0.900377 0.335021
O O16 0.500000 0.000000 0.257401
O O17 0.788218 0.094591 0.500000
O O18 0.694264 0.116648 0.726396
O O19 0.435481 0.806643 0.772931
O O20 0.518963 0.759848 0.000000
O O21 0.882948 0.664825 0.500000
#
# Coordination Sequence:
#
# PCOD9429355 Si02
#       8
#     8   8   8   8   8   8   8   8
#     4  10  20  35  56  83 109 137 177 224 272 318
#     4   9  15  28  52  82 115 143 169 211 264 319
#     4  10  22  38  54  75 108 148 186 224 270 321
#     4  10  20  33  56  86 112 141 179 220 267 322
#     4   9  18  32  53  82 110 139 179 225 270 318
#     4   9  17  30  52  83 113 140 171 212 264 319
#     4  10  22  40  57  73 101 144 185 225 273 320
#     4   9  18  33  54  81 110 138 174 221 267 314
#
# _framework density 19.753086
#
# number of rings (size 3 to 8) (size 9 to 14) (size 15 to 20)
#    0.000    2.500    1.250    0.750    1.750    3.250 
#    0.000    4.375    0.000    1.125    0.000    0.000 
#    0.000    0.000    0.000    0.000    0.000    0.000 
#
# Total GULP energy -356506.148333 kJ/mol
# GULP energy per Si atom -5570.408568 kJ/mol
# Density = 1.970813 g / cm^3
# Si number density = 19.753086 Si / 1000 Ang^3
#
#
#
# Elastic Constant Matrix: (Units=GPa)
#
#
# Indices 1 2 3 4 5 6 
#
# 1 71.9542 -12.1409 31.1445 0.0000 0.0000 0.0000
# 2 -12.1409 -1.7605 -0.3298 0.0000 0.0000 0.0000
# 3 31.1445 -0.3298 14.0137 0.0000 0.0000 0.0000
# 4 0.0000 0.0000 0.0000 -16.5018 0.0000 0.0000
# 5 0.0000 0.0000 0.0000 0.0000 7.7689 0.0000
# 6 0.0000 0.0000 0.0000 0.0000 0.0000 2.6581
#
#
#
# Elastic Compliance Matrix: (Units=1/GPa)
#
#
# Indices 1 2 3 4 5 6 
#
# 1 0.013100 -0.084514 -0.031103 0.000000 0.000000 0.000000
# 2 -0.084514 -0.020282 0.187349 0.000000 0.000000 0.000000
# 3 -0.031103 0.187349 0.144891 0.000000 0.000000 0.000000
# 4 0.000000 0.000000 0.000000 -0.060600 0.000000 0.000000
# 5 0.000000 0.000000 0.000000 0.000000 0.128718 0.000000
# 6 0.000000 0.000000 0.000000 0.000000 0.000000 0.376212
#
#
# Mechanical properties :
#
#
# Convention : Reuss Voigt Hill
#
# Bulk Modulus (GPa) = 3.55651 13.50611 8.53131
# Shear Modulus (GPa) = 9.39320 3.15395 6.27357
#
# Velocity S-wave (km/s) = 2.18303 1.26497 1.78407
# Velocity P-wave (km/s) = 2.85632 2.99764 2.92783
#
# Compressibility (1/GPa) = 0.28117482
#
# Stress axis : x y z
#
# Youngs Moduli (GPa) = 76.33539 -49.30589 6.90173
#
# Poissons Ratio (x) = -4.16704 0.21466
# Poissons Ratio (y) = 6.45141 -1.29303
# Poissons Ratio (z) = 2.37424 9.23743
#
# Static dielectric constant tensor:
#      x y z
#    x 1.739790 0.000000 0.000000 
#    y 0.000000 1.720600 0.000000 
#    z 0.000000 0.000000 1.694370 
# 
# From -- ./inp_files/6608.got.cif
#   From: 2010.05.17/outbox.ucp.g08.bks.cvg/sg55_4_cif.got.tgz:6608.got - 2010.06.11 16:36:00.
