data_PCOD9429597
_publ_section_title
;
Structure prediction by ZEFSAII (Michael W. Deem and Ramdas Pophale) SiO2 
 PCOD9429597
Probable space group: P C C N
;
_chemical_formula_sum "Si O2"
_cell_formula_units_Z 48
_cell_length_a 8.399148
_cell_length_b 15.515644
_cell_length_c 17.954869
_cell_angle_alpha 90.000000
_cell_angle_beta 90.000000
_cell_angle_gamma 90.000000
_cell_volume 2339.846035
_symmetry_space_group_name_H-M "P C C N"
_symmetry_group_IT_number 56
_symmetry_cell_setting 'orthorhombic'
loop_
_space_group_symop_operation_xyz
x,y,z
1/2-x,1/2-y,z
1/2+x,-y,1/2-z
-x,1/2+y,1/2-z
-x,-y,-z
1/2+x,1/2+y,-z
1/2-x,y,1/2+z
x,1/2-y,1/2+z
loop_
_atom_site_type_symbol
_atom_site_label
_atom_site_fract_x
_atom_site_fract_y
_atom_site_fract_z
Si Si1 0.421219 0.603852 0.429744
Si Si2 0.820450 0.480010 0.315635
Si Si3 0.054270 0.589893 0.094827
Si Si4 0.555700 0.878559 0.781667
Si Si5 0.090805 0.987587 0.922398
Si Si6 0.755716 0.840090 0.143101
O O1 0.504431 0.509696 0.419846
O O2 0.453217 0.634052 0.513870
O O3 0.500884 0.656825 0.361979
O O4 0.233435 0.581571 0.423947
O O5 0.729798 0.415012 0.371463
O O6 0.689693 0.547381 0.289240
O O7 0.899703 0.426018 0.250154
O O8 0.959091 0.529356 0.359628
O O9 0.926792 0.629306 0.151780
O O10 0.635406 0.822962 0.716135
O O11 0.165679 0.080262 0.900247
O O12 0.000000 0.000000 0.000000
O O13 0.750000 0.750000 0.100367
#
# Coordination Sequence:
#
# PCOD9429597 Si02
#       6
#     8   8   8   8   8   8
#     4   9  17  30  52  84 107 130 181 241 285 318
#     4  10  17  30  53  84 107 135 179 233 282 328
#     4   9  17  31  54  77 107 141 180 231 279 333
#     4  10  19  31  51  79 111 139 177 229 281 337
#     4  10  18  32  58  87 108 137 189 247 284 336
#     4  10  22  37  52  78 113 156 191 218 294 367
#
# _framework density 20.51417
#
# number of rings (size 3 to 8) (size 9 to 14) (size 15 to 20)
#    0.000    2.333    1.667    4.000    2.333    0.000 
#    0.000    4.167    0.000    0.000    0.000    0.000 
#    0.000    0.000    0.000    0.000    0.000    0.000 
#
# Total GULP energy -267392.306950 kJ/mol
# GULP energy per Si atom -5570.673061 kJ/mol
# Density = 2.046748 g / cm^3
# Si number density = 20.514170 Si / 1000 Ang^3
#
#
#
# Elastic Constant Matrix: (Units=GPa)
#
#
# Indices 1 2 3 4 5 6 
#
# 1 107.7219 6.4232 31.9825 0.0000 0.0000 0.0000
# 2 6.4232 21.7989 -3.5458 0.0000 0.0000 0.0000
# 3 31.9825 -3.5458 85.5511 0.0000 0.0000 0.0000
# 4 0.0000 0.0000 0.0000 1.7233 0.0000 0.0000
# 5 0.0000 0.0000 0.0000 0.0000 27.0472 0.0000
# 6 0.0000 0.0000 0.0000 0.0000 0.0000 7.0453
#
#
#
# Elastic Compliance Matrix: (Units=1/GPa)
#
#
# Indices 1 2 3 4 5 6 
#
# 1 0.010754 -0.003848 -0.004180 0.000000 0.000000 0.000000
# 2 -0.003848 0.047562 0.003410 0.000000 0.000000 0.000000
# 3 -0.004180 0.003410 0.013393 0.000000 0.000000 0.000000
# 4 0.000000 0.000000 0.000000 0.580296 0.000000 0.000000
# 5 0.000000 0.000000 0.000000 0.000000 0.036972 0.000000
# 6 0.000000 0.000000 0.000000 0.000000 0.000000 0.141939
#
#
# Mechanical properties :
#
#
# Convention : Reuss Voigt Hill
#
# Bulk Modulus (GPa) = 16.00701 31.64352 23.82527
# Shear Modulus (GPa) = 5.80736 19.17730 12.49233
#
# Velocity S-wave (km/s) = 1.68435 3.06082 2.47039
# Velocity P-wave (km/s) = 3.40626 5.28679 4.44706
#
# Compressibility (1/GPa) = 0.06247263
#
# Stress axis : x y z
#
# Youngs Moduli (GPa) = 92.99246 21.02499 74.66716
#
# Poissons Ratio (x) = 0.08091 0.31208
# Poissons Ratio (y) = 0.35788 -0.25462
# Poissons Ratio (z) = 0.38867 -0.07170
#
# Static dielectric constant tensor:
#      x y z
#    x 1.771950 0.000000 0.000000 
#    y 0.000000 1.816530 0.000000 
#    z 0.000000 0.000000 1.860780 
# 
# From -- ./inp_files/14947.got.cif
#   From: 2010.05.17/outbox.cif.g08.bks.cpg/sg56_8_cif.got.tgz:14947.got - 2010.06.03 13:42:01.
