data_PCOD9429025
_publ_section_title
;
Structure prediction by ZEFSAII (Michael W. Deem and Ramdas Pophale) SiO2 
 PCOD9429025
Probable space group: P B A M
;
_chemical_formula_sum "Si O2"
_cell_formula_units_Z 64
_cell_length_a 11.858686
_cell_length_b 14.995911
_cell_length_c 17.235364
_cell_angle_alpha 90.000000
_cell_angle_beta 90.000000
_cell_angle_gamma 90.000000
_cell_volume 3064.995801
_symmetry_space_group_name_H-M "P B A M"
_symmetry_group_IT_number 55
_symmetry_cell_setting 'orthorhombic'
loop_
_space_group_symop_operation_xyz
x,y,z
-x,-y,z
1/2+x,1/2-y,-z
1/2-x,1/2+y,-z
-x,-y,-z
x,y,-z
1/2-x,1/2+y,z
1/2+x,1/2-y,z
loop_
_atom_site_type_symbol
_atom_site_label
_atom_site_fract_x
_atom_site_fract_y
_atom_site_fract_z
Si Si1 0.786063 0.127221 0.090854
Si Si2 0.245343 0.197197 0.810614
Si Si3 0.514118 0.145166 0.589952
Si Si4 0.126396 0.522824 0.836182
Si Si5 0.341339 0.004420 0.653321
Si Si6 0.875482 0.038811 0.410167
Si Si7 0.001406 0.104761 0.817968
Si Si8 0.884751 0.213514 0.681928
O O1 0.743716 0.214132 0.137401
O O2 0.718265 0.041811 0.124453
O O3 0.920208 0.118116 0.107554
O O4 0.764714 0.135339 0.000000
O O5 0.125837 0.146888 0.817388
O O6 0.286294 0.228223 0.723884
O O7 0.337660 0.126252 0.842482
O O8 0.522132 0.170274 0.500000
O O9 0.622039 0.090715 0.618549
O O10 0.481537 0.224086 0.647042
O O11 0.411611 0.075678 0.604232
O O12 0.128894 0.506002 0.743401
O O13 0.000000 0.500000 0.863988
O O14 0.209799 0.017213 0.642220
O O15 0.843902 0.028431 0.500000
O O16 0.861183 0.141394 0.384722
O O17 0.000000 0.000000 0.400234
O O18 0.933613 0.154711 0.750986
O O19 0.000000 0.000000 0.802092
#
# Coordination Sequence:
#
# PCOD9429025 Si02
#       8
#     8   8   8   8   8   8   8   8
#     4  11  28  48  73 109 145 182 229 288 361 434
#     4  11  25  45  71 106 137 183 236 287 350 427
#     4  11  22  39  65  96 130 177 232 289 349 400
#     4  12  24  46  75 105 138 183 237 292 352 428
#     4  11  21  42  66  93 128 178 229 284 337 418
#     4  11  25  42  60  92 140 186 230 290 364 426
#     4  11  24  47  72 101 136 185 239 284 347 430
#     4  11  24  38  66 100 134 178 232 294 346 413
#
# _framework density 20.880941
#
# number of rings (size 3 to 8) (size 9 to 14) (size 15 to 20)
#    0.000    0.875    3.750    3.750    8.750    1.500 
#    0.000    0.000    0.000    0.000    0.000    0.000 
#    0.000    0.000    0.000    0.000    0.000    0.000 
#
# Total GULP energy -357586.447499 kJ/mol
# GULP energy per Si atom -5587.288242 kJ/mol
# Density = 2.083342 g / cm^3
# Si number density = 20.880941 Si / 1000 Ang^3
#
#
#
# Elastic Constant Matrix: (Units=GPa)
#
#
# Indices 1 2 3 4 5 6 
#
# 1 65.1263 14.8343 -11.8285 0.0000 0.0000 0.0000
# 2 14.8343 105.9501 14.0427 0.0000 0.0000 0.0000
# 3 -11.8285 14.0427 81.5919 0.0000 0.0000 0.0000
# 4 0.0000 0.0000 0.0000 16.2266 0.0000 0.0000
# 5 0.0000 0.0000 0.0000 0.0000 19.3600 0.0000
# 6 0.0000 0.0000 0.0000 0.0000 0.0000 26.5169
#
#
#
# Elastic Compliance Matrix: (Units=1/GPa)
#
#
# Indices 1 2 3 4 5 6 
#
# 1 0.016485 -0.002686 0.002852 0.000000 0.000000 0.000000
# 2 -0.002686 0.010096 -0.002127 0.000000 0.000000 0.000000
# 3 0.002852 -0.002127 0.013036 0.000000 0.000000 0.000000
# 4 0.000000 0.000000 0.000000 0.061627 0.000000 0.000000
# 5 0.000000 0.000000 0.000000 0.000000 0.051653 0.000000
# 6 0.000000 0.000000 0.000000 0.000000 0.000000 0.037712
#
#
# Mechanical properties :
#
#
# Convention : Reuss Voigt Hill
#
# Bulk Modulus (GPa) = 28.01546 31.86282 29.93914
# Shear Modulus (GPa) = 24.22142 28.12869 26.17506
#
# Velocity S-wave (km/s) = 3.40954 3.67427 3.54438
# Velocity P-wave (km/s) = 5.38013 5.76998 5.57847
#
# Compressibility (1/GPa) = 0.03569457
#
# Stress axis : x y z
#
# Youngs Moduli (GPa) = 60.66266 99.04507 76.71258
#
# Poissons Ratio (x) = 0.26604 -0.21879
# Poissons Ratio (y) = 0.16294 0.16317
# Poissons Ratio (z) = -0.17302 0.21068
#
# Static dielectric constant tensor:
#      x y z
#    x 1.780350 0.000000 0.000000 
#    y 0.000000 1.795970 0.000000 
#    z 0.000000 0.000000 1.711640 
# 
# From -- ./inp_files/21360.got.cif
#   From: 2010.05.17/outbox.cif.g08.bks.cpg/sg55_11_cif.got.tgz:21360.got - 2010.06.03 13:27:54.
