data_PCOD9429409
_publ_section_title
;
Structure prediction by ZEFSAII (Michael W. Deem and Ramdas Pophale) SiO2 
 PCOD9429409
Probable space group: P B A M
;
_chemical_formula_sum "Si O2"
_cell_formula_units_Z 64
_cell_length_a 24.000000
_cell_length_b 15.000000
_cell_length_c 9.000000
_cell_angle_alpha 90.000000
_cell_angle_beta 90.000000
_cell_angle_gamma 90.000000
_cell_volume 3240.000000
_symmetry_space_group_name_H-M "P B A M"
_symmetry_group_IT_number 55
_symmetry_cell_setting 'orthorhombic'
loop_
_space_group_symop_operation_xyz
x,y,z
-x,-y,z
1/2+x,1/2-y,-z
1/2-x,1/2+y,-z
-x,-y,-z
x,y,-z
1/2-x,1/2+y,z
1/2+x,1/2-y,z
loop_
_atom_site_type_symbol
_atom_site_label
_atom_site_fract_x
_atom_site_fract_y
_atom_site_fract_z
Si Si1 0.795948 0.699822 0.822775
Si Si2 0.585259 0.240871 0.680163
Si Si3 0.629284 0.830040 0.326397
Si Si4 0.709578 0.543408 0.176701
Si Si5 0.103111 0.842376 0.826896
Si Si6 0.008370 0.101583 0.678734
Si Si7 0.751119 0.372257 0.671995
Si Si8 0.008469 0.599048 0.320052
O O1 0.856501 0.709375 0.747909
O O2 0.757321 0.615316 0.781254
O O3 0.763532 0.787276 0.769498
O O4 0.802201 0.698733 0.000000
O O5 0.589592 0.240531 0.500000
O O6 0.561809 0.339080 0.725535
O O7 0.537364 0.170711 0.727133
O O8 0.626573 0.801081 0.500000
O O9 0.635319 0.746202 0.220255
O O10 0.683065 0.891672 0.313396
O O11 0.571124 0.873519 0.285554
O O12 0.647643 0.580478 0.201829
O O13 0.717469 0.455686 0.271113
O O14 0.715559 0.526404 0.000000
O O15 0.047513 0.848820 0.730581
O O16 0.088464 0.841847 0.000000
O O17 0.009903 0.099118 0.500000
O O18 0.000000 0.000000 0.733758
O O19 0.739191 0.352043 0.500000
O O20 0.004306 0.596590 0.500000
O O21 0.000000 0.500000 0.261488
#
# Coordination Sequence:
#
# PCOD9429409 Si02
#       8
#     8   8   8   8   8   8   8   8
#     4  11  24  43  62  84 126 168 200 244 303 367
#     4  10  21  38  60  87 120 157 200 246 296 352
#     4  10  20  38  62  89 117 151 197 247 299 349
#     4  10  24  43  61  86 123 166 201 242 306 363
#     4  11  22  39  63  88 117 156 201 247 296 357
#     4  10  22  40  61  87 120 156 195 248 303 350
#     4  11  24  39  64  95 120 154 206 258 299 354
#     4   9  18  34  59  87 118 152 187 237 298 352
#
# _framework density 19.753086
#
# number of rings (size 3 to 8) (size 9 to 14) (size 15 to 20)
#    0.000    1.750    2.500    1.125    3.500    3.250 
#    0.000    0.000    0.000    0.750    0.000    0.000 
#    0.000    0.000    0.000    0.000    0.000    0.000 
#
# Total GULP energy -357081.037959 kJ/mol
# GULP energy per Si atom -5579.391218 kJ/mol
# Density = 1.970813 g / cm^3
# Si number density = 19.753086 Si / 1000 Ang^3
#
#
#
# Elastic Constant Matrix: (Units=GPa)
#
#
# Indices 1 2 3 4 5 6 
#
# 1 50.3897 -21.0622 -3.1574 0.0000 0.0000 0.0000
# 2 -21.0622 39.5976 -2.2330 0.0000 0.0000 0.0000
# 3 -3.1574 -2.2330 -30.2409 0.0000 0.0000 0.0000
# 4 0.0000 0.0000 0.0000 2.8175 0.0000 0.0000
# 5 0.0000 0.0000 0.0000 0.0000 14.0764 0.0000
# 6 0.0000 0.0000 0.0000 0.0000 0.0000 13.2637
#
#
#
# Elastic Compliance Matrix: (Units=1/GPa)
#
#
# Indices 1 2 3 4 5 6 
#
# 1 0.025120 0.013159 -0.003594 0.000000 0.000000 0.000000
# 2 0.013159 0.032043 -0.003740 0.000000 0.000000 0.000000
# 3 -0.003594 -0.003740 -0.032416 0.000000 0.000000 0.000000
# 4 0.000000 0.000000 0.000000 0.354919 0.000000 0.000000
# 5 0.000000 0.000000 0.000000 0.000000 0.071041 0.000000
# 6 0.000000 0.000000 0.000000 0.000000 0.000000 0.075394
#
#
# Mechanical properties :
#
#
# Convention : Reuss Voigt Hill
#
# Bulk Modulus (GPa) = 27.47579 0.76012 14.11796
# Shear Modulus (GPa) = 9.49517 11.77813 10.63665
#
# Velocity S-wave (km/s) = 2.19485 2.44451 2.32304
# Velocity P-wave (km/s) = 4.51254 2.89018 3.78920
#
# Compressibility (1/GPa) = 0.03639567
#
# Stress axis : x y z
#
# Youngs Moduli (GPa) = 39.80835 31.20855 -30.84865
#
# Poissons Ratio (x) = -0.41067 -0.11088
# Poissons Ratio (y) = -0.52384 -0.11537
# Poissons Ratio (z) = 0.14309 0.11672
#
# Static dielectric constant tensor:
#      x y z
#    x 1.651740 0.000000 0.000000 
#    y 0.000000 1.719620 0.000000 
#    z 0.000000 0.000000 1.667200 
# 
# From -- ./inp_files/6733.got.cif
#   From: 2010.05.17/outbox.ucp.g08.bks.cvg/sg55_4_cif.got.tgz:6733.got - 2010.06.11 16:36:00.
