data_PCOD9429873
_publ_section_title
;
Structure prediction by ZEFSAII (Michael W. Deem and Ramdas Pophale) SiO2 
 PCOD9429873
Probable space group: P C C N
;
_chemical_formula_sum "Si O2"
_cell_formula_units_Z 40
_cell_length_a 12.791456
_cell_length_b 7.562893
_cell_length_c 19.242162
_cell_angle_alpha 90.000000
_cell_angle_beta 90.000000
_cell_angle_gamma 90.000000
_cell_volume 1861.494700
_symmetry_space_group_name_H-M "P C C N"
_symmetry_group_IT_number 56
_symmetry_cell_setting 'orthorhombic'
loop_
_space_group_symop_operation_xyz
x,y,z
1/2-x,1/2-y,z
1/2+x,-y,1/2-z
-x,1/2+y,1/2-z
-x,-y,-z
1/2+x,1/2+y,-z
1/2-x,y,1/2+z
x,1/2-y,1/2+z
loop_
_atom_site_type_symbol
_atom_site_label
_atom_site_fract_x
_atom_site_fract_y
_atom_site_fract_z
Si Si1 0.982236 0.317265 0.459838
Si Si2 0.589702 0.854769 0.917653
Si Si3 0.980674 0.645028 0.176787
Si Si4 0.801309 0.009225 0.896703
Si Si5 0.838901 0.368411 0.248010
O O1 0.863452 0.334688 0.434371
O O2 0.000000 0.500000 0.500000
O O3 0.014732 0.177382 0.517391
O O4 0.043287 0.277855 0.387835
O O5 0.700124 0.943293 0.936791
O O6 0.621826 0.660756 0.890054
O O7 0.540146 0.982431 0.860910
O O8 0.883261 0.545013 0.211612
O O9 0.059990 0.749660 0.228350
O O10 0.781114 0.067918 0.818370
O O11 0.750000 0.250000 0.210072
#
# Coordination Sequence:
#
# PCOD9429873 Si02
#       5
#     8   8   8   8   8
#     4   9  20  37  60  91 124 161 215 274 325 390
#     4  10  18  36  62  91 120 168 213 266 329 393
#     4  11  22  38  64  92 126 172 219 271 329 389
#     4   9  19  36  63  85 123 171 217 256 329 403
#     4  11  22  41  61  92 128 173 225 270 329 402
#
# _framework density 21.488109000000001
#
# number of rings (size 3 to 8) (size 9 to 14) (size 15 to 20)
#    0.000    2.000    2.000    1.800    0.000    0.000 
#    3.600    0.000   17.600    0.000    0.000    0.000 
#    0.000    0.000    0.000    0.000    0.000    0.000 
#
# Total GULP energy -222897.893363 kJ/mol
# GULP energy per Si atom -5572.447334 kJ/mol
# Density = 2.143920 g / cm^3
# Si number density = 21.488109 Si / 1000 Ang^3
#
#
#
# Elastic Constant Matrix: (Units=GPa)
#
#
# Indices 1 2 3 4 5 6 
#
# 1 56.3749 20.9522 34.9872 0.0000 0.0000 0.0000
# 2 20.9522 128.2759 39.6630 0.0000 0.0000 0.0000
# 3 34.9872 39.6630 59.9897 0.0000 0.0000 0.0000
# 4 0.0000 0.0000 0.0000 37.3591 0.0000 0.0000
# 5 0.0000 0.0000 0.0000 0.0000 11.6474 0.0000
# 6 0.0000 0.0000 0.0000 0.0000 0.0000 48.6993
#
#
#
# Elastic Compliance Matrix: (Units=1/GPa)
#
#
# Indices 1 2 3 4 5 6 
#
# 1 0.027837 0.000595 -0.016628 0.000000 0.000000 0.000000
# 2 0.000595 0.009812 -0.006834 0.000000 0.000000 0.000000
# 3 -0.016628 -0.006834 0.030886 0.000000 0.000000 0.000000
# 4 0.000000 0.000000 0.000000 0.026767 0.000000 0.000000
# 5 0.000000 0.000000 0.000000 0.000000 0.085856 0.000000
# 6 0.000000 0.000000 0.000000 0.000000 0.000000 0.020534
#
#
# Mechanical properties :
#
#
# Convention : Reuss Voigt Hill
#
# Bulk Modulus (GPa) = 43.86070 48.42724 46.14397
# Shear Modulus (GPa) = 19.60573 29.47702 24.54137
#
# Velocity S-wave (km/s) = 3.02387 3.70778 3.38315
# Velocity P-wave (km/s) = 5.71381 6.39655 6.06480
#
# Compressibility (1/GPa) = 0.02279945
#
# Stress axis : x y z
#
# Youngs Moduli (GPa) = 35.92309 101.91992 32.37723
#
# Poissons Ratio (x) = -0.06061 0.53838
# Poissons Ratio (y) = -0.02136 0.22126
# Poissons Ratio (z) = 0.59734 0.69651
#
# Static dielectric constant tensor:
#      x y z
#    x 1.845470 0.000000 0.000000 
#    y 0.000000 1.869010 0.000000 
#    z 0.000000 0.000000 1.792720 
# 
# From -- ./inp_files/18586.got.cif
#   From: 2010.05.17/outbox.cif.g08.bks.cpg/sg56_10_cif.got.tgz:18586.got - 2010.06.03 13:42:01.
