data_PCOD9429925
_publ_section_title
;
Structure prediction by ZEFSAII (Michael W. Deem and Ramdas Pophale) SiO2 
 PCOD9429925
Probable space group: P C C N
;
_chemical_formula_sum "Si O2"
_cell_formula_units_Z 64
_cell_length_a 9.241693
_cell_length_b 10.946785
_cell_length_c 28.058917
_cell_angle_alpha 90.000000
_cell_angle_beta 90.000000
_cell_angle_gamma 90.000000
_cell_volume 2838.631583
_symmetry_space_group_name_H-M "P C C N"
_symmetry_group_IT_number 56
_symmetry_cell_setting 'orthorhombic'
loop_
_space_group_symop_operation_xyz
x,y,z
1/2-x,1/2-y,z
1/2+x,-y,1/2-z
-x,1/2+y,1/2-z
-x,-y,-z
1/2+x,1/2+y,-z
1/2-x,y,1/2+z
x,1/2-y,1/2+z
loop_
_atom_site_type_symbol
_atom_site_label
_atom_site_fract_x
_atom_site_fract_y
_atom_site_fract_z
Si Si1 0.401732 0.695861 0.155457
Si Si2 0.027609 0.157583 0.097659
Si Si3 0.419300 0.272852 0.267099
Si Si4 0.150894 0.626658 0.794960
Si Si5 0.522375 0.437423 0.602602
Si Si6 0.736555 0.047257 0.422103
Si Si7 0.549162 0.046458 0.695880
Si Si8 0.726042 0.103663 0.532177
O O1 0.250000 0.750000 0.175321
O O2 0.525602 0.780584 0.178202
O O3 0.359110 0.654817 0.101943
O O4 0.461011 0.567958 0.175910
O O5 0.036755 0.301505 0.088863
O O6 0.956075 0.135051 0.149288
O O7 0.926870 0.092297 0.058384
O O8 0.173497 0.081849 0.095469
O O9 0.250000 0.250000 0.263528
O O10 0.517986 0.169675 0.239143
O O11 0.463000 0.393727 0.238926
O O12 0.250000 0.750000 0.795904
O O13 0.284607 0.530856 0.787439
O O14 0.081804 0.582316 0.844412
O O15 0.400927 0.541121 0.596902
O O16 0.653624 0.457475 0.565816
O O17 0.733434 0.056677 0.478685
O O18 0.750000 0.250000 0.531563
#
# Coordination Sequence:
#
# PCOD9429925 Si02
#       8
#     8   8   8   8   8   8   8   8
#     4  11  26  48  65  96 141 186 228 274 345 430
#     4  10  19  36  63  97 127 170 227 289 348 405
#     4  11  25  41  69 101 133 169 233 294 342 412
#     4  10  18  38  65  96 132 164 217 296 352 397
#     4  11  19  35  65  98 129 166 235 294 341 404
#     4  11  24  37  62  95 141 184 219 275 351 433
#     4  10  21  41  71  96 129 178 224 286 354 404
#     4  10  20  38  63  90 132 179 227 279 347 410
#
# _framework density 22.546074999999998
#
# number of rings (size 3 to 8) (size 9 to 14) (size 15 to 20)
#    0.000    1.500    3.750    3.000    3.500    2.000 
#    2.250    0.000    0.000    1.500    0.000    0.000 
#    0.000    0.000    0.000    0.000    0.000    0.000 
#
# Total GULP energy -356935.239967 kJ/mol
# GULP energy per Si atom -5577.113124 kJ/mol
# Density = 2.249476 g / cm^3
# Si number density = 22.546075 Si / 1000 Ang^3
#
#
#
# Elastic Constant Matrix: (Units=GPa)
#
#
# Indices 1 2 3 4 5 6 
#
# 1 158.8777 7.0814 46.5556 0.0000 0.0000 0.0000
# 2 7.0814 31.6482 -3.4306 0.0000 0.0000 0.0000
# 3 46.5556 -3.4306 121.9021 0.0000 0.0000 0.0000
# 4 0.0000 0.0000 0.0000 10.0184 0.0000 0.0000
# 5 0.0000 0.0000 0.0000 0.0000 -24.5643 0.0000
# 6 0.0000 0.0000 0.0000 0.0000 0.0000 39.1557
#
#
#
# Elastic Compliance Matrix: (Units=1/GPa)
#
#
# Indices 1 2 3 4 5 6 
#
# 1 0.007201 -0.001915 -0.002804 0.000000 0.000000 0.000000
# 2 -0.001915 0.032203 0.001638 0.000000 0.000000 0.000000
# 3 -0.002804 0.001638 0.009320 0.000000 0.000000 0.000000
# 4 0.000000 0.000000 0.000000 0.099816 0.000000 0.000000
# 5 0.000000 0.000000 0.000000 0.000000 -0.040709 0.000000
# 6 0.000000 0.000000 0.000000 0.000000 0.000000 0.025539
#
#
# Mechanical properties :
#
#
# Convention : Reuss Voigt Hill
#
# Bulk Modulus (GPa) = 23.49532 45.87120 34.68326
# Shear Modulus (GPa) = 32.52647 22.40340 27.46494
#
# Velocity S-wave (km/s) = 3.80237 3.15568 3.49401
# Velocity P-wave (km/s) = 5.45169 5.80236 5.62976
#
# Compressibility (1/GPa) = 0.04256167
#
# Stress axis : x y z
#
# Youngs Moduli (GPa) = 138.86586 31.05260 107.29258
#
# Poissons Ratio (x) = 0.05947 0.30086
# Poissons Ratio (y) = 0.26596 -0.17572
# Poissons Ratio (z) = 0.38939 -0.05086
#
# Static dielectric constant tensor:
#      x y z
#    x 1.848790 0.000000 0.000000 
#    y 0.000000 1.830760 0.000000 
#    z 0.000000 0.000000 1.827050 
# 
# From -- ./inp_files/23386.got.cif
#   From: 2010.05.17/outbox.cif.g08.bks.cpg/sg56_12_cif.got.tgz:23386.got - 2010.06.03 13:42:01.
