data_PCOD9429003
_publ_section_title
;
Structure prediction by ZEFSAII (Michael W. Deem and Ramdas Pophale) SiO2 
 PCOD9429003
Probable space group: P B A M
;
_chemical_formula_sum "Si O2"
_cell_formula_units_Z 58
_cell_length_a 12.593243
_cell_length_b 17.144665
_cell_length_c 14.247494
_cell_angle_alpha 90.000000
_cell_angle_beta 90.000000
_cell_angle_gamma 90.000000
_cell_volume 3076.132725
_symmetry_space_group_name_H-M "P B A M"
_symmetry_group_IT_number 55
_symmetry_cell_setting 'orthorhombic'
loop_
_space_group_symop_operation_xyz
x,y,z
-x,-y,z
1/2+x,1/2-y,-z
1/2-x,1/2+y,-z
-x,-y,-z
x,y,-z
1/2-x,1/2+y,z
1/2+x,1/2-y,z
loop_
_atom_site_type_symbol
_atom_site_label
_atom_site_fract_x
_atom_site_fract_y
_atom_site_fract_z
Si Si1 0.000000 0.500000 0.000000
Si Si2 0.498819 0.678867 0.237214
Si Si3 0.394302 0.906602 0.844103
Si Si4 0.613181 0.827158 0.203057
Si Si5 0.189388 0.245274 0.892542
Si Si6 0.591234 0.435253 0.605988
Si Si7 0.107521 0.949294 0.108601
Si Si8 0.230782 0.518254 0.742106
O O1 0.086091 0.473808 0.919084
O O2 0.568306 0.754887 0.263475
O O3 0.398234 0.706515 0.175010
O O4 0.451645 0.631816 0.324696
O O5 0.572583 0.624315 0.171949
O O6 0.507904 0.863773 0.842141
O O7 0.314222 0.838111 0.873416
O O8 0.355117 0.948648 0.749623
O O9 0.696281 0.790858 0.129685
O O10 0.673429 0.898543 0.251182
O O11 0.159444 0.231210 0.000000
O O12 0.500000 0.500000 0.603598
O O13 0.612340 0.408106 0.500000
O O14 0.692797 0.476221 0.653356
O O15 0.194443 0.998718 0.167306
O O16 0.137052 0.932175 0.000000
O O17 0.000000 0.000000 0.105240
#
# Coordination Sequence:
#
# PCOD9429003 Si02
#       8
#     2   8   8   8   8   8   8   8
#     4  12  20  40  52  88 132 188 224 254 296 368
#     4  11  21  41  59  90 126 160 210 271 324 374
#     4  11  25  37  58  87 134 175 226 255 307 374
#     4  11  24  37  58  86 128 168 206 258 308 376
#     4  11  23  36  58  90 130 179 219 255 311 380
#     4  11  23  44  72  97 119 154 212 278 337 390
#     4  11  21  34  57  88 125 165 208 253 303 373
#     4  12  21  41  61  90 123 170 210 259 316 384
#
# _framework density 18.854842000000001
#
# number of rings (size 3 to 8) (size 9 to 14) (size 15 to 20)
#    0.000    0.828    6.207    1.241    1.931    3.862 
#    0.000    0.690    0.000    4.966    0.000    0.000 
#    0.000    0.000    0.000    0.000    0.000    0.000 
#
# Total GULP energy -323191.638669 kJ/mol
# GULP energy per Si atom -5572.269632 kJ/mol
# Density = 1.881193 g / cm^3
# Si number density = 18.854842 Si / 1000 Ang^3
#
#
#
# Elastic Constant Matrix: (Units=GPa)
#
#
# Indices 1 2 3 4 5 6 
#
# 1 101.7860 44.0590 38.9101 0.0000 0.0000 0.0000
# 2 44.0590 92.1075 44.7654 0.0000 0.0000 0.0000
# 3 38.9101 44.7654 120.0116 0.0000 0.0000 0.0000
# 4 0.0000 0.0000 0.0000 4.3729 0.0000 0.0000
# 5 0.0000 0.0000 0.0000 0.0000 7.4245 0.0000
# 6 0.0000 0.0000 0.0000 0.0000 0.0000 47.0413
#
#
#
# Elastic Compliance Matrix: (Units=1/GPa)
#
#
# Indices 1 2 3 4 5 6 
#
# 1 0.012887 -0.005049 -0.002295 0.000000 0.000000 0.000000
# 2 -0.005049 0.015239 -0.004047 0.000000 0.000000 0.000000
# 3 -0.002295 -0.004047 0.010586 0.000000 0.000000 0.000000
# 4 0.000000 0.000000 0.000000 0.228681 0.000000 0.000000
# 5 0.000000 0.000000 0.000000 0.000000 0.134690 0.000000
# 6 0.000000 0.000000 0.000000 0.000000 0.000000 0.021258
#
#
# Mechanical properties :
#
#
# Convention : Reuss Voigt Hill
#
# Bulk Modulus (GPa) = 62.77490 63.26379 63.01935
# Shear Modulus (GPa) = 11.07579 24.17911 17.62745
#
# Velocity S-wave (km/s) = 2.42631 3.58492 3.06094
# Velocity P-wave (km/s) = 6.41992 7.12471 6.78148
#
# Compressibility (1/GPa) = 0.01592993
#
# Stress axis : x y z
#
# Youngs Moduli (GPa) = 77.59484 65.62033 94.46195
#
# Poissons Ratio (x) = 0.33133 0.21679
# Poissons Ratio (y) = 0.39180 0.38231
# Poissons Ratio (z) = 0.17808 0.26558
#
# Static dielectric constant tensor:
#      x y z
#    x 1.718540 0.000000 0.000000 
#    y 0.000000 1.716130 0.000000 
#    z 0.000000 0.000000 1.596730 
# 
# From -- ./inp_files/18527.got.cif
#   From: 2010.05.17/outbox.cif.g08.bks.cpg/sg55_10_cif.got.tgz:18527.got - 2010.06.03 13:27:54.
