data_PCOD9429551
_publ_section_title
;
Structure prediction by ZEFSAII (Michael W. Deem and Ramdas Pophale) SiO2 
 PCOD9429551
Probable space group: P C C N
;
_chemical_formula_sum "Si O2"
_cell_formula_units_Z 56
_cell_length_a 8.848195
_cell_length_b 19.563466
_cell_length_c 13.541028
_cell_angle_alpha 90.000000
_cell_angle_beta 90.000000
_cell_angle_gamma 90.000000
_cell_volume 2343.970390
_symmetry_space_group_name_H-M "P C C N"
_symmetry_group_IT_number 56
_symmetry_cell_setting 'orthorhombic'
loop_
_space_group_symop_operation_xyz
x,y,z
1/2-x,1/2-y,z
1/2+x,-y,1/2-z
-x,1/2+y,1/2-z
-x,-y,-z
1/2+x,1/2+y,-z
1/2-x,y,1/2+z
x,1/2-y,1/2+z
loop_
_atom_site_type_symbol
_atom_site_label
_atom_site_fract_x
_atom_site_fract_y
_atom_site_fract_z
Si Si1 0.605687 0.467526 0.347192
Si Si2 0.087114 0.277823 0.656454
Si Si3 0.889618 0.159226 0.591574
Si Si4 0.234047 0.824431 0.117336
Si Si5 0.557360 0.634607 0.028308
Si Si6 0.146921 0.065773 0.494528
Si Si7 0.908577 0.090045 0.160483
O O1 0.676890 0.391795 0.349278
O O2 0.450032 0.469572 0.408711
O O3 0.703323 0.517505 0.415668
O O4 0.581066 0.475653 0.230811
O O5 0.250000 0.250000 0.690831
O O6 0.098565 0.300414 0.541004
O O7 0.960388 0.219653 0.655614
O O8 0.019233 0.348286 0.700498
O O9 0.799955 0.183623 0.494382
O O10 0.764112 0.115785 0.649451
O O11 0.032153 0.117095 0.549728
O O12 0.250000 0.750000 0.165087
O O13 0.058236 0.843071 0.110992
O O14 0.713540 0.601685 0.056644
O O15 0.467734 0.584709 0.951914
#
# Coordination Sequence:
#
# PCOD9429551 Si02
#       7
#     8   8   8   8   8   8   8
#     4  10  23  38  52  81 122 150 186 237 292 331
#     4  10  17  31  59  85 107 134 186 240 276 323
#     4  10  16  33  58  80 105 145 191 224 279 337
#     4  10  18  33  55  80 109 150 191 227 281 350
#     4   9  19  34  60  82 103 147 197 233 271 341
#     4  10  21  38  58  79 113 158 191 231 278 342
#     4   9  20  34  53  83 109 142 178 239 275 335
#
# _framework density 23.891086000000001
#
# number of rings (size 3 to 8) (size 9 to 14) (size 15 to 20)
#    0.857    1.429    2.857    0.429    0.000    2.857 
#    0.000    4.286    0.000    0.000    0.000    0.000 
#    0.000    0.000    0.000    0.000    0.000    0.000 
#
# Total GULP energy -312322.008481 kJ/mol
# GULP energy per Si atom -5577.178723 kJ/mol
# Density = 2.383671 g / cm^3
# Si number density = 23.891086 Si / 1000 Ang^3
#
#
#
# Elastic Constant Matrix: (Units=GPa)
#
#
# Indices 1 2 3 4 5 6 
#
# 1 119.0901 13.6074 3.5592 0.0000 0.0000 0.0000
# 2 13.6074 41.0611 -0.8994 0.0000 0.0000 0.0000
# 3 3.5592 -0.8994 34.2016 0.0000 0.0000 0.0000
# 4 0.0000 0.0000 0.0000 14.8746 0.0000 0.0000
# 5 0.0000 0.0000 0.0000 0.0000 16.5487 0.0000
# 6 0.0000 0.0000 0.0000 0.0000 0.0000 23.3855
#
#
#
# Elastic Compliance Matrix: (Units=1/GPa)
#
#
# Indices 1 2 3 4 5 6 
#
# 1 0.008761 -0.002925 -0.000989 0.000000 0.000000 0.000000
# 2 -0.002925 0.025345 0.000971 0.000000 0.000000 0.000000
# 3 -0.000989 0.000971 0.029367 0.000000 0.000000 0.000000
# 4 0.000000 0.000000 0.000000 0.067229 0.000000 0.000000
# 5 0.000000 0.000000 0.000000 0.000000 0.060428 0.000000
# 6 0.000000 0.000000 0.000000 0.000000 0.000000 0.042762
#
#
# Mechanical properties :
#
#
# Convention : Reuss Voigt Hill
#
# Bulk Modulus (GPa) = 17.36510 25.20969 21.28740
# Shear Modulus (GPa) = 19.30720 22.83415 21.07067
#
# Velocity S-wave (km/s) = 2.84585 3.09489 2.97298
# Velocity P-wave (km/s) = 4.25238 4.83177 4.55130
#
# Compressibility (1/GPa) = 0.05758676
#
# Stress axis : x y z
#
# Youngs Moduli (GPa) = 114.14544 39.45622 34.05209
#
# Poissons Ratio (x) = 0.11541 0.03366
# Poissons Ratio (y) = 0.33387 -0.03306
# Poissons Ratio (z) = 0.11284 -0.03831
#
# Static dielectric constant tensor:
#      x y z
#    x 1.910850 0.000000 0.000000 
#    y 0.000000 1.969420 0.000000 
#    z 0.000000 0.000000 1.973740 
# 
# From -- ./inp_files/15157.got.cif
#   From: 2010.05.17/outbox.cif.g08.bks.cpg/sg56_8_cif.got.tgz:15157.got - 2010.06.03 13:42:01.
