data_PCOD9429727
_publ_section_title
;
Structure prediction by ZEFSAII (Michael W. Deem and Ramdas Pophale) SiO2 
 PCOD9429727
Probable space group: P C C N
;
_chemical_formula_sum "Si O2"
_cell_formula_units_Z 36
_cell_length_a 9.156640
_cell_length_b 16.658537
_cell_length_c 8.112239
_cell_angle_alpha 90.000000
_cell_angle_beta 90.000000
_cell_angle_gamma 90.000000
_cell_volume 1237.410323
_symmetry_space_group_name_H-M "P C C N"
_symmetry_group_IT_number 56
_symmetry_cell_setting 'orthorhombic'
loop_
_space_group_symop_operation_xyz
x,y,z
1/2-x,1/2-y,z
1/2+x,-y,1/2-z
-x,1/2+y,1/2-z
-x,-y,-z
1/2+x,1/2+y,-z
1/2-x,y,1/2+z
x,1/2-y,1/2+z
loop_
_atom_site_type_symbol
_atom_site_label
_atom_site_fract_x
_atom_site_fract_y
_atom_site_fract_z
Si Si1 0.934376 0.714794 0.826560
Si Si2 0.874348 0.876491 0.018263
Si Si3 0.576326 0.003833 0.283504
Si Si4 0.095581 0.601037 0.035601
Si Si5 0.250000 0.750000 0.169582
O O1 0.951939 0.650274 0.974102
O O2 0.099444 0.730300 0.761406
O O3 0.838826 0.673351 0.684883
O O4 0.895758 0.800254 0.900602
O O5 0.820723 0.946865 0.893059
O O6 0.007534 0.928744 0.098942
O O7 0.639460 0.046964 0.120909
O O8 0.452401 0.947800 0.197082
O O9 0.213153 0.669060 0.071574
#
# Coordination Sequence:
#
# PCOD9429727 Si02
#       5
#     8   8   8   8   4
#     4  11  20  30  49  79 108 146 196 241 281 357
#     4  10  18  32  50  70 104 148 197 233 290 343
#     4   9  19  34  50  66 103 164 198 234 284 348
#     4  10  20  34  49  73 110 155 200 233 285 354
#     4  12  20  30  50  80 118 152 196 230 294 360
#
# _framework density 29.093019000000002
#
# number of rings (size 3 to 8) (size 9 to 14) (size 15 to 20)
#    0.000    1.778    4.444    0.667    0.000    0.000 
#    0.000    0.000    0.000    0.000    0.000    0.000 
#    0.000    0.000    0.000 1538.000    0.000    0.000 
#
# Total GULP energy -201397.796416 kJ/mol
# GULP energy per Si atom -5594.383234 kJ/mol
# Density = 2.902680 g / cm^3
# Si number density = 29.093019 Si / 1000 Ang^3
#
#
#
# Elastic Constant Matrix: (Units=GPa)
#
#
# Indices 1 2 3 4 5 6 
#
# 1 84.9261 63.3050 75.9309 0.0000 0.0000 0.0000
# 2 63.3050 231.0264 101.9609 0.0000 0.0000 0.0000
# 3 75.9309 101.9609 161.9405 0.0000 0.0000 0.0000
# 4 0.0000 0.0000 0.0000 99.9981 0.0000 0.0000
# 5 0.0000 0.0000 0.0000 0.0000 32.5402 0.0000
# 6 0.0000 0.0000 0.0000 0.0000 0.0000 65.1044
#
#
#
# Elastic Compliance Matrix: (Units=1/GPa)
#
#
# Indices 1 2 3 4 5 6 
#
# 1 0.020884 -0.001940 -0.008571 0.000000 0.000000 0.000000
# 2 -0.001940 0.006174 -0.002978 0.000000 0.000000 0.000000
# 3 -0.008571 -0.002978 0.012069 0.000000 0.000000 0.000000
# 4 0.000000 0.000000 0.000000 0.010000 0.000000 0.000000
# 5 0.000000 0.000000 0.000000 0.000000 0.030731 0.000000
# 6 0.000000 0.000000 0.000000 0.000000 0.000000 0.015360
#
#
# Mechanical properties :
#
#
# Convention : Reuss Voigt Hill
#
# Bulk Modulus (GPa) = 82.30504 106.69854 94.50179
# Shear Modulus (GPa) = 39.60553 55.30830 47.45691
#
# Velocity S-wave (km/s) = 3.69364 4.36487 4.04321
# Velocity P-wave (km/s) = 6.82219 7.88400 7.37224
#
# Compressibility (1/GPa) = 0.01214992
#
# Stress axis : x y z
#
# Youngs Moduli (GPa) = 47.88389 161.96053 82.85946
#
# Poissons Ratio (x) = 0.31420 0.71016
# Poissons Ratio (y) = 0.09289 0.24674
# Poissons Ratio (z) = 0.41039 0.48230
#
# Static dielectric constant tensor:
#      x y z
#    x 2.326380 0.000000 0.000000 
#    y 0.000000 2.235470 0.000000 
#    z 0.000000 0.000000 2.280530 
# 
# From -- ./inp_files/3271.got.cif
#   From: 2010.05.17/outbox.cif.g08.bks.cpg/sg56_2_cif.got.tgz:3271.got - 2010.06.03 13:42:01.
