data_PCOD9429273
_publ_section_title
;
Structure prediction by ZEFSAII (Michael W. Deem and Ramdas Pophale) SiO2 
 PCOD9429273
Probable space group: P B A M
;
_chemical_formula_sum "Si O2"
_cell_formula_units_Z 64
_cell_length_a 12.000000
_cell_length_b 30.000000
_cell_length_c 9.000000
_cell_angle_alpha 90.000000
_cell_angle_beta 90.000000
_cell_angle_gamma 90.000000
_cell_volume 3240.000000
_symmetry_space_group_name_H-M "P B A M"
_symmetry_group_IT_number 55
_symmetry_cell_setting 'orthorhombic'
loop_
_space_group_symop_operation_xyz
x,y,z
-x,-y,z
1/2+x,1/2-y,-z
1/2-x,1/2+y,-z
-x,-y,-z
x,y,-z
1/2-x,1/2+y,z
1/2+x,1/2-y,z
loop_
_atom_site_type_symbol
_atom_site_label
_atom_site_fract_x
_atom_site_fract_y
_atom_site_fract_z
Si Si1 0.787475 0.029283 0.822247
Si Si2 0.313015 0.051352 0.323728
Si Si3 0.531419 0.158102 0.326686
Si Si4 0.541089 0.064742 0.824899
Si Si5 0.066786 0.896918 0.680842
Si Si6 0.825067 0.862823 0.321058
Si Si7 0.784668 0.185653 0.324751
Si Si8 0.683049 0.783187 0.680514
O O1 0.666154 0.050451 0.781383
O O2 0.885616 0.058161 0.751503
O O3 0.776943 0.980505 0.752912
O O4 0.796473 0.028187 0.000000
O O5 0.314187 0.044163 0.500000
O O6 0.435220 0.043142 0.257011
O O7 0.272825 0.101642 0.293334
O O8 0.516526 0.142973 0.500000
O O9 0.530680 0.116285 0.218828
O O10 0.652528 0.179969 0.315391
O O11 0.433096 0.192165 0.292293
O O12 0.528934 0.056854 0.000000
O O13 0.069381 0.901127 0.500000
O O14 0.150389 0.857476 0.731756
O O15 0.943245 0.882131 0.728994
O O16 0.835222 0.859249 0.500000
O O17 0.783367 0.814924 0.265286
O O18 0.814421 0.186737 0.500000
O O19 0.816724 0.233302 0.259213
O O20 0.694893 0.780511 0.500000
#
# Coordination Sequence:
#
# PCOD9429273 Si02
#       8
#     8   8   8   8   8   8   8   8
#     4  11  24  40  57  81 112 148 184 229 285 335
#     4  11  22  38  60  86 112 144 185 232 281 338
#     4  10  18  32  56  84 113 147 190 230 277 336
#     4  11  22  37  57  82 115 148 183 229 284 334
#     4  10  20  36  57  82 111 146 188 230 273 330
#     4   9  19  34  54  82 115 145 179 229 285 328
#     4   9  18  29  51  86 115 143 183 230 278 325
#     4   9  17  30  51  84 119 143 175 233 284 322
#
# _framework density 19.753086
#
# number of rings (size 3 to 8) (size 9 to 14) (size 15 to 20)
#    0.000    2.000    2.500    1.500    1.750    3.500 
#    0.000    3.750    0.000    1.500    0.000    0.000 
#    0.000    0.000    0.000    0.000    0.000    0.000 
#
# Total GULP energy -357098.965786 kJ/mol
# GULP energy per Si atom -5579.671340 kJ/mol
# Density = 1.970813 g / cm^3
# Si number density = 19.753086 Si / 1000 Ang^3
#
#
#
# Elastic Constant Matrix: (Units=GPa)
#
#
# Indices 1 2 3 4 5 6 
#
# 1 37.0320 -23.7963 10.0200 0.0000 0.0000 0.0000
# 2 -23.7963 42.3870 5.3896 0.0000 0.0000 0.0000
# 3 10.0200 5.3896 15.9183 0.0000 0.0000 0.0000
# 4 0.0000 0.0000 0.0000 -4.7239 0.0000 0.0000
# 5 0.0000 0.0000 0.0000 0.0000 12.5363 0.0000
# 6 0.0000 0.0000 0.0000 0.0000 0.0000 6.1813
#
#
#
# Elastic Compliance Matrix: (Units=1/GPa)
#
#
# Indices 1 2 3 4 5 6 
#
# 1 0.080000 0.053624 -0.068513 0.000000 0.000000 0.000000
# 2 0.053624 0.060598 -0.054271 0.000000 0.000000 0.000000
# 3 -0.068513 -0.054271 0.124322 0.000000 0.000000 0.000000
# 4 0.000000 0.000000 0.000000 -0.211688 0.000000 0.000000
# 5 0.000000 0.000000 0.000000 0.000000 0.079769 0.000000
# 6 0.000000 0.000000 0.000000 0.000000 0.000000 0.161778
#
#
# Mechanical properties :
#
#
# Convention : Reuss Voigt Hill
#
# Bulk Modulus (GPa) = 7.89899 8.72934 8.31417
# Shear Modulus (GPa) = 10.51969 9.71366 10.11668
#
# Velocity S-wave (km/s) = 2.31023 2.21996 2.26554
# Velocity P-wave (km/s) = 3.33523 3.31659 3.32592
#
# Compressibility (1/GPa) = 0.12659841
#
# Stress axis : x y z
#
# Youngs Moduli (GPa) = 12.50007 16.50232 8.04360
#
# Poissons Ratio (x) = -0.88492 0.55109
# Poissons Ratio (y) = -0.67030 0.43654
# Poissons Ratio (z) = 0.85642 0.89560
#
# Static dielectric constant tensor:
#      x y z
#    x 1.689170 0.000000 0.000000 
#    y 0.000000 1.736600 0.000000 
#    z 0.000000 0.000000 1.664140 
# 
# From -- ./inp_files/4479.got.cif
#   From: 2010.05.17/outbox.ucp.g08.bks.cvg/sg55_3_cif.got.tgz:4479.got - 2010.06.11 16:36:00.
