data_PCOD9429354
_publ_section_title
;
Structure prediction by ZEFSAII (Michael W. Deem and Ramdas Pophale) SiO2 
 PCOD9429354
Probable space group: P B A M
;
_chemical_formula_sum "Si O2"
_cell_formula_units_Z 64
_cell_length_a 18.000000
_cell_length_b 9.000000
_cell_length_c 21.000000
_cell_angle_alpha 90.000000
_cell_angle_beta 90.000000
_cell_angle_gamma 90.000000
_cell_volume 3402.000000
_symmetry_space_group_name_H-M "P B A M"
_symmetry_group_IT_number 55
_symmetry_cell_setting 'orthorhombic'
loop_
_space_group_symop_operation_xyz
x,y,z
-x,-y,z
1/2+x,1/2-y,-z
1/2-x,1/2+y,-z
-x,-y,-z
x,y,-z
1/2-x,1/2+y,z
1/2+x,1/2-y,z
loop_
_atom_site_type_symbol
_atom_site_label
_atom_site_fract_x
_atom_site_fract_y
_atom_site_fract_z
Si Si1 0.750038 0.020013 0.361258
Si Si2 0.930963 0.196722 0.825692
Si Si3 0.955538 0.657639 0.923725
Si Si4 0.816356 0.962541 0.778866
Si Si5 0.124664 0.325039 0.715684
Si Si6 0.520783 0.675665 0.677028
Si Si7 0.152676 0.748364 0.576687
Si Si8 0.150464 0.501725 0.830952
O O1 0.686651 0.128463 0.334402
O O2 0.800903 0.099554 0.413408
O O3 0.800557 0.004216 0.296333
O O4 0.705450 0.879499 0.390932
O O5 0.956007 0.204600 0.751240
O O6 0.875355 0.330298 0.843454
O O7 0.998055 0.226030 0.877461
O O8 0.880344 0.048073 0.818552
O O9 0.879584 0.608087 0.886597
O O10 0.000000 0.500000 0.923042
O O11 0.948185 0.699540 0.000000
O O12 0.842582 0.795045 0.765987
O O13 0.738058 0.991760 0.814199
O O14 0.108959 0.458955 0.764446
O O15 0.055912 0.265709 0.675813
O O16 0.500000 0.500000 0.670189
O O17 0.580114 0.729871 0.623460
O O18 0.138809 0.723299 0.500000
#
# Coordination Sequence:
#
# PCOD9429354 Si02
#       8
#     8   8   8   8   8   8   8   8
#     4  11  22  42  64  92 121 164 217 268 327 393
#     4  11  20  36  60  92 122 158 215 266 315 379
#     4   9  19  36  58  88 128 171 211 255 318 391
#     4  11  20  36  59  92 122 155 203 269 323 370
#     4  11  21  35  63  90 121 154 201 268 325 379
#     4  12  23  40  62  94 126 163 210 275 332 395
#     4  12  26  44  65  90 128 172 214 267 334 408
#     4  10  20  32  59  91 119 156 206 262 314 369
#
# _framework density 18.812463000000001
#
# number of rings (size 3 to 8) (size 9 to 14) (size 15 to 20)
#    0.000    1.125    5.000    3.375    0.000    1.750 
#    0.000    2.500    0.000    5.625    0.000    0.000 
#    0.000    0.000    0.000    0.000    0.000    0.000 
#
# Total GULP energy -356452.086229 kJ/mol
# GULP energy per Si atom -5569.563847 kJ/mol
# Density = 1.876965 g / cm^3
# Si number density = 18.812463 Si / 1000 Ang^3
#
#
#
# Elastic Constant Matrix: (Units=GPa)
#
#
# Indices 1 2 3 4 5 6 
#
# 1 68.9498 31.0673 41.1943 0.0000 0.0000 0.0000
# 2 31.0673 69.9013 21.6408 0.0000 0.0000 0.0000
# 3 41.1943 21.6408 137.7178 0.0000 0.0000 0.0000
# 4 0.0000 0.0000 0.0000 29.5651 0.0000 0.0000
# 5 0.0000 0.0000 0.0000 0.0000 32.9133 0.0000
# 6 0.0000 0.0000 0.0000 0.0000 0.0000 36.2403
#
#
#
# Elastic Compliance Matrix: (Units=1/GPa)
#
#
# Indices 1 2 3 4 5 6 
#
# 1 0.021038 -0.007781 -0.005070 0.000000 0.000000 0.000000
# 2 -0.007781 0.017915 -0.000488 0.000000 0.000000 0.000000
# 3 -0.005070 -0.000488 0.008855 0.000000 0.000000 0.000000
# 4 0.000000 0.000000 0.000000 0.033824 0.000000 0.000000
# 5 0.000000 0.000000 0.000000 0.000000 0.030383 0.000000
# 6 0.000000 0.000000 0.000000 0.000000 0.000000 0.027594
#
#
# Mechanical properties :
#
#
# Convention : Reuss Voigt Hill
#
# Bulk Modulus (GPa) = 47.32550 51.59707 49.46129
# Shear Modulus (GPa) = 28.84686 31.92153 30.38419
#
# Velocity S-wave (km/s) = 3.92010 4.12373 4.02320
# Velocity P-wave (km/s) = 6.76023 7.08238 6.92318
#
# Compressibility (1/GPa) = 0.02113026
#
# Stress axis : x y z
#
# Youngs Moduli (GPa) = 47.53207 55.81922 112.93649
#
# Poissons Ratio (x) = 0.43431 0.57263
# Poissons Ratio (y) = 0.36983 0.05509
# Poissons Ratio (z) = 0.24101 0.02723
#
# Static dielectric constant tensor:
#      x y z
#    x 1.711380 0.000000 0.000000 
#    y 0.000000 1.734090 0.000000 
#    z 0.000000 0.000000 1.638510 
# 
# From -- ./inp_files/23075.got.cif
#   From: 2010.05.17/outbox.ucp.g08.bks.cvg/sg55_12_cif.got.tgz:23075.got - 2010.06.11 16:36:00.
