data_PCOD9429962
_publ_section_title
;
Structure prediction by ZEFSAII (Michael W. Deem and Ramdas Pophale) SiO2 
 PCOD9429962
Probable space group: P C C N
;
_chemical_formula_sum "Si O2"
_cell_formula_units_Z 32
_cell_length_a 19.968415
_cell_length_b 5.087687
_cell_length_c 12.496165
_cell_angle_alpha 90.000000
_cell_angle_beta 90.000000
_cell_angle_gamma 90.000000
_cell_volume 1269.523458
_symmetry_space_group_name_H-M "P C C N"
_symmetry_group_IT_number 56
_symmetry_cell_setting 'orthorhombic'
loop_
_space_group_symop_operation_xyz
x,y,z
1/2-x,1/2-y,z
1/2+x,-y,1/2-z
-x,1/2+y,1/2-z
-x,-y,-z
1/2+x,1/2+y,-z
1/2-x,y,1/2+z
x,1/2-y,1/2+z
loop_
_atom_site_type_symbol
_atom_site_label
_atom_site_fract_x
_atom_site_fract_y
_atom_site_fract_z
Si Si1 0.146543 0.652143 0.613522
Si Si2 0.043898 0.145573 0.251535
Si Si3 0.750000 0.250000 0.757445
Si Si4 0.844288 0.994757 0.584688
Si Si5 0.250000 0.250000 0.575816
O O1 0.087436 0.471734 0.653669
O O2 0.169891 0.866875 0.702039
O O3 0.139014 0.762060 0.495204
O O4 0.220844 0.510614 0.631958
O O5 0.091993 0.113027 0.353552
O O6 0.983288 0.937391 0.265048
O O7 0.784510 0.052622 0.666342
O O8 0.813255 0.800435 0.498004
#
# Coordination Sequence:
#
# PCOD9429962 Si02
#       5
#     8   8   4   8   4
#     4  11  24  42  71 104 145 182 234 304 365 427
#     4  11  30  50  70 102 145 200 248 284 346 439
#     4  10  18  42  60 102 140 168 226 294 364 426
#     4  11  24  42  71 104 145 182 234 304 365 427
#     4  12  22  42  72 114 130 184 230 312 378 424
#
# _framework density 25.206306000000001
#
# number of rings (size 3 to 8) (size 9 to 14) (size 15 to 20)
#    0.000    1.000    5.000    0.000    7.000    6.000 
#    0.000    0.000    0.000    0.000    0.000    0.000 
#    0.000    0.000    0.000    0.000    0.000    0.000 
#
# Total GULP energy -178337.330536 kJ/mol
# GULP energy per Si atom -5573.041579 kJ/mol
# Density = 2.514894 g / cm^3
# Si number density = 25.206306 Si / 1000 Ang^3
#
#
#
# Elastic Constant Matrix: (Units=GPa)
#
#
# Indices 1 2 3 4 5 6 
#
# 1 109.1348 12.2391 17.9751 0.0000 0.0000 0.0000
# 2 12.2391 49.6411 16.4368 0.0000 0.0000 0.0000
# 3 17.9751 16.4368 131.4970 0.0000 0.0000 0.0000
# 4 0.0000 0.0000 0.0000 22.9175 0.0000 0.0000
# 5 0.0000 0.0000 0.0000 0.0000 21.5367 0.0000
# 6 0.0000 0.0000 0.0000 0.0000 0.0000 39.5503
#
#
#
# Elastic Compliance Matrix: (Units=1/GPa)
#
#
# Indices 1 2 3 4 5 6 
#
# 1 0.009562 -0.002008 -0.001056 0.000000 0.000000 0.000000
# 2 -0.002008 0.021436 -0.002405 0.000000 0.000000 0.000000
# 3 -0.001056 -0.002405 0.008050 0.000000 0.000000 0.000000
# 4 0.000000 0.000000 0.000000 0.043635 0.000000 0.000000
# 5 0.000000 0.000000 0.000000 0.000000 0.046432 0.000000
# 6 0.000000 0.000000 0.000000 0.000000 0.000000 0.025284
#
#
# Mechanical properties :
#
#
# Convention : Reuss Voigt Hill
#
# Bulk Modulus (GPa) = 35.57469 42.61943 39.09706
# Shear Modulus (GPa) = 28.61933 33.04236 30.83085
#
# Velocity S-wave (km/s) = 3.37323 3.62453 3.50114
# Velocity P-wave (km/s) = 5.41439 5.87037 5.64699
#
# Compressibility (1/GPa) = 0.02810987
#
# Stress axis : x y z
#
# Youngs Moduli (GPa) = 104.57952 46.65060 124.22792
#
# Poissons Ratio (x) = 0.09367 0.13120
# Poissons Ratio (y) = 0.20998 0.29876
# Poissons Ratio (z) = 0.11045 0.11219
#
# Static dielectric constant tensor:
#      x y z
#    x 2.028540 0.000000 0.000000 
#    y 0.000000 2.804750 0.000000 
#    z 0.000000 0.000000 2.097970 
# 
# From -- ./inp_files/5450.got.cif
#   From: 2010.05.17/outbox.cif.g08.bks.cpg/sg56_3_cif.got.tgz:5450.got - 2010.06.03 13:42:01.
