data_PCOD9429652
_publ_section_title
;
Structure prediction by ZEFSAII (Michael W. Deem and Ramdas Pophale) SiO2 
 PCOD9429652
Probable space group: P C C N
;
_chemical_formula_sum "Si O2"
_cell_formula_units_Z 32
_cell_length_a 10.449477
_cell_length_b 9.515374
_cell_length_c 14.823999
_cell_angle_alpha 90.000000
_cell_angle_beta 90.000000
_cell_angle_gamma 90.000000
_cell_volume 1473.960327
_symmetry_space_group_name_H-M "P C C N"
_symmetry_group_IT_number 56
_symmetry_cell_setting 'orthorhombic'
loop_
_space_group_symop_operation_xyz
x,y,z
1/2-x,1/2-y,z
1/2+x,-y,1/2-z
-x,1/2+y,1/2-z
-x,-y,-z
1/2+x,1/2+y,-z
1/2-x,y,1/2+z
x,1/2-y,1/2+z
loop_
_atom_site_type_symbol
_atom_site_label
_atom_site_fract_x
_atom_site_fract_y
_atom_site_fract_z
Si Si1 0.638982 0.944415 0.397225
Si Si2 0.332888 0.568374 0.734935
Si Si3 0.954340 0.779726 0.256342
Si Si4 0.142756 0.085140 0.900744
O O1 0.734742 0.047865 0.345452
O O2 0.616796 0.811929 0.331562
O O3 0.686846 0.905125 0.497036
O O4 0.499916 0.016119 0.405507
O O5 0.439592 0.443829 0.718747
O O6 0.405753 0.714224 0.745472
O O7 0.280508 0.517985 0.832835
O O8 0.884902 0.775487 0.158383
#
# Coordination Sequence:
#
# PCOD9429652 Si02
#       4
#     8   8   8   8
#     4  10  17  38  60  81 118 164 187 244 303 347
#     4   9  19  36  61  85 116 154 196 241 302 345
#     4   9  19  38  54  90 117 150 196 250 285 364
#     4   8  20  35  57  85 118 150 200 243 286 361
#
# _framework density 21.710218000000001
#
# number of rings (size 3 to 8) (size 9 to 14) (size 15 to 20)
#    1.500    1.500    0.000    0.750    0.000    1.000 
#    9.000    3.750    0.000    9.000    0.000    0.000 
#    0.000    0.000    0.000    0.000    0.000    0.000 
#
# Total GULP energy -178172.398944 kJ/mol
# GULP energy per Si atom -5567.887467 kJ/mol
# Density = 2.166080 g / cm^3
# Si number density = 21.710218 Si / 1000 Ang^3
#
#
#
# Elastic Constant Matrix: (Units=GPa)
#
#
# Indices 1 2 3 4 5 6 
#
# 1 34.4758 6.4090 31.5697 0.0000 0.0000 0.0000
# 2 6.4090 77.5478 31.1307 0.0000 0.0000 0.0000
# 3 31.5697 31.1307 216.8577 0.0000 0.0000 0.0000
# 4 0.0000 0.0000 0.0000 24.1484 0.0000 0.0000
# 5 0.0000 0.0000 0.0000 0.0000 44.8603 0.0000
# 6 0.0000 0.0000 0.0000 0.0000 0.0000 36.1603
#
#
#
# Elastic Compliance Matrix: (Units=1/GPa)
#
#
# Indices 1 2 3 4 5 6 
#
# 1 0.033521 -0.000861 -0.004756 0.000000 0.000000 0.000000
# 2 -0.000861 0.013706 -0.001842 0.000000 0.000000 0.000000
# 3 -0.004756 -0.001842 0.005568 0.000000 0.000000 0.000000
# 4 0.000000 0.000000 0.000000 0.041411 0.000000 0.000000
# 5 0.000000 0.000000 0.000000 0.000000 0.022291 0.000000
# 6 0.000000 0.000000 0.000000 0.000000 0.000000 0.027655
#
#
# Mechanical properties :
#
#
# Convention : Reuss Voigt Hill
#
# Bulk Modulus (GPa) = 26.40167 51.90000 39.15084
# Shear Modulus (GPa) = 29.12110 38.35193 33.73652
#
# Velocity S-wave (km/s) = 3.66642 4.20758 3.94629
# Velocity P-wave (km/s) = 5.48734 6.89657 6.23192
#
# Compressibility (1/GPa) = 0.03787639
#
# Stress axis : x y z
#
# Youngs Moduli (GPa) = 29.83172 72.96091 179.59144
#
# Poissons Ratio (x) = 0.06282 0.85420
# Poissons Ratio (y) = 0.02569 0.33084
# Poissons Ratio (z) = 0.14189 0.13441
#
# Static dielectric constant tensor:
#      x y z
#    x 1.891820 0.000000 0.000000 
#    y 0.000000 1.847010 0.000000 
#    z 0.000000 0.000000 1.828110 
# 
# From -- ./inp_files/11230.got.cif
#   From: 2010.05.17/outbox.cif.g08.bks.cpg/sg56_6_cif.got.tgz:11230.got - 2010.06.03 13:42:01.
