data_PCOD9429709
_publ_section_title
;
Structure prediction by ZEFSAII (Michael W. Deem and Ramdas Pophale) SiO2 
 PCOD9429709
Probable space group: P C C N
;
_chemical_formula_sum "Si O2"
_cell_formula_units_Z 64
_cell_length_a 17.704027
_cell_length_b 19.240322
_cell_length_c 9.036012
_cell_angle_alpha 90.000000
_cell_angle_beta 90.000000
_cell_angle_gamma 90.000000
_cell_volume 3077.947432
_symmetry_space_group_name_H-M "P C C N"
_symmetry_group_IT_number 56
_symmetry_cell_setting 'orthorhombic'
loop_
_space_group_symop_operation_xyz
x,y,z
1/2-x,1/2-y,z
1/2+x,-y,1/2-z
-x,1/2+y,1/2-z
-x,-y,-z
1/2+x,1/2+y,-z
1/2-x,y,1/2+z
x,1/2-y,1/2+z
loop_
_atom_site_type_symbol
_atom_site_label
_atom_site_fract_x
_atom_site_fract_y
_atom_site_fract_z
Si Si1 0.067557 0.264293 0.124234
Si Si2 0.288755 0.823381 0.504699
Si Si3 0.075610 0.605894 0.633746
Si Si4 0.971058 0.995700 0.666722
Si Si5 0.000766 0.344600 0.850898
Si Si6 0.116590 0.497005 0.375414
Si Si7 0.828393 0.112911 0.302243
Si Si8 0.901921 0.845648 0.102547
O O1 0.016618 0.214520 0.228747
O O2 0.113249 0.312910 0.236753
O O3 0.021703 0.312755 0.010055
O O4 0.113783 0.211426 0.021418
O O5 0.250000 0.750000 0.525808
O O6 0.362765 0.834558 0.605875
O O7 0.307563 0.836311 0.333812
O O8 0.228330 0.878820 0.563902
O O9 0.080827 0.560773 0.784807
O O10 0.095312 0.548489 0.508427
O O11 0.993138 0.638871 0.604330
O O12 0.950154 0.914319 0.685702
O O13 0.000000 0.000000 0.500000
O O14 0.040921 0.008328 0.777292
O O15 0.914217 0.369001 0.845262
O O16 0.174499 0.536681 0.270064
O O17 0.136454 0.419689 0.422947
#
# Coordination Sequence:
#
# PCOD9429709 Si02
#       8
#     8   8   8   8   8   8   8   8
#     4  10  20  28  48  76 109 129 165 206 270 340
#     4  11  24  37  50  75 105 147 189 227 260 310
#     4  10  20  35  53  69 103 147 186 218 265 320
#     4  10  18  31  52  79  99 127 180 237 278 314
#     4  10  20  33  49  74 102 140 174 220 274 327
#     4   9  18  35  54  69  96 140 180 220 267 324
#     4  10  23  37  52  70 101 140 191 228 262 306
#     4  10  18  32  51  77 106 136 169 213 274 327
#
# _framework density 20.793078000000001
#
# number of rings (size 3 to 8) (size 9 to 14) (size 15 to 20)
#    0.000    2.000    0.000    6.375    5.250    3.000 
#    0.000    0.000    0.000    0.000    0.000    0.000 
#    0.000   34.000    0.000    0.000    0.000    0.000 
#
# Total GULP energy -357160.731482 kJ/mol
# GULP energy per Si atom -5580.636429 kJ/mol
# Density = 2.074575 g / cm^3
# Si number density = 20.793078 Si / 1000 Ang^3
#
#
#
# Elastic Constant Matrix: (Units=GPa)
#
#
# Indices 1 2 3 4 5 6 
#
# 1 9.3994 7.2903 -2.4441 0.0000 0.0000 0.0000
# 2 7.2903 108.6735 25.2769 0.0000 0.0000 0.0000
# 3 -2.4441 25.2769 93.3206 0.0000 0.0000 0.0000
# 4 0.0000 0.0000 0.0000 33.6217 0.0000 0.0000
# 5 0.0000 0.0000 0.0000 0.0000 11.1137 0.0000
# 6 0.0000 0.0000 0.0000 0.0000 0.0000 27.2319
#
#
#
# Elastic Compliance Matrix: (Units=1/GPa)
#
#
# Indices 1 2 3 4 5 6 
#
# 1 0.114754 -0.008962 0.005433 0.000000 0.000000 0.000000
# 2 -0.008962 0.010520 -0.003084 0.000000 0.000000 0.000000
# 3 0.005433 -0.003084 0.011693 0.000000 0.000000 0.000000
# 4 0.000000 0.000000 0.000000 0.029743 0.000000 0.000000
# 5 0.000000 0.000000 0.000000 0.000000 0.089979 0.000000
# 6 0.000000 0.000000 0.000000 0.000000 0.000000 0.036722
#
#
# Mechanical properties :
#
#
# Convention : Reuss Voigt Hill
#
# Bulk Modulus (GPa) = 8.08139 30.18220 19.13179
# Shear Modulus (GPa) = 14.37256 26.47815 20.42535
#
# Velocity S-wave (km/s) = 2.63196 3.57236 3.13759
# Velocity P-wave (km/s) = 3.62371 5.61807 4.72726
#
# Compressibility (1/GPa) = 0.12374115
#
# Stress axis : x y z
#
# Youngs Moduli (GPa) = 8.71430 95.05286 85.51802
#
# Poissons Ratio (x) = 0.85185 -0.46460
# Poissons Ratio (y) = 0.07810 0.26376
# Poissons Ratio (z) = -0.04734 0.29317
#
# Static dielectric constant tensor:
#      x y z
#    x 1.767660 0.000000 0.000000 
#    y 0.000000 1.849070 0.000000 
#    z 0.000000 0.000000 1.766120 
# 
# From -- ./inp_files/4566.got.cif
#   From: 2010.05.17/outbox.cif.g08.bks.cpg/sg56_3_cif.got.tgz:4566.got - 2010.06.03 13:42:01.
