data_PCOD9429026
_publ_section_title
;
Structure prediction by ZEFSAII (Michael W. Deem and Ramdas Pophale) SiO2 
 PCOD9429026
Probable space group: P B A M
;
_chemical_formula_sum "Si O2"
_cell_formula_units_Z 48
_cell_length_a 16.685389
_cell_length_b 9.585055
_cell_length_c 13.821597
_cell_angle_alpha 90.000000
_cell_angle_beta 90.000000
_cell_angle_gamma 90.000000
_cell_volume 2210.493140
_symmetry_space_group_name_H-M "P B A M"
_symmetry_group_IT_number 55
_symmetry_cell_setting 'orthorhombic'
loop_
_space_group_symop_operation_xyz
x,y,z
-x,-y,z
1/2+x,1/2-y,-z
1/2-x,1/2+y,-z
-x,-y,-z
x,y,-z
1/2-x,1/2+y,z
1/2+x,1/2-y,z
loop_
_atom_site_type_symbol
_atom_site_label
_atom_site_fract_x
_atom_site_fract_y
_atom_site_fract_z
Si Si1 0.771747 0.935622 0.201515
Si Si2 0.141745 0.048964 0.000000
Si Si3 0.973640 0.218333 0.000000
Si Si4 0.804092 0.705830 0.500000
Si Si5 0.077425 0.916874 0.704072
Si Si6 0.834424 0.664160 0.719416
Si Si7 0.006319 0.662511 0.791055
Si Si8 0.144670 0.972181 0.500000
O O1 0.843132 0.026404 0.247253
O O2 0.692986 0.023084 0.227552
O O3 0.772040 0.786346 0.253517
O O4 0.800207 0.925269 0.091198
O O5 0.098422 0.896014 0.000000
O O6 0.062138 0.146209 0.000000
O O7 0.970152 0.306923 0.098311
O O8 0.840177 0.653676 0.602973
O O9 0.714199 0.644669 0.500000
O O10 0.814784 0.873880 0.500000
O O11 0.090174 0.952739 0.593107
O O12 0.063795 0.755001 0.724774
O O13 0.000000 0.000000 0.743986
O O14 0.917069 0.715208 0.765920
O O15 0.000000 0.500000 0.769818
#
# Coordination Sequence:
#
# PCOD9429026 Si02
#       8
#     8   4   4   4   8   8   8   4
#     4  12  25  43  70 101 138 184 227 287 346 418
#     4  11  22  41  75 103 132 185 236 282 345 430
#     4  11  21  43  73 101 135 184 232 280 363 414
#     4  12  22  44  67 103 138 191 228 285 355 417
#     4  12  22  45  69 103 135 183 235 284 346 417
#     4  12  26  45  68 100 142 181 234 286 349 420
#     4  12  27  44  70 104 141 180 234 298 346 413
#     4  12  25  40  75 101 138 185 239 285 351 418
#
# _framework density 21.714611999999999
#
# number of rings (size 3 to 8) (size 9 to 14) (size 15 to 20)
#    0.000    0.167    8.333    0.500    2.333    3.333 
#    0.000    0.833    0.000    0.000    0.000    0.000 
#    0.000    0.000    0.000    0.000    0.000    0.000 
#
# Total GULP energy -268401.887104 kJ/mol
# GULP energy per Si atom -5591.705981 kJ/mol
# Density = 2.166519 g / cm^3
# Si number density = 21.714612 Si / 1000 Ang^3
#
#
#
# Elastic Constant Matrix: (Units=GPa)
#
#
# Indices 1 2 3 4 5 6 
#
# 1 43.3394 -0.3718 1.1978 0.0000 0.0000 0.0000
# 2 -0.3718 101.5215 -12.3121 0.0000 0.0000 0.0000
# 3 1.1978 -12.3121 103.1299 0.0000 0.0000 0.0000
# 4 0.0000 0.0000 0.0000 21.1647 0.0000 0.0000
# 5 0.0000 0.0000 0.0000 0.0000 29.1290 0.0000
# 6 0.0000 0.0000 0.0000 0.0000 0.0000 42.2547
#
#
#
# Elastic Compliance Matrix: (Units=1/GPa)
#
#
# Indices 1 2 3 4 5 6 
#
# 1 0.023081 0.000053 -0.000262 0.000000 0.000000 0.000000
# 2 0.000053 0.009995 0.001193 0.000000 0.000000 0.000000
# 3 -0.000262 0.001193 0.009842 0.000000 0.000000 0.000000
# 4 0.000000 0.000000 0.000000 0.047248 0.000000 0.000000
# 5 0.000000 0.000000 0.000000 0.000000 0.034330 0.000000
# 6 0.000000 0.000000 0.000000 0.000000 0.000000 0.023666
#
#
# Mechanical properties :
#
#
# Convention : Reuss Voigt Hill
#
# Bulk Modulus (GPa) = 22.27887 25.00206 23.64047
# Shear Modulus (GPa) = 31.02559 35.80815 33.41687
#
# Velocity S-wave (km/s) = 3.78403 4.06524 3.92715
# Velocity P-wave (km/s) = 5.41978 5.79429 5.61016
#
# Compressibility (1/GPa) = 0.04488558
#
# Stress axis : x y z
#
# Youngs Moduli (GPa) = 43.32492 100.05046 101.60606
#
# Poissons Ratio (x) = -0.00528 0.02660
# Poissons Ratio (y) = -0.00229 -0.12118
# Poissons Ratio (z) = 0.01134 -0.11932
#
# Static dielectric constant tensor:
#      x y z
#    x 1.779700 0.000000 0.000000 
#    y 0.000000 1.810070 0.000000 
#    z 0.000000 0.000000 -0.122160 
# 
# From -- ./inp_files/19400.got.cif
#   From: 2010.05.17/outbox.cif.g08.bks.cpg/sg55_10_cif.got.tgz:19400.got - 2010.06.03 13:27:54.
