data_PCOD9429377
_publ_section_title
;
Structure prediction by ZEFSAII (Michael W. Deem and Ramdas Pophale) SiO2 
 PCOD9429377
Probable space group: P B A M
;
_chemical_formula_sum "Si O2"
_cell_formula_units_Z 48
_cell_length_a 24.000000
_cell_length_b 12.000000
_cell_length_c 9.000000
_cell_angle_alpha 90.000000
_cell_angle_beta 90.000000
_cell_angle_gamma 90.000000
_cell_volume 2592.000000
_symmetry_space_group_name_H-M "P B A M"
_symmetry_group_IT_number 55
_symmetry_cell_setting 'orthorhombic'
loop_
_space_group_symop_operation_xyz
x,y,z
-x,-y,z
1/2+x,1/2-y,-z
1/2-x,1/2+y,-z
-x,-y,-z
x,y,-z
1/2-x,1/2+y,z
1/2+x,1/2-y,z
loop_
_atom_site_type_symbol
_atom_site_label
_atom_site_fract_x
_atom_site_fract_y
_atom_site_fract_z
Si Si1 0.602266 0.249454 0.680001
Si Si2 0.987664 0.369297 0.331286
Si Si3 0.825014 0.131970 0.820490
Si Si4 0.631733 0.868564 0.821450
Si Si5 0.803670 0.595413 0.819226
Si Si6 0.566670 0.482769 0.819696
O O1 0.606239 0.247786 0.500000
O O2 0.545264 0.184298 0.724946
O O3 0.657704 0.192825 0.748936
O O4 0.590130 0.371496 0.743648
O O5 0.978491 0.327920 0.500000
O O6 0.930696 0.354984 0.241192
O O7 0.000000 0.500000 0.336352
O O8 0.832526 0.260813 0.777413
O O9 0.762206 0.093665 0.773352
O O10 0.884149 0.072186 0.778406
O O11 0.823860 0.123551 0.000000
O O12 0.663833 0.981381 0.776882
O O13 0.627622 0.870065 0.000000
O O14 0.804907 0.605959 0.000000
O O15 0.500000 0.500000 0.778909
O O16 0.566854 0.473935 0.000000
#
# Coordination Sequence:
#
# PCOD9429377 Si02
#       6
#     8   8   8   8   8   8
#     4  11  23  38  58  84 118 156 195 238 288 346
#     4  10  20  36  55  78 113 152 184 227 288 338
#     4   9  20  37  59  87 118 150 188 236 292 346
#     4  10  20  35  59  88 113 143 190 238 279 337
#     4  10  21  36  58  86 115 152 192 236 287 341
#     4  10  21  39  64  91 119 152 193 243 296 350
#
# _framework density 18.518519000000001
#
# number of rings (size 3 to 8) (size 9 to 14) (size 15 to 20)
#    0.000    2.000    1.667    1.500    2.333    3.333 
#    0.000    2.500    0.000    0.000    0.000    0.000 
#    0.000    0.000    0.000    0.000    0.000    0.000 
#
# Total GULP energy -267400.299603 kJ/mol
# GULP energy per Si atom -5570.839575 kJ/mol
# Density = 1.847637 g / cm^3
# Si number density = 18.518519 Si / 1000 Ang^3
#
#
#
# Elastic Constant Matrix: (Units=GPa)
#
#
# Indices 1 2 3 4 5 6 
#
# 1 179.2339 57.0826 24.4973 0.0000 0.0000 0.0000
# 2 57.0826 104.0679 17.1069 0.0000 0.0000 0.0000
# 3 24.4973 17.1069 19.0758 0.0000 0.0000 0.0000
# 4 0.0000 0.0000 0.0000 14.1290 0.0000 0.0000
# 5 0.0000 0.0000 0.0000 0.0000 18.6912 0.0000
# 6 0.0000 0.0000 0.0000 0.0000 0.0000 33.3448
#
#
#
# Elastic Compliance Matrix: (Units=1/GPa)
#
#
# Indices 1 2 3 4 5 6 
#
# 1 0.007469 -0.002956 -0.006941 0.000000 0.000000 0.000000
# 2 -0.002956 0.012440 -0.007360 0.000000 0.000000 0.000000
# 3 -0.006941 -0.007360 0.067937 0.000000 0.000000 0.000000
# 4 0.000000 0.000000 0.000000 0.070776 0.000000 0.000000
# 5 0.000000 0.000000 0.000000 0.000000 0.053501 0.000000
# 6 0.000000 0.000000 0.000000 0.000000 0.000000 0.029990
#
#
# Mechanical properties :
#
#
# Convention : Reuss Voigt Hill
#
# Bulk Modulus (GPa) = 18.75059 55.52790 37.13925
# Shear Modulus (GPa) = 16.98331 26.81239 21.89785
#
# Velocity S-wave (km/s) = 3.03165 3.80922 3.44246
# Velocity P-wave (km/s) = 4.73306 7.02830 5.99161
#
# Compressibility (1/GPa) = 0.05333165
#
# Stress axis : x y z
#
# Youngs Moduli (GPa) = 133.87802 80.38302 14.71952
#
# Poissons Ratio (x) = 0.23762 0.10217
# Poissons Ratio (y) = 0.39575 0.10834
# Poissons Ratio (z) = 0.92930 0.59163
#
# Static dielectric constant tensor:
#      x y z
#    x 1.639390 0.000000 0.000000 
#    y 0.000000 1.685990 0.000000 
#    z 0.000000 0.000000 1.635940 
# 
# From -- ./inp_files/9422.got.cif
#   From: 2010.05.17/outbox.ucp.g08.bks.cvg/sg55_5_cif.got.tgz:9422.got - 2010.06.11 16:36:00.
