data_PCOD9429418
_publ_section_title
;
Structure prediction by ZEFSAII (Michael W. Deem and Ramdas Pophale) SiO2 
 PCOD9429418
Probable space group: P B A M
;
_chemical_formula_sum "Si O2"
_cell_formula_units_Z 64
_cell_length_a 12.000000
_cell_length_b 30.000000
_cell_length_c 9.000000
_cell_angle_alpha 90.000000
_cell_angle_beta 90.000000
_cell_angle_gamma 90.000000
_cell_volume 3240.000000
_symmetry_space_group_name_H-M "P B A M"
_symmetry_group_IT_number 55
_symmetry_cell_setting 'orthorhombic'
loop_
_space_group_symop_operation_xyz
x,y,z
-x,-y,z
1/2+x,1/2-y,-z
1/2-x,1/2+y,-z
-x,-y,-z
x,y,-z
1/2-x,1/2+y,z
1/2+x,1/2-y,z
loop_
_atom_site_type_symbol
_atom_site_label
_atom_site_fract_x
_atom_site_fract_y
_atom_site_fract_z
Si Si1 0.412663 0.346942 0.821549
Si Si2 0.737219 0.736561 0.179815
Si Si3 0.718012 0.095054 0.831366
Si Si4 0.628094 0.012805 0.322777
Si Si5 0.841362 0.327341 0.324048
Si Si6 0.871291 0.877143 0.326545
Si Si7 0.935225 0.681251 0.166567
Si Si8 0.879477 0.982150 0.324543
O O1 0.349404 0.302088 0.773442
O O2 0.339794 0.390288 0.773683
O O3 0.536793 0.350492 0.764014
O O4 0.410419 0.347578 0.000000
O O5 0.702276 0.782299 0.250732
O O6 0.862468 0.722472 0.224033
O O7 0.736308 0.738484 0.000000
O O8 0.648471 0.063609 0.724675
O O9 0.653244 0.141559 0.844243
O O10 0.726027 0.076335 0.000000
O O11 0.626501 0.005266 0.500000
O O12 0.500000 0.000000 0.270840
O O13 0.751496 0.993438 0.269515
O O14 0.842896 0.323297 0.500000
O O15 0.754079 0.365384 0.281071
O O16 0.964451 0.334379 0.265695
O O17 0.883922 0.865361 0.500000
O O18 0.889585 0.929304 0.311054
O O19 0.976781 0.691707 0.000000
O O20 0.877686 0.995296 0.500000
O O21 0.000000 0.000000 0.263367
#
# Coordination Sequence:
#
# PCOD9429418 Si02
#       8
#     8   8   8   8   8   8   8   8
#     4   9  19  37  60  84 108 142 188 233 274 329
#     4   9  20  39  60  80 106 146 192 233 274 331
#     4   9  19  37  59  83 112 143 183 234 283 329
#     4  10  21  34  56  85 111 147 194 234 275 342
#     4  11  24  36  53  83 118 148 181 234 288 331
#     4  10  22  37  55  82 117 149 181 229 287 336
#     4   9  20  39  60  80 107 148 192 228 274 340
#     4   9  18  35  57  80 110 149 188 227 280 345
#
# _framework density 19.753086
#
# number of rings (size 3 to 8) (size 9 to 14) (size 15 to 20)
#    0.000    2.500    0.000    2.625    3.500    4.250 
#    0.000    3.125    0.000    2.250    0.000    0.000 
#    0.000    0.000    0.000    0.000    0.000    0.000 
#
# Total GULP energy -356273.438333 kJ/mol
# GULP energy per Si atom -5566.772474 kJ/mol
# Density = 1.970813 g / cm^3
# Si number density = 19.753086 Si / 1000 Ang^3
#
#
#
# Elastic Constant Matrix: (Units=GPa)
#
#
# Indices 1 2 3 4 5 6 
#
# 1 121.4971 14.2171 26.1010 0.0000 0.0000 0.0000
# 2 14.2171 10.4863 7.8162 0.0000 0.0000 0.0000
# 3 26.1010 7.8162 3.4955 0.0000 0.0000 0.0000
# 4 0.0000 0.0000 0.0000 17.4124 0.0000 0.0000
# 5 0.0000 0.0000 0.0000 0.0000 26.8205 0.0000
# 6 0.0000 0.0000 0.0000 0.0000 0.0000 14.6423
#
#
#
# Elastic Compliance Matrix: (Units=1/GPa)
#
#
# Indices 1 2 3 4 5 6 
#
# 1 0.004869 -0.030748 0.032395 0.000000 0.000000 0.000000
# 2 -0.030748 0.051123 0.115280 0.000000 0.000000 0.000000
# 3 0.032395 0.115280 -0.213585 0.000000 0.000000 0.000000
# 4 0.000000 0.000000 0.000000 0.057430 0.000000 0.000000
# 5 0.000000 0.000000 0.000000 0.000000 0.037285 0.000000
# 6 0.000000 0.000000 0.000000 0.000000 0.000000 0.068295
#
#
# Mechanical properties :
#
#
# Convention : Reuss Voigt Hill
#
# Bulk Modulus (GPa) = 13.11276 25.74971 19.43124
# Shear Modulus (GPa) = -24.62862 17.59800 -3.51531
#
# Velocity S-wave (km/s) = -3.53487 2.98803 -1.33547
# Velocity P-wave (km/s) = 3.16349 4.99685 2.73504
#
# Compressibility (1/GPa) = 0.07626157
#
# Stress axis : x y z
#
# Youngs Moduli (GPa) = 205.36604 19.56067 -4.68197
#
# Poissons Ratio (x) = 0.60144 0.15167
# Poissons Ratio (y) = 6.31453 0.53974
# Poissons Ratio (z) = -6.65273 -2.25496
#
# Static dielectric constant tensor:
#      x y z
#    x 1.745390 0.000000 0.000000 
#    y 0.000000 1.652860 0.000000 
#    z 0.000000 0.000000 1.686270 
# 
# From -- ./inp_files/4692.got.cif
#   From: 2010.05.17/outbox.ucp.g08.bks.cvg/sg55_3_cif.got.tgz:4692.got - 2010.06.11 16:36:00.
