data_PCOD9429616
_publ_section_title
;
Structure prediction by ZEFSAII (Michael W. Deem and Ramdas Pophale) SiO2 
 PCOD9429616
Probable space group: P C C N
;
_chemical_formula_sum "Si O2"
_cell_formula_units_Z 32
_cell_length_a 17.293551
_cell_length_b 7.040303
_cell_length_c 10.443598
_cell_angle_alpha 90.000000
_cell_angle_beta 90.000000
_cell_angle_gamma 90.000000
_cell_volume 1271.527262
_symmetry_space_group_name_H-M "P C C N"
_symmetry_group_IT_number 56
_symmetry_cell_setting 'orthorhombic'
loop_
_space_group_symop_operation_xyz
x,y,z
1/2-x,1/2-y,z
1/2+x,-y,1/2-z
-x,1/2+y,1/2-z
-x,-y,-z
1/2+x,1/2+y,-z
1/2-x,y,1/2+z
x,1/2-y,1/2+z
loop_
_atom_site_type_symbol
_atom_site_label
_atom_site_fract_x
_atom_site_fract_y
_atom_site_fract_z
Si Si1 0.893855 0.577789 0.667029
Si Si2 0.731901 0.523868 0.973415
Si Si3 0.002308 0.088001 0.361314
Si Si4 0.832998 0.980662 0.709055
O O1 0.847971 0.489231 0.550353
O O2 0.837463 0.747814 0.715379
O O3 0.925113 0.448198 0.780800
O O4 0.967577 0.698560 0.620736
O O5 0.750000 0.750000 0.965324
O O6 0.797438 0.455739 0.073087
O O7 0.716417 0.452616 0.830128
O O8 0.075263 0.984047 0.291400
O O9 0.000000 0.000000 0.500000
#
# Coordination Sequence:
#
# PCOD9429616 Si02
#       4
#     8   8   8   8
#     4   9  20  34  58  83 117 147 188 234 287 335
#     4  10  17  33  53  89 107 143 196 247 269 326
#     4  10  21  36  54  88 119 148 188 233 293 337
#     4   9  21  30  60  81 112 142 195 237 288 316
#
# _framework density 25.166585999999999
#
# number of rings (size 3 to 8) (size 9 to 14) (size 15 to 20)
#    1.500    1.000    0.000    3.750    3.500    1.000 
#    0.000    0.000    0.000    1.500    0.000    0.000 
#    0.000    0.000    0.000    0.000    0.000    0.000 
#
# Total GULP energy -178461.307638 kJ/mol
# GULP energy per Si atom -5576.915864 kJ/mol
# Density = 2.510931 g / cm^3
# Si number density = 25.166586 Si / 1000 Ang^3
#
#
#
# Elastic Constant Matrix: (Units=GPa)
#
#
# Indices 1 2 3 4 5 6 
#
# 1 92.5225 6.5245 39.1470 0.0000 0.0000 0.0000
# 2 6.5245 64.9801 6.8558 0.0000 0.0000 0.0000
# 3 39.1470 6.8558 131.6416 0.0000 0.0000 0.0000
# 4 0.0000 0.0000 0.0000 1.3226 0.0000 0.0000
# 5 0.0000 0.0000 0.0000 0.0000 44.1770 0.0000
# 6 0.0000 0.0000 0.0000 0.0000 0.0000 29.9895
#
#
#
# Elastic Compliance Matrix: (Units=1/GPa)
#
#
# Indices 1 2 3 4 5 6 
#
# 1 0.012412 -0.000862 -0.003646 0.000000 0.000000 0.000000
# 2 -0.000862 0.015534 -0.000553 0.000000 0.000000 0.000000
# 3 -0.003646 -0.000553 0.008709 0.000000 0.000000 0.000000
# 4 0.000000 0.000000 0.000000 0.756059 0.000000 0.000000
# 5 0.000000 0.000000 0.000000 0.000000 0.022636 0.000000
# 6 0.000000 0.000000 0.000000 0.000000 0.000000 0.033345
#
#
# Mechanical properties :
#
#
# Convention : Reuss Voigt Hill
#
# Bulk Modulus (GPa) = 37.68691 43.79986 40.74338
# Shear Modulus (GPa) = 5.76262 30.87228 18.31745
#
# Velocity S-wave (km/s) = 1.51485 3.50625 2.70079
# Velocity P-wave (km/s) = 4.25055 5.81666 5.09415
#
# Compressibility (1/GPa) = 0.02653441
#
# Stress axis : x y z
#
# Youngs Moduli (GPa) = 80.56979 64.37423 114.81832
#
# Poissons Ratio (x) = 0.05546 0.41863
# Poissons Ratio (y) = 0.06941 0.06347
# Poissons Ratio (z) = 0.29376 0.03559
#
# Static dielectric constant tensor:
#      x y z
#    x 1.996830 0.000000 0.000000 
#    y 0.000000 2.092390 0.000000 
#    z 0.000000 0.000000 1.960150 
# 
# From -- ./inp_files/2429.got.cif
#   From: 2010.05.17/outbox.cif.g08.bks.cpg/sg56_2_cif.got.tgz:2429.got - 2010.06.03 13:42:01.
