data_PCOD9429532
_publ_section_title
;
Structure prediction by ZEFSAII (Michael W. Deem and Ramdas Pophale) SiO2 
 PCOD9429532
Probable space group: P C C N
;
_chemical_formula_sum "Si O2"
_cell_formula_units_Z 40
_cell_length_a 35.177117
_cell_length_b 11.799643
_cell_length_c 5.192951
_cell_angle_alpha 90.000000
_cell_angle_beta 90.000000
_cell_angle_gamma 90.000000
_cell_volume 2155.476716
_symmetry_space_group_name_H-M "P C C N"
_symmetry_group_IT_number 56
_symmetry_cell_setting 'orthorhombic'
loop_
_space_group_symop_operation_xyz
x,y,z
1/2-x,1/2-y,z
1/2+x,-y,1/2-z
-x,1/2+y,1/2-z
-x,-y,-z
1/2+x,1/2+y,-z
1/2-x,y,1/2+z
x,1/2-y,1/2+z
loop_
_atom_site_type_symbol
_atom_site_label
_atom_site_fract_x
_atom_site_fract_y
_atom_site_fract_z
Si Si1 0.265965 0.379947 0.509703
Si Si2 0.942534 0.310078 0.310459
Si Si3 0.649935 0.677173 0.635038
Si Si4 0.523034 0.610396 0.103511
Si Si5 0.569718 0.934352 0.126285
O O1 0.250000 0.250000 0.544530
O O2 0.259692 0.432932 0.787511
O O3 0.309310 0.378597 0.420837
O O4 0.929088 0.278869 0.595744
O O5 0.931938 0.434863 0.214113
O O6 0.988584 0.306132 0.329168
O O7 0.648779 0.779257 0.427881
O O8 0.612813 0.603117 0.585425
O O9 0.545756 0.581932 0.364433
O O10 0.500000 0.500000 0.000000
O O11 0.551335 0.636532 0.865968
#
# Coordination Sequence:
#
# PCOD9429532 Si02
#       5
#     8   8   8   8   8
#     4  10  16  31  51  70 100 138 173 192 231 315
#     4  11  21  35  56  70  92 137 181 213 256 302
#     4  12  22  33  51  77 109 146 161 208 263 308
#     4  10  20  37  52  68  97 132 169 223 263 304
#     4  11  23  36  50  79 108 125 174 226 263 305
#
# _framework density 18.557378
#
# number of rings (size 3 to 8) (size 9 to 14) (size 15 to 20)
#    0.000    1.200    4.000    7.200    0.000    4.800 
#    0.000    0.000    0.000    0.000    0.000    0.000 
#    0.000    4.800    0.000    0.000    0.000    0.000 
#
# Total GULP energy -223262.809677 kJ/mol
# GULP energy per Si atom -5581.570242 kJ/mol
# Density = 1.851514 g / cm^3
# Si number density = 18.557378 Si / 1000 Ang^3
#
#
#
# Elastic Constant Matrix: (Units=GPa)
#
#
# Indices 1 2 3 4 5 6 
#
# 1 83.1683 2.2930 2.5588 0.0000 0.0000 0.0000
# 2 2.2930 22.3651 5.7955 0.0000 0.0000 0.0000
# 3 2.5588 5.7955 109.9157 0.0000 0.0000 0.0000
# 4 0.0000 0.0000 0.0000 15.5597 0.0000 0.0000
# 5 0.0000 0.0000 0.0000 0.0000 22.8116 0.0000
# 6 0.0000 0.0000 0.0000 0.0000 0.0000 14.2642
#
#
#
# Elastic Compliance Matrix: (Units=1/GPa)
#
#
# Indices 1 2 3 4 5 6 
#
# 1 0.012063 -0.001180 -0.000219 0.000000 0.000000 0.000000
# 2 -0.001180 0.045447 -0.002369 0.000000 0.000000 0.000000
# 3 -0.000219 -0.002369 0.009228 0.000000 0.000000 0.000000
# 4 0.000000 0.000000 0.000000 0.064269 0.000000 0.000000
# 5 0.000000 0.000000 0.000000 0.000000 0.043837 0.000000
# 6 0.000000 0.000000 0.000000 0.000000 0.000000 0.070106
#
#
# Mechanical properties :
#
#
# Convention : Reuss Voigt Hill
#
# Bulk Modulus (GPa) = 16.89099 26.30486 21.59792
# Shear Modulus (GPa) = 18.36753 24.18054 21.27403
#
# Velocity S-wave (km/s) = 3.14947 3.61365 3.38951
# Velocity P-wave (km/s) = 4.72730 5.62289 5.19443
#
# Compressibility (1/GPa) = 0.05920316
#
# Stress axis : x y z
#
# Youngs Moduli (GPa) = 82.89759 22.00350 108.36735
#
# Poissons Ratio (x) = 0.02597 0.02369
# Poissons Ratio (y) = 0.09783 0.25670
# Poissons Ratio (z) = 0.01812 0.05212
#
# Static dielectric constant tensor:
#      x y z
#    x 1.645790 0.000000 0.000000 
#    y 0.000000 1.717260 0.000000 
#    z 0.000000 0.000000 1.725430 
# 
# From -- ./inp_files/1313.got.cif
#   From: 2010.05.17/outbox.cif.g08.bks.cpg/sg56_1_cif.got.tgz:1313.got - 2010.06.03 13:42:01.
