data_PCOD9429181
_publ_section_title
;
Structure prediction by ZEFSAII (Michael W. Deem and Ramdas Pophale) SiO2 
 PCOD9429181
Probable space group: P B A M
;
_chemical_formula_sum "Si O2"
_cell_formula_units_Z 36
_cell_length_a 8.426245
_cell_length_b 20.866749
_cell_length_c 10.019954
_cell_angle_alpha 90.000000
_cell_angle_beta 90.000000
_cell_angle_gamma 90.000000
_cell_volume 1761.791873
_symmetry_space_group_name_H-M "P B A M"
_symmetry_group_IT_number 55
_symmetry_cell_setting 'orthorhombic'
loop_
_space_group_symop_operation_xyz
x,y,z
-x,-y,z
1/2+x,1/2-y,-z
1/2-x,1/2+y,-z
-x,-y,-z
x,y,-z
1/2-x,1/2+y,z
1/2+x,1/2-y,z
loop_
_atom_site_type_symbol
_atom_site_label
_atom_site_fract_x
_atom_site_fract_y
_atom_site_fract_z
Si Si1 0.880316 0.055839 0.290331
Si Si2 0.753674 0.025327 0.000000
Si Si3 0.051881 0.189758 0.655128
Si Si4 0.880721 0.595266 0.500000
Si Si5 0.075710 0.602517 0.000000
Si Si6 0.919750 0.323628 0.722002
O O1 0.840156 0.043357 0.136348
O O2 0.724964 0.058124 0.383099
O O3 0.962848 0.124997 0.304582
O O4 0.000000 0.000000 0.334954
O O5 0.588192 0.063452 0.000000
O O6 0.715452 0.949875 0.000000
O O7 0.011637 0.201261 0.500000
O O8 0.992380 0.252487 0.731213
O O9 0.239250 0.181575 0.671588
O O10 0.977780 0.635213 0.617311
O O11 0.082202 0.643704 0.866153
#
# Coordination Sequence:
#
# PCOD9429181 Si02
#       6
#     8   4   8   4   4   8
#     4  12  26  47  75 109 150 195 247 300 372 443
#     4  11  25  49  75 102 152 197 236 308 369 436
#     4  12  25  44  75 107 148 189 247 312 372 435
#     4  12  23  44  71 104 141 190 240 301 355 433
#     4  11  26  49  73 108 143 191 250 301 372 441
#     4  12  26  47  74 105 145 194 247 307 373 433
#
# _framework density 20.433743
#
# number of rings (size 3 to 8) (size 9 to 14) (size 15 to 20)
#    0.000    0.222    5.556    3.333    0.000    2.667 
#    0.000    4.444    0.000    0.000    0.000    0.000 
#    0.000    0.000    0.000    0.000    0.000    0.000 
#
# Total GULP energy -200455.885643 kJ/mol
# GULP energy per Si atom -5568.219046 kJ/mol
# Density = 2.038724 g / cm^3
# Si number density = 20.433743 Si / 1000 Ang^3
#
#
#
# Elastic Constant Matrix: (Units=GPa)
#
#
# Indices 1 2 3 4 5 6 
#
# 1 13.2114 7.7134 18.5419 0.0000 0.0000 0.0000
# 2 7.7134 84.9275 55.5770 0.0000 0.0000 0.0000
# 3 18.5419 55.5770 142.5631 0.0000 0.0000 0.0000
# 4 0.0000 0.0000 0.0000 22.3631 0.0000 0.0000
# 5 0.0000 0.0000 0.0000 0.0000 54.4542 0.0000
# 6 0.0000 0.0000 0.0000 0.0000 0.0000 -16.6167
#
#
#
# Elastic Compliance Matrix: (Units=1/GPa)
#
#
# Indices 1 2 3 4 5 6 
#
# 1 0.092626 -0.000710 -0.011770 0.000000 0.000000 0.000000
# 2 -0.000710 0.015813 -0.006072 0.000000 0.000000 0.000000
# 3 -0.011770 -0.006072 0.010912 0.000000 0.000000 0.000000
# 4 0.000000 0.000000 0.000000 0.044716 0.000000 0.000000
# 5 0.000000 0.000000 0.000000 0.000000 0.018364 0.000000
# 6 0.000000 0.000000 0.000000 0.000000 0.000000 -0.060180
#
#
# Mechanical properties :
#
#
# Convention : Reuss Voigt Hill
#
# Bulk Modulus (GPa) = 12.15859 44.92961 28.54410
# Shear Modulus (GPa) = 26.77064 22.63145 24.70104
#
# Velocity S-wave (km/s) = 3.62348 3.33160 3.48060
# Velocity P-wave (km/s) = 4.84452 6.06919 5.49110
#
# Compressibility (1/GPa) = 0.08224636
#
# Stress axis : x y z
#
# Youngs Moduli (GPa) = 10.79611 63.23951 91.63829
#
# Poissons Ratio (x) = 0.04491 1.07860
# Poissons Ratio (y) = 0.00767 0.55644
# Poissons Ratio (z) = 0.12707 0.38400
#
# Static dielectric constant tensor:
#      x y z
#    x 1.766970 0.000000 0.000000 
#    y 0.000000 1.720320 0.000000 
#    z 0.000000 0.000000 1.685220 
# 
# From -- ./inp_files/2195.got.cif
#   From: 2010.05.17/outbox.cif.g08.bks.cpg/sg55_2_cif.got.tgz:2195.got - 2010.06.03 13:27:54.
