data_PCOD9429255
_publ_section_title
;
Structure prediction by ZEFSAII (Michael W. Deem and Ramdas Pophale) SiO2 
 PCOD9429255
Probable space group: P B A M
;
_chemical_formula_sum "Si O2"
_cell_formula_units_Z 40
_cell_length_a 29.379965
_cell_length_b 5.233856
_cell_length_c 11.308334
_cell_angle_alpha 90.000000
_cell_angle_beta 90.000000
_cell_angle_gamma 90.000000
_cell_volume 1738.888242
_symmetry_space_group_name_H-M "P B A M"
_symmetry_group_IT_number 55
_symmetry_cell_setting 'orthorhombic'
loop_
_space_group_symop_operation_xyz
x,y,z
-x,-y,z
1/2+x,1/2-y,-z
1/2-x,1/2+y,-z
-x,-y,-z
x,y,-z
1/2-x,1/2+y,z
1/2+x,1/2-y,z
loop_
_atom_site_type_symbol
_atom_site_label
_atom_site_fract_x
_atom_site_fract_y
_atom_site_fract_z
Si Si1 0.041734 0.804078 0.627486
Si Si2 0.931807 0.373060 0.872526
Si Si3 0.354661 0.478104 0.368462
Si Si4 0.130636 0.131946 0.872846
Si Si5 0.224521 0.620849 0.358663
O O1 0.040909 0.662878 0.500000
O O2 0.041379 0.653850 0.750401
O O3 0.091031 0.942637 0.627365
O O4 0.000000 0.000000 0.629071
O O5 0.906295 0.642611 0.871302
O O6 0.895012 0.141867 0.872301
O O7 0.956225 0.345294 0.000000
O O8 0.340405 0.572828 0.500000
O O9 0.344295 0.643317 0.252656
O O10 0.327785 0.212392 0.346633
O O11 0.155410 0.152825 0.000000
O O12 0.230784 0.602813 0.500000
O O13 0.254189 0.859966 0.312171
#
# Coordination Sequence:
#
# PCOD9429255 Si02
#       5
#     8   8   8   8   8
#     4   9  18  33  53  80 113 146 182 225 273 328
#     4   9  18  33  52  74 102 139 181 220 259 308
#     4   9  18  33  55  80 107 142 179 218 269 323
#     4   9  18  33  53  77 105 137 174 218 265 312
#     4   9  18  32  51  77 105 132 170 220 267 313
#
# _framework density 23.003202000000002
#
# number of rings (size 3 to 8) (size 9 to 14) (size 15 to 20)
#    0.000    3.000    0.000    0.000    0.000    4.400 
#    0.000   10.000    0.000   22.800    0.000    0.000 
#    0.000    0.000    0.000    0.000    0.000    0.000 
#
# Total GULP energy -222863.674079 kJ/mol
# GULP energy per Si atom -5571.591852 kJ/mol
# Density = 2.295085 g / cm^3
# Si number density = 23.003202 Si / 1000 Ang^3
#
#
#
# Elastic Constant Matrix: (Units=GPa)
#
#
# Indices 1 2 3 4 5 6 
#
# 1 113.5892 25.3326 -0.6044 0.0000 0.0000 0.0000
# 2 25.3326 69.8645 13.1381 0.0000 0.0000 0.0000
# 3 -0.6044 13.1381 243.5826 0.0000 0.0000 0.0000
# 4 0.0000 0.0000 0.0000 -82.1337 0.0000 0.0000
# 5 0.0000 0.0000 0.0000 0.0000 6.2504 0.0000
# 6 0.0000 0.0000 0.0000 0.0000 0.0000 34.6890
#
#
#
# Elastic Compliance Matrix: (Units=1/GPa)
#
#
# Indices 1 2 3 4 5 6 
#
# 1 0.009589 -0.003517 0.000213 0.000000 0.000000 0.000000
# 2 -0.003517 0.015750 -0.000858 0.000000 0.000000 0.000000
# 3 0.000213 -0.000858 0.004152 0.000000 0.000000 0.000000
# 4 0.000000 0.000000 0.000000 -0.012175 0.000000 0.000000
# 5 0.000000 0.000000 0.000000 0.000000 0.159989 0.000000
# 6 0.000000 0.000000 0.000000 0.000000 0.000000 0.028828
#
#
# Mechanical properties :
#
#
# Convention : Reuss Voigt Hill
#
# Bulk Modulus (GPa) = 47.24173 55.86321 51.55247
# Shear Modulus (GPa) = 22.57205 17.70581 20.13893
#
# Velocity S-wave (km/s) = 3.13590 2.77738 2.96207
# Velocity P-wave (km/s) = 5.80460 5.88411 5.84449
#
# Compressibility (1/GPa) = 0.02116772
#
# Stress axis : x y z
#
# Youngs Moduli (GPa) = 104.28421 63.49155 240.83598
#
# Poissons Ratio (x) = 0.22331 -0.05142
# Poissons Ratio (y) = 0.36678 0.20670
# Poissons Ratio (z) = -0.02226 0.05449
#
# Static dielectric constant tensor:
#      x y z
#    x 1.871040 0.000000 0.000000 
#    y 0.000000 1.875300 0.000000 
#    z 0.000000 0.000000 1.952760 
# 
# From -- ./inp_files/11312.got.cif
#   From: 2010.05.17/outbox.cif.g08.bks.cpg/sg55_6_cif.got.tgz:11312.got - 2010.06.03 13:27:54.
