data_PCOD9429566
_publ_section_title
;
Structure prediction by ZEFSAII (Michael W. Deem and Ramdas Pophale) SiO2 
 PCOD9429566
Probable space group: P C C N
;
_chemical_formula_sum "Si O2"
_cell_formula_units_Z 44
_cell_length_a 8.811470
_cell_length_b 7.440907
_cell_length_c 24.414990
_cell_angle_alpha 90.000000
_cell_angle_beta 90.000000
_cell_angle_gamma 90.000000
_cell_volume 1600.776847
_symmetry_space_group_name_H-M "P C C N"
_symmetry_group_IT_number 56
_symmetry_cell_setting 'orthorhombic'
loop_
_space_group_symop_operation_xyz
x,y,z
1/2-x,1/2-y,z
1/2+x,-y,1/2-z
-x,1/2+y,1/2-z
-x,-y,-z
1/2+x,1/2+y,-z
1/2-x,y,1/2+z
x,1/2-y,1/2+z
loop_
_atom_site_type_symbol
_atom_site_label
_atom_site_fract_x
_atom_site_fract_y
_atom_site_fract_z
Si Si1 0.031209 0.551785 0.394791
Si Si2 0.750000 0.250000 0.178430
Si Si3 0.319274 0.429258 0.201630
Si Si4 0.748930 0.466421 0.015969
Si Si5 0.999360 0.469250 0.800444
Si Si6 0.051325 0.462331 0.078177
O O1 0.184122 0.592266 0.360297
O O2 0.100993 0.464582 0.450523
O O3 0.920064 0.481324 0.346172
O O4 0.971975 0.749311 0.412766
O O5 0.901899 0.345064 0.201054
O O6 0.250000 0.250000 0.175120
O O7 0.401874 0.364355 0.256768
O O8 0.172325 0.536502 0.221517
O O9 0.750000 0.250000 0.019808
O O10 0.905022 0.530123 0.044304
O O11 0.788217 0.507600 0.952591
O O12 0.967865 0.438173 0.864058
#
# Coordination Sequence:
#
# PCOD9429566 Si02
#       6
#     8   4   8   8   8   8
#     4  10  17  35  59  93 125 170 223 261 318 404
#     4  10  16  36  62  90 124 166 220 262 314 398
#     4  12  24  39  64  92 130 174 222 268 327 393
#     4   9  16  31  60  91 123 165 216 270 324 377
#     4  11  23  38  63  93 129 169 221 271 325 391
#     4   9  17  32  59  91 122 166 214 266 323 388
#
# _framework density 27.486651999999999
#
# number of rings (size 3 to 8) (size 9 to 14) (size 15 to 20)
#    0.000    1.818    8.182    1.091    0.000    0.000 
#    0.000    2.727    0.000    0.000   28.364    0.000 
#    0.000    0.000    0.000    0.000    0.000    0.000 
#
# Total GULP energy -245350.899457 kJ/mol
# GULP energy per Si atom -5576.156806 kJ/mol
# Density = 2.742409 g / cm^3
# Si number density = 27.486652 Si / 1000 Ang^3
#
#
#
# Elastic Constant Matrix: (Units=GPa)
#
#
# Indices 1 2 3 4 5 6 
#
# 1 150.5151 12.5469 91.8121 0.0000 0.0000 0.0000
# 2 12.5469 60.0323 13.3325 0.0000 0.0000 0.0000
# 3 91.8121 13.3325 171.8340 0.0000 0.0000 0.0000
# 4 0.0000 0.0000 0.0000 16.6324 0.0000 0.0000
# 5 0.0000 0.0000 0.0000 0.0000 77.6490 0.0000
# 6 0.0000 0.0000 0.0000 0.0000 0.0000 30.6201
#
#
#
# Elastic Compliance Matrix: (Units=1/GPa)
#
#
# Indices 1 2 3 4 5 6 
#
# 1 0.009905 -0.000910 -0.005222 0.000000 0.000000 0.000000
# 2 -0.000910 0.017033 -0.000835 0.000000 0.000000 0.000000
# 3 -0.005222 -0.000835 0.008674 0.000000 0.000000 0.000000
# 4 0.000000 0.000000 0.000000 0.060124 0.000000 0.000000
# 5 0.000000 0.000000 0.000000 0.000000 0.012878 0.000000
# 6 0.000000 0.000000 0.000000 0.000000 0.000000 0.032658
#
#
# Mechanical properties :
#
#
# Convention : Reuss Voigt Hill
#
# Bulk Modulus (GPa) = 46.12932 68.64050 57.38491
# Shear Modulus (GPa) = 30.78184 42.62630 36.70407
#
# Velocity S-wave (km/s) = 3.35010 3.94229 3.65820
# Velocity P-wave (km/s) = 5.63765 6.76378 6.22623
#
# Compressibility (1/GPa) = 0.02167819
#
# Stress axis : x y z
#
# Youngs Moduli (GPa) = 100.96080 58.70798 115.28320
#
# Poissons Ratio (x) = 0.05345 0.60196
# Poissons Ratio (y) = 0.09192 0.09628
# Poissons Ratio (z) = 0.52717 0.04903
#
# Static dielectric constant tensor:
#      x y z
#    x 2.186220 0.000000 0.000000 
#    y 0.000000 2.193090 0.000000 
#    z 0.000000 0.000000 2.315070 
# 
# From -- ./inp_files/20417.got.cif
#   From: 2010.05.17/outbox.cif.g08.bks.cpg/sg56_11_cif.got.tgz:20417.got - 2010.06.03 13:42:01.
