data_PCOD9429060
_publ_section_title
;
Structure prediction by ZEFSAII (Michael W. Deem and Ramdas Pophale) SiO2 
 PCOD9429060
Probable space group: P B A M
;
_chemical_formula_sum "Si O2"
_cell_formula_units_Z 40
_cell_length_a 14.969784
_cell_length_b 9.642805
_cell_length_c 13.904834
_cell_angle_alpha 90.000000
_cell_angle_beta 90.000000
_cell_angle_gamma 90.000000
_cell_volume 2007.172633
_symmetry_space_group_name_H-M "P B A M"
_symmetry_group_IT_number 55
_symmetry_cell_setting 'orthorhombic'
loop_
_space_group_symop_operation_xyz
x,y,z
-x,-y,z
1/2+x,1/2-y,-z
1/2-x,1/2+y,-z
-x,-y,-z
x,y,-z
1/2-x,1/2+y,z
1/2+x,1/2-y,z
loop_
_atom_site_type_symbol
_atom_site_label
_atom_site_fract_x
_atom_site_fract_y
_atom_site_fract_z
Si Si1 0.257460 0.519739 0.757827
Si Si2 0.578649 0.114452 0.305632
Si Si3 0.480781 0.834549 0.102675
Si Si4 0.818278 0.232760 0.887977
Si Si5 0.086282 0.094688 0.610470
O O1 0.174166 0.460111 0.696079
O O2 0.222328 0.645294 0.823089
O O3 0.292578 0.406701 0.833503
O O4 0.334832 0.560366 0.684122
O O5 0.573371 0.184671 0.199336
O O6 0.566560 0.241420 0.377909
O O7 0.500000 0.000000 0.314271
O O8 0.574952 0.757469 0.111529
O O9 0.500000 0.000000 0.099695
O O10 0.438268 0.796880 0.000000
O O11 0.789913 0.235881 0.000000
O O12 0.111564 0.065380 0.500000
O O13 0.000000 0.000000 0.633060
#
# Coordination Sequence:
#
# PCOD9429060 Si02
#       5
#     8   8   8   8   8
#     4  12  23  43  66  98 135 177 219 276 332 397
#     4  11  22  41  70 100 130 173 219 272 332 401
#     4   9  17  32  58  92 131 170 210 253 309 380
#     4  11  22  38  64  99 137 179 221 263 322 394
#     4  11  27  48  69  94 129 172 225 290 348 395
#
# _framework density 19.928531
#
# number of rings (size 3 to 8) (size 9 to 14) (size 15 to 20)
#    0.000    1.200    6.000    1.800    0.000    2.000 
#    0.000    0.000    0.000    4.200    0.000    0.000 
#    0.000    0.000    0.000    0.000    0.000    0.000 
#
# Total GULP energy -223433.045311 kJ/mol
# GULP energy per Si atom -5585.826133 kJ/mol
# Density = 1.988317 g / cm^3
# Si number density = 19.928531 Si / 1000 Ang^3
#
#
#
# Elastic Constant Matrix: (Units=GPa)
#
#
# Indices 1 2 3 4 5 6 
#
# 1 102.2898 38.0739 38.3214 0.0000 0.0000 0.0000
# 2 38.0739 82.6679 35.4987 0.0000 0.0000 0.0000
# 3 38.3214 35.4987 75.5624 0.0000 0.0000 0.0000
# 4 0.0000 0.0000 0.0000 25.6272 0.0000 0.0000
# 5 0.0000 0.0000 0.0000 0.0000 29.2423 0.0000
# 6 0.0000 0.0000 0.0000 0.0000 0.0000 20.4975
#
#
#
# Elastic Compliance Matrix: (Units=1/GPa)
#
#
# Indices 1 2 3 4 5 6 
#
# 1 0.013029 -0.003963 -0.004746 0.000000 0.000000 0.000000
# 2 -0.003963 0.016359 -0.005676 0.000000 0.000000 0.000000
# 3 -0.004746 -0.005676 0.018307 0.000000 0.000000 0.000000
# 4 0.000000 0.000000 0.000000 0.039021 0.000000 0.000000
# 5 0.000000 0.000000 0.000000 0.000000 0.034197 0.000000
# 6 0.000000 0.000000 0.000000 0.000000 0.000000 0.048786
#
#
# Mechanical properties :
#
#
# Convention : Reuss Voigt Hill
#
# Bulk Modulus (GPa) = 52.83549 53.81200 53.32375
# Shear Modulus (GPa) = 24.41673 24.98181 24.69927
#
# Velocity S-wave (km/s) = 3.50410 3.54442 3.52432
# Velocity P-wave (km/s) = 6.55299 6.61904 6.58610
#
# Compressibility (1/GPa) = 0.01892667
#
# Stress axis : x y z
#
# Youngs Moduli (GPa) = 76.75072 61.12889 54.62270
#
# Poissons Ratio (x) = 0.24224 0.25924
# Poissons Ratio (y) = 0.30414 0.31002
# Poissons Ratio (z) = 0.36426 0.34694
#
# Static dielectric constant tensor:
#      x y z
#    x 1.702170 0.000000 0.000000 
#    y 0.000000 1.701650 0.000000 
#    z 0.000000 0.000000 1.702690 
# 
# From -- ./inp_files/17041.got.cif
#   From: 2010.05.17/outbox.cif.g08.bks.cpg/sg55_9_cif.got.tgz:17041.got - 2010.06.03 13:27:54.
