data_PCOD9429556
_publ_section_title
;
Structure prediction by ZEFSAII (Michael W. Deem and Ramdas Pophale) SiO2 
 PCOD9429556
Probable space group: P C C N
;
_chemical_formula_sum "Si O2"
_cell_formula_units_Z 40
_cell_length_a 9.268412
_cell_length_b 32.517503
_cell_length_c 5.612709
_cell_angle_alpha 90.000000
_cell_angle_beta 90.000000
_cell_angle_gamma 90.000000
_cell_volume 1691.589754
_symmetry_space_group_name_H-M "P C C N"
_symmetry_group_IT_number 56
_symmetry_cell_setting 'orthorhombic'
loop_
_space_group_symop_operation_xyz
x,y,z
1/2-x,1/2-y,z
1/2+x,-y,1/2-z
-x,1/2+y,1/2-z
-x,-y,-z
1/2+x,1/2+y,-z
1/2-x,y,1/2+z
x,1/2-y,1/2+z
loop_
_atom_site_type_symbol
_atom_site_label
_atom_site_fract_x
_atom_site_fract_y
_atom_site_fract_z
Si Si1 0.321732 0.349985 0.871105
Si Si2 0.579076 0.765697 0.526354
Si Si3 0.590462 0.564443 0.946956
Si Si4 0.801271 0.092861 0.182227
Si Si5 0.888369 0.013293 0.701956
O O1 0.212494 0.342248 0.093878
O O2 0.434593 0.314674 0.937254
O O3 0.345259 0.398442 0.903308
O O4 0.750000 0.750000 0.522196
O O5 0.519486 0.745695 0.767753
O O6 0.472298 0.587251 0.777127
O O7 0.676657 0.529317 0.805255
O O8 0.490370 0.537605 0.117187
O O9 0.730597 0.111904 0.420323
O O10 0.730361 0.047295 0.140963
O O11 0.000000 0.000000 0.500000
#
# Coordination Sequence:
#
# PCOD9429556 Si02
#       5
#     8   8   8   8   8
#     4  12  24  36  55  86 119 151 186 234 276 348
#     4  10  16  34  57  77 109 154 177 212 289 346
#     4  10  24  36  53  82 109 142 197 236 284 325
#     4  10  20  36  57  72 100 139 185 231 275 324
#     4  10  20  39  55  74 103 154 192 232 282 332
#
# _framework density 23.646391999999999
#
# number of rings (size 3 to 8) (size 9 to 14) (size 15 to 20)
#    0.000    1.600    6.000    0.000    2.800    4.800 
#    0.000    0.000    0.000    0.000    0.000    0.000 
#    0.000   19.200    0.000    0.000    0.000    0.000 
#
# Total GULP energy -222924.666371 kJ/mol
# GULP energy per Si atom -5573.116659 kJ/mol
# Density = 2.359257 g / cm^3
# Si number density = 23.646392 Si / 1000 Ang^3
#
#
#
# Elastic Constant Matrix: (Units=GPa)
#
#
# Indices 1 2 3 4 5 6 
#
# 1 19.9015 -14.5222 8.6831 0.0000 0.0000 0.0000
# 2 -14.5222 97.9579 9.4014 0.0000 0.0000 0.0000
# 3 8.6831 9.4014 114.0898 0.0000 0.0000 0.0000
# 4 0.0000 0.0000 0.0000 26.1142 0.0000 0.0000
# 5 0.0000 0.0000 0.0000 0.0000 22.3801 0.0000
# 6 0.0000 0.0000 0.0000 0.0000 0.0000 3.4880
#
#
#
# Elastic Compliance Matrix: (Units=1/GPa)
#
#
# Indices 1 2 3 4 5 6 
#
# 1 0.059342 0.009304 -0.005283 0.000000 0.000000 0.000000
# 2 0.009304 0.011749 -0.001676 0.000000 0.000000 0.000000
# 3 -0.005283 -0.001676 0.009305 0.000000 0.000000 0.000000
# 4 0.000000 0.000000 0.000000 0.038293 0.000000 0.000000
# 5 0.000000 0.000000 0.000000 0.000000 0.044683 0.000000
# 6 0.000000 0.000000 0.000000 0.000000 0.000000 0.286699
#
#
# Mechanical properties :
#
#
# Convention : Reuss Voigt Hill
#
# Bulk Modulus (GPa) = 11.75282 26.56376 19.15829
# Shear Modulus (GPa) = 10.55425 25.62225 18.08825
#
# Velocity S-wave (km/s) = 2.11496 3.29532 2.76877
# Velocity P-wave (km/s) = 3.30834 5.07316 4.28264
#
# Compressibility (1/GPa) = 0.08508594
#
# Stress axis : x y z
#
# Youngs Moduli (GPa) = 16.85151 85.11563 107.46629
#
# Poissons Ratio (x) = -0.79195 0.56776
# Poissons Ratio (y) = -0.15679 0.18014
# Poissons Ratio (z) = 0.08903 0.14268
#
# Static dielectric constant tensor:
#      x y z
#    x 2.006200 0.000000 0.000000 
#    y 0.000000 1.937160 0.000000 
#    z 0.000000 0.000000 2.061810 
# 
# From -- ./inp_files/288.got.cif
#   From: 2010.05.17/outbox.cif.g08.bks.cpg/sg56_1_cif.got.tgz:288.got - 2010.06.03 13:42:01.
