data_PCOD9429875
_publ_section_title
;
Structure prediction by ZEFSAII (Michael W. Deem and Ramdas Pophale) SiO2 
 PCOD9429875
Probable space group: P C C N
;
_chemical_formula_sum "Si O2"
_cell_formula_units_Z 44
_cell_length_a 25.025933
_cell_length_b 9.493068
_cell_length_c 8.386727
_cell_angle_alpha 90.000000
_cell_angle_beta 90.000000
_cell_angle_gamma 90.000000
_cell_volume 1992.458918
_symmetry_space_group_name_H-M "P C C N"
_symmetry_group_IT_number 56
_symmetry_cell_setting 'orthorhombic'
loop_
_space_group_symop_operation_xyz
x,y,z
1/2-x,1/2-y,z
1/2+x,-y,1/2-z
-x,1/2+y,1/2-z
-x,-y,-z
1/2+x,1/2+y,-z
1/2-x,y,1/2+z
x,1/2-y,1/2+z
loop_
_atom_site_type_symbol
_atom_site_label
_atom_site_fract_x
_atom_site_fract_y
_atom_site_fract_z
Si Si1 0.422540 0.424374 0.500337
Si Si2 0.960137 0.822324 0.823743
Si Si3 0.250000 0.250000 0.063755
Si Si4 0.074552 0.734429 0.899664
Si Si5 0.381594 0.931985 0.610091
Si Si6 0.187344 0.399204 0.818969
O O1 0.437858 0.336319 0.654961
O O2 0.461918 0.374173 0.357994
O O3 0.424026 0.592394 0.506946
O O4 0.365536 0.379996 0.425144
O O5 0.018730 0.817400 0.898919
O O6 0.916716 0.925787 0.905900
O O7 0.234701 0.379615 0.947237
O O8 0.298397 0.286184 0.182308
O O9 0.083736 0.667794 0.726366
O O10 0.120661 0.843388 0.949801
O O11 0.328288 0.966788 0.710155
#
# Coordination Sequence:
#
# PCOD9429875 Si02
#       6
#     8   8   4   8   8   8
#     4  10  21  34  53  81 116 142 188 225 273 322
#     4  10  19  33  53  81 110 151 192 222 253 315
#     4  10  18  36  64  82 110 128 180 232 284 332
#     4  10  20  35  52  77 113 154 182 224 266 318
#     4  10  22  36  54  79 115 144 190 223 271 324
#     4   9  19  35  56  86 103 137 169 229 280 324
#
# _framework density 22.083265000000001
#
# number of rings (size 3 to 8) (size 9 to 14) (size 15 to 20)
#    0.000    2.545    0.000    4.364    0.000    4.364 
#    0.000    7.273    0.000   13.091    0.000    0.000 
#    0.000    0.000    0.000    0.000    0.000    0.000 
#
# Total GULP energy -244977.379517 kJ/mol
# GULP energy per Si atom -5567.667716 kJ/mol
# Density = 2.203300 g / cm^3
# Si number density = 22.083265 Si / 1000 Ang^3
#
#
#
# Elastic Constant Matrix: (Units=GPa)
#
#
# Indices 1 2 3 4 5 6 
#
# 1 62.4579 9.0207 16.1195 0.0000 0.0000 0.0000
# 2 9.0207 75.9743 20.0057 0.0000 0.0000 0.0000
# 3 16.1195 20.0057 25.8872 0.0000 0.0000 0.0000
# 4 0.0000 0.0000 0.0000 29.1595 0.0000 0.0000
# 5 0.0000 0.0000 0.0000 0.0000 21.6043 0.0000
# 6 0.0000 0.0000 0.0000 0.0000 0.0000 21.3770
#
#
#
# Elastic Compliance Matrix: (Units=1/GPa)
#
#
# Indices 1 2 3 4 5 6 
#
# 1 0.019148 0.001087 -0.012763 0.000000 0.000000 0.000000
# 2 0.001087 0.016587 -0.013495 0.000000 0.000000 0.000000
# 3 -0.012763 -0.013495 0.057006 0.000000 0.000000 0.000000
# 4 0.000000 0.000000 0.000000 0.034294 0.000000 0.000000
# 5 0.000000 0.000000 0.000000 0.000000 0.046287 0.000000
# 6 0.000000 0.000000 0.000000 0.000000 0.000000 0.046779
#
#
# Mechanical properties :
#
#
# Convention : Reuss Voigt Hill
#
# Bulk Modulus (GPa) = 23.58613 28.29014 25.93813
# Shear Modulus (GPa) = 17.56997 22.37306 19.97151
#
# Velocity S-wave (km/s) = 2.82374 3.18641 3.01054
# Velocity P-wave (km/s) = 4.61899 5.13577 4.88422
#
# Compressibility (1/GPa) = 0.04239780
#
# Stress axis : x y z
#
# Youngs Moduli (GPa) = 52.22541 60.28855 17.54202
#
# Poissons Ratio (x) = -0.06556 0.22389
# Poissons Ratio (y) = -0.05679 0.23674
# Poissons Ratio (z) = 0.66657 0.81362
#
# Static dielectric constant tensor:
#      x y z
#    x 1.855440 0.000000 0.000000 
#    y 0.000000 1.813900 0.000000 
#    z 0.000000 0.000000 1.867160 
# 
# From -- ./inp_files/5095.got.cif
#   From: 2010.05.17/outbox.cif.g08.bks.cpg/sg56_3_cif.got.tgz:5095.got - 2010.06.03 13:42:01.
