data_PCOD9429496
_publ_section_title
;
Structure prediction by ZEFSAII (Michael W. Deem and Ramdas Pophale) SiO2 
 PCOD9429496
Probable space group: P C C N
;
_chemical_formula_sum "Si O2"
_cell_formula_units_Z 64
_cell_length_a 14.518893
_cell_length_b 12.394586
_cell_length_c 19.553700
_cell_angle_alpha 90.000000
_cell_angle_beta 90.000000
_cell_angle_gamma 90.000000
_cell_volume 3518.799144
_symmetry_space_group_name_H-M "P C C N"
_symmetry_group_IT_number 56
_symmetry_cell_setting 'orthorhombic'
loop_
_space_group_symop_operation_xyz
x,y,z
1/2-x,1/2-y,z
1/2+x,-y,1/2-z
-x,1/2+y,1/2-z
-x,-y,-z
1/2+x,1/2+y,-z
1/2-x,y,1/2+z
x,1/2-y,1/2+z
loop_
_atom_site_type_symbol
_atom_site_label
_atom_site_fract_x
_atom_site_fract_y
_atom_site_fract_z
Si Si1 0.154860 0.221065 0.365915
Si Si2 0.626360 0.923578 0.259910
Si Si3 0.152604 0.238640 0.127806
Si Si4 0.590791 0.378416 0.274178
Si Si5 0.973548 0.389081 0.921166
Si Si6 0.390528 0.383089 0.754393
Si Si7 0.895774 0.154297 0.713503
Si Si8 0.523309 0.358677 0.572373
O O1 0.250000 0.250000 0.402579
O O2 0.176169 0.142050 0.301147
O O3 0.073931 0.164605 0.407913
O O4 0.120542 0.329136 0.328025
O O5 0.642521 0.877318 0.335471
O O6 0.518149 0.894394 0.245261
O O7 0.648080 0.048626 0.247296
O O8 0.250000 0.250000 0.089862
O O9 0.159784 0.318840 0.193630
O O10 0.061596 0.277230 0.087857
O O11 0.589066 0.363315 0.355866
O O12 0.633132 0.491648 0.251174
O O13 0.630845 0.272021 0.239562
O O14 0.985035 0.518775 0.920997
O O15 0.941321 0.349854 0.995141
O O16 0.497139 0.363176 0.734751
O O17 0.900260 0.152540 0.631312
#
# Coordination Sequence:
#
# PCOD9429496 Si02
#       8
#     8   8   8   8   8   8   8   8
#     4  10  17  28  46  67  96 125 148 194 247 288
#     4   9  15  25  42  69  90 118 152 190 236 281
#     4  10  17  28  46  67  96 125 148 194 247 288
#     4  10  15  27  47  66  90 125 156 191 237 277
#     4  10  18  29  44  68  98 125 159 197 238 291
#     4   9  15  25  42  69  90 118 152 190 236 281
#     4  10  15  27  47  66  90 125 156 191 237 277
#     4  10  18  29  44  68  98 125 159 197 238 291
#
# _framework density 18.188023000000001
#
# number of rings (size 3 to 8) (size 9 to 14) (size 15 to 20)
#    0.000    2.250   10.000    1.500    0.000    0.500 
#    0.000    0.000    0.000    6.000    0.000    0.000 
#    0.000    4.000    0.000    0.000    0.000    0.000 
#
# Total GULP energy -356357.639915 kJ/mol
# GULP energy per Si atom -5568.088124 kJ/mol
# Density = 1.814663 g / cm^3
# Si number density = 18.188023 Si / 1000 Ang^3
#
#
#
# Elastic Constant Matrix: (Units=GPa)
#
#
# Indices 1 2 3 4 5 6 
#
# 1 22.3836 -12.1541 -18.9637 0.0000 0.0000 0.0000
# 2 -12.1541 98.6641 8.3279 0.0000 0.0000 0.0000
# 3 -18.9637 8.3279 65.0654 0.0000 0.0000 0.0000
# 4 0.0000 0.0000 0.0000 17.8362 0.0000 0.0000
# 5 0.0000 0.0000 0.0000 0.0000 5.5824 0.0000
# 6 0.0000 0.0000 0.0000 0.0000 0.0000 5.8228
#
#
#
# Elastic Compliance Matrix: (Units=1/GPa)
#
#
# Indices 1 2 3 4 5 6 
#
# 1 0.062944 0.006273 0.017542 0.000000 0.000000 0.000000
# 2 0.006273 0.010871 0.000437 0.000000 0.000000 0.000000
# 3 0.017542 0.000437 0.020426 0.000000 0.000000 0.000000
# 4 0.000000 0.000000 0.000000 0.056066 0.000000 0.000000
# 5 0.000000 0.000000 0.000000 0.000000 0.179134 0.000000
# 6 0.000000 0.000000 0.000000 0.000000 0.000000 0.171739
#
#
# Mechanical properties :
#
#
# Convention : Reuss Voigt Hill
#
# Bulk Modulus (GPa) = 7.00544 15.61482 11.31013
# Shear Modulus (GPa) = 9.99486 19.77515 14.88500
#
# Velocity S-wave (km/s) = 2.34675 3.30094 2.86387
# Velocity P-wave (km/s) = 3.34709 4.80959 4.14338
#
# Compressibility (1/GPa) = 0.14274617
#
# Stress axis : x y z
#
# Youngs Moduli (GPa) = 15.88716 91.98538 48.95707
#
# Poissons Ratio (x) = -0.57704 -0.85883
# Poissons Ratio (y) = -0.09966 -0.02139
# Poissons Ratio (z) = -0.27870 -0.04019
#
# Static dielectric constant tensor:
#      x y z
#    x 1.715440 0.000000 0.000000 
#    y 0.000000 1.659310 0.000000 
#    z 0.000000 0.000000 1.632220 
# 
# From -- ./inp_files/19377.got.cif
#   From: 2010.05.17/outbox.cif.g08.bks.cpg/sg56_10_cif.got.tgz:19377.got - 2010.06.03 13:42:01.
