data_PCOD9429892
_publ_section_title
;
Structure prediction by ZEFSAII (Michael W. Deem and Ramdas Pophale) SiO2 
 PCOD9429892
Probable space group: P C C N
;
_chemical_formula_sum "Si O2"
_cell_formula_units_Z 52
_cell_length_a 15.600658
_cell_length_b 9.390341
_cell_length_c 16.774786
_cell_angle_alpha 90.000000
_cell_angle_beta 90.000000
_cell_angle_gamma 90.000000
_cell_volume 2457.430636
_symmetry_space_group_name_H-M "P C C N"
_symmetry_group_IT_number 56
_symmetry_cell_setting 'orthorhombic'
loop_
_space_group_symop_operation_xyz
x,y,z
1/2-x,1/2-y,z
1/2+x,-y,1/2-z
-x,1/2+y,1/2-z
-x,-y,-z
1/2+x,1/2+y,-z
1/2-x,y,1/2+z
x,1/2-y,1/2+z
loop_
_atom_site_type_symbol
_atom_site_label
_atom_site_fract_x
_atom_site_fract_y
_atom_site_fract_z
Si Si1 0.750000 0.250000 0.395244
Si Si2 0.056132 0.013168 0.176186
Si Si3 0.320868 0.163155 0.499143
Si Si4 0.928468 0.842809 0.283568
Si Si5 0.979364 0.641697 0.952798
Si Si6 0.400632 0.608670 0.006268
Si Si7 0.251011 0.037819 0.169028
O O1 0.823421 0.311803 0.450330
O O2 0.710957 0.381085 0.346248
O O3 0.045849 0.177991 0.201024
O O4 0.156494 0.997351 0.203415
O O5 0.053549 0.973563 0.081256
O O6 0.984048 0.913834 0.214576
O O7 0.250000 0.250000 0.451361
O O8 0.393873 0.276686 0.519189
O O9 0.276019 0.108501 0.582853
O O10 0.359686 0.023290 0.458489
O O11 0.963397 0.912333 0.364262
O O12 0.824815 0.869985 0.286901
O O13 0.000000 0.500000 0.000000
O O14 0.048930 0.767178 0.962353
#
# Coordination Sequence:
#
# PCOD9429892 Si02
#       7
#     4   8   8   8   8   8   8
#     4   8  18  32  64  92 116 162 220 252 296 390
#     4  10  24  38  67  94 128 168 220 266 322 386
#     4  10  18  37  63  88 114 168 219 256 303 388
#     4  12  23  41  67  95 127 171 218 268 324 382
#     4  12  24  36  67  97 132 159 219 275 316 390
#     4  10  21  39  62  94 127 168 206 271 327 378
#     4  10  18  39  65  87 123 170 226 256 303 394
#
# _framework density 21.160314
#
# number of rings (size 3 to 8) (size 9 to 14) (size 15 to 20)
#    0.000    1.846    4.615    1.846    8.615    0.000 
#    0.000    0.000    6.769    0.000    0.000    0.000 
#    0.000    0.000    0.000    0.000    0.000    0.000 
#
# Total GULP energy -289487.932948 kJ/mol
# GULP energy per Si atom -5567.075634 kJ/mol
# Density = 2.111215 g / cm^3
# Si number density = 21.160314 Si / 1000 Ang^3
#
#
#
# Elastic Constant Matrix: (Units=GPa)
#
#
# Indices 1 2 3 4 5 6 
#
# 1 92.6388 43.3923 14.8120 0.0000 0.0000 0.0000
# 2 43.3923 127.1638 9.6715 0.0000 0.0000 0.0000
# 3 14.8120 9.6715 20.9062 0.0000 0.0000 0.0000
# 4 0.0000 0.0000 0.0000 26.8624 0.0000 0.0000
# 5 0.0000 0.0000 0.0000 0.0000 27.9322 0.0000
# 6 0.0000 0.0000 0.0000 0.0000 0.0000 47.1921
#
#
#
# Elastic Compliance Matrix: (Units=1/GPa)
#
#
# Indices 1 2 3 4 5 6 
#
# 1 0.014033 -0.004179 -0.008009 0.000000 0.000000 0.000000
# 2 -0.004179 0.009395 -0.001385 0.000000 0.000000 0.000000
# 3 -0.008009 -0.001385 0.054148 0.000000 0.000000 0.000000
# 4 0.000000 0.000000 0.000000 0.037227 0.000000 0.000000
# 5 0.000000 0.000000 0.000000 0.000000 0.035801 0.000000
# 6 0.000000 0.000000 0.000000 0.000000 0.000000 0.021190
#
#
# Mechanical properties :
#
#
# Convention : Reuss Voigt Hill
#
# Bulk Modulus (GPa) = 19.82988 41.82893 30.82940
# Shear Modulus (GPa) = 23.17497 31.91955 27.54726
#
# Velocity S-wave (km/s) = 3.31298 3.88811 3.61201
# Velocity P-wave (km/s) = 4.90164 6.32195 5.65655
#
# Compressibility (1/GPa) = 0.05042895
#
# Stress axis : x y z
#
# Youngs Moduli (GPa) = 71.26196 106.43557 18.46800
#
# Poissons Ratio (x) = 0.44483 0.14791
# Poissons Ratio (y) = 0.29783 0.02559
# Poissons Ratio (z) = 0.57072 0.14746
#
# Static dielectric constant tensor:
#      x y z
#    x 1.922620 0.000000 0.000000 
#    y 0.000000 1.819830 0.000000 
#    z 0.000000 0.000000 1.786320 
# 
# From -- ./inp_files/19077.got.cif
#   From: 2010.05.17/outbox.cif.g08.bks.cpg/sg56_10_cif.got.tgz:19077.got - 2010.06.03 13:42:01.
