data_PCOD9429826
_publ_section_title
;
Structure prediction by ZEFSAII (Michael W. Deem and Ramdas Pophale) SiO2 
 PCOD9429826
Probable space group: P C C N
;
_chemical_formula_sum "Si O2"
_cell_formula_units_Z 48
_cell_length_a 13.800905
_cell_length_b 16.886207
_cell_length_c 7.859140
_cell_angle_alpha 90.000000
_cell_angle_beta 90.000000
_cell_angle_gamma 90.000000
_cell_volume 1831.532799
_symmetry_space_group_name_H-M "P C C N"
_symmetry_group_IT_number 56
_symmetry_cell_setting 'orthorhombic'
loop_
_space_group_symop_operation_xyz
x,y,z
1/2-x,1/2-y,z
1/2+x,-y,1/2-z
-x,1/2+y,1/2-z
-x,-y,-z
1/2+x,1/2+y,-z
1/2-x,y,1/2+z
x,1/2-y,1/2+z
loop_
_atom_site_type_symbol
_atom_site_label
_atom_site_fract_x
_atom_site_fract_y
_atom_site_fract_z
Si Si1 0.438113 0.705357 0.276317
Si Si2 0.902219 0.391777 0.738591
Si Si3 0.884994 0.556291 0.274166
Si Si4 0.881376 0.650143 0.599175
Si Si5 0.707622 0.407470 0.593390
Si Si6 0.376293 0.322562 0.527273
O O1 0.433561 0.799595 0.264265
O O2 0.502439 0.663681 0.128571
O O3 0.333435 0.670857 0.312688
O O4 0.508498 0.819069 0.932416
O O5 0.822913 0.405680 0.592527
O O6 0.997405 0.446119 0.729351
O O7 0.841663 0.410344 0.909282
O O8 0.859200 0.582627 0.465085
O O9 0.834977 0.479066 0.203397
O O10 0.859210 0.624054 0.135269
O O11 0.839649 0.645155 0.790448
O O12 0.849222 0.732492 0.513432
#
# Coordination Sequence:
#
# PCOD9429826 Si02
#       6
#     8   8   8   8   8   8
#     4  10  21  40  66 103 141 191 240 290 377 440
#     4  12  25  45  67  99 157 188 247 303 357 468
#     4  12  23  47  71 101 157 194 246 308 369 444
#     4  10  18  34  70 107 135 185 245 289 365 438
#     4  12  29  43  69 110 144 208 235 306 392 422
#     4  10  18  35  68 107 137 185 238 294 368 427
#
# _framework density 26.207556
#
# number of rings (size 3 to 8) (size 9 to 14) (size 15 to 20)
#    1.000    0.000    6.667    1.000    2.333    2.000 
#    3.000    0.000    0.000    0.000    0.000   11.667 
#    0.000    0.000    0.000    0.000    0.000    0.000 
#
# Total GULP energy -268924.746052 kJ/mol
# GULP energy per Si atom -5602.598876 kJ/mol
# Density = 2.614791 g / cm^3
# Si number density = 26.207556 Si / 1000 Ang^3
#
#
#
# Elastic Constant Matrix: (Units=GPa)
#
#
# Indices 1 2 3 4 5 6 
#
# 1 143.3960 16.5859 19.1708 0.0000 0.0000 0.0000
# 2 16.5859 82.4645 15.6583 0.0000 0.0000 0.0000
# 3 19.1708 15.6583 135.5747 0.0000 0.0000 0.0000
# 4 0.0000 0.0000 0.0000 32.9519 0.0000 0.0000
# 5 0.0000 0.0000 0.0000 0.0000 35.9925 0.0000
# 6 0.0000 0.0000 0.0000 0.0000 0.0000 156.7430
#
#
#
# Elastic Compliance Matrix: (Units=1/GPa)
#
#
# Indices 1 2 3 4 5 6 
#
# 1 0.007240 -0.001290 -0.000875 0.000000 0.000000 0.000000
# 2 -0.001290 0.012628 -0.001276 0.000000 0.000000 0.000000
# 3 -0.000875 -0.001276 0.007647 0.000000 0.000000 0.000000
# 4 0.000000 0.000000 0.000000 0.030347 0.000000 0.000000
# 5 0.000000 0.000000 0.000000 0.000000 0.027784 0.000000
# 6 0.000000 0.000000 0.000000 0.000000 0.000000 0.006380
#
#
# Mechanical properties :
#
#
# Convention : Reuss Voigt Hill
#
# Bulk Modulus (GPa) = 48.46513 51.58501 50.02507
# Shear Modulus (GPa) = 47.26549 65.80549 56.53549
#
# Velocity S-wave (km/s) = 4.25138 5.01636 4.64963
# Velocity P-wave (km/s) = 6.52931 7.29916 6.92494
#
# Compressibility (1/GPa) = 0.02063339
#
# Stress axis : x y z
#
# Youngs Moduli (GPa) = 138.12432 79.18787 130.76883
#
# Poissons Ratio (x) = 0.10216 0.11439
# Poissons Ratio (y) = 0.17819 0.16687
# Poissons Ratio (z) = 0.12082 0.10105
#
# Static dielectric constant tensor:
#      x y z
#    x 2.080860 0.000000 0.000000 
#    y 0.000000 1.975220 0.000000 
#    z 0.000000 0.000000 2.084450 
# 
# From -- ./inp_files/4059.got.cif
#   From: 2010.05.17/outbox.cif.g08.bks.cpg/sg56_3_cif.got.tgz:4059.got - 2010.06.03 13:42:01.
