data_PCOD9429990
_publ_section_title
;
Structure prediction by ZEFSAII (Michael W. Deem and Ramdas Pophale) SiO2 
 PCOD9429990
Probable space group: P C C N
;
_chemical_formula_sum "Si O2"
_cell_formula_units_Z 60
_cell_length_a 24.044140
_cell_length_b 15.502665
_cell_length_c 8.570741
_cell_angle_alpha 90.000000
_cell_angle_beta 90.000000
_cell_angle_gamma 90.000000
_cell_volume 3194.728689
_symmetry_space_group_name_H-M "P C C N"
_symmetry_group_IT_number 56
_symmetry_cell_setting 'orthorhombic'
loop_
_space_group_symop_operation_xyz
x,y,z
1/2-x,1/2-y,z
1/2+x,-y,1/2-z
-x,1/2+y,1/2-z
-x,-y,-z
1/2+x,1/2+y,-z
1/2-x,y,1/2+z
x,1/2-y,1/2+z
loop_
_atom_site_type_symbol
_atom_site_label
_atom_site_fract_x
_atom_site_fract_y
_atom_site_fract_z
Si Si1 0.142508 0.289162 0.553872
Si Si2 0.750000 0.750000 0.243497
Si Si3 0.828537 0.977625 0.959388
Si Si4 0.777034 0.562381 0.746705
Si Si5 0.490318 0.158513 0.242334
Si Si6 0.117643 0.393486 0.036632
Si Si7 0.069531 0.501964 0.753378
Si Si8 0.975414 0.835928 0.884277
O O1 0.196667 0.267973 0.651546
O O2 0.148843 0.383651 0.483538
O O3 0.132171 0.200621 0.463235
O O4 0.087098 0.304143 0.651614
O O5 0.739258 0.656357 0.168854
O O6 0.779272 0.966222 0.833752
O O7 0.882571 0.017668 0.877592
O O8 0.798137 0.005763 0.117837
O O9 0.827428 0.576825 0.869317
O O10 0.434588 0.125019 0.152484
O O11 0.537740 0.088893 0.207136
O O12 0.481637 0.160272 0.429247
O O13 0.508123 0.254715 0.186487
O O14 0.099097 0.458921 0.902793
O O15 0.024454 0.431266 0.689202
#
# Coordination Sequence:
#
# PCOD9429990 Si02
#       8
#     8   4   8   8   8   8   8   8
#     4   8  16  28  43  66  98 138 175 209 250 303
#     4   8  16  26  42  68 100 138 180 210 240 300
#     4  10  20  32  47  72 107 146 184 221 263 316
#     4  10  19  31  47  71 106 145 184 222 262 316
#     4  11  22  37  56  79 109 145 187 230 279 332
#     4  10  19  32  50  74 105 142 182 223 267 320
#     4  11  22  36  55  80 111 146 187 231 277 329
#     4  10  20  35  53  75 108 146 182 228 277 325
#
# _framework density 18.780937999999999
#
# number of rings (size 3 to 8) (size 9 to 14) (size 15 to 20)
#    0.000    2.133    0.000    4.800    0.000    8.533 
#    0.000    0.000    0.000    0.000    0.000    0.000 
#    0.000   22.400    0.000    0.000    0.000    0.000 
#
# Total GULP energy -334103.216390 kJ/mol
# GULP energy per Si atom -5568.386940 kJ/mol
# Density = 1.873819 g / cm^3
# Si number density = 18.780938 Si / 1000 Ang^3
#
#
#
# Elastic Constant Matrix: (Units=GPa)
#
#
# Indices 1 2 3 4 5 6 
#
# 1 61.8182 22.4787 10.3825 0.0000 0.0000 0.0000
# 2 22.4787 46.0925 13.8502 0.0000 0.0000 0.0000
# 3 10.3825 13.8502 67.9623 0.0000 0.0000 0.0000
# 4 0.0000 0.0000 0.0000 13.3880 0.0000 0.0000
# 5 0.0000 0.0000 0.0000 0.0000 27.9133 0.0000
# 6 0.0000 0.0000 0.0000 0.0000 0.0000 18.8261
#
#
#
# Elastic Compliance Matrix: (Units=1/GPa)
#
#
# Indices 1 2 3 4 5 6 
#
# 1 0.019744 -0.009291 -0.001123 0.000000 0.000000 0.000000
# 2 -0.009291 0.027483 -0.004181 0.000000 0.000000 0.000000
# 3 -0.001123 -0.004181 0.015738 0.000000 0.000000 0.000000
# 4 0.000000 0.000000 0.000000 0.074694 0.000000 0.000000
# 5 0.000000 0.000000 0.000000 0.000000 0.035825 0.000000
# 6 0.000000 0.000000 0.000000 0.000000 0.000000 0.053118
#
#
# Mechanical properties :
#
#
# Convention : Reuss Voigt Hill
#
# Bulk Modulus (GPa) = 29.60896 29.92176 29.76536
# Shear Modulus (GPa) = 18.72309 20.63625 19.67967
#
# Velocity S-wave (km/s) = 3.16083 3.31839 3.24057
# Velocity P-wave (km/s) = 5.39637 5.53614 5.46670
#
# Compressibility (1/GPa) = 0.03377356
#
# Stress axis : x y z
#
# Youngs Moduli (GPa) = 50.64932 36.38583 63.54165
#
# Poissons Ratio (x) = 0.33807 0.07134
# Poissons Ratio (y) = 0.47060 0.26570
# Poissons Ratio (z) = 0.05686 0.15215
#
# Static dielectric constant tensor:
#      x y z
#    x 1.702790 0.000000 0.000000 
#    y 0.000000 1.722570 0.000000 
#    z 0.000000 0.000000 1.743380 
# 
# From -- ./inp_files/4801.got.cif
#   From: 2010.05.17/outbox.cif.g08.bks.cpg/sg56_3_cif.got.tgz:4801.got - 2010.06.03 13:42:01.
