data_PCOD9429151
_publ_section_title
;
Structure prediction by ZEFSAII (Michael W. Deem and Ramdas Pophale) SiO2 
 PCOD9429151
Probable space group: P B A M
;
_chemical_formula_sum "Si O2"
_cell_formula_units_Z 40
_cell_length_a 9.590759
_cell_length_b 9.816464
_cell_length_c 20.592260
_cell_angle_alpha 90.000000
_cell_angle_beta 90.000000
_cell_angle_gamma 90.000000
_cell_volume 1938.706513
_symmetry_space_group_name_H-M "P B A M"
_symmetry_group_IT_number 55
_symmetry_cell_setting 'orthorhombic'
loop_
_space_group_symop_operation_xyz
x,y,z
-x,-y,z
1/2+x,1/2-y,-z
1/2-x,1/2+y,-z
-x,-y,-z
x,y,-z
1/2-x,1/2+y,z
1/2+x,1/2-y,z
loop_
_atom_site_type_symbol
_atom_site_label
_atom_site_fract_x
_atom_site_fract_y
_atom_site_fract_z
Si Si1 0.580356 0.690235 0.425007
Si Si2 0.271093 0.748811 0.842515
Si Si3 0.474943 0.338847 0.926895
Si Si4 0.834322 0.496773 0.241470
Si Si5 0.703498 0.411682 0.377099
O O1 0.535586 0.697952 0.500000
O O2 0.670294 0.552324 0.414665
O O3 0.441688 0.672291 0.381438
O O4 0.674574 0.819100 0.406886
O O5 0.420238 0.720717 0.873842
O O6 0.177338 0.807244 0.900318
O O7 0.202442 0.612642 0.814089
O O8 0.284670 0.857454 0.784821
O O9 0.500000 0.500000 0.928429
O O10 0.496043 0.285307 0.000000
O O11 0.749754 0.453215 0.305167
O O12 0.000000 0.500000 0.253980
#
# Coordination Sequence:
#
# PCOD9429151 Si02
#       5
#     8   8   8   8   8
#     4  11  24  47  72 102 141 180 229 285 348 412
#     4  12  24  46  69  99 137 183 223 282 340 400
#     4  11  24  43  69 103 137 178 229 282 339 401
#     4  12  27  44  69 100 140 178 229 278 342 411
#     4  11  26  43  70 103 136 181 230 283 342 413
#
# _framework density 20.632314999999998
#
# number of rings (size 3 to 8) (size 9 to 14) (size 15 to 20)
#    0.000    0.600    4.000    4.200    5.600    3.200 
#    0.000    3.000    0.000    0.000    0.000    0.000 
#    0.000    0.000    0.000    0.000    0.000    0.000 
#
# Total GULP energy -223801.777047 kJ/mol
# GULP energy per Si atom -5595.044426 kJ/mol
# Density = 2.058535 g / cm^3
# Si number density = 20.632315 Si / 1000 Ang^3
#
#
#
# Elastic Constant Matrix: (Units=GPa)
#
#
# Indices 1 2 3 4 5 6 
#
# 1 85.9760 21.4035 32.5251 0.0000 0.0000 0.0000
# 2 21.4035 54.1084 16.5125 0.0000 0.0000 0.0000
# 3 32.5251 16.5125 87.9811 0.0000 0.0000 0.0000
# 4 0.0000 0.0000 0.0000 64.9691 0.0000 0.0000
# 5 0.0000 0.0000 0.0000 0.0000 41.7320 0.0000
# 6 0.0000 0.0000 0.0000 0.0000 0.0000 31.1295
#
#
#
# Elastic Compliance Matrix: (Units=1/GPa)
#
#
# Indices 1 2 3 4 5 6 
#
# 1 0.014417 -0.004324 -0.004518 0.000000 0.000000 0.000000
# 2 -0.004324 0.020901 -0.002324 0.000000 0.000000 0.000000
# 3 -0.004518 -0.002324 0.013473 0.000000 0.000000 0.000000
# 4 0.000000 0.000000 0.000000 0.015392 0.000000 0.000000
# 5 0.000000 0.000000 0.000000 0.000000 0.023962 0.000000
# 6 0.000000 0.000000 0.000000 0.000000 0.000000 0.032124
#
#
# Mechanical properties :
#
#
# Convention : Reuss Voigt Hill
#
# Bulk Modulus (GPa) = 37.79606 40.99419 39.39513
# Shear Modulus (GPa) = 33.02055 38.07441 35.54748
#
# Velocity S-wave (km/s) = 4.00488 4.30045 4.15529
# Velocity P-wave (km/s) = 6.30428 6.67611 6.49286
#
# Compressibility (1/GPa) = 0.02645778
#
# Stress axis : x y z
#
# Youngs Moduli (GPa) = 69.36338 47.84424 74.22487
#
# Poissons Ratio (x) = 0.20688 0.33536
# Poissons Ratio (y) = 0.29993 0.17252
# Poissons Ratio (z) = 0.31339 0.11120
#
# Static dielectric constant tensor:
#      x y z
#    x 1.666530 0.000000 0.000000 
#    y 0.000000 1.723040 0.000000 
#    z 0.000000 0.000000 1.719800 
# 
# From -- ./inp_files/23412.got.cif
#   From: 2010.05.17/outbox.cif.g08.bks.cpg/sg55_12_cif.got.tgz:23412.got - 2010.06.03 13:27:54.
