data_PCOD9429019
_publ_section_title
;
Structure prediction by ZEFSAII (Michael W. Deem and Ramdas Pophale) SiO2 
 PCOD9429019
Probable space group: P B A M
;
_chemical_formula_sum "Si O2"
_cell_formula_units_Z 64
_cell_length_a 20.027271
_cell_length_b 10.268921
_cell_length_c 17.192885
_cell_angle_alpha 90.000000
_cell_angle_beta 90.000000
_cell_angle_gamma 90.000000
_cell_volume 3535.862316
_symmetry_space_group_name_H-M "P B A M"
_symmetry_group_IT_number 55
_symmetry_cell_setting 'orthorhombic'
loop_
_space_group_symop_operation_xyz
x,y,z
-x,-y,z
1/2+x,1/2-y,-z
1/2-x,1/2+y,-z
-x,-y,-z
x,y,-z
1/2-x,1/2+y,z
1/2+x,1/2-y,z
loop_
_atom_site_type_symbol
_atom_site_label
_atom_site_fract_x
_atom_site_fract_y
_atom_site_fract_z
Si Si1 0.944382 0.887919 0.084988
Si Si2 0.209043 0.050993 0.907719
Si Si3 0.759193 0.695051 0.188351
Si Si4 0.843806 0.469013 0.409677
Si Si5 0.631365 0.223108 0.320729
Si Si6 0.504556 0.342411 0.756623
Si Si7 0.138131 0.787499 0.308821
Si Si8 0.684808 0.470175 0.590698
O O1 0.871758 0.949172 0.103145
O O2 0.969978 0.804510 0.157131
O O3 0.938854 0.823305 0.000000
O O4 0.000000 0.000000 0.078923
O O5 0.232953 0.188168 0.872916
O O6 0.243559 0.937224 0.858095
O O7 0.222081 0.038819 0.000000
O O8 0.824460 0.693964 0.243707
O O9 0.697450 0.719849 0.246249
O O10 0.862045 0.460570 0.500000
O O11 0.877840 0.590107 0.367332
O O12 0.857944 0.334896 0.365983
O O13 0.764089 0.494901 0.404718
O O14 0.561424 0.288908 0.299670
O O15 0.670623 0.328944 0.372817
O O16 0.500000 0.500000 0.753249
O O17 0.432274 0.290678 0.734769
O O18 0.148622 0.919568 0.358470
O O19 0.665063 0.474592 0.500000
#
# Coordination Sequence:
#
# PCOD9429019 Si02
#       8
#     8   8   8   8   8   8   8   8
#     4   9  18  35  59  89 119 154 199 247 304 359
#     4  11  23  38  60  92 126 159 197 253 307 354
#     4  12  21  38  61  92 122 156 204 246 299 362
#     4  11  23  40  61  90 126 163 204 251 307 371
#     4  12  22  39  63  92 120 164 207 251 307 363
#     4  11  22  39  62  90 121 156 205 259 303 360
#     4  12  23  39  64  93 120 159 206 255 304 362
#     4  11  21  39  64  93 121 156 205 255 306 360
#
# _framework density 18.100252000000001
#
# number of rings (size 3 to 8) (size 9 to 14) (size 15 to 20)
#    0.000    0.875    5.000    4.125    0.000    2.500 
#    0.000    4.375    0.000    0.000    0.000    1.750 
#    0.000    0.000    0.000    0.000    0.000    0.000 
#
# Total GULP energy -357464.128462 kJ/mol
# GULP energy per Si atom -5585.377007 kJ/mol
# Density = 1.805906 g / cm^3
# Si number density = 18.100252 Si / 1000 Ang^3
#
#
#
# Elastic Constant Matrix: (Units=GPa)
#
#
# Indices 1 2 3 4 5 6 
#
# 1 65.0067 5.2335 10.8319 0.0000 0.0000 0.0000
# 2 5.2335 84.3499 33.1516 0.0000 0.0000 0.0000
# 3 10.8319 33.1516 80.2795 0.0000 0.0000 0.0000
# 4 0.0000 0.0000 0.0000 32.8762 0.0000 0.0000
# 5 0.0000 0.0000 0.0000 0.0000 18.5126 0.0000
# 6 0.0000 0.0000 0.0000 0.0000 0.0000 13.2712
#
#
#
# Elastic Compliance Matrix: (Units=1/GPa)
#
#
# Indices 1 2 3 4 5 6 
#
# 1 0.015739 -0.000169 -0.002054 0.000000 0.000000 0.000000
# 2 -0.000169 0.014154 -0.005822 0.000000 0.000000 0.000000
# 3 -0.002054 -0.005822 0.015138 0.000000 0.000000 0.000000
# 4 0.000000 0.000000 0.000000 0.030417 0.000000 0.000000
# 5 0.000000 0.000000 0.000000 0.000000 0.054017 0.000000
# 6 0.000000 0.000000 0.000000 0.000000 0.000000 0.075351
#
#
# Mechanical properties :
#
#
# Convention : Reuss Voigt Hill
#
# Bulk Modulus (GPa) = 34.55365 36.45224 35.50295
# Shear Modulus (GPa) = 21.68696 24.95996 23.32346
#
# Velocity S-wave (km/s) = 3.46520 3.71750 3.59356
# Velocity P-wave (km/s) = 5.92804 6.21363 6.07252
#
# Compressibility (1/GPa) = 0.02894050
#
# Stress axis : x y z
#
# Youngs Moduli (GPa) = 63.53703 70.65077 66.05963
#
# Poissons Ratio (x) = 0.01197 0.13566
# Poissons Ratio (y) = 0.01076 0.38461
# Poissons Ratio (z) = 0.13048 0.41134
#
# Static dielectric constant tensor:
#      x y z
#    x 1.607550 0.000000 0.000000 
#    y 0.000000 1.592080 0.000000 
#    z 0.000000 0.000000 1.647940 
# 
# From -- ./inp_files/21962.got.cif
#   From: 2010.05.17/outbox.cif.g08.bks.cpg/sg55_11_cif.got.tgz:21962.got - 2010.06.03 13:27:54.
