data_PCOD9429696
_publ_section_title
;
Structure prediction by ZEFSAII (Michael W. Deem and Ramdas Pophale) SiO2 
 PCOD9429696
Probable space group: P C C N
;
_chemical_formula_sum "Si O2"
_cell_formula_units_Z 44
_cell_length_a 5.229343
_cell_length_b 14.823526
_cell_length_c 29.795318
_cell_angle_alpha 90.000000
_cell_angle_beta 90.000000
_cell_angle_gamma 90.000000
_cell_volume 2309.652661
_symmetry_space_group_name_H-M "P C C N"
_symmetry_group_IT_number 56
_symmetry_cell_setting 'orthorhombic'
loop_
_space_group_symop_operation_xyz
x,y,z
1/2-x,1/2-y,z
1/2+x,-y,1/2-z
-x,1/2+y,1/2-z
-x,-y,-z
1/2+x,1/2+y,-z
1/2-x,y,1/2+z
x,1/2-y,1/2+z
loop_
_atom_site_type_symbol
_atom_site_label
_atom_site_fract_x
_atom_site_fract_y
_atom_site_fract_z
Si Si1 0.750000 0.750000 0.432570
Si Si2 0.750919 0.056588 0.511579
Si Si3 0.538842 0.099381 0.108286
Si Si4 0.967002 0.495605 0.192247
Si Si5 0.750000 0.250000 0.675799
Si Si6 0.965469 0.607381 0.273313
Si Si7 0.250000 0.750000 0.993804
O O1 0.786437 0.843789 0.405938
O O2 0.502026 0.754740 0.463248
O O3 0.755265 0.151418 0.484411
O O4 0.792940 0.079451 0.564402
O O5 0.500000 0.000000 0.500000
O O6 0.000000 0.000000 0.500000
O O7 0.501159 0.010996 0.138712
O O8 0.664147 0.171709 0.141998
O O9 0.990091 0.588448 0.219998
O O10 0.190540 0.428798 0.210599
O O11 0.688513 0.456707 0.205795
O O12 0.963999 0.294476 0.707791
#
# Coordination Sequence:
#
# PCOD9429696 Si02
#       7
#     4   8   8   8   4   8   4
#     4  10  18  30  52  80 108 136 180 236 286 324
#     4  11  23  37  56  84 116 150 192 242 297 348
#     4  10  19  32  53  81 111 145 185 233 284 345
#     4   9  18  31  48  71 107 141 170 205 264 330
#     4  10  19  32  56  83 108 136 178 233 286 326
#     4   9  18  31  47  76 107 136 168 213 265 322
#     4  10  21  38  56  79 112 144 184 243 294 342
#
# _framework density 19.050485999999999
#
# number of rings (size 3 to 8) (size 9 to 14) (size 15 to 20)
#    0.000    2.182    0.000    5.455    0.000    8.000 
#    0.000    0.000    0.000    1.091    0.000   20.364 
#    0.000    0.000    0.000    0.000    0.000    0.000 
#
# Total GULP energy -244952.921422 kJ/mol
# GULP energy per Si atom -5567.111851 kJ/mol
# Density = 1.900713 g / cm^3
# Si number density = 19.050486 Si / 1000 Ang^3
#
#
#
# Elastic Constant Matrix: (Units=GPa)
#
#
# Indices 1 2 3 4 5 6 
#
# 1 109.8093 32.2628 19.7875 0.0000 0.0000 0.0000
# 2 32.2628 99.3490 36.4234 0.0000 0.0000 0.0000
# 3 19.7875 36.4234 62.7489 0.0000 0.0000 0.0000
# 4 0.0000 0.0000 0.0000 39.6485 0.0000 0.0000
# 5 0.0000 0.0000 0.0000 0.0000 23.1619 0.0000
# 6 0.0000 0.0000 0.0000 0.0000 0.0000 29.4471
#
#
#
# Elastic Compliance Matrix: (Units=1/GPa)
#
#
# Indices 1 2 3 4 5 6 
#
# 1 0.010199 -0.002710 -0.001643 0.000000 0.000000 0.000000
# 2 -0.002710 0.013506 -0.006986 0.000000 0.000000 0.000000
# 3 -0.001643 -0.006986 0.020510 0.000000 0.000000 0.000000
# 4 0.000000 0.000000 0.000000 0.025222 0.000000 0.000000
# 5 0.000000 0.000000 0.000000 0.000000 0.043174 0.000000
# 6 0.000000 0.000000 0.000000 0.000000 0.000000 0.033959
#
#
# Mechanical properties :
#
#
# Convention : Reuss Voigt Hill
#
# Bulk Modulus (GPa) = 46.42944 49.87272 48.15108
# Shear Modulus (GPa) = 28.34041 30.68040 29.51040
#
# Velocity S-wave (km/s) = 3.86119 4.01743 3.94008
# Velocity P-wave (km/s) = 6.65605 6.91055 6.78450
#
# Compressibility (1/GPa) = 0.02153806
#
# Stress axis : x y z
#
# Youngs Moduli (GPa) = 98.04971 74.03865 48.75762
#
# Poissons Ratio (x) = 0.20061 0.08013
# Poissons Ratio (y) = 0.26567 0.34060
# Poissons Ratio (z) = 0.16113 0.51720
#
# Static dielectric constant tensor:
#      x y z
#    x 1.680260 0.000000 0.000000 
#    y 0.000000 1.770050 0.000000 
#    z 0.000000 0.000000 1.714910 
# 
# From -- ./inp_files/20044.got.cif
#   From: 2010.05.17/outbox.cif.g08.bks.cpg/sg56_11_cif.got.tgz:20044.got - 2010.06.03 13:42:01.
