data_PCOD9429323
_publ_section_title
;
Structure prediction by ZEFSAII (Michael W. Deem and Ramdas Pophale) SiO2 
 PCOD9429323
Probable space group: P B A M
;
_chemical_formula_sum "Si O2"
_cell_formula_units_Z 48
_cell_length_a 18.000000
_cell_length_b 15.000000
_cell_length_c 9.000000
_cell_angle_alpha 90.000000
_cell_angle_beta 90.000000
_cell_angle_gamma 90.000000
_cell_volume 2430.000000
_symmetry_space_group_name_H-M "P B A M"
_symmetry_group_IT_number 55
_symmetry_cell_setting 'orthorhombic'
loop_
_space_group_symop_operation_xyz
x,y,z
-x,-y,z
1/2+x,1/2-y,-z
1/2-x,1/2+y,-z
-x,-y,-z
x,y,-z
1/2-x,1/2+y,z
1/2+x,1/2-y,z
loop_
_atom_site_type_symbol
_atom_site_label
_atom_site_fract_x
_atom_site_fract_y
_atom_site_fract_z
Si Si1 0.776043 0.267113 0.827935
Si Si2 0.927184 0.377326 0.828829
Si Si3 0.647813 0.385951 0.322164
Si Si4 0.865102 0.560527 0.824650
Si Si5 0.194160 0.935993 0.174903
Si Si6 0.940787 0.722036 0.676547
O O1 0.848465 0.328603 0.830442
O O2 0.715280 0.323390 0.737250
O O3 0.801664 0.168020 0.774740
O O4 0.749416 0.255291 0.000000
O O5 0.915108 0.477955 0.771949
O O6 0.983049 0.317349 0.737181
O O7 0.953174 0.383321 0.000000
O O8 0.652983 0.392882 0.500000
O O9 0.648866 0.485441 0.255104
O O10 0.577148 0.323892 0.281093
O O11 0.779706 0.533739 0.808397
O O12 0.881143 0.652555 0.743108
O O13 0.877891 0.572683 0.000000
O O14 0.174488 0.934976 0.000000
O O15 0.938009 0.716908 0.500000
#
# Coordination Sequence:
#
# PCOD9429323 Si02
#       6
#     8   8   8   8   8   8
#     4  10  20  38  62  86 111 144 191 238 283 334
#     4  10  21  37  57  84 114 146 187 233 284 339
#     4  11  23  37  56  83 117 152 189 230 277 338
#     4  10  19  34  59  87 114 145 182 234 289 334
#     4  10  20  36  61  88 113 144 187 239 286 331
#     4  11  24  38  53  81 118 156 191 225 276 340
#
# _framework density 19.753086
#
# number of rings (size 3 to 8) (size 9 to 14) (size 15 to 20)
#    0.000    1.667    3.333    1.500    0.000    6.667 
#    0.000    0.833    0.000    5.000    0.000    0.000 
#    0.000    0.000    0.000    0.000    0.000    0.000 
#
# Total GULP energy -267724.001288 kJ/mol
# GULP energy per Si atom -5577.583360 kJ/mol
# Density = 1.970813 g / cm^3
# Si number density = 19.753086 Si / 1000 Ang^3
#
#
#
# Elastic Constant Matrix: (Units=GPa)
#
#
# Indices 1 2 3 4 5 6 
#
# 1 12.0264 -20.8739 -8.8572 0.0000 0.0000 0.0000
# 2 -20.8739 87.6660 0.6088 0.0000 0.0000 0.0000
# 3 -8.8572 0.6088 20.3416 0.0000 0.0000 0.0000
# 4 0.0000 0.0000 0.0000 23.1757 0.0000 0.0000
# 5 0.0000 0.0000 0.0000 0.0000 20.9732 0.0000
# 6 0.0000 0.0000 0.0000 0.0000 0.0000 36.0118
#
#
#
# Elastic Compliance Matrix: (Units=1/GPa)
#
#
# Indices 1 2 3 4 5 6 
#
# 1 0.300848 0.070739 0.128880 0.000000 0.000000 0.000000
# 2 0.070739 0.028042 0.029962 0.000000 0.000000 0.000000
# 3 0.128880 0.029962 0.104381 0.000000 0.000000 0.000000
# 4 0.000000 0.000000 0.000000 0.043149 0.000000 0.000000
# 5 0.000000 0.000000 0.000000 0.000000 0.047680 0.000000
# 6 0.000000 0.000000 0.000000 0.000000 0.000000 0.027769
#
#
# Mechanical properties :
#
#
# Convention : Reuss Voigt Hill
#
# Bulk Modulus (GPa) = 1.12053 6.86548 3.99301
# Shear Modulus (GPa) = 12.81445 25.97589 19.39517
#
# Velocity S-wave (km/s) = 2.54978 3.63027 3.13690
# Velocity P-wave (km/s) = 3.03925 4.58857 3.89179
#
# Compressibility (1/GPa) = 0.89243346
#
# Stress axis : x y z
#
# Youngs Moduli (GPa) = 3.32394 35.66046 9.58027
#
# Poissons Ratio (x) = -2.52258 -1.23470
# Poissons Ratio (y) = -0.23513 -0.28705
# Poissons Ratio (z) = -0.42839 -1.06847
#
# Static dielectric constant tensor:
#      x y z
#    x 1.750460 0.000000 0.000000 
#    y 0.000000 1.698210 0.000000 
#    z 0.000000 0.000000 1.673790 
# 
# From -- ./inp_files/5577.got.cif
#   From: 2010.05.17/outbox.ucp.g08.bks.cvg/sg55_3_cif.got.tgz:5577.got - 2010.06.11 16:36:00.
