data_PCOD9429421
_publ_section_title
;
Structure prediction by ZEFSAII (Michael W. Deem and Ramdas Pophale) SiO2 
 PCOD9429421
Probable space group: P B A M
;
_chemical_formula_sum "Si O2"
_cell_formula_units_Z 64
_cell_length_a 12.000000
_cell_length_b 30.000000
_cell_length_c 9.000000
_cell_angle_alpha 90.000000
_cell_angle_beta 90.000000
_cell_angle_gamma 90.000000
_cell_volume 3240.000000
_symmetry_space_group_name_H-M "P B A M"
_symmetry_group_IT_number 55
_symmetry_cell_setting 'orthorhombic'
loop_
_space_group_symop_operation_xyz
x,y,z
-x,-y,z
1/2+x,1/2-y,-z
1/2-x,1/2+y,-z
-x,-y,-z
x,y,-z
1/2-x,1/2+y,z
1/2+x,1/2-y,z
loop_
_atom_site_type_symbol
_atom_site_label
_atom_site_fract_x
_atom_site_fract_y
_atom_site_fract_z
Si Si1 0.097775 0.835408 0.174159
Si Si2 0.157425 0.308113 0.745883
Si Si3 0.798026 0.428501 0.822794
Si Si4 0.241550 0.211027 0.666603
Si Si5 0.944694 0.262563 0.837766
Si Si6 0.101242 0.126686 0.678140
Si Si7 0.477078 0.895034 0.328903
Si Si8 0.128366 0.483808 0.669473
O O1 0.231105 0.831802 0.194333
O O2 0.056375 0.786630 0.231010
O O3 0.025255 0.871693 0.261652
O O4 0.071837 0.840196 0.000000
O O5 0.200404 0.262508 0.666976
O O6 0.064052 0.284889 0.847455
O O7 0.083917 0.347321 0.673362
O O8 0.686773 0.408305 0.749252
O O9 0.811162 0.479986 0.771156
O O10 0.909356 0.402409 0.763913
O O11 0.793650 0.424899 0.000000
O O12 0.765920 0.302286 0.500000
O O13 0.356603 0.208045 0.752403
O O14 0.154901 0.174658 0.723624
O O15 0.895022 0.255737 0.000000
O O16 0.099906 0.122647 0.500000
O O17 0.506717 0.905429 0.500000
O O18 0.386352 0.932613 0.280143
O O19 0.172152 0.485151 0.500000
O O20 0.000000 0.500000 0.665640
#
# Coordination Sequence:
#
# PCOD9429421 Si02
#       8
#     8   8   8   8   8   8   8   8
#     4  10  22  38  55  77 110 150 193 238 281 332
#     4  11  21  37  57  84 111 152 191 234 278 336
#     4  11  22  36  59  89 118 149 187 236 290 343
#     4  10  22  36  53  79 110 144 187 236 277 321
#     4  10  21  36  55  77 106 146 188 230 280 332
#     4  11  22  38  57  80 110 149 193 235 283 335
#     4  10  21  36  58  87 120 155 190 233 284 341
#     4   8  16  34  57  84 117 150 184 228 287 345
#
# _framework density 19.753086
#
# number of rings (size 3 to 8) (size 9 to 14) (size 15 to 20)
#    0.000    1.875    1.250    3.750    0.000   10.250 
#    0.000    0.000    0.000    0.750    0.000    4.375 
#    0.000    0.000    0.000    0.000    0.000    0.000 
#
# Total GULP energy -356284.073173 kJ/mol
# GULP energy per Si atom -5566.938643 kJ/mol
# Density = 1.970813 g / cm^3
# Si number density = 19.753086 Si / 1000 Ang^3
#
#
#
# Elastic Constant Matrix: (Units=GPa)
#
#
# Indices 1 2 3 4 5 6 
#
# 1 75.5591 -3.7279 23.1114 0.0000 0.0000 0.0000
# 2 -3.7279 54.3964 4.1427 0.0000 0.0000 0.0000
# 3 23.1114 4.1427 48.2205 0.0000 0.0000 0.0000
# 4 0.0000 0.0000 0.0000 24.7089 0.0000 0.0000
# 5 0.0000 0.0000 0.0000 0.0000 14.4622 0.0000
# 6 0.0000 0.0000 0.0000 0.0000 0.0000 29.9454
#
#
#
# Elastic Compliance Matrix: (Units=1/GPa)
#
#
# Indices 1 2 3 4 5 6 
#
# 1 0.015655 0.001655 -0.007645 0.000000 0.000000 0.000000
# 2 0.001655 0.018680 -0.002398 0.000000 0.000000 0.000000
# 3 -0.007645 -0.002398 0.024608 0.000000 0.000000 0.000000
# 4 0.000000 0.000000 0.000000 0.040471 0.000000 0.000000
# 5 0.000000 0.000000 0.000000 0.000000 0.069146 0.000000
# 6 0.000000 0.000000 0.000000 0.000000 0.000000 0.033394
#
#
# Mechanical properties :
#
#
# Convention : Reuss Voigt Hill
#
# Bulk Modulus (GPa) = 23.71563 25.02536 24.37049
# Shear Modulus (GPa) = 21.47896 24.13328 22.80612
#
# Velocity S-wave (km/s) = 3.30111 3.49914 3.40157
# Velocity P-wave (km/s) = 5.15382 5.38720 5.27180
#
# Compressibility (1/GPa) = 0.04216629
#
# Stress axis : x y z
#
# Youngs Moduli (GPa) = 63.87805 53.53426 40.63653
#
# Poissons Ratio (x) = -0.08861 0.31068
# Poissons Ratio (y) = -0.10573 0.09745
# Poissons Ratio (z) = 0.48837 0.12838
#
# Static dielectric constant tensor:
#      x y z
#    x 1.700760 0.000000 0.000000 
#    y 0.000000 1.772510 0.000000 
#    z 0.000000 0.000000 1.685610 
# 
# From -- ./inp_files/4475.got.cif
#   From: 2010.05.17/outbox.ucp.g08.bks.cvg/sg55_3_cif.got.tgz:4475.got - 2010.06.11 16:36:00.
