data_PCOD9429281
_publ_section_title
;
Structure prediction by ZEFSAII (Michael W. Deem and Ramdas Pophale) SiO2 
 PCOD9429281
Probable space group: P B A M
;
_chemical_formula_sum "Si O2"
_cell_formula_units_Z 64
_cell_length_a 15.000000
_cell_length_b 24.000000
_cell_length_c 9.000000
_cell_angle_alpha 90.000000
_cell_angle_beta 90.000000
_cell_angle_gamma 90.000000
_cell_volume 3240.000000
_symmetry_space_group_name_H-M "P B A M"
_symmetry_group_IT_number 55
_symmetry_cell_setting 'orthorhombic'
loop_
_space_group_symop_operation_xyz
x,y,z
-x,-y,z
1/2+x,1/2-y,-z
1/2-x,1/2+y,-z
-x,-y,-z
x,y,-z
1/2-x,1/2+y,z
1/2+x,1/2-y,z
loop_
_atom_site_type_symbol
_atom_site_label
_atom_site_fract_x
_atom_site_fract_y
_atom_site_fract_z
Si Si1 0.259649 0.901302 0.175590
Si Si2 0.093133 0.112772 0.829574
Si Si3 0.249819 0.532922 0.820608
Si Si4 0.645027 0.193256 0.673400
Si Si5 0.230972 0.212838 0.170415
Si Si6 0.969940 0.292725 0.824603
Si Si7 0.079816 0.831171 0.821485
Si Si8 0.861945 0.375162 0.323232
O O1 0.328827 0.868934 0.279355
O O2 0.168869 0.866529 0.199050
O O3 0.249028 0.966976 0.207346
O O4 0.283565 0.895975 0.000000
O O5 0.159860 0.065285 0.769068
O O6 0.147668 0.170507 0.832937
O O7 0.000380 0.130814 0.757000
O O8 0.074891 0.094811 0.000000
O O9 0.169000 0.565549 0.740768
O O10 0.242633 0.541569 0.000000
O O11 0.621585 0.197910 0.500000
O O12 0.723283 0.236665 0.715157
O O13 0.573325 0.216398 0.790539
O O14 0.304956 0.170572 0.231644
O O15 0.248354 0.231646 0.000000
O O16 0.924888 0.233860 0.774864
O O17 0.955217 0.348809 0.726349
O O18 0.954048 0.302309 0.000000
O O19 0.064844 0.827217 0.000000
O O20 0.849368 0.373107 0.500000
#
# Coordination Sequence:
#
# PCOD9429281 Si02
#       8
#     8   8   8   8   8   8   8   8
#     4  10  21  37  58  84 114 153 199 241 283 342
#     4   8  14  28  53  85 114 144 183 230 280 327
#     4   9  19  36  58  83 114 155 201 240 277 338
#     4  12  24  37  55  82 117 153 191 241 302 353
#     4  10  18  34  58  83 113 151 193 235 285 347
#     4  11  21  37  60  86 116 152 192 237 290 356
#     4   9  17  31  56  89 118 145 183 233 287 338
#     4  11  22  36  57  86 117 151 191 240 293 344
#
# _framework density 19.753086
#
# number of rings (size 3 to 8) (size 9 to 14) (size 15 to 20)
#    0.000    2.000    1.250    4.500    0.000    2.000 
#    0.000    3.750    0.000    3.750    0.000    2.625 
#    0.000    0.000    0.000    0.000    0.000    0.000 
#
# Total GULP energy -356353.725917 kJ/mol
# GULP energy per Si atom -5568.026967 kJ/mol
# Density = 1.970813 g / cm^3
# Si number density = 19.753086 Si / 1000 Ang^3
#
#
#
# Elastic Constant Matrix: (Units=GPa)
#
#
# Indices 1 2 3 4 5 6 
#
# 1 27.0342 9.7744 -4.7354 0.0000 0.0000 0.0000
# 2 9.7744 128.5272 29.7933 0.0000 0.0000 0.0000
# 3 -4.7354 29.7933 61.3417 0.0000 0.0000 0.0000
# 4 0.0000 0.0000 0.0000 21.3834 0.0000 0.0000
# 5 0.0000 0.0000 0.0000 0.0000 13.6572 0.0000
# 6 0.0000 0.0000 0.0000 0.0000 0.0000 25.6710
#
#
#
# Elastic Compliance Matrix: (Units=1/GPa)
#
#
# Indices 1 2 3 4 5 6 
#
# 1 0.039385 -0.004169 0.005065 0.000000 0.000000 0.000000
# 2 -0.004169 0.009209 -0.004795 0.000000 0.000000 0.000000
# 3 0.005065 -0.004795 0.019022 0.000000 0.000000 0.000000
# 4 0.000000 0.000000 0.000000 0.046765 0.000000 0.000000
# 5 0.000000 0.000000 0.000000 0.000000 0.073221 0.000000
# 6 0.000000 0.000000 0.000000 0.000000 0.000000 0.038954
#
#
# Mechanical properties :
#
#
# Convention : Reuss Voigt Hill
#
# Bulk Modulus (GPa) = 16.71717 31.84083 24.27900
# Shear Modulus (GPa) = 19.66232 24.28039 21.97136
#
# Velocity S-wave (km/s) = 3.15843 3.50979 3.33873
# Velocity P-wave (km/s) = 4.66715 5.70782 5.21352
#
# Compressibility (1/GPa) = 0.05981874
#
# Stress axis : x y z
#
# Youngs Moduli (GPa) = 25.39040 108.59008 52.57110
#
# Poissons Ratio (x) = 0.45276 -0.26630
# Poissons Ratio (y) = 0.10586 0.25206
# Poissons Ratio (z) = -0.12861 0.52064
#
# Static dielectric constant tensor:
#      x y z
#    x 1.956530 0.000000 0.000000 
#    y 0.000000 1.706880 0.000000 
#    z 0.000000 0.000000 1.653560 
# 
# From -- ./inp_files/6705.got.cif
#   From: 2010.05.17/outbox.ucp.g08.bks.cvg/sg55_4_cif.got.tgz:6705.got - 2010.06.11 16:36:00.
