data_PCOD9429814
_publ_section_title
;
Structure prediction by ZEFSAII (Michael W. Deem and Ramdas Pophale) SiO2 
 PCOD9429814
Probable space group: P C C N
;
_chemical_formula_sum "Si O2"
_cell_formula_units_Z 56
_cell_length_a 8.691662
_cell_length_b 16.599985
_cell_length_c 19.848775
_cell_angle_alpha 90.000000
_cell_angle_beta 90.000000
_cell_angle_gamma 90.000000
_cell_volume 2863.810213
_symmetry_space_group_name_H-M "P C C N"
_symmetry_group_IT_number 56
_symmetry_cell_setting 'orthorhombic'
loop_
_space_group_symop_operation_xyz
x,y,z
1/2-x,1/2-y,z
1/2+x,-y,1/2-z
-x,1/2+y,1/2-z
-x,-y,-z
1/2+x,1/2+y,-z
1/2-x,y,1/2+z
x,1/2-y,1/2+z
loop_
_atom_site_type_symbol
_atom_site_label
_atom_site_fract_x
_atom_site_fract_y
_atom_site_fract_z
Si Si1 0.576011 0.276218 0.636278
Si Si2 0.588066 0.924699 0.801283
Si Si3 0.095328 0.049223 0.856230
Si Si4 0.408159 0.116515 0.626430
Si Si5 0.554897 0.537554 0.601446
Si Si6 0.471928 0.595230 0.011360
Si Si7 0.888721 0.120948 0.512394
O O1 0.750000 0.250000 0.648091
O O2 0.530324 0.354685 0.678119
O O3 0.469568 0.200898 0.653927
O O4 0.564558 0.302955 0.557552
O O5 0.598452 0.926593 0.721326
O O6 0.746540 0.905498 0.840396
O O7 0.530129 0.010064 0.830622
O O8 0.268480 0.053560 0.883273
O O9 0.001997 0.104809 0.909227
O O10 0.024285 0.958446 0.860162
O O11 0.411685 0.129283 0.545063
O O12 0.557696 0.456427 0.556010
O O13 0.469116 0.606771 0.559426
O O14 0.500000 0.500000 0.000000
O O15 0.296426 0.617892 0.994261
#
# Coordination Sequence:
#
# PCOD9429814 Si02
#       7
#     8   8   8   8   8   8   8
#     4  11  22  41  65  86 121 165 216 254 312 383
#     4  11  24  38  62  94 127 170 207 253 314 386
#     4  11  22  38  64  95 126 163 207 259 317 374
#     4  11  21  39  65  90 124 162 210 261 309 371
#     4  10  19  34  58  91 123 153 204 254 304 364
#     4  10  18  34  61  91 118 154 200 262 306 354
#     4  10  19  34  59  92 117 153 205 262 306 357
#
# _framework density 19.554369000000001
#
# number of rings (size 3 to 8) (size 9 to 14) (size 15 to 20)
#    0.000    1.429    4.286    3.857    4.000    0.000 
#    0.000    1.429   12.571    0.000    0.000    0.000 
#    0.000    0.000    0.000    0.000    0.000    0.000 
#
# Total GULP energy -312330.014430 kJ/mol
# GULP energy per Si atom -5577.321686 kJ/mol
# Density = 1.950986 g / cm^3
# Si number density = 19.554369 Si / 1000 Ang^3
#
#
#
# Elastic Constant Matrix: (Units=GPa)
#
#
# Indices 1 2 3 4 5 6 
#
# 1 73.9465 20.1561 23.4001 0.0000 0.0000 0.0000
# 2 20.1561 45.3210 13.7884 0.0000 0.0000 0.0000
# 3 23.4001 13.7884 109.2620 0.0000 0.0000 0.0000
# 4 0.0000 0.0000 0.0000 11.3714 0.0000 0.0000
# 5 0.0000 0.0000 0.0000 0.0000 4.2271 0.0000
# 6 0.0000 0.0000 0.0000 0.0000 0.0000 13.9929
#
#
#
# Elastic Compliance Matrix: (Units=1/GPa)
#
#
# Indices 1 2 3 4 5 6 
#
# 1 0.016092 -0.006352 -0.002645 0.000000 0.000000 0.000000
# 2 -0.006352 0.025453 -0.001852 0.000000 0.000000 0.000000
# 3 -0.002645 -0.001852 0.009952 0.000000 0.000000 0.000000
# 4 0.000000 0.000000 0.000000 0.087940 0.000000 0.000000
# 5 0.000000 0.000000 0.000000 0.000000 0.236568 0.000000
# 6 0.000000 0.000000 0.000000 0.000000 0.000000 0.071465
#
#
# Mechanical properties :
#
#
# Convention : Reuss Voigt Hill
#
# Bulk Modulus (GPa) = 33.55656 38.13542 35.84599
# Shear Modulus (GPa) = 10.43624 17.33060 13.88342
#
# Velocity S-wave (km/s) = 2.31271 2.98027 2.66746
# Velocity P-wave (km/s) = 4.93248 5.60243 5.27810
#
# Compressibility (1/GPa) = 0.02980043
#
# Stress axis : x y z
#
# Youngs Moduli (GPa) = 62.14431 39.28784 100.47840
#
# Poissons Ratio (x) = 0.24956 0.26573
# Poissons Ratio (y) = 0.39474 0.18606
# Poissons Ratio (z) = 0.16435 0.07275
#
# Static dielectric constant tensor:
#      x y z
#    x 1.681930 0.000000 0.000000 
#    y 0.000000 1.692600 0.000000 
#    z 0.000000 0.000000 1.755440 
# 
# From -- ./inp_files/18311.got.cif
#   From: 2010.05.17/outbox.cif.g08.bks.cpg/sg56_10_cif.got.tgz:18311.got - 2010.06.03 13:42:01.
