data_PCOD9429230
_publ_section_title
;
Structure prediction by ZEFSAII (Michael W. Deem and Ramdas Pophale) SiO2 
 PCOD9429230
Probable space group: P B A M
;
_chemical_formula_sum "Si O2"
_cell_formula_units_Z 64
_cell_length_a 22.934671
_cell_length_b 14.581737
_cell_length_c 7.376397
_cell_angle_alpha 90.000000
_cell_angle_beta 90.000000
_cell_angle_gamma 90.000000
_cell_volume 2466.868833
_symmetry_space_group_name_H-M "P B A M"
_symmetry_group_IT_number 55
_symmetry_cell_setting 'orthorhombic'
loop_
_space_group_symop_operation_xyz
x,y,z
-x,-y,z
1/2+x,1/2-y,-z
1/2-x,1/2+y,-z
-x,-y,-z
x,y,-z
1/2-x,1/2+y,z
1/2+x,1/2-y,z
loop_
_atom_site_type_symbol
_atom_site_label
_atom_site_fract_x
_atom_site_fract_y
_atom_site_fract_z
Si Si1 0.189355 0.964910 0.213099
Si Si2 0.184121 0.751293 0.291570
Si Si3 0.191200 0.257272 0.713898
Si Si4 0.437219 0.486507 0.297632
Si Si5 0.687116 0.022867 0.781734
Si Si6 0.560012 0.732317 0.292875
Si Si7 0.432261 0.779393 0.721958
Si Si8 0.436002 0.990934 0.794084
O O1 0.186562 0.863002 0.296524
O O2 0.127377 0.014167 0.236592
O O3 0.249180 0.012335 0.278134
O O4 0.196331 0.948837 0.000000
O O5 0.182875 0.720087 0.500000
O O6 0.246643 0.724647 0.207723
O O7 0.120359 0.730663 0.208898
O O8 0.193181 0.237085 0.500000
O O9 0.189855 0.368579 0.734936
O O10 0.127057 0.228457 0.781340
O O11 0.500000 0.500000 0.204777
O O12 0.443273 0.527482 0.500000
O O13 0.433334 0.376752 0.302724
O O14 0.626471 0.979561 0.711946
O O15 0.682805 0.014580 0.000000
O O16 0.557705 0.768169 0.500000
O O17 0.495772 0.746994 0.215702
O O18 0.431372 0.780182 0.500000
O O19 0.428250 0.881897 0.795234
O O20 0.500000 0.000000 0.706736
O O21 0.440962 0.028290 0.000000
#
# Coordination Sequence:
#
# PCOD9429230 Si02
#       8
#     8   8   8   8   8   8   8   8
#     4   9  15  23  38  60  82 101 127 168 209 238
#     4   8  13  23  38  55  76 102 132 162 194 236
#     4   8  13  21  36  57  76  97 128 164 197 232
#     4   9  17  29  44  60  81 111 141 166 197 241
#     4   8  14  24  38  57  79 102 129 164 204 238
#     4   8  14  25  41  59  79 104 131 160 196 236
#     4   9  16  26  41  61  83 104 129 165 206 241
#     4   9  17  29  44  61  82 109 139 167 197 240
#
# _framework density 25.943821
#
# number of rings (size 3 to 8) (size 9 to 14) (size 15 to 20)
#    0.000    3.500    0.000    1.125    0.000    1.000 
#    0.000    2.500    0.000    1.500    0.000    3.500 
#    0.000    0.000    0.000    0.000    0.000    0.000 
#
# Total GULP energy -356331.529176 kJ/mol
# GULP energy per Si atom -5567.680143 kJ/mol
# Density = 2.588477 g / cm^3
# Si number density = 25.943821 Si / 1000 Ang^3
#
#
#
# Elastic Constant Matrix: (Units=GPa)
#
#
# Indices 1 2 3 4 5 6 
#
# 1 375.9930 8.7787 19.9974 0.0000 0.0000 0.0000
# 2 8.7787 64.3862 -8.7032 0.0000 0.0000 0.0000
# 3 19.9974 -8.7032 105.1210 0.0000 0.0000 0.0000
# 4 0.0000 0.0000 0.0000 0.2842 0.0000 0.0000
# 5 0.0000 0.0000 0.0000 0.0000 13.8692 0.0000
# 6 0.0000 0.0000 0.0000 0.0000 0.0000 16.4755
#
#
#
# Elastic Compliance Matrix: (Units=1/GPa)
#
#
# Indices 1 2 3 4 5 6 
#
# 1 0.002699 -0.000442 -0.000550 0.000000 0.000000 0.000000
# 2 -0.000442 0.015780 0.001391 0.000000 0.000000 0.000000
# 3 -0.000550 0.001391 0.009733 0.000000 0.000000 0.000000
# 4 0.000000 0.000000 0.000000 3.519052 0.000000 0.000000
# 5 0.000000 0.000000 0.000000 0.000000 0.072102 0.000000
# 6 0.000000 0.000000 0.000000 0.000000 0.000000 0.060696
#
#
# Mechanical properties :
#
#
# Convention : Reuss Voigt Hill
#
# Bulk Modulus (GPa) = 34.47374 65.07180 49.77277
# Shear Modulus (GPa) = 1.35540 41.15425 21.25483
#
# Velocity S-wave (km/s) = 0.72358 3.98714 2.86538
# Velocity P-wave (km/s) = 3.74363 6.80681 5.49306
#
# Compressibility (1/GPa) = 0.02900758
#
# Stress axis : x y z
#
# Youngs Moduli (GPa) = 370.47875 63.37311 102.74723
#
# Poissons Ratio (x) = 0.02804 0.05652
# Poissons Ratio (y) = 0.16389 -0.14288
# Poissons Ratio (z) = 0.20380 -0.08813
#
# Static dielectric constant tensor:
#      x y z
#    x 2.216660 0.000000 0.000000 
#    y 0.000000 2.048420 0.000000 
#    z 0.000000 0.000000 2.054630 
# 
# From -- ./inp_files/9204.got.cif
#   From: 2010.05.17/outbox.cif.g08.bks.cpg/sg55_5_cif.got.tgz:9204.got - 2010.06.03 13:27:54.
