data_PCOD9429688
_publ_section_title
;
Structure prediction by ZEFSAII (Michael W. Deem and Ramdas Pophale) SiO2 
 PCOD9429688
Probable space group: P C C N
;
_chemical_formula_sum "Si O2"
_cell_formula_units_Z 56
_cell_length_a 5.319390
_cell_length_b 25.518493
_cell_length_c 20.783504
_cell_angle_alpha 90.000000
_cell_angle_beta 90.000000
_cell_angle_gamma 90.000000
_cell_volume 2821.211369
_symmetry_space_group_name_H-M "P C C N"
_symmetry_group_IT_number 56
_symmetry_cell_setting 'orthorhombic'
loop_
_space_group_symop_operation_xyz
x,y,z
1/2-x,1/2-y,z
1/2+x,-y,1/2-z
-x,1/2+y,1/2-z
-x,-y,-z
1/2+x,1/2+y,-z
1/2-x,y,1/2+z
x,1/2-y,1/2+z
loop_
_atom_site_type_symbol
_atom_site_label
_atom_site_fract_x
_atom_site_fract_y
_atom_site_fract_z
Si Si1 0.616900 0.101885 0.344967
Si Si2 0.797692 0.940706 0.977130
Si Si3 0.493000 0.766303 0.996573
Si Si4 0.132906 0.499188 0.395354
Si Si5 0.260525 0.531859 0.267446
Si Si6 0.681504 0.384625 0.481001
Si Si7 0.998583 0.721660 0.640519
O O1 0.415115 0.057342 0.363367
O O2 0.721871 0.083573 0.276349
O O3 0.811295 0.100385 0.405174
O O4 0.507673 0.160208 0.346009
O O5 0.772630 0.983844 0.034079
O O6 0.530411 0.913519 0.977935
O O7 0.874838 0.970635 0.912545
O O8 0.035611 0.901247 0.994671
O O9 0.750000 0.750000 0.963412
O O10 0.427515 0.825485 0.015941
O O11 0.502354 0.731835 0.062882
O O12 0.250000 0.750000 0.956708
O O13 0.278240 0.534639 0.344612
O O14 0.489887 0.494254 0.246556
O O15 0.250000 0.750000 0.664513
O O16 0.750000 0.750000 0.665411
#
# Coordination Sequence:
#
# PCOD9429688 Si02
#       7
#     8   8   8   8   8   8   8
#     4  10  20  35  57  81 116 150 181 238 287 339
#     4  10  22  34  53  77 111 154 181 227 271 334
#     4  10  18  30  48  75 109 134 168 223 274 333
#     4   9  21  37  53  79 113 147 192 221 271 342
#     4  10  21  36  55  80 109 150 188 230 280 335
#     4  11  20  33  53  80 111 142 179 223 287 329
#     4  10  20  31  49  79 110 144 175 223 291 340
#
# _framework density 19.849630999999999
#
# number of rings (size 3 to 8) (size 9 to 14) (size 15 to 20)
#    0.000    2.000    2.857    1.714    6.000    9.714 
#    0.000    0.000    0.000    0.000    0.000    4.000 
#    0.000    0.000    0.000    0.000    0.000    0.000 
#
# Total GULP energy -311794.580545 kJ/mol
# GULP energy per Si atom -5567.760367 kJ/mol
# Density = 1.980445 g / cm^3
# Si number density = 19.849631 Si / 1000 Ang^3
#
#
#
# Elastic Constant Matrix: (Units=GPa)
#
#
# Indices 1 2 3 4 5 6 
#
# 1 126.5297 33.4673 17.8819 0.0000 0.0000 0.0000
# 2 33.4673 125.7287 33.7773 0.0000 0.0000 0.0000
# 3 17.8819 33.7773 52.1463 0.0000 0.0000 0.0000
# 4 0.0000 0.0000 0.0000 11.7201 0.0000 0.0000
# 5 0.0000 0.0000 0.0000 0.0000 16.3098 0.0000
# 6 0.0000 0.0000 0.0000 0.0000 0.0000 27.7477
#
#
#
# Elastic Compliance Matrix: (Units=1/GPa)
#
#
# Indices 1 2 3 4 5 6 
#
# 1 0.008637 -0.001820 -0.001783 0.000000 0.000000 0.000000
# 2 -0.001820 0.010013 -0.005862 0.000000 0.000000 0.000000
# 3 -0.001783 -0.005862 0.023585 0.000000 0.000000 0.000000
# 4 0.000000 0.000000 0.000000 0.085323 0.000000 0.000000
# 5 0.000000 0.000000 0.000000 0.000000 0.061313 0.000000
# 6 0.000000 0.000000 0.000000 0.000000 0.000000 0.036039
#
#
# Mechanical properties :
#
#
# Convention : Reuss Voigt Hill
#
# Bulk Modulus (GPa) = 42.90801 52.73975 47.82388
# Shear Modulus (GPa) = 19.87226 25.77406 22.82316
#
# Velocity S-wave (km/s) = 3.16751 3.60733 3.39455
# Velocity P-wave (km/s) = 5.91954 6.63157 6.28565
#
# Compressibility (1/GPa) = 0.02330567
#
# Stress axis : x y z
#
# Youngs Moduli (GPa) = 115.78595 99.87183 42.39986
#
# Poissons Ratio (x) = 0.18177 0.07559
# Poissons Ratio (y) = 0.21073 0.24853
# Poissons Ratio (z) = 0.20642 0.58541
#
# Static dielectric constant tensor:
#      x y z
#    x 1.843670 0.000000 0.000000 
#    y 0.000000 1.767960 0.000000 
#    z 0.000000 0.000000 1.721160 
# 
# From -- ./inp_files/17632.got.cif
#   From: 2010.05.17/outbox.cif.g08.bks.cpg/sg56_9_cif.got.tgz:17632.got - 2010.06.03 13:42:01.
