data_PCOD9429795
_publ_section_title
;
Structure prediction by ZEFSAII (Michael W. Deem and Ramdas Pophale) SiO2 
 PCOD9429795
Probable space group: P C C N
;
_chemical_formula_sum "Si O2"
_cell_formula_units_Z 52
_cell_length_a 20.647129
_cell_length_b 6.872733
_cell_length_c 14.287125
_cell_angle_alpha 90.000000
_cell_angle_beta 90.000000
_cell_angle_gamma 90.000000
_cell_volume 2027.374538
_symmetry_space_group_name_H-M "P C C N"
_symmetry_group_IT_number 56
_symmetry_cell_setting 'orthorhombic'
loop_
_space_group_symop_operation_xyz
x,y,z
1/2-x,1/2-y,z
1/2+x,-y,1/2-z
-x,1/2+y,1/2-z
-x,-y,-z
1/2+x,1/2+y,-z
1/2-x,y,1/2+z
x,1/2-y,1/2+z
loop_
_atom_site_type_symbol
_atom_site_label
_atom_site_fract_x
_atom_site_fract_y
_atom_site_fract_z
Si Si1 0.881201 0.913248 0.389131
Si Si2 0.313732 0.872196 0.483193
Si Si3 0.995305 0.836223 0.634119
Si Si4 0.176171 0.757984 0.201693
Si Si5 0.358441 0.992721 0.910521
Si Si6 0.750000 0.750000 0.595421
Si Si7 0.065070 0.025428 0.184690
O O1 0.838813 0.953170 0.480364
O O2 0.895747 0.692694 0.366766
O O3 0.848161 0.035920 0.305709
O O4 0.950519 0.017232 0.401740
O O5 0.250000 0.750000 0.458402
O O6 0.323183 0.841593 0.594361
O O7 0.364484 0.742831 0.422747
O O8 0.297842 0.090981 0.454130
O O9 0.925252 0.890649 0.597498
O O10 0.024148 0.621928 0.621057
O O11 0.984566 0.870306 0.745125
O O12 0.250000 0.750000 0.235797
O O13 0.117734 0.891839 0.241828
O O14 0.301228 0.104649 0.854278
#
# Coordination Sequence:
#
# PCOD9429795 Si02
#       7
#     8   8   8   8   8   4   8
#     4  10  21  38  62  86 115 155 199 249 304 366
#     4   8  16  32  54  83 121 151 186 244 304 356
#     4  11  23  40  58  83 116 159 207 250 308 362
#     4   9  19  35  58  90 117 149 197 245 301 365
#     4  10  21  36  59  88 120 154 201 256 308 369
#     4  10  18  34  56  90 124 158 192 246 316 368
#     4  11  22  39  61  81 116 163 201 249 307 363
#
# _framework density 25.648933
#
# number of rings (size 3 to 8) (size 9 to 14) (size 15 to 20)
#    0.000    2.154    1.538    2.308    0.000    2.462 
#    0.000    3.846    0.000    0.000    0.000    0.000 
#    0.000    0.000    0.000    0.000    0.000    0.000 
#
# Total GULP energy -290189.211484 kJ/mol
# GULP energy per Si atom -5580.561759 kJ/mol
# Density = 2.559056 g / cm^3
# Si number density = 25.648933 Si / 1000 Ang^3
#
#
#
# Elastic Constant Matrix: (Units=GPa)
#
#
# Indices 1 2 3 4 5 6 
#
# 1 132.7289 50.1424 0.3479 0.0000 0.0000 0.0000
# 2 50.1424 207.3995 14.1658 0.0000 0.0000 0.0000
# 3 0.3479 14.1658 27.0719 0.0000 0.0000 0.0000
# 4 0.0000 0.0000 0.0000 17.6427 0.0000 0.0000
# 5 0.0000 0.0000 0.0000 0.0000 22.6578 0.0000
# 6 0.0000 0.0000 0.0000 0.0000 0.0000 52.6923
#
#
#
# Elastic Compliance Matrix: (Units=1/GPa)
#
#
# Indices 1 2 3 4 5 6 
#
# 1 0.008316 -0.002078 0.000980 0.000000 0.000000 0.000000
# 2 -0.002078 0.005519 -0.002861 0.000000 0.000000 0.000000
# 3 0.000980 -0.002861 0.038423 0.000000 0.000000 0.000000
# 4 0.000000 0.000000 0.000000 0.056681 0.000000 0.000000
# 5 0.000000 0.000000 0.000000 0.000000 0.044135 0.000000
# 6 0.000000 0.000000 0.000000 0.000000 0.000000 0.018978
#
#
# Mechanical properties :
#
#
# Convention : Reuss Voigt Hill
#
# Bulk Modulus (GPa) = 22.55212 55.16806 38.86009
# Shear Modulus (GPa) = 25.67379 38.76815 32.22097
#
# Velocity S-wave (km/s) = 3.16724 3.89201 3.54818
# Velocity P-wave (km/s) = 4.71030 6.46162 5.65418
#
# Compressibility (1/GPa) = 0.04434172
#
# Stress axis : x y z
#
# Youngs Moduli (GPa) = 120.24337 181.18075 26.02583
#
# Poissons Ratio (x) = 0.37642 -0.02551
# Poissons Ratio (y) = 0.24982 0.07447
# Poissons Ratio (z) = -0.11787 0.51843
#
# Static dielectric constant tensor:
#      x y z
#    x 2.036880 0.000000 0.000000 
#    y 0.000000 2.025520 0.000000 
#    z 0.000000 0.000000 2.269530 
# 
# From -- ./inp_files/19470.got.cif
#   From: 2010.05.17/outbox.cif.g08.bks.cpg/sg56_10_cif.got.tgz:19470.got - 2010.06.03 13:42:01.
