data_PCOD9429919
_publ_section_title
;
Structure prediction by ZEFSAII (Michael W. Deem and Ramdas Pophale) SiO2 
 PCOD9429919
Probable space group: P C C N
;
_chemical_formula_sum "Si O2"
_cell_formula_units_Z 64
_cell_length_a 21.267807
_cell_length_b 16.002809
_cell_length_c 9.820115
_cell_angle_alpha 90.000000
_cell_angle_beta 90.000000
_cell_angle_gamma 90.000000
_cell_volume 3342.223635
_symmetry_space_group_name_H-M "P C C N"
_symmetry_group_IT_number 56
_symmetry_cell_setting 'orthorhombic'
loop_
_space_group_symop_operation_xyz
x,y,z
1/2-x,1/2-y,z
1/2+x,-y,1/2-z
-x,1/2+y,1/2-z
-x,-y,-z
1/2+x,1/2+y,-z
1/2-x,y,1/2+z
x,1/2-y,1/2+z
loop_
_atom_site_type_symbol
_atom_site_label
_atom_site_fract_x
_atom_site_fract_y
_atom_site_fract_z
Si Si1 0.133254 0.013152 0.871614
Si Si2 0.057916 0.162087 0.299992
Si Si3 0.739583 0.437042 0.610651
Si Si4 0.433762 0.178886 0.482022
Si Si5 0.919595 0.396458 0.858961
Si Si6 0.095425 0.976031 0.352776
Si Si7 0.214559 0.833922 0.647932
Si Si8 0.954176 0.071507 0.936167
O O1 0.208415 0.008622 0.868136
O O2 0.102820 0.974827 0.734609
O O3 0.105915 0.102834 0.914390
O O4 0.110240 0.945489 0.984747
O O5 0.076691 0.236278 0.400799
O O6 0.077669 0.180313 0.143973
O O7 0.982792 0.144861 0.303348
O O8 0.086505 0.075136 0.351420
O O9 0.669510 0.458102 0.658014
O O10 0.764684 0.360803 0.701931
O O11 0.734233 0.407606 0.455204
O O12 0.507501 0.155092 0.462655
O O13 0.861047 0.332303 0.858627
O O14 0.928966 0.431888 0.010556
O O15 0.058035 0.942636 0.221894
O O16 0.250000 0.750000 0.608889
O O17 0.000000 0.000000 0.000000
#
# Coordination Sequence:
#
# PCOD9429919 Si02
#       8
#     8   8   8   8   8   8   8   8
#     4  10  19  42  63  84 120 158 211 243 298 375
#     4  12  24  41  57  92 122 153 204 252 316 357
#     4  10  22  37  65  88 115 168 202 242 297 365
#     4  11  25  38  62  90 118 160 198 260 310 353
#     4  10  23  38  61  90 123 162 201 253 301 367
#     4  11  22  39  63  90 121 159 207 249 299 364
#     4  10  21  39  57  92 127 156 200 250 302 355
#     4  10  18  38  64  85 113 163 201 240 306 361
#
# _framework density 19.148928999999999
#
# number of rings (size 3 to 8) (size 9 to 14) (size 15 to 20)
#    0.000    1.500    3.750    2.250    3.500    2.000 
#    2.250    0.625    0.000    1.500    0.000    0.000 
#    0.000    0.000    0.000    0.000    0.000    0.000 
#
# Total GULP energy -357290.997888 kJ/mol
# GULP energy per Si atom -5582.671842 kJ/mol
# Density = 1.910534 g / cm^3
# Si number density = 19.148929 Si / 1000 Ang^3
#
#
#
# Elastic Constant Matrix: (Units=GPa)
#
#
# Indices 1 2 3 4 5 6 
#
# 1 63.5044 7.9324 11.7917 0.0000 0.0000 0.0000
# 2 7.9324 52.7914 11.8691 0.0000 0.0000 0.0000
# 3 11.7917 11.8691 111.2583 0.0000 0.0000 0.0000
# 4 0.0000 0.0000 0.0000 18.1111 0.0000 0.0000
# 5 0.0000 0.0000 0.0000 0.0000 24.6824 0.0000
# 6 0.0000 0.0000 0.0000 0.0000 0.0000 17.3861
#
#
#
# Elastic Compliance Matrix: (Units=1/GPa)
#
#
# Indices 1 2 3 4 5 6 
#
# 1 0.016289 -0.002110 -0.001501 0.000000 0.000000 0.000000
# 2 -0.002110 0.019681 -0.001876 0.000000 0.000000 0.000000
# 3 -0.001501 -0.001876 0.009347 0.000000 0.000000 0.000000
# 4 0.000000 0.000000 0.000000 0.055215 0.000000 0.000000
# 5 0.000000 0.000000 0.000000 0.000000 0.040515 0.000000
# 6 0.000000 0.000000 0.000000 0.000000 0.000000 0.057517
#
#
# Mechanical properties :
#
#
# Convention : Reuss Voigt Hill
#
# Bulk Modulus (GPa) = 29.11786 32.30452 30.71119
# Shear Modulus (GPa) = 22.62576 25.09999 23.86288
#
# Velocity S-wave (km/s) = 3.44112 3.62439 3.53395
# Velocity P-wave (km/s) = 5.57023 5.86700 5.72054
#
# Compressibility (1/GPa) = 0.03434318
#
# Stress axis : x y z
#
# Youngs Moduli (GPa) = 61.39012 50.80965 106.98232
#
# Poissons Ratio (x) = 0.10721 0.16061
# Poissons Ratio (y) = 0.12954 0.20070
# Poissons Ratio (z) = 0.09217 0.09532
#
# Static dielectric constant tensor:
#      x y z
#    x 1.697120 0.000000 0.000000 
#    y 0.000000 1.653550 0.000000 
#    z 0.000000 0.000000 1.673370 
# 
# From -- ./inp_files/4832.got.cif
#   From: 2010.05.17/outbox.cif.g08.bks.cpg/sg56_3_cif.got.tgz:4832.got - 2010.06.03 13:42:01.
