data_PCOD9429335
_publ_section_title
;
Structure prediction by ZEFSAII (Michael W. Deem and Ramdas Pophale) SiO2 
 PCOD9429335
Probable space group: P B A M
;
_chemical_formula_sum "Si O2"
_cell_formula_units_Z 64
_cell_length_a 30.000000
_cell_length_b 12.000000
_cell_length_c 9.000000
_cell_angle_alpha 90.000000
_cell_angle_beta 90.000000
_cell_angle_gamma 90.000000
_cell_volume 3240.000000
_symmetry_space_group_name_H-M "P B A M"
_symmetry_group_IT_number 55
_symmetry_cell_setting 'orthorhombic'
loop_
_space_group_symop_operation_xyz
x,y,z
-x,-y,z
1/2+x,1/2-y,-z
1/2-x,1/2+y,-z
-x,-y,-z
x,y,-z
1/2-x,1/2+y,z
1/2+x,1/2-y,z
loop_
_atom_site_type_symbol
_atom_site_label
_atom_site_fract_x
_atom_site_fract_y
_atom_site_fract_z
Si Si1 0.449857 0.019667 0.681014
Si Si2 0.696383 0.977033 0.330065
Si Si3 0.921904 0.722397 0.320848
Si Si4 0.618345 0.801204 0.321867
Si Si5 0.041484 0.075512 0.821909
Si Si6 0.629744 0.561446 0.179336
Si Si7 0.325002 0.765892 0.671308
Si Si8 0.715277 0.424430 0.825328
O O1 0.449438 0.024048 0.500000
O O2 0.425484 0.905859 0.724155
O O3 0.500000 0.000000 0.730317
O O4 0.425410 0.131292 0.730812
O O5 0.711229 0.955787 0.500000
O O6 0.677806 0.101663 0.324878
O O7 0.659044 0.886226 0.294376
O O8 0.737962 0.972088 0.223200
O O9 0.923594 0.725974 0.500000
O O10 0.873752 0.765171 0.269971
O O11 0.958290 0.804088 0.253944
O O12 0.615412 0.784852 0.500000
O O13 0.625736 0.684550 0.244064
O O14 0.086091 0.008954 0.779117
O O15 0.041111 0.089459 0.000000
O O16 0.000000 0.000000 0.777976
O O17 0.674427 0.499455 0.233396
O O18 0.631046 0.567595 0.000000
O O19 0.321294 0.731289 0.500000
O O20 0.288763 0.699951 0.762456
O O21 0.711011 0.420590 0.000000
#
# Coordination Sequence:
#
# PCOD9429335 Si02
#       8
#     8   8   8   8   8   8   8   8
#     4   9  18  34  57  87 119 147 179 229 287 332
#     4  10  22  40  60  85 116 149 189 234 285 340
#     4  10  19  35  61  88 113 143 188 239 281 330
#     4  10  21  38  60  85 114 151 189 228 281 342
#     4  10  22  40  59  80 114 157 192 229 283 337
#     4  10  23  41  56  79 117 153 186 233 284 332
#     4  10  20  38  62  85 113 147 188 238 286 336
#     4  11  24  40  59  84 115 150 192 236 285 338
#
# _framework density 19.753086
#
# number of rings (size 3 to 8) (size 9 to 14) (size 15 to 20)
#    0.000    2.000    2.500    0.375    3.500    2.750 
#    0.000    0.625    0.000    0.750    0.000    0.000 
#    0.000    0.000    0.000    0.000    0.000    0.000 
#
# Total GULP energy -356936.159392 kJ/mol
# GULP energy per Si atom -5577.127490 kJ/mol
# Density = 1.970813 g / cm^3
# Si number density = 19.753086 Si / 1000 Ang^3
#
#
#
# Elastic Constant Matrix: (Units=GPa)
#
#
# Indices 1 2 3 4 5 6 
#
# 1 41.3490 8.2539 27.3494 0.0000 0.0000 0.0000
# 2 8.2539 77.5838 20.4820 0.0000 0.0000 0.0000
# 3 27.3494 20.4820 2.5779 0.0000 0.0000 0.0000
# 4 0.0000 0.0000 0.0000 37.7225 0.0000 0.0000
# 5 0.0000 0.0000 0.0000 0.0000 16.7778 0.0000
# 6 0.0000 0.0000 0.0000 0.0000 0.0000 13.5403
#
#
#
# Elastic Compliance Matrix: (Units=1/GPa)
#
#
# Indices 1 2 3 4 5 6 
#
# 1 0.003782 -0.009285 0.033648 0.000000 0.000000 0.000000
# 2 -0.009285 0.011052 0.010703 0.000000 0.000000 0.000000
# 3 0.033648 0.010703 -0.054102 0.000000 0.000000 0.000000
# 4 0.000000 0.000000 0.000000 0.026509 0.000000 0.000000
# 5 0.000000 0.000000 0.000000 0.000000 0.059603 0.000000
# 6 0.000000 0.000000 0.000000 0.000000 0.000000 0.073854
#
#
# Mechanical properties :
#
#
# Convention : Reuss Voigt Hill
#
# Bulk Modulus (GPa) = 32.40102 25.96459 29.18281
# Shear Modulus (GPa) = 82.16314 17.96981 50.06648
#
# Velocity S-wave (km/s) = 6.45642 3.01943 5.03996
# Velocity P-wave (km/s) = 8.48641 5.03280 6.97668
#
# Compressibility (1/GPa) = 0.03086322
#
# Stress axis : x y z
#
# Youngs Moduli (GPa) = 264.38978 90.48514 -18.48371
#
# Poissons Ratio (x) = 0.84019 0.62194
# Poissons Ratio (y) = 2.45496 0.19783
# Poissons Ratio (z) = -8.89614 -0.96847
#
# Static dielectric constant tensor:
#      x y z
#    x 1.684070 0.000000 0.000000 
#    y 0.000000 1.673770 0.000000 
#    z 0.000000 0.000000 1.668010 
# 
# From -- ./inp_files/4621.got.cif
#   From: 2010.05.17/outbox.ucp.g08.bks.cvg/sg55_3_cif.got.tgz:4621.got - 2010.06.11 16:36:00.
