data_PCOD9429045
_publ_section_title
;
Structure prediction by ZEFSAII (Michael W. Deem and Ramdas Pophale) SiO2 
 PCOD9429045
Probable space group: P B A M
;
_chemical_formula_sum "Si O2"
_cell_formula_units_Z 64
_cell_length_a 19.558732
_cell_length_b 17.749571
_cell_length_c 8.958244
_cell_angle_alpha 90.000000
_cell_angle_beta 90.000000
_cell_angle_gamma 90.000000
_cell_volume 3109.935945
_symmetry_space_group_name_H-M "P B A M"
_symmetry_group_IT_number 55
_symmetry_cell_setting 'orthorhombic'
loop_
_space_group_symop_operation_xyz
x,y,z
-x,-y,z
1/2+x,1/2-y,-z
1/2-x,1/2+y,-z
-x,-y,-z
x,y,-z
1/2-x,1/2+y,z
1/2+x,1/2-y,z
loop_
_atom_site_type_symbol
_atom_site_label
_atom_site_fract_x
_atom_site_fract_y
_atom_site_fract_z
Si Si1 0.776664 0.085397 0.335621
Si Si2 0.699848 0.229496 0.682709
Si Si3 0.493372 0.623463 0.825343
Si Si4 0.546413 0.772843 0.676606
Si Si5 0.109495 0.005591 0.172288
Si Si6 0.633638 0.999195 0.331368
Si Si7 0.927213 0.640958 0.177844
Si Si8 0.188565 0.659916 0.319847
O O1 0.806515 0.099066 0.500000
O O2 0.755806 0.166032 0.271002
O O3 0.704270 0.044490 0.347774
O O4 0.826181 0.029817 0.251163
O O5 0.693307 0.227190 0.500000
O O6 0.628834 0.200263 0.752888
O O7 0.737542 0.307424 0.727822
O O8 0.518163 0.692752 0.729117
O O9 0.551591 0.559305 0.822841
O O10 0.424934 0.582016 0.767843
O O11 0.484163 0.645562 0.000000
O O12 0.536900 0.783030 0.500000
O O13 0.500880 0.833667 0.763224
O O14 0.626646 0.782268 0.709451
O O15 0.125524 0.019898 0.000000
O O16 0.604935 0.987759 0.500000
O O17 0.588142 0.056535 0.236345
O O18 0.658170 0.919557 0.264699
O O19 0.922492 0.644085 0.000000
O O20 0.194509 0.651215 0.500000
#
# Coordination Sequence:
#
# PCOD9429045 Si02
#       8
#     8   8   8   8   8   8   8   8
#     4   9  17  29  50  78 107 136 174 221 267 316
#     4   9  18  36  59  84 112 143 179 224 274 327
#     4   9  19  35  50  72 107 145 180 218 266 324
#     4  11  22  37  58  83 108 142 185 231 279 328
#     4   9  18  32  51  73 106 147 180 214 265 323
#     4   9  19  38  58  78 105 139 177 222 273 325
#     4  11  23  39  57  81 113 149 185 225 271 326
#     4   9  19  36  61  87 110 138 181 231 276 322
#
# _framework density 20.579203
#
# number of rings (size 3 to 8) (size 9 to 14) (size 15 to 20)
#    0.000    2.500    0.000    3.750    0.000    5.500 
#    0.000    8.125    0.000    0.000    0.000    0.000 
#    0.000    0.000    0.000    0.000    0.000    0.000 
#
# Total GULP energy -356788.181679 kJ/mol
# GULP energy per Si atom -5574.815339 kJ/mol
# Density = 2.053236 g / cm^3
# Si number density = 20.579203 Si / 1000 Ang^3
#
#
#
# Elastic Constant Matrix: (Units=GPa)
#
#
# Indices 1 2 3 4 5 6 
#
# 1 27.6363 -6.2791 3.5207 0.0000 0.0000 0.0000
# 2 -6.2791 53.3959 1.8663 0.0000 0.0000 0.0000
# 3 3.5207 1.8663 42.5472 0.0000 0.0000 0.0000
# 4 0.0000 0.0000 0.0000 39.9131 0.0000 0.0000
# 5 0.0000 0.0000 0.0000 0.0000 35.6792 0.0000
# 6 0.0000 0.0000 0.0000 0.0000 0.0000 24.3909
#
#
#
# Elastic Compliance Matrix: (Units=1/GPa)
#
#
# Indices 1 2 3 4 5 6 
#
# 1 0.037638 0.004542 -0.003314 0.000000 0.000000 0.000000
# 2 0.004542 0.019305 -0.001223 0.000000 0.000000 0.000000
# 3 -0.003314 -0.001223 0.023831 0.000000 0.000000 0.000000
# 4 0.000000 0.000000 0.000000 0.025054 0.000000 0.000000
# 5 0.000000 0.000000 0.000000 0.000000 0.028028 0.000000
# 6 0.000000 0.000000 0.000000 0.000000 0.000000 0.040999
#
#
# Mechanical properties :
#
#
# Convention : Reuss Voigt Hill
#
# Bulk Modulus (GPa) = 12.37844 13.53278 12.95561
# Shear Modulus (GPa) = 24.78036 28.29474 26.53755
#
# Velocity S-wave (km/s) = 3.47384 3.71201 3.59490
# Velocity P-wave (km/s) = 4.70300 4.99623 4.85183
#
# Compressibility (1/GPa) = 0.08078563
#
# Stress axis : x y z
#
# Youngs Moduli (GPa) = 26.56859 51.80038 41.96192
#
# Poissons Ratio (x) = -0.23527 0.13905
# Poissons Ratio (y) = -0.12067 0.05130
# Poissons Ratio (z) = 0.08804 0.06333
#
# Static dielectric constant tensor:
#      x y z
#    x 1.686130 0.000000 0.000000 
#    y 0.000000 1.817680 0.000000 
#    z 0.000000 0.000000 1.714720 
# 
# From -- ./inp_files/9055.got.cif
#   From: 2010.05.17/outbox.cif.g08.bks.cpg/sg55_5_cif.got.tgz:9055.got - 2010.06.03 13:27:54.
