data_PCOD9429506
_publ_section_title
;
Structure prediction by ZEFSAII (Michael W. Deem and Ramdas Pophale) SiO2 
 PCOD9429506
Probable space group: P C C N
;
_chemical_formula_sum "Si O2"
_cell_formula_units_Z 48
_cell_length_a 13.239810
_cell_length_b 31.919335
_cell_length_c 5.581819
_cell_angle_alpha 90.000000
_cell_angle_beta 90.000000
_cell_angle_gamma 90.000000
_cell_volume 2358.909814
_symmetry_space_group_name_H-M "P C C N"
_symmetry_group_IT_number 56
_symmetry_cell_setting 'orthorhombic'
loop_
_space_group_symop_operation_xyz
x,y,z
1/2-x,1/2-y,z
1/2+x,-y,1/2-z
-x,1/2+y,1/2-z
-x,-y,-z
1/2+x,1/2+y,-z
1/2-x,y,1/2+z
x,1/2-y,1/2+z
loop_
_atom_site_type_symbol
_atom_site_label
_atom_site_fract_x
_atom_site_fract_y
_atom_site_fract_z
Si Si1 0.140229 0.600762 0.748235
Si Si2 0.868346 0.133830 0.249648
Si Si3 0.340525 0.986641 0.514972
Si Si4 0.206922 0.066174 0.468164
Si Si5 0.506932 0.962792 0.187021
Si Si6 0.866732 0.233428 0.300052
O O1 0.093010 0.612117 0.005197
O O2 0.250145 0.621921 0.763367
O O3 0.161392 0.551528 0.705079
O O4 0.087499 0.619084 0.508176
O O5 0.872293 0.183589 0.276963
O O6 0.393757 0.961979 0.293901
O O7 0.244442 0.016657 0.467922
O O8 0.421949 0.021902 0.592511
O O9 0.242165 0.083355 0.724968
O O10 0.086755 0.068415 0.438016
O O11 0.500000 0.000000 0.000000
O O12 0.750000 0.250000 0.307581
O O13 0.911231 0.252779 0.055933
#
# Coordination Sequence:
#
# PCOD9429506 Si02
#       6
#     8   8   8   8   8   8
#     4  10  20  28  42  56  86 104 135 178 220 274
#     4  10  20  29  40  66  80 108 146 174 214 278
#     4  10  22  32  46  66  83 117 139 186 245 277
#     4  10  20  31  49  63  82 104 139 173 230 278
#     4  10  20  33  47  63  85 104 152 178 223 306
#     4  10  16  26  43  55  80 109 135 174 217 239
#
# _framework density 20.348385
#
# number of rings (size 3 to 8) (size 9 to 14) (size 15 to 20)
#    0.000    2.000    1.667    5.000   11.667    0.000 
#    0.000    0.000    0.000    0.000    0.000    0.000 
#    0.000    0.000    0.000    0.000    0.000    0.000 
#
# Total GULP energy -267261.720766 kJ/mol
# GULP energy per Si atom -5567.952516 kJ/mol
# Density = 2.030207 g / cm^3
# Si number density = 20.348385 Si / 1000 Ang^3
#
#
#
# Elastic Constant Matrix: (Units=GPa)
#
#
# Indices 1 2 3 4 5 6 
#
# 1 74.4920 12.9621 13.4265 0.0000 0.0000 0.0000
# 2 12.9621 49.7456 9.9996 0.0000 0.0000 0.0000
# 3 13.4265 9.9996 164.8790 0.0000 0.0000 0.0000
# 4 0.0000 0.0000 0.0000 27.6524 0.0000 0.0000
# 5 0.0000 0.0000 0.0000 0.0000 16.5410 0.0000
# 6 0.0000 0.0000 0.0000 0.0000 0.0000 7.1801
#
#
#
# Elastic Compliance Matrix: (Units=1/GPa)
#
#
# Indices 1 2 3 4 5 6 
#
# 1 0.014205 -0.003512 -0.000944 0.000000 0.000000 0.000000
# 2 -0.003512 0.021219 -0.001001 0.000000 0.000000 0.000000
# 3 -0.000944 -0.001001 0.006203 0.000000 0.000000 0.000000
# 4 0.000000 0.000000 0.000000 0.036163 0.000000 0.000000
# 5 0.000000 0.000000 0.000000 0.000000 0.060456 0.000000
# 6 0.000000 0.000000 0.000000 0.000000 0.000000 0.139274
#
#
# Mechanical properties :
#
#
# Convention : Reuss Voigt Hill
#
# Bulk Modulus (GPa) = 32.55878 40.21032 36.38455
# Shear Modulus (GPa) = 16.74087 27.12324 21.93206
#
# Velocity S-wave (km/s) = 2.87141 3.65491 3.28659
# Velocity P-wave (km/s) = 5.19891 6.13311 5.68523
#
# Compressibility (1/GPa) = 0.03071369
#
# Stress axis : x y z
#
# Youngs Moduli (GPa) = 70.39551 47.12861 161.22235
#
# Poissons Ratio (x) = 0.16550 0.15216
# Poissons Ratio (y) = 0.24721 0.16137
# Poissons Ratio (z) = 0.06644 0.04717
#
# Static dielectric constant tensor:
#      x y z
#    x 1.968010 0.000000 0.000000 
#    y 0.000000 1.737560 0.000000 
#    z 0.000000 0.000000 1.973880 
# 
# From -- ./inp_files/561.got.cif
#   From: 2010.05.17/outbox.cif.g08.bks.cpg/sg56_1_cif.got.tgz:561.got - 2010.06.03 13:42:01.
