data_PCOD9429926
_publ_section_title
;
Structure prediction by ZEFSAII (Michael W. Deem and Ramdas Pophale) SiO2 
 PCOD9429926
Probable space group: P C C N
;
_chemical_formula_sum "Si O2"
_cell_formula_units_Z 40
_cell_length_a 11.219206
_cell_length_b 9.064508
_cell_length_c 20.264158
_cell_angle_alpha 90.000000
_cell_angle_beta 90.000000
_cell_angle_gamma 90.000000
_cell_volume 2060.795617
_symmetry_space_group_name_H-M "P C C N"
_symmetry_group_IT_number 56
_symmetry_cell_setting 'orthorhombic'
loop_
_space_group_symop_operation_xyz
x,y,z
1/2-x,1/2-y,z
1/2+x,-y,1/2-z
-x,1/2+y,1/2-z
-x,-y,-z
1/2+x,1/2+y,-z
1/2-x,y,1/2+z
x,1/2-y,1/2+z
loop_
_atom_site_type_symbol
_atom_site_label
_atom_site_fract_x
_atom_site_fract_y
_atom_site_fract_z
Si Si1 0.703281 0.523071 0.618635
Si Si2 0.523570 0.532692 0.168179
Si Si3 0.382344 0.196858 0.752787
Si Si4 0.750000 0.250000 0.549323
Si Si5 0.383636 0.521233 0.042591
Si Si6 0.750000 0.750000 0.506887
O O1 0.846424 0.512069 0.633786
O O2 0.644412 0.590081 0.684052
O O3 0.670311 0.358240 0.595206
O O4 0.683178 0.640494 0.559083
O O5 0.548208 0.660758 0.220527
O O6 0.465878 0.390393 0.202451
O O7 0.426341 0.576092 0.113356
O O8 0.250000 0.250000 0.729340
O O9 0.810863 0.362269 0.499349
O O10 0.500000 0.500000 0.000000
O O11 0.320939 0.362215 0.039499
#
# Coordination Sequence:
#
# PCOD9429926 Si02
#       6
#     8   8   8   4   8   4
#     4  10  19  42  63  84 122 159 203 243 309 363
#     4  11  22  41  64  87 124 161 205 248 305 360
#     4  10  23  42  61  89 119 162 203 255 298 363
#     4  10  22  36  64  92 114 162 198 248 304 364
#     4  11  21  40  62  89 123 155 202 249 303 361
#     4  10  18  38  66  82 118 164 186 252 304 354
#
# _framework density 19.409979
#
# number of rings (size 3 to 8) (size 9 to 14) (size 15 to 20)
#    0.000    1.600    7.000    0.000    4.200    0.000 
#    7.200    9.000    0.000    0.000    0.000    0.000 
#    0.000    0.000    0.000    0.000    0.000    0.000 
#
# Total GULP energy -222816.037387 kJ/mol
# GULP energy per Si atom -5570.400935 kJ/mol
# Density = 1.936580 g / cm^3
# Si number density = 19.409979 Si / 1000 Ang^3
#
#
#
# Elastic Constant Matrix: (Units=GPa)
#
#
# Indices 1 2 3 4 5 6 
#
# 1 63.7506 36.4135 15.9841 0.0000 0.0000 0.0000
# 2 36.4135 119.3540 6.5063 0.0000 0.0000 0.0000
# 3 15.9841 6.5063 30.8573 0.0000 0.0000 0.0000
# 4 0.0000 0.0000 0.0000 10.6660 0.0000 0.0000
# 5 0.0000 0.0000 0.0000 0.0000 16.4499 0.0000
# 6 0.0000 0.0000 0.0000 0.0000 0.0000 21.0595
#
#
#
# Elastic Compliance Matrix: (Units=1/GPa)
#
#
# Indices 1 2 3 4 5 6 
#
# 1 0.021637 -0.006060 -0.009930 0.000000 0.000000 0.000000
# 2 -0.006060 0.010173 0.000994 0.000000 0.000000 0.000000
# 3 -0.009930 0.000994 0.037342 0.000000 0.000000 0.000000
# 4 0.000000 0.000000 0.000000 0.093756 0.000000 0.000000
# 5 0.000000 0.000000 0.000000 0.000000 0.060791 0.000000
# 6 0.000000 0.000000 0.000000 0.000000 0.000000 0.047485
#
#
# Mechanical properties :
#
#
# Convention : Reuss Voigt Hill
#
# Bulk Modulus (GPa) = 25.53669 36.86332 31.20001
# Shear Modulus (GPa) = 15.91200 19.97229 17.94214
#
# Velocity S-wave (km/s) = 2.86629 3.21124 3.04366
# Velocity P-wave (km/s) = 4.91317 5.72561 5.33487
#
# Compressibility (1/GPa) = 0.03915934
#
# Stress axis : x y z
#
# Youngs Moduli (GPa) = 46.21641 98.29875 26.77983
#
# Poissons Ratio (x) = 0.59569 0.26593
# Poissons Ratio (y) = 0.28007 -0.02662
# Poissons Ratio (z) = 0.45895 -0.09771
#
# Static dielectric constant tensor:
#      x y z
#    x 6.011290 0.000000 0.000000 
#    y 0.000000 1.681770 0.000000 
#    z 0.000000 0.000000 1.768270 
# 
# From -- ./inp_files/14494.got.cif
#   From: 2010.05.17/outbox.cif.g08.bks.cpg/sg56_8_cif.got.tgz:14494.got - 2010.06.03 13:42:01.
