data_PCOD9429679
_publ_section_title
;
Structure prediction by ZEFSAII (Michael W. Deem and Ramdas Pophale) SiO2 
 PCOD9429679
Probable space group: P C C N
;
_chemical_formula_sum "Si O2"
_cell_formula_units_Z 48
_cell_length_a 14.598144
_cell_length_b 8.923063
_cell_length_c 16.531504
_cell_angle_alpha 90.000000
_cell_angle_beta 90.000000
_cell_angle_gamma 90.000000
_cell_volume 2153.396333
_symmetry_space_group_name_H-M "P C C N"
_symmetry_group_IT_number 56
_symmetry_cell_setting 'orthorhombic'
loop_
_space_group_symop_operation_xyz
x,y,z
1/2-x,1/2-y,z
1/2+x,-y,1/2-z
-x,1/2+y,1/2-z
-x,-y,-z
1/2+x,1/2+y,-z
1/2-x,y,1/2+z
x,1/2-y,1/2+z
loop_
_atom_site_type_symbol
_atom_site_label
_atom_site_fract_x
_atom_site_fract_y
_atom_site_fract_z
Si Si1 0.883347 0.633503 0.543499
Si Si2 0.814191 0.614180 0.717035
Si Si3 0.065652 0.096156 0.555666
Si Si4 0.590621 0.430328 0.895232
Si Si5 0.145138 0.863104 0.681559
Si Si6 0.024833 0.290192 0.701269
O O1 0.821068 0.604566 0.620852
O O2 0.874158 0.794037 0.500029
O O3 0.869173 0.510877 0.474158
O O4 0.989380 0.625395 0.575576
O O5 0.750000 0.750000 0.741900
O O6 0.789038 0.457669 0.759058
O O7 0.911762 0.676352 0.748739
O O8 0.007789 0.203741 0.616572
O O9 0.121746 0.982625 0.611579
O O10 0.000000 0.000000 0.500000
O O11 0.652749 0.296041 0.862536
O O12 0.574187 0.557104 0.827129
O O13 0.060058 0.831818 0.742938
#
# Coordination Sequence:
#
# PCOD9429679 Si02
#       6
#     8   8   8   8   8   8
#     4  10  19  33  54  88 122 151 192 256 311 360
#     4  11  23  39  58  86 122 164 203 252 320 370
#     4  10  18  29  53  88 120 147 195 252 299 353
#     4  10  18  32  57  87 119 148 203 253 300 356
#     4  11  19  34  59  89 114 156 201 255 301 367
#     4  10  19  34  56  88 122 156 203 251 301 370
#
# _framework density 22.290369999999999
#
# number of rings (size 3 to 8) (size 9 to 14) (size 15 to 20)
#    0.000    1.667    5.000    1.000    0.000    0.000 
#    0.000    8.333    0.000    0.000    0.000    0.000 
#    0.000    0.000    0.000    0.000    0.000    0.000 
#
# Total GULP energy -268106.940389 kJ/mol
# GULP energy per Si atom -5585.561258 kJ/mol
# Density = 2.223964 g / cm^3
# Si number density = 22.290370 Si / 1000 Ang^3
#
#
#
# Elastic Constant Matrix: (Units=GPa)
#
#
# Indices 1 2 3 4 5 6 
#
# 1 26.3017 20.4602 15.2901 0.0000 0.0000 0.0000
# 2 20.4602 168.8711 72.5934 0.0000 0.0000 0.0000
# 3 15.2901 72.5934 139.8191 0.0000 0.0000 0.0000
# 4 0.0000 0.0000 0.0000 46.1196 0.0000 0.0000
# 5 0.0000 0.0000 0.0000 0.0000 12.1152 0.0000
# 6 0.0000 0.0000 0.0000 0.0000 0.0000 30.0825
#
#
#
# Elastic Compliance Matrix: (Units=1/GPa)
#
#
# Indices 1 2 3 4 5 6 
#
# 1 0.042672 -0.004073 -0.002552 0.000000 0.000000 0.000000
# 2 -0.004073 0.008012 -0.003714 0.000000 0.000000 0.000000
# 3 -0.002552 -0.003714 0.009360 0.000000 0.000000 0.000000
# 4 0.000000 0.000000 0.000000 0.021683 0.000000 0.000000
# 5 0.000000 0.000000 0.000000 0.000000 0.082541 0.000000
# 6 0.000000 0.000000 0.000000 0.000000 0.000000 0.033242
#
#
# Mechanical properties :
#
#
# Convention : Reuss Voigt Hill
#
# Bulk Modulus (GPa) = 25.40308 61.29771 43.35039
# Shear Modulus (GPa) = 21.61608 32.77335 27.19472
#
# Velocity S-wave (km/s) = 3.11746 3.83860 3.49667
# Velocity P-wave (km/s) = 4.93753 6.87065 5.98268
#
# Compressibility (1/GPa) = 0.03936531
#
# Stress axis : x y z
#
# Youngs Moduli (GPa) = 23.43445 124.81501 106.84234
#
# Poissons Ratio (x) = 0.50840 0.27263
# Poissons Ratio (y) = 0.09545 0.39684
# Poissons Ratio (z) = 0.05980 0.46360
#
# Static dielectric constant tensor:
#      x y z
#    x 1.888330 0.000000 0.000000 
#    y 0.000000 1.852710 0.000000 
#    z 0.000000 0.000000 1.815940 
# 
# From -- ./inp_files/10639.got.cif
#   From: 2010.05.17/outbox.cif.g08.bks.cpg/sg56_6_cif.got.tgz:10639.got - 2010.06.03 13:42:01.
