data_PCOD9429444
_publ_section_title
;
Structure prediction by ZEFSAII (Michael W. Deem and Ramdas Pophale) SiO2 
 PCOD9429444
Probable space group: P B A M
;
_chemical_formula_sum "Si O2"
_cell_formula_units_Z 64
_cell_length_a 18.000000
_cell_length_b 21.000000
_cell_length_c 9.000000
_cell_angle_alpha 90.000000
_cell_angle_beta 90.000000
_cell_angle_gamma 90.000000
_cell_volume 3402.000000
_symmetry_space_group_name_H-M "P B A M"
_symmetry_group_IT_number 55
_symmetry_cell_setting 'orthorhombic'
loop_
_space_group_symop_operation_xyz
x,y,z
-x,-y,z
1/2+x,1/2-y,-z
1/2-x,1/2+y,-z
-x,-y,-z
x,y,-z
1/2-x,1/2+y,z
1/2+x,1/2-y,z
loop_
_atom_site_type_symbol
_atom_site_label
_atom_site_fract_x
_atom_site_fract_y
_atom_site_fract_z
Si Si1 0.146597 0.323318 0.678619
Si Si2 0.820581 0.537429 0.824171
Si Si3 0.586302 0.406068 0.325705
Si Si4 0.554600 0.659365 0.177736
Si Si5 0.274336 0.690728 0.324513
Si Si6 0.526823 0.795383 0.321616
Si Si7 0.640776 0.891134 0.820315
Si Si8 0.643410 0.534527 0.824538
O O1 0.154635 0.329074 0.500000
O O2 0.158460 0.394424 0.747662
O O3 0.200200 0.262843 0.723889
O O4 0.061587 0.301255 0.709209
O O5 0.852222 0.466880 0.776258
O O6 0.731813 0.530513 0.806752
O O7 0.837854 0.543831 0.000000
O O8 0.565443 0.409495 0.500000
O O9 0.520744 0.375268 0.229983
O O10 0.655294 0.357074 0.313695
O O11 0.606749 0.476458 0.266094
O O12 0.557533 0.728254 0.256835
O O13 0.616425 0.605796 0.216927
O O14 0.556077 0.669111 0.000000
O O15 0.253861 0.694979 0.500000
O O16 0.209157 0.653512 0.237023
O O17 0.536963 0.796084 0.500000
O O18 0.569340 0.855140 0.247899
O O19 0.639537 0.889750 0.000000
O O20 0.625334 0.525788 0.000000
#
# Coordination Sequence:
#
# PCOD9429444 Si02
#       8
#     8   8   8   8   8   8   8   8
#     4  10  23  43  65  90 122 160 204 251 306 365
#     4  10  23  42  63  90 124 160 204 258 308 364
#     4  11  21  37  62  90 125 165 208 252 305 368
#     4  11  23  38  60  90 127 167 208 253 305 369
#     4  10  21  40  63  91 123 159 203 251 300 363
#     4  11  24  44  65  90 125 161 205 259 308 365
#     4  11  24  42  65  93 123 160 205 251 308 367
#     4  10  22  40  58  87 127 164 205 252 305 367
#
# _framework density 18.812463000000001
#
# number of rings (size 3 to 8) (size 9 to 14) (size 15 to 20)
#    0.000    1.500    2.500    1.875    1.750    6.500 
#    0.000    2.500    0.000    0.000    0.000    0.000 
#    0.000    0.000    0.000    0.000    0.000    0.000 
#
# Total GULP energy -357266.301413 kJ/mol
# GULP energy per Si atom -5582.285960 kJ/mol
# Density = 1.876965 g / cm^3
# Si number density = 18.812463 Si / 1000 Ang^3
#
#
#
# Elastic Constant Matrix: (Units=GPa)
#
#
# Indices 1 2 3 4 5 6 
#
# 1 33.1815 21.9829 13.3141 0.0000 0.0000 0.0000
# 2 21.9829 185.3809 45.8079 0.0000 0.0000 0.0000
# 3 13.3141 45.8079 61.9687 0.0000 0.0000 0.0000
# 4 0.0000 0.0000 0.0000 46.4124 0.0000 0.0000
# 5 0.0000 0.0000 0.0000 0.0000 30.8216 0.0000
# 6 0.0000 0.0000 0.0000 0.0000 0.0000 42.0514
#
#
#
# Elastic Compliance Matrix: (Units=1/GPa)
#
#
# Indices 1 2 3 4 5 6 
#
# 1 0.034074 -0.002730 -0.005303 0.000000 0.000000 0.000000
# 2 -0.002730 0.006819 -0.004454 0.000000 0.000000 0.000000
# 3 -0.005303 -0.004454 0.020569 0.000000 0.000000 0.000000
# 4 0.000000 0.000000 0.000000 0.021546 0.000000 0.000000
# 5 0.000000 0.000000 0.000000 0.000000 0.032445 0.000000
# 6 0.000000 0.000000 0.000000 0.000000 0.000000 0.023780
#
#
# Mechanical properties :
#
#
# Convention : Reuss Voigt Hill
#
# Bulk Modulus (GPa) = 27.40637 49.19341 38.29989
# Shear Modulus (GPa) = 28.34981 37.15217 32.75099
#
# Velocity S-wave (km/s) = 3.88618 4.44877 4.17696
# Velocity P-wave (km/s) = 5.89376 7.25223 6.60800
#
# Compressibility (1/GPa) = 0.03648787
#
# Stress axis : x y z
#
# Youngs Moduli (GPa) = 29.34809 146.65783 48.61756
#
# Poissons Ratio (x) = 0.40042 0.25780
# Poissons Ratio (y) = 0.08013 0.21653
# Poissons Ratio (z) = 0.15562 0.65318
#
# Static dielectric constant tensor:
#      x y z
#    x 1.674070 0.000000 0.000000 
#    y 0.000000 1.639900 0.000000 
#    z 0.000000 0.000000 1.641580 
# 
# From -- ./inp_files/8071.got.cif
#   From: 2010.05.17/outbox.ucp.g08.bks.cvg/sg55_5_cif.got.tgz:8071.got - 2010.06.11 16:36:00.
