data_PCOD9429239
_publ_section_title
;
Structure prediction by ZEFSAII (Michael W. Deem and Ramdas Pophale) SiO2 
 PCOD9429239
Probable space group: P B A M
;
_chemical_formula_sum "Si O2"
_cell_formula_units_Z 48
_cell_length_a 9.418495
_cell_length_b 33.371682
_cell_length_c 7.479143
_cell_angle_alpha 90.000000
_cell_angle_beta 90.000000
_cell_angle_gamma 90.000000
_cell_volume 2350.777065
_symmetry_space_group_name_H-M "P B A M"
_symmetry_group_IT_number 55
_symmetry_cell_setting 'orthorhombic'
loop_
_space_group_symop_operation_xyz
x,y,z
-x,-y,z
1/2+x,1/2-y,-z
1/2-x,1/2+y,-z
-x,-y,-z
x,y,-z
1/2-x,1/2+y,z
1/2+x,1/2-y,z
loop_
_atom_site_type_symbol
_atom_site_label
_atom_site_fract_x
_atom_site_fract_y
_atom_site_fract_z
Si Si1 0.075339 0.211093 0.219881
Si Si2 0.598049 0.788045 0.785510
Si Si3 0.075542 0.538968 0.291189
Si Si4 0.384548 0.124776 0.287835
Si Si5 0.444391 0.624860 0.797049
Si Si6 0.909026 0.961816 0.217522
O O1 0.239106 0.214163 0.277393
O O2 0.014188 0.168004 0.281337
O O3 0.990709 0.250157 0.279148
O O4 0.074303 0.210018 0.000000
O O5 0.542041 0.832517 0.741221
O O6 0.600509 0.785469 0.000000
O O7 0.034672 0.539914 0.500000
O O8 0.043129 0.583815 0.221045
O O9 0.245588 0.534570 0.275817
O O10 0.000000 0.500000 0.210555
O O11 0.360090 0.120316 0.500000
O O12 0.228388 0.127010 0.200313
O O13 0.471400 0.580947 0.717397
O O14 0.498923 0.623983 0.000000
O O15 0.908418 0.960434 0.000000
O O16 0.000000 0.000000 0.274104
#
# Coordination Sequence:
#
# PCOD9429239 Si02
#       6
#     8   8   8   8   8   8
#     4   8  14  25  43  62  80 107 142 172 199 241
#     4   9  16  28  44  62  83 109 141 174 208 249
#     4   9  18  32  48  65  87 118 154 186 216 259
#     4   9  16  27  44  64  84 109 142 177 213 253
#     4   8  14  27  45  62  84 115 145 172 206 253
#     4   9  17  29  46  70  96 117 142 182 228 267
#
# _framework density 20.418779000000001
#
# number of rings (size 3 to 8) (size 9 to 14) (size 15 to 20)
#    0.000    3.333    0.000    1.500    0.000    1.333 
#    0.000    5.000    0.000    4.000    0.000    0.000 
#    0.000    0.000    0.000    0.000    0.000    0.000 
#
# Total GULP energy -267231.827457 kJ/mol
# GULP energy per Si atom -5567.329739 kJ/mol
# Density = 2.037230 g / cm^3
# Si number density = 20.418779 Si / 1000 Ang^3
#
#
#
# Elastic Constant Matrix: (Units=GPa)
#
#
# Indices 1 2 3 4 5 6 
#
# 1 27.6485 63.5028 -5.2540 0.0000 0.0000 0.0000
# 2 63.5028 277.8954 -0.0631 0.0000 0.0000 0.0000
# 3 -5.2540 -0.0631 63.0801 0.0000 0.0000 0.0000
# 4 0.0000 0.0000 0.0000 10.9025 0.0000 0.0000
# 5 0.0000 0.0000 0.0000 0.0000 6.7256 0.0000
# 6 0.0000 0.0000 0.0000 0.0000 0.0000 38.2774
#
#
#
# Elastic Compliance Matrix: (Units=1/GPa)
#
#
# Indices 1 2 3 4 5 6 
#
# 1 0.078727 -0.017989 0.006539 0.000000 0.000000 0.000000
# 2 -0.017989 0.007709 -0.001491 0.000000 0.000000 0.000000
# 3 0.006539 -0.001491 0.016396 0.000000 0.000000 0.000000
# 4 0.000000 0.000000 0.000000 0.091722 0.000000 0.000000
# 5 0.000000 0.000000 0.000000 0.000000 0.148686 0.000000
# 6 0.000000 0.000000 0.000000 0.000000 0.000000 0.026125
#
#
# Mechanical properties :
#
#
# Convention : Reuss Voigt Hill
#
# Bulk Modulus (GPa) = 12.99512 53.88838 33.44175
# Shear Modulus (GPa) = 11.87941 31.87699 21.87820
#
# Velocity S-wave (km/s) = 2.41465 3.95544 3.27689
# Velocity P-wave (km/s) = 3.76193 6.87819 5.54354
#
# Compressibility (1/GPa) = 0.07695199
#
# Stress axis : x y z
#
# Youngs Moduli (GPa) = 12.70208 129.72190 60.99039
#
# Poissons Ratio (x) = 2.33353 -0.39883
# Poissons Ratio (y) = 0.22849 0.09091
# Poissons Ratio (z) = -0.08306 0.19336
#
# Static dielectric constant tensor:
#      x y z
#    x 1.665770 0.000000 0.000000 
#    y 0.000000 1.815060 0.000000 
#    z 0.000000 0.000000 1.783480 
# 
# From -- ./inp_files/4166.got.cif
#   From: 2010.05.17/outbox.cif.g08.bks.cpg/sg55_3_cif.got.tgz:4166.got - 2010.06.03 13:27:54.
