data_PCOD9429052
_publ_section_title
;
Structure prediction by ZEFSAII (Michael W. Deem and Ramdas Pophale) SiO2 
 PCOD9429052
Probable space group: P B A M
;
_chemical_formula_sum "Si O2"
_cell_formula_units_Z 48
_cell_length_a 20.473140
_cell_length_b 14.476956
_cell_length_c 8.753852
_cell_angle_alpha 90.000000
_cell_angle_beta 90.000000
_cell_angle_gamma 90.000000
_cell_volume 2594.543225
_symmetry_space_group_name_H-M "P B A M"
_symmetry_group_IT_number 55
_symmetry_cell_setting 'orthorhombic'
loop_
_space_group_symop_operation_xyz
x,y,z
-x,-y,z
1/2+x,1/2-y,-z
1/2-x,1/2+y,-z
-x,-y,-z
x,y,-z
1/2-x,1/2+y,z
1/2+x,1/2-y,z
loop_
_atom_site_type_symbol
_atom_site_label
_atom_site_fract_x
_atom_site_fract_y
_atom_site_fract_z
Si Si1 0.563788 0.285590 0.318183
Si Si2 0.232336 0.521225 0.681339
Si Si3 0.424834 0.326378 0.182672
Si Si4 0.123921 0.028114 0.182090
Si Si5 0.671114 0.155210 0.817689
Si Si6 0.294759 0.236132 0.318321
O O1 0.566281 0.278365 0.500000
O O2 0.489909 0.287311 0.258672
O O3 0.596336 0.382204 0.265894
O O4 0.606284 0.204147 0.244225
O O5 0.240152 0.505961 0.500000
O O6 0.302420 0.509714 0.762277
O O7 0.183229 0.446247 0.749828
O O8 0.209404 0.626204 0.705340
O O9 0.417788 0.436093 0.213920
O O10 0.360507 0.277754 0.248448
O O11 0.427473 0.315012 0.000000
O O12 0.123351 0.044528 0.000000
O O13 0.732380 0.216321 0.759715
O O14 0.670939 0.152656 0.000000
O O15 0.292191 0.254291 0.500000
#
# Coordination Sequence:
#
# PCOD9429052 Si02
#       6
#     8   8   8   8   8   8
#     4  12  25  41  62  90 126 167 209 258 312 371
#     4  11  23  39  63  94 127 161 207 257 307 363
#     4  11  24  41  62  91 127 166 206 255 311 372
#     4  11  22  37  61  93 129 164 204 253 311 371
#     4  12  24  40  64  91 124 164 208 258 308 367
#     4  11  23  40  64  92 124 163 206 254 306 367
#
# _framework density 18.500366
#
# number of rings (size 3 to 8) (size 9 to 14) (size 15 to 20)
#    0.000    0.667    3.333    5.500    0.000    6.000 
#    0.000    0.833    0.000    5.000    0.000    0.000 
#    0.000    0.000    0.000    0.000    0.000    0.000 
#
# Total GULP energy -268647.390236 kJ/mol
# GULP energy per Si atom -5596.820630 kJ/mol
# Density = 1.845826 g / cm^3
# Si number density = 18.500366 Si / 1000 Ang^3
#
#
#
# Elastic Constant Matrix: (Units=GPa)
#
#
# Indices 1 2 3 4 5 6 
#
# 1 39.5164 -9.8843 -2.3745 0.0000 0.0000 0.0000
# 2 -9.8843 58.5076 29.1772 0.0000 0.0000 0.0000
# 3 -2.3745 29.1772 84.4831 0.0000 0.0000 0.0000
# 4 0.0000 0.0000 0.0000 39.9105 0.0000 0.0000
# 5 0.0000 0.0000 0.0000 0.0000 33.2737 0.0000
# 6 0.0000 0.0000 0.0000 0.0000 0.0000 27.4949
#
#
#
# Elastic Compliance Matrix: (Units=1/GPa)
#
#
# Indices 1 2 3 4 5 6 
#
# 1 0.026488 0.004957 -0.000968 0.000000 0.000000 0.000000
# 2 0.004957 0.021576 -0.007312 0.000000 0.000000 0.000000
# 3 -0.000968 -0.007312 0.014335 0.000000 0.000000 0.000000
# 4 0.000000 0.000000 0.000000 0.025056 0.000000 0.000000
# 5 0.000000 0.000000 0.000000 0.000000 0.030054 0.000000
# 6 0.000000 0.000000 0.000000 0.000000 0.000000 0.036370
#
#
# Mechanical properties :
#
#
# Convention : Reuss Voigt Hill
#
# Bulk Modulus (GPa) = 17.93601 24.03822 20.98712
# Shear Modulus (GPa) = 27.91614 31.17507 29.54560
#
# Velocity S-wave (km/s) = 3.88874 4.10946 4.00062
# Velocity P-wave (km/s) = 5.46617 5.96141 5.71915
#
# Compressibility (1/GPa) = 0.05575375
#
# Stress axis : x y z
#
# Youngs Moduli (GPa) = 37.75317 46.34827 69.76021
#
# Poissons Ratio (x) = -0.22977 0.06750
# Poissons Ratio (y) = -0.18716 0.51009
# Poissons Ratio (z) = 0.03653 0.33890
#
# Static dielectric constant tensor:
#      x y z
#    x 1.607130 0.000000 0.000000 
#    y 0.000000 1.628730 0.000000 
#    z 0.000000 0.000000 1.614720 
# 
# From -- ./inp_files/7407.got.cif
#   From: 2010.05.17/outbox.cif.g08.bks.cpg/sg55_4_cif.got.tgz:7407.got - 2010.06.03 13:27:54.
