data_PCOD9429171
_publ_section_title
;
Structure prediction by ZEFSAII (Michael W. Deem and Ramdas Pophale) SiO2 
 PCOD9429171
Probable space group: P B A M
;
_chemical_formula_sum "Si O2"
_cell_formula_units_Z 48
_cell_length_a 9.016418
_cell_length_b 15.043025
_cell_length_c 17.304858
_cell_angle_alpha 90.000000
_cell_angle_beta 90.000000
_cell_angle_gamma 90.000000
_cell_volume 2347.130595
_symmetry_space_group_name_H-M "P B A M"
_symmetry_group_IT_number 55
_symmetry_cell_setting 'orthorhombic'
loop_
_space_group_symop_operation_xyz
x,y,z
-x,-y,z
1/2+x,1/2-y,-z
1/2-x,1/2+y,-z
-x,-y,-z
x,y,-z
1/2-x,1/2+y,z
1/2+x,1/2-y,z
loop_
_atom_site_type_symbol
_atom_site_label
_atom_site_fract_x
_atom_site_fract_y
_atom_site_fract_z
Si Si1 0.320745 0.595785 0.842611
Si Si2 0.333534 0.394335 0.842455
Si Si3 0.180626 0.341468 0.000000
Si Si4 0.825713 0.353184 0.000000
Si Si5 0.300436 0.240273 0.272475
Si Si6 0.049091 0.247517 0.619357
Si Si7 0.923332 0.597432 0.500000
Si Si8 0.434965 0.399505 0.500000
O O1 0.323472 0.494946 0.814161
O O2 0.491503 0.624997 0.856664
O O3 0.231635 0.599983 0.922649
O O4 0.243668 0.658181 0.780331
O O5 0.272181 0.327156 0.778822
O O6 0.245754 0.384659 0.922399
O O7 0.245527 0.242136 0.000000
O O8 0.002846 0.343742 0.000000
O O9 0.470214 0.244182 0.298065
O O10 0.218914 0.236281 0.355201
O O11 0.032622 0.338668 0.571763
O O12 0.991329 0.161737 0.572019
O O13 0.743673 0.591506 0.500000
O O14 0.000000 0.500000 0.500000
O O15 0.500000 0.500000 0.500000
#
# Coordination Sequence:
#
# PCOD9429171 Si02
#       8
#     8   8   4   4   8   8   4   4
#     4  11  25  44  68  96 133 180 225 279 339 395
#     4  11  25  44  67  98 133 176 229 278 338 399
#     4  12  25  42  67  94 132 176 233 281 332 397
#     4  12  25  42  67  94 130 180 229 281 336 391
#     4  12  24  44  68 100 136 180 217 277 336 396
#     4  11  26  46  70  99 143 174 221 273 331 401
#     4  11  26  46  73 107 135 177 225 271 328 396
#     4  11  26  46  75 103 135 181 225 267 330 400
#
# _framework density 20.450503000000001
#
# number of rings (size 3 to 8) (size 9 to 14) (size 15 to 20)
#    0.000    0.667    5.000    2.000    4.667    5.333 
#    0.000    0.000    0.000    0.000    0.000    0.000 
#    0.000    0.000    0.000    0.000    0.000    0.000 
#
# Total GULP energy -268208.451723 kJ/mol
# GULP energy per Si atom -5587.676078 kJ/mol
# Density = 2.040396 g / cm^3
# Si number density = 20.450503 Si / 1000 Ang^3
#
#
#
# Elastic Constant Matrix: (Units=GPa)
#
#
# Indices 1 2 3 4 5 6 
#
# 1 99.4765 43.9721 31.2388 0.0000 0.0000 0.0000
# 2 43.9721 150.6530 58.0951 0.0000 0.0000 0.0000
# 3 31.2388 58.0951 100.9968 0.0000 0.0000 0.0000
# 4 0.0000 0.0000 0.0000 115.4930 0.0000 0.0000
# 5 0.0000 0.0000 0.0000 0.0000 37.2662 0.0000
# 6 0.0000 0.0000 0.0000 0.0000 0.0000 33.6862
#
#
#
# Elastic Compliance Matrix: (Units=1/GPa)
#
#
# Indices 1 2 3 4 5 6 
#
# 1 0.011898 -0.002639 -0.002162 0.000000 0.000000 0.000000
# 2 -0.002639 0.009115 -0.004427 0.000000 0.000000 0.000000
# 3 -0.002162 -0.004427 0.013117 0.000000 0.000000 0.000000
# 4 0.000000 0.000000 0.000000 0.008659 0.000000 0.000000
# 5 0.000000 0.000000 0.000000 0.000000 0.026834 0.000000
# 6 0.000000 0.000000 0.000000 0.000000 0.000000 0.029686
#
#
# Mechanical properties :
#
#
# Convention : Reuss Voigt Hill
#
# Bulk Modulus (GPa) = 63.80148 68.63761 66.21954
# Shear Modulus (GPa) = 40.65410 51.81044 46.23227
#
# Velocity S-wave (km/s) = 4.46345 5.03880 4.75983
# Velocity P-wave (km/s) = 7.60454 8.21513 7.91572
#
# Compressibility (1/GPa) = 0.01567362
#
# Stress axis : x y z
#
# Youngs Moduli (GPa) = 84.04673 109.70733 76.23978
#
# Poissons Ratio (x) = 0.28952 0.16484
# Poissons Ratio (y) = 0.22180 0.33751
# Poissons Ratio (z) = 0.18172 0.48567
#
# Static dielectric constant tensor:
#      x y z
#    x 1.709860 0.000000 0.000000 
#    y 0.000000 1.705530 0.000000 
#    z 0.000000 0.000000 1.709020 
# 
# From -- ./inp_files/20870.got.cif
#   From: 2010.05.17/outbox.cif.g08.bks.cpg/sg55_11_cif.got.tgz:20870.got - 2010.06.03 13:27:54.
