data_PCOD9429888
_publ_section_title
;
Structure prediction by ZEFSAII (Michael W. Deem and Ramdas Pophale) SiO2 
 PCOD9429888
Probable space group: P C C N
;
_chemical_formula_sum "Si O2"
_cell_formula_units_Z 48
_cell_length_a 5.124490
_cell_length_b 24.458289
_cell_length_c 15.831092
_cell_angle_alpha 90.000000
_cell_angle_beta 90.000000
_cell_angle_gamma 90.000000
_cell_volume 1984.209822
_symmetry_space_group_name_H-M "P C C N"
_symmetry_group_IT_number 56
_symmetry_cell_setting 'orthorhombic'
loop_
_space_group_symop_operation_xyz
x,y,z
1/2-x,1/2-y,z
1/2+x,-y,1/2-z
-x,1/2+y,1/2-z
-x,-y,-z
1/2+x,1/2+y,-z
1/2-x,y,1/2+z
x,1/2-y,1/2+z
loop_
_atom_site_type_symbol
_atom_site_label
_atom_site_fract_x
_atom_site_fract_y
_atom_site_fract_z
Si Si1 0.750000 0.250000 0.368976
Si Si2 0.847035 0.133380 0.836288
Si Si3 0.918998 0.962060 0.264497
Si Si4 0.594281 0.864083 0.476720
Si Si5 0.745354 0.458522 0.574531
Si Si6 0.045698 0.432608 0.920615
Si Si7 0.750000 0.750000 0.008565
O O1 0.695436 0.196187 0.312876
O O2 0.497350 0.262309 0.429118
O O3 0.041237 0.095650 0.783423
O O4 0.582018 0.098289 0.843015
O O5 0.937951 0.139332 0.933999
O O6 0.012669 0.947938 0.359594
O O7 0.143047 0.006087 0.234199
O O8 0.448100 0.908640 0.419151
O O9 0.860727 0.889471 0.510744
O O10 0.658620 0.801983 0.453221
O O11 0.774615 0.523506 0.595242
O O12 0.678572 0.462460 0.474797
#
# Coordination Sequence:
#
# PCOD9429888 Si02
#       7
#     4   8   8   8   8   8   4
#     4  10  20  36  62  90 118 156 210 260 298 362
#     4  10  21  37  61  89 121 162 211 258 311 372
#     4  12  26  41  61  89 128 166 207 255 316 380
#     4  10  20  35  62  89 121 159 207 259 310 369
#     4  10  22  34  58  89 123 163 197 257 314 379
#     4  10  18  37  59  89 118 155 205 253 313 364
#     4  10  20  36  62  92 118 154 206 260 306 358
#
# _framework density 24.190991
#
# number of rings (size 3 to 8) (size 9 to 14) (size 15 to 20)
#    0.000    1.667    3.333    1.500    2.333    0.000 
#    0.000    0.000    3.667    0.000    0.000    0.000 
#    0.000    0.000    0.000    0.000    0.000    0.000 
#
# Total GULP energy -267441.933074 kJ/mol
# GULP energy per Si atom -5571.706939 kJ/mol
# Density = 2.413593 g / cm^3
# Si number density = 24.190991 Si / 1000 Ang^3
#
#
#
# Elastic Constant Matrix: (Units=GPa)
#
#
# Indices 1 2 3 4 5 6 
#
# 1 97.6604 16.2000 21.7205 0.0000 0.0000 0.0000
# 2 16.2000 207.8059 32.5650 0.0000 0.0000 0.0000
# 3 21.7205 32.5650 31.7933 0.0000 0.0000 0.0000
# 4 0.0000 0.0000 0.0000 17.7812 0.0000 0.0000
# 5 0.0000 0.0000 0.0000 0.0000 23.2106 0.0000
# 6 0.0000 0.0000 0.0000 0.0000 0.0000 33.8931
#
#
#
# Elastic Compliance Matrix: (Units=1/GPa)
#
#
# Indices 1 2 3 4 5 6 
#
# 1 0.012105 0.000420 -0.008700 0.000000 0.000000 0.000000
# 2 0.000420 0.005747 -0.006173 0.000000 0.000000 0.000000
# 3 -0.008700 -0.006173 0.043719 0.000000 0.000000 0.000000
# 4 0.000000 0.000000 0.000000 0.056239 0.000000 0.000000
# 5 0.000000 0.000000 0.000000 0.000000 0.043084 0.000000
# 6 0.000000 0.000000 0.000000 0.000000 0.000000 0.029505
#
#
# Mechanical properties :
#
#
# Convention : Reuss Voigt Hill
#
# Bulk Modulus (GPa) = 30.61368 53.13675 41.87522
# Shear Modulus (GPa) = 21.72091 32.76191 27.24141
#
# Velocity S-wave (km/s) = 2.99974 3.68408 3.35938
# Velocity P-wave (km/s) = 4.96793 6.33323 5.69167
#
# Compressibility (1/GPa) = 0.03266513
#
# Stress axis : x y z
#
# Youngs Moduli (GPa) = 82.61169 174.00875 22.87313
#
# Poissons Ratio (x) = -0.07302 0.19899
# Poissons Ratio (y) = -0.03467 0.14120
# Poissons Ratio (z) = 0.71869 1.07416
#
# Static dielectric constant tensor:
#      x y z
#    x 2.092790 0.000000 0.000000 
#    y 0.000000 2.049200 0.000000 
#    z 0.000000 0.000000 2.000030 
# 
# From -- ./inp_files/14005.got.cif
#   From: 2010.05.17/outbox.cif.g08.bks.cpg/sg56_8_cif.got.tgz:14005.got - 2010.06.03 13:42:01.
