data_PCOD9429678
_publ_section_title
;
Structure prediction by ZEFSAII (Michael W. Deem and Ramdas Pophale) SiO2 
 PCOD9429678
Probable space group: P C C N
;
_chemical_formula_sum "Si O2"
_cell_formula_units_Z 64
_cell_length_a 31.668827
_cell_length_b 10.657404
_cell_length_c 9.143185
_cell_angle_alpha 90.000000
_cell_angle_beta 90.000000
_cell_angle_gamma 90.000000
_cell_volume 3085.893361
_symmetry_space_group_name_H-M "P C C N"
_symmetry_group_IT_number 56
_symmetry_cell_setting 'orthorhombic'
loop_
_space_group_symop_operation_xyz
x,y,z
1/2-x,1/2-y,z
1/2+x,-y,1/2-z
-x,1/2+y,1/2-z
-x,-y,-z
1/2+x,1/2+y,-z
1/2-x,y,1/2+z
x,1/2-y,1/2+z
loop_
_atom_site_type_symbol
_atom_site_label
_atom_site_fract_x
_atom_site_fract_y
_atom_site_fract_z
Si Si1 0.541275 0.684669 0.747857
Si Si2 0.049598 0.584543 0.193577
Si Si3 0.100068 0.033512 0.435407
Si Si4 0.107359 0.809262 0.208980
Si Si5 0.162200 0.677107 0.442728
Si Si6 0.308128 0.958254 0.992266
Si Si7 0.240027 0.600100 0.273644
Si Si8 0.461476 0.079897 0.437154
O O1 0.501051 0.598715 0.700929
O O2 0.582393 0.649577 0.654576
O O3 0.528690 0.822973 0.693812
O O4 0.551293 0.658429 0.918233
O O5 0.068088 0.723539 0.164167
O O6 0.064550 0.526694 0.349666
O O7 0.069354 0.497921 0.069251
O O8 0.096173 0.916456 0.323418
O O9 0.148766 0.036973 0.486139
O O10 0.137244 0.711494 0.295482
O O11 0.132283 0.867993 0.072827
O O12 0.177568 0.812982 0.498435
O O13 0.203206 0.600485 0.396591
O O14 0.278200 0.969830 0.132568
O O15 0.281094 0.963544 0.843514
O O16 0.250000 0.750000 0.244780
O O17 0.500000 0.000000 0.500000
#
# Coordination Sequence:
#
# PCOD9429678 Si02
#       8
#     8   8   8   8   8   8   8   8
#     4  11  25  42  64  87 128 165 222 275 323 388
#     4  11  23  38  63  85 127 171 224 264 328 384
#     4  11  24  38  57  86 130 177 216 271 331 389
#     4  11  21  32  55  86 126 170 217 268 320 393
#     4  10  18  32  47  78 120 172 212 255 323 383
#     4  10  20  32  47  81 116 172 211 265 318 400
#     4  10  18  29  52  74 123 172 218 261 329 398
#     4  10  25  43  67  96 121 166 224 269 327 388
#
# _framework density 20.739539000000001
#
# number of rings (size 3 to 8) (size 9 to 14) (size 15 to 20)
#    0.000    1.500    3.750    2.250   12.250    0.000 
#    0.000    0.000    0.000    0.000    0.000    0.000 
#    0.000   21.000    0.000    0.000    0.000    0.000 
#
# Total GULP energy -356941.504457 kJ/mol
# GULP energy per Si atom -5577.211007 kJ/mol
# Density = 2.069234 g / cm^3
# Si number density = 20.739539 Si / 1000 Ang^3
#
#
#
# Elastic Constant Matrix: (Units=GPa)
#
#
# Indices 1 2 3 4 5 6 
#
# 1 72.3698 12.1528 40.3645 0.0000 0.0000 0.0000
# 2 12.1528 40.3212 15.7592 0.0000 0.0000 0.0000
# 3 40.3645 15.7592 105.9612 0.0000 0.0000 0.0000
# 4 0.0000 0.0000 0.0000 29.3174 0.0000 0.0000
# 5 0.0000 0.0000 0.0000 0.0000 43.1166 0.0000
# 6 0.0000 0.0000 0.0000 0.0000 0.0000 19.8182
#
#
#
# Elastic Compliance Matrix: (Units=1/GPa)
#
#
# Indices 1 2 3 4 5 6 
#
# 1 0.017858 -0.002892 -0.006373 0.000000 0.000000 0.000000
# 2 -0.002892 0.026800 -0.002884 0.000000 0.000000 0.000000
# 3 -0.006373 -0.002884 0.012294 0.000000 0.000000 0.000000
# 4 0.000000 0.000000 0.000000 0.034109 0.000000 0.000000
# 5 0.000000 0.000000 0.000000 0.000000 0.023193 0.000000
# 6 0.000000 0.000000 0.000000 0.000000 0.000000 0.050459
#
#
# Mechanical properties :
#
#
# Convention : Reuss Voigt Hill
#
# Bulk Modulus (GPa) = 30.62380 39.46725 35.04552
# Shear Modulus (GPa) = 25.01319 28.47548 26.74434
#
# Velocity S-wave (km/s) = 3.47661 3.70943 3.59490
# Velocity P-wave (km/s) = 5.56001 6.11700 5.84515
#
# Compressibility (1/GPa) = 0.03265435
#
# Stress axis : x y z
#
# Youngs Moduli (GPa) = 55.99771 37.31389 81.34075
#
# Poissons Ratio (x) = 0.10790 0.51836
# Poissons Ratio (y) = 0.16193 0.23461
# Poissons Ratio (z) = 0.35685 0.10762
#
# Static dielectric constant tensor:
#      x y z
#    x 1.806410 0.000000 0.000000 
#    y 0.000000 1.788720 0.000000 
#    z 0.000000 0.000000 1.802660 
# 
# From -- ./inp_files/5228.got.cif
#   From: 2010.05.17/outbox.cif.g08.bks.cpg/sg56_3_cif.got.tgz:5228.got - 2010.06.03 13:42:01.
