data_PCOD9429147
_publ_section_title
;
Structure prediction by ZEFSAII (Michael W. Deem and Ramdas Pophale) SiO2 
 PCOD9429147
Probable space group: P B A M
;
_chemical_formula_sum "Si O2"
_cell_formula_units_Z 52
_cell_length_a 12.050915
_cell_length_b 24.858454
_cell_length_c 7.659260
_cell_angle_alpha 90.000000
_cell_angle_beta 90.000000
_cell_angle_gamma 90.000000
_cell_volume 2294.462430
_symmetry_space_group_name_H-M "P B A M"
_symmetry_group_IT_number 55
_symmetry_cell_setting 'orthorhombic'
loop_
_space_group_symop_operation_xyz
x,y,z
-x,-y,z
1/2+x,1/2-y,-z
1/2-x,1/2+y,-z
-x,-y,-z
x,y,-z
1/2-x,1/2+y,z
1/2+x,1/2-y,z
loop_
_atom_site_type_symbol
_atom_site_label
_atom_site_fract_x
_atom_site_fract_y
_atom_site_fract_z
Si Si1 0.759842 0.842521 0.300561
Si Si2 0.771032 0.007562 0.000000
Si Si3 0.121080 0.546817 0.298590
Si Si4 0.504433 0.661829 0.804965
Si Si5 0.089607 0.386224 0.289240
Si Si6 0.331562 0.425900 0.698310
Si Si7 0.450843 0.215754 0.289750
O O1 0.789561 0.827172 0.500000
O O2 0.690238 0.897325 0.305315
O O3 0.672969 0.799191 0.226626
O O4 0.874131 0.850491 0.202964
O O5 0.683972 0.987319 0.154695
O O6 0.854227 0.029748 0.156443
O O7 0.118925 0.525959 0.500000
O O8 0.997430 0.566341 0.246682
O O9 0.575640 0.620136 0.694932
O O10 0.517716 0.723833 0.752348
O O11 0.547232 0.655640 0.000000
O O12 0.091458 0.383229 0.500000
O O13 0.215016 0.398767 0.236323
O O14 0.037623 0.329683 0.225767
O O15 0.317746 0.446322 0.500000
O O16 0.446331 0.210004 0.500000
#
# Coordination Sequence:
#
# PCOD9429147 Si02
#       7
#     8   4   8   8   8   8   8
#     4   9  20  41  67  91 120 162 211 256 309 374
#     4  12  24  41  65  98 124 164 217 253 330 378
#     4   9  20  41  67  96 124 160 210 266 316 370
#     4  12  25  40  58  91 132 167 210 257 308 375
#     4   8  18  39  65  93 128 165 208 257 310 375
#     4  11  24  43  62  89 134 170 206 261 312 370
#     4   9  19  39  66  92 119 165 213 248 306 377
#
# _framework density 22.663260999999999
#
# number of rings (size 3 to 8) (size 9 to 14) (size 15 to 20)
#    0.000    2.154    0.769    3.692    3.231    2.462 
#    5.538    3.846    0.000    2.769    0.000    0.000 
#    0.000    0.000    0.000    0.000    0.000    0.000 
#
# Total GULP energy -289540.707200 kJ/mol
# GULP energy per Si atom -5568.090523 kJ/mol
# Density = 2.261168 g / cm^3
# Si number density = 22.663261 Si / 1000 Ang^3
#
#
#
# Elastic Constant Matrix: (Units=GPa)
#
#
# Indices 1 2 3 4 5 6 
#
# 1 82.9428 7.5059 1.4306 0.0000 0.0000 0.0000
# 2 7.5059 21.2973 11.6056 0.0000 0.0000 0.0000
# 3 1.4306 11.6056 114.1636 0.0000 0.0000 0.0000
# 4 0.0000 0.0000 0.0000 -32.5143 0.0000 0.0000
# 5 0.0000 0.0000 0.0000 0.0000 71.4309 0.0000
# 6 0.0000 0.0000 0.0000 0.0000 0.0000 11.1617
#
#
#
# Elastic Compliance Matrix: (Units=1/GPa)
#
#
# Indices 1 2 3 4 5 6 
#
# 1 0.012464 -0.004560 0.000307 0.000000 0.000000 0.000000
# 2 -0.004560 0.051376 -0.005166 0.000000 0.000000 0.000000
# 3 0.000307 -0.005166 0.009281 0.000000 0.000000 0.000000
# 4 0.000000 0.000000 0.000000 -0.030756 0.000000 0.000000
# 5 0.000000 0.000000 0.000000 0.000000 0.014000 0.000000
# 6 0.000000 0.000000 0.000000 0.000000 0.000000 0.089592
#
#
# Mechanical properties :
#
#
# Convention : Reuss Voigt Hill
#
# Bulk Modulus (GPa) = 18.42165 28.83198 23.62682
# Shear Modulus (GPa) = 27.33913 23.20645 25.27279
#
# Velocity S-wave (km/s) = 3.47698 3.20342 3.34300
# Velocity P-wave (km/s) = 4.92598 5.14121 5.03474
#
# Compressibility (1/GPa) = 0.05428395
#
# Stress axis : x y z
#
# Youngs Moduli (GPa) = 80.23183 19.46421 107.75131
#
# Poissons Ratio (x) = 0.08876 -0.03312
# Poissons Ratio (y) = 0.36587 0.55660
# Poissons Ratio (z) = -0.02466 0.10055
#
# Static dielectric constant tensor:
#      x y z
#    x 1.847760 0.000000 0.000000 
#    y 0.000000 1.888760 0.000000 
#    z 0.000000 0.000000 1.836540 
# 
# From -- ./inp_files/4226.got.cif
#   From: 2010.05.17/outbox.cif.g08.bks.cpg/sg55_3_cif.got.tgz:4226.got - 2010.06.03 13:27:54.
