data_PCOD9429326
_publ_section_title
;
Structure prediction by ZEFSAII (Michael W. Deem and Ramdas Pophale) SiO2 
 PCOD9429326
Probable space group: P B A M
;
_chemical_formula_sum "Si O2"
_cell_formula_units_Z 56
_cell_length_a 12.000000
_cell_length_b 15.000000
_cell_length_c 15.000000
_cell_angle_alpha 90.000000
_cell_angle_beta 90.000000
_cell_angle_gamma 90.000000
_cell_volume 2700.000000
_symmetry_space_group_name_H-M "P B A M"
_symmetry_group_IT_number 55
_symmetry_cell_setting 'orthorhombic'
loop_
_space_group_symop_operation_xyz
x,y,z
-x,-y,z
1/2+x,1/2-y,-z
1/2-x,1/2+y,-z
-x,-y,-z
x,y,-z
1/2-x,1/2+y,z
1/2+x,1/2-y,z
loop_
_atom_site_type_symbol
_atom_site_label
_atom_site_fract_x
_atom_site_fract_y
_atom_site_fract_z
Si Si1 0.260022 0.537191 0.105071
Si Si2 0.909831 0.110800 0.190736
Si Si3 0.131524 0.501891 0.279995
Si Si4 0.245638 0.154962 0.604066
Si Si5 0.894913 0.790042 0.898680
Si Si6 0.208669 0.306433 0.256140
Si Si7 0.987284 0.105068 0.400210
O O1 0.360346 0.482942 0.155343
O O2 0.160206 0.522130 0.175744
O O3 0.291668 0.641088 0.104621
O O4 0.246779 0.509987 0.000000
O O5 0.806184 0.176983 0.185660
O O6 0.001193 0.146468 0.123443
O O7 0.940172 0.114875 0.297636
O O8 0.193701 0.573630 0.343671
O O9 0.176931 0.402055 0.296975
O O10 0.000000 0.500000 0.295305
O O11 0.282694 0.161921 0.500000
O O12 0.254049 0.241460 0.667189
O O13 0.112424 0.141928 0.602476
O O14 0.887653 0.729100 0.809855
O O15 0.901903 0.752406 0.000000
O O16 0.938385 0.134214 0.500000
O O17 0.000000 0.000000 0.407669
#
# Coordination Sequence:
#
# PCOD9429326 Si02
#       7
#     8   8   8   8   8   8   8
#     4  10  21  40  66  96 129 173 225 280 343 407
#     4  11  21  37  63  90 131 168 218 284 333 405
#     4  11  25  44  69  97 141 183 223 279 344 408
#     4  11  24  45  68  94 132 173 227 278 332 401
#     4  11  22  38  64  94 127 171 227 284 342 403
#     4  11  25  41  64  96 134 178 223 278 336 404
#     4  10  19  34  63  94 118 155 207 268 334 390
#
# _framework density 20.740741
#
# number of rings (size 3 to 8) (size 9 to 14) (size 15 to 20)
#    0.000    1.286    2.857    3.429    2.000    5.714 
#    0.000    2.857    0.000    0.000    0.000    0.000 
#    0.000    0.000    0.000    0.000    0.000    0.000 
#
# Total GULP energy -311886.602384 kJ/mol
# GULP energy per Si atom -5569.403614 kJ/mol
# Density = 2.069353 g / cm^3
# Si number density = 20.740741 Si / 1000 Ang^3
#
#
#
# Elastic Constant Matrix: (Units=GPa)
#
#
# Indices 1 2 3 4 5 6 
#
# 1 32.5639 21.9010 12.8154 0.0000 0.0000 0.0000
# 2 21.9010 110.1271 40.6805 0.0000 0.0000 0.0000
# 3 12.8154 40.6805 154.5329 0.0000 0.0000 0.0000
# 4 0.0000 0.0000 0.0000 24.4751 0.0000 0.0000
# 5 0.0000 0.0000 0.0000 0.0000 28.1333 0.0000
# 6 0.0000 0.0000 0.0000 0.0000 0.0000 6.5617
#
#
#
# Elastic Compliance Matrix: (Units=1/GPa)
#
#
# Indices 1 2 3 4 5 6 
#
# 1 0.035653 -0.006644 -0.001208 0.000000 0.000000 0.000000
# 2 -0.006644 0.011297 -0.002423 0.000000 0.000000 0.000000
# 3 -0.001208 -0.002423 0.007209 0.000000 0.000000 0.000000
# 4 0.000000 0.000000 0.000000 0.040858 0.000000 0.000000
# 5 0.000000 0.000000 0.000000 0.000000 0.035545 0.000000
# 6 0.000000 0.000000 0.000000 0.000000 0.000000 0.152399
#
#
# Mechanical properties :
#
#
# Convention : Reuss Voigt Hill
#
# Bulk Modulus (GPa) = 29.75371 49.77975 39.76673
# Shear Modulus (GPa) = 15.88752 26.62250 21.25501
#
# Velocity S-wave (km/s) = 2.77068 3.58660 3.20471
# Velocity P-wave (km/s) = 4.96107 6.41909 5.73659
#
# Compressibility (1/GPa) = 0.03360926
#
# Stress axis : x y z
#
# Youngs Moduli (GPa) = 28.04835 88.52112 138.71423
#
# Poissons Ratio (x) = 0.58815 0.16751
# Poissons Ratio (y) = 0.18636 0.33608
# Poissons Ratio (z) = 0.03387 0.21447
#
# Static dielectric constant tensor:
#      x y z
#    x 1.688630 0.000000 0.000000 
#    y 0.000000 1.708130 0.000000 
#    z 0.000000 0.000000 1.751860 
# 
# From -- ./inp_files/18369.got.cif
#   From: 2010.05.17/outbox.ucp.g08.bks.cvg/sg55_10_cif.got.tgz:18369.got - 2010.06.11 16:36:00.
