data_PCOD9429186
_publ_section_title
;
Structure prediction by ZEFSAII (Michael W. Deem and Ramdas Pophale) SiO2 
 PCOD9429186
Probable space group: P B A M
;
_chemical_formula_sum "Si O2"
_cell_formula_units_Z 32
_cell_length_a 7.232964
_cell_length_b 13.391320
_cell_length_c 13.780074
_cell_angle_alpha 90.000000
_cell_angle_beta 90.000000
_cell_angle_gamma 90.000000
_cell_volume 1334.723298
_symmetry_space_group_name_H-M "P B A M"
_symmetry_group_IT_number 55
_symmetry_cell_setting 'orthorhombic'
loop_
_space_group_symop_operation_xyz
x,y,z
-x,-y,z
1/2+x,1/2-y,-z
1/2-x,1/2+y,-z
-x,-y,-z
x,y,-z
1/2-x,1/2+y,z
1/2+x,1/2-y,z
loop_
_atom_site_type_symbol
_atom_site_label
_atom_site_fract_x
_atom_site_fract_y
_atom_site_fract_z
Si Si1 0.271949 0.585643 0.108578
Si Si2 0.837569 0.641875 0.889344
Si Si3 0.575310 0.889923 0.615564
Si Si4 0.876782 0.790444 0.727972
O O1 0.239328 0.468832 0.120058
O O2 0.412185 0.630882 0.185410
O O3 0.062502 0.630344 0.119059
O O4 0.338691 0.603901 0.000000
O O5 0.773760 0.711215 0.800948
O O6 0.798446 0.676526 0.000000
O O7 0.556771 0.887126 0.500000
O O8 0.780970 0.866345 0.651971
O O9 0.480890 0.791635 0.662901
O O10 0.500000 0.000000 0.648061
#
# Coordination Sequence:
#
# PCOD9429186 Si02
#       4
#     8   8   8   8
#     4   9  18  34  58  91 129 166 203 244 296 363
#     4   9  18  34  58  91 129 166 203 244 296 363
#     4  11  26  46  66  91 122 158 208 267 318 368
#     4  12  20  38  68  94 122 162 210 252 312 366
#
# _framework density 23.975004999999999
#
# number of rings (size 3 to 8) (size 9 to 14) (size 15 to 20)
#    0.000    1.750    2.500    4.500    0.000    0.000 
#    0.000    5.000    0.000   12.000    0.000    0.000 
#    0.000    0.000    0.000    0.000    0.000    0.000 
#
# Total GULP energy -178231.343911 kJ/mol
# GULP energy per Si atom -5569.729497 kJ/mol
# Density = 2.392044 g / cm^3
# Si number density = 23.975005 Si / 1000 Ang^3
#
#
#
# Elastic Constant Matrix: (Units=GPa)
#
#
# Indices 1 2 3 4 5 6 
#
# 1 46.2808 15.8074 20.9900 0.0000 0.0000 0.0000
# 2 15.8074 110.2770 42.3070 0.0000 0.0000 0.0000
# 3 20.9900 42.3070 153.1147 0.0000 0.0000 0.0000
# 4 0.0000 0.0000 0.0000 56.8105 0.0000 0.0000
# 5 0.0000 0.0000 0.0000 0.0000 1.4582 0.0000
# 6 0.0000 0.0000 0.0000 0.0000 0.0000 18.6123
#
#
#
# Elastic Compliance Matrix: (Units=1/GPa)
#
#
# Indices 1 2 3 4 5 6 
#
# 1 0.023592 -0.002395 -0.002572 0.000000 0.000000 0.000000
# 2 -0.002395 0.010386 -0.002542 0.000000 0.000000 0.000000
# 3 -0.002572 -0.002542 0.007586 0.000000 0.000000 0.000000
# 4 0.000000 0.000000 0.000000 0.017602 0.000000 0.000000
# 5 0.000000 0.000000 0.000000 0.000000 0.685769 0.000000
# 6 0.000000 0.000000 0.000000 0.000000 0.000000 0.053728
#
#
# Mechanical properties :
#
#
# Convention : Reuss Voigt Hill
#
# Bulk Modulus (GPa) = 37.66958 51.98681 44.82819
# Shear Modulus (GPa) = 6.07881 30.74739 18.41310
#
# Velocity S-wave (km/s) = 1.59405 3.58505 2.77431
# Velocity P-wave (km/s) = 4.37425 6.23439 5.38525
#
# Compressibility (1/GPa) = 0.02654662
#
# Stress axis : x y z
#
# Youngs Moduli (GPa) = 42.38744 96.27966 131.82266
#
# Poissons Ratio (x) = 0.23058 0.33910
# Poissons Ratio (y) = 0.10151 0.33504
# Poissons Ratio (z) = 0.10904 0.24470
#
# Static dielectric constant tensor:
#      x y z
#    x 2.741320 0.000000 0.000000 
#    y 0.000000 1.982800 0.000000 
#    z 0.000000 0.000000 1.881290 
# 
# From -- ./inp_files/16854.got.cif
#   From: 2010.05.17/outbox.cif.g08.bks.cpg/sg55_9_cif.got.tgz:16854.got - 2010.06.03 13:27:54.
