data_PCOD9429939
_publ_section_title
;
Structure prediction by ZEFSAII (Michael W. Deem and Ramdas Pophale) SiO2 
 PCOD9429939
Probable space group: P C C N
;
_chemical_formula_sum "Si O2"
_cell_formula_units_Z 40
_cell_length_a 11.894973
_cell_length_b 6.520112
_cell_length_c 23.169387
_cell_angle_alpha 90.000000
_cell_angle_beta 90.000000
_cell_angle_gamma 90.000000
_cell_volume 1796.937865
_symmetry_space_group_name_H-M "P C C N"
_symmetry_group_IT_number 56
_symmetry_cell_setting 'orthorhombic'
loop_
_space_group_symop_operation_xyz
x,y,z
1/2-x,1/2-y,z
1/2+x,-y,1/2-z
-x,1/2+y,1/2-z
-x,-y,-z
1/2+x,1/2+y,-z
1/2-x,y,1/2+z
x,1/2-y,1/2+z
loop_
_atom_site_type_symbol
_atom_site_label
_atom_site_fract_x
_atom_site_fract_y
_atom_site_fract_z
Si Si1 0.067929 0.797766 0.394309
Si Si2 0.520677 0.202644 0.839063
Si Si3 0.181596 0.059486 0.819863
Si Si4 0.750000 0.250000 0.510574
Si Si5 0.919911 0.010406 0.944741
Si Si6 0.250000 0.750000 0.229163
O O1 0.139158 0.620284 0.361868
O O2 0.148614 0.838021 0.449488
O O3 0.948157 0.701034 0.412854
O O4 0.037128 0.987274 0.354078
O O5 0.434550 0.335324 0.800319
O O6 0.538429 0.315149 0.900615
O O7 0.640390 0.210550 0.808733
O O8 0.250000 0.250000 0.847124
O O9 0.252851 0.949982 0.770311
O O10 0.799957 0.427368 0.469746
O O11 0.000000 0.000000 0.000000
#
# Coordination Sequence:
#
# PCOD9429939 Si02
#       6
#     8   8   8   4   8   4
#     4  10  22  43  68 101 140 181 240 291 346 428
#     4  11  25  45  69 102 144 182 237 295 352 425
#     4  11  25  44  72 100 136 186 234 296 358 424
#     4  10  18  38  68  98 138 186 226 284 350 408
#     4   9  21  40  64  99 138 180 229 283 344 406
#     4  12  28  42  70 102 138 184 234 296 360 424
#
# _framework density 22.260090000000002
#
# number of rings (size 3 to 8) (size 9 to 14) (size 15 to 20)
#    0.000    1.600    0.000    3.600    5.600    4.800 
#    0.000   15.000    0.000    0.000    0.000    0.000 
#    0.000    0.000    0.000    0.000    0.000    0.000 
#
# Total GULP energy -223207.008731 kJ/mol
# GULP energy per Si atom -5580.175218 kJ/mol
# Density = 2.220942 g / cm^3
# Si number density = 22.260090 Si / 1000 Ang^3
#
#
#
# Elastic Constant Matrix: (Units=GPa)
#
#
# Indices 1 2 3 4 5 6 
#
# 1 136.6486 68.8571 44.5595 0.0000 0.0000 0.0000
# 2 68.8571 125.2846 59.3109 0.0000 0.0000 0.0000
# 3 44.5595 59.3109 84.8282 0.0000 0.0000 0.0000
# 4 0.0000 0.0000 0.0000 27.0503 0.0000 0.0000
# 5 0.0000 0.0000 0.0000 0.0000 24.7831 0.0000
# 6 0.0000 0.0000 0.0000 0.0000 0.0000 42.9858
#
#
#
# Elastic Compliance Matrix: (Units=1/GPa)
#
#
# Indices 1 2 3 4 5 6 
#
# 1 0.010386 -0.004672 -0.002189 0.000000 0.000000 0.000000
# 2 -0.004672 0.014033 -0.007357 0.000000 0.000000 0.000000
# 3 -0.002189 -0.007357 0.018083 0.000000 0.000000 0.000000
# 4 0.000000 0.000000 0.000000 0.036968 0.000000 0.000000
# 5 0.000000 0.000000 0.000000 0.000000 0.040350 0.000000
# 6 0.000000 0.000000 0.000000 0.000000 0.000000 0.023264
#
#
# Mechanical properties :
#
#
# Convention : Reuss Voigt Hill
#
# Bulk Modulus (GPa) = 71.10090 76.91293 74.00691
# Shear Modulus (GPa) = 28.37558 30.56608 29.47083
#
# Velocity S-wave (km/s) = 3.57421 3.70960 3.64253
# Velocity P-wave (km/s) = 7.00311 7.27840 7.14208
#
# Compressibility (1/GPa) = 0.01406452
#
# Stress axis : x y z
#
# Youngs Moduli (GPa) = 96.28299 71.26311 55.30167
#
# Poissons Ratio (x) = 0.33293 0.12107
# Poissons Ratio (y) = 0.44982 0.40687
# Poissons Ratio (z) = 0.21078 0.52430
#
# Static dielectric constant tensor:
#      x y z
#    x 1.858540 0.000000 0.000000 
#    y 0.000000 1.845350 0.000000 
#    z 0.000000 0.000000 1.836440 
# 
# From -- ./inp_files/22206.got.cif
#   From: 2010.05.17/outbox.cif.g08.bks.cpg/sg56_12_cif.got.tgz:22206.got - 2010.06.03 13:42:01.
