data_PCOD9429434
_publ_section_title
;
Structure prediction by ZEFSAII (Michael W. Deem and Ramdas Pophale) SiO2 
 PCOD9429434
Probable space group: P B A M
;
_chemical_formula_sum "Si O2"
_cell_formula_units_Z 40
_cell_length_a 18.000000
_cell_length_b 12.000000
_cell_length_c 9.000000
_cell_angle_alpha 90.000000
_cell_angle_beta 90.000000
_cell_angle_gamma 90.000000
_cell_volume 1944.000000
_symmetry_space_group_name_H-M "P B A M"
_symmetry_group_IT_number 55
_symmetry_cell_setting 'orthorhombic'
loop_
_space_group_symop_operation_xyz
x,y,z
-x,-y,z
1/2+x,1/2-y,-z
1/2-x,1/2+y,-z
-x,-y,-z
x,y,-z
1/2-x,1/2+y,z
1/2+x,1/2-y,z
loop_
_atom_site_type_symbol
_atom_site_label
_atom_site_fract_x
_atom_site_fract_y
_atom_site_fract_z
Si Si1 0.461057 0.330602 0.824735
Si Si2 0.667319 0.544743 0.671345
Si Si3 0.166237 0.412442 0.674463
Si Si4 0.389448 0.680074 0.324024
Si Si5 0.567527 0.921099 0.178184
O O1 0.391331 0.403269 0.781060
O O2 0.535487 0.367207 0.743590
O O3 0.444720 0.204552 0.772793
O O4 0.473702 0.331236 0.000000
O O5 0.641297 0.557639 0.500000
O O6 0.746174 0.602000 0.685561
O O7 0.673266 0.412518 0.699521
O O8 0.147873 0.425019 0.500000
O O9 0.127995 0.301717 0.738572
O O10 0.140187 0.521592 0.758435
O O11 0.398145 0.693630 0.500000
O O12 0.500000 0.000000 0.228897
O O13 0.569197 0.922088 0.000000
#
# Coordination Sequence:
#
# PCOD9429434 Si02
#       5
#     8   8   8   8   8
#     4  11  23  39  61  88 116 154 199 239 287 347
#     4  10  23  40  60  87 121 154 190 243 296 344
#     4  10  22  38  61  89 116 152 196 240 291 350
#     4  10  21  39  60  86 118 153 193 240 293 344
#     4  10  21  39  59  83 118 154 191 241 291 337
#
# _framework density 20.576132000000001
#
# number of rings (size 3 to 8) (size 9 to 14) (size 15 to 20)
#    0.000    1.800    2.000    1.200    2.800    6.000 
#    0.000    0.000    0.000    0.000    0.000    0.000 
#    0.000    0.000    0.000    0.000    0.000    0.000 
#
# Total GULP energy -223125.193916 kJ/mol
# GULP energy per Si atom -5578.129848 kJ/mol
# Density = 2.052930 g / cm^3
# Si number density = 20.576132 Si / 1000 Ang^3
#
#
#
# Elastic Constant Matrix: (Units=GPa)
#
#
# Indices 1 2 3 4 5 6 
#
# 1 24.0216 16.1083 8.9526 0.0000 0.0000 0.0000
# 2 16.1083 72.2888 22.7635 0.0000 0.0000 0.0000
# 3 8.9526 22.7635 -17.9428 0.0000 0.0000 0.0000
# 4 0.0000 0.0000 0.0000 20.6298 0.0000 0.0000
# 5 0.0000 0.0000 0.0000 0.0000 43.5421 0.0000
# 6 0.0000 0.0000 0.0000 0.0000 0.0000 25.7753
#
#
#
# Elastic Compliance Matrix: (Units=1/GPa)
#
#
# Indices 1 2 3 4 5 6 
#
# 1 0.047547 -0.012909 0.007347 0.000000 0.000000 0.000000
# 2 -0.012909 0.013389 0.010546 0.000000 0.000000 0.000000
# 3 0.007347 0.010546 -0.038688 0.000000 0.000000 0.000000
# 4 0.000000 0.000000 0.000000 0.048473 0.000000 0.000000
# 5 0.000000 0.000000 0.000000 0.000000 0.022966 0.000000
# 6 0.000000 0.000000 0.000000 0.000000 0.000000 0.038797
#
#
# Mechanical properties :
#
#
# Convention : Reuss Voigt Hill
#
# Bulk Modulus (GPa) = 31.04033 19.33515 25.18774
# Shear Modulus (GPa) = 37.52179 20.02565 28.77372
#
# Velocity S-wave (km/s) = 4.27495 3.12307 3.74358
# Velocity P-wave (km/s) = 6.28373 4.73520 5.56360
#
# Compressibility (1/GPa) = 0.03221615
#
# Stress axis : x y z
#
# Youngs Moduli (GPa) = 21.03168 74.68760 -25.84776
#
# Poissons Ratio (x) = 0.96412 0.18990
# Poissons Ratio (y) = 0.27149 0.27258
# Poissons Ratio (z) = -0.15452 -0.78763
#
# Static dielectric constant tensor:
#      x y z
#    x 1.745170 0.000000 0.000000 
#    y 0.000000 1.756790 0.000000 
#    z 0.000000 0.000000 1.692110 
# 
# From -- ./inp_files/3587.got.cif
#   From: 2010.05.17/outbox.ucp.g08.bks.cvg/sg55_2_cif.got.tgz:3587.got - 2010.06.11 16:36:00.
