data_PCOD9429073
_publ_section_title
;
Structure prediction by ZEFSAII (Michael W. Deem and Ramdas Pophale) SiO2 
 PCOD9429073
Probable space group: P B A M
;
_chemical_formula_sum "Si O2"
_cell_formula_units_Z 48
_cell_length_a 14.087761
_cell_length_b 9.252555
_cell_length_c 16.530598
_cell_angle_alpha 90.000000
_cell_angle_beta 90.000000
_cell_angle_gamma 90.000000
_cell_volume 2154.726809
_symmetry_space_group_name_H-M "P B A M"
_symmetry_group_IT_number 55
_symmetry_cell_setting 'orthorhombic'
loop_
_space_group_symop_operation_xyz
x,y,z
-x,-y,z
1/2+x,1/2-y,-z
1/2-x,1/2+y,-z
-x,-y,-z
x,y,-z
1/2-x,1/2+y,z
1/2+x,1/2-y,z
loop_
_atom_site_type_symbol
_atom_site_label
_atom_site_fract_x
_atom_site_fract_y
_atom_site_fract_z
Si Si1 0.524500 0.722912 0.166520
Si Si2 0.410313 0.400772 0.591975
Si Si3 0.371002 0.544752 0.092349
Si Si4 0.811981 0.417869 0.185800
Si Si5 0.767575 0.669391 0.301945
Si Si6 0.528511 0.167935 0.341438
O O1 0.435545 0.684010 0.111040
O O2 0.592308 0.583493 0.151211
O O3 0.588775 0.862331 0.151746
O O4 0.490951 0.744980 0.258013
O O5 0.500000 0.500000 0.616388
O O6 0.384081 0.437960 0.500000
O O7 0.319033 0.404242 0.649857
O O8 0.455776 0.240778 0.596604
O O9 0.264369 0.578824 0.115117
O O10 0.382924 0.498713 0.000000
O O11 0.811111 0.569288 0.231332
O O12 0.775745 0.307177 0.255714
O O13 0.859783 0.692442 0.358595
O O14 0.500000 0.000000 0.332083
#
# Coordination Sequence:
#
# PCOD9429073 Si02
#       6
#     8   8   8   8   8   8
#     4  11  22  40  67  94 130 178 228 271 338 402
#     4  11  26  46  69  99 137 181 224 273 338 412
#     4  11  25  42  65 100 139 179 223 280 348 411
#     4  12  22  40  69  96 128 175 231 278 329 400
#     4  12  23  41  69 100 131 176 229 282 329 401
#     4  12  23  40  69 101 133 172 224 284 337 394
#
# _framework density 22.276606999999998
#
# number of rings (size 3 to 8) (size 9 to 14) (size 15 to 20)
#    0.000    0.500    6.667    2.000    2.333    2.333 
#    0.000    4.167    0.000    3.000    0.000    0.000 
#    0.000    0.000    0.000    0.000    0.000    0.000 
#
# Total GULP energy -268297.935301 kJ/mol
# GULP energy per Si atom -5589.540319 kJ/mol
# Density = 2.222590 g / cm^3
# Si number density = 22.276607 Si / 1000 Ang^3
#
#
#
# Elastic Constant Matrix: (Units=GPa)
#
#
# Indices 1 2 3 4 5 6 
#
# 1 108.3756 6.0084 25.6829 0.0000 0.0000 0.0000
# 2 6.0084 63.3639 25.7091 0.0000 0.0000 0.0000
# 3 25.6829 25.7091 66.0284 0.0000 0.0000 0.0000
# 4 0.0000 0.0000 0.0000 14.0346 0.0000 0.0000
# 5 0.0000 0.0000 0.0000 0.0000 12.0721 0.0000
# 6 0.0000 0.0000 0.0000 0.0000 0.0000 33.3860
#
#
#
# Elastic Compliance Matrix: (Units=1/GPa)
#
#
# Indices 1 2 3 4 5 6 
#
# 1 0.010195 0.000763 -0.004263 0.000000 0.000000 0.000000
# 2 0.000763 0.018800 -0.007617 0.000000 0.000000 0.000000
# 3 -0.004263 -0.007617 0.019769 0.000000 0.000000 0.000000
# 4 0.000000 0.000000 0.000000 0.071252 0.000000 0.000000
# 5 0.000000 0.000000 0.000000 0.000000 0.082835 0.000000
# 6 0.000000 0.000000 0.000000 0.000000 0.000000 0.029953
#
#
# Mechanical properties :
#
#
# Convention : Reuss Voigt Hill
#
# Bulk Modulus (GPa) = 37.69230 39.17431 38.43330
# Shear Modulus (GPa) = 18.94798 23.92306 21.43552
#
# Velocity S-wave (km/s) = 2.91963 3.28061 3.10537
# Velocity P-wave (km/s) = 5.32189 5.65451 5.49072
#
# Compressibility (1/GPa) = 0.02653062
#
# Stress axis : x y z
#
# Youngs Moduli (GPa) = 98.08715 53.19179 50.58516
#
# Poissons Ratio (x) = -0.04057 0.21562
# Poissons Ratio (y) = -0.07481 0.38529
# Poissons Ratio (z) = 0.41810 0.40515
#
# Static dielectric constant tensor:
#      x y z
#    x 1.859240 0.000000 0.000000 
#    y 0.000000 1.863160 0.000000 
#    z 0.000000 0.000000 1.796090 
# 
# From -- ./inp_files/21500.got.cif
#   From: 2010.05.17/outbox.cif.g08.bks.cpg/sg55_11_cif.got.tgz:21500.got - 2010.06.03 13:27:54.
