data_PCOD9429043
_publ_section_title
;
Structure prediction by ZEFSAII (Michael W. Deem and Ramdas Pophale) SiO2 
 PCOD9429043
Probable space group: P B A M
;
_chemical_formula_sum "Si O2"
_cell_formula_units_Z 40
_cell_length_a 5.197265
_cell_length_b 28.330380
_cell_length_c 11.653347
_cell_angle_alpha 90.000000
_cell_angle_beta 90.000000
_cell_angle_gamma 90.000000
_cell_volume 1715.844551
_symmetry_space_group_name_H-M "P B A M"
_symmetry_group_IT_number 55
_symmetry_cell_setting 'orthorhombic'
loop_
_space_group_symop_operation_xyz
x,y,z
-x,-y,z
1/2+x,1/2-y,-z
1/2-x,1/2+y,-z
-x,-y,-z
x,y,-z
1/2-x,1/2+y,z
1/2+x,1/2-y,z
loop_
_atom_site_type_symbol
_atom_site_label
_atom_site_fract_x
_atom_site_fract_y
_atom_site_fract_z
Si Si1 0.930732 0.144551 0.869628
Si Si2 0.298943 0.463259 0.128199
Si Si3 0.511659 0.053866 0.337449
Si Si4 0.046177 0.276183 0.863620
Si Si5 0.021141 0.117571 0.625367
O O1 0.654513 0.170725 0.853501
O O2 0.045355 0.149340 0.740556
O O3 0.923897 0.088363 0.879177
O O4 0.022859 0.160660 0.000000
O O5 0.500000 0.500000 0.184544
O O6 0.044832 0.452692 0.200476
O O7 0.250339 0.479934 0.000000
O O8 0.262613 0.082515 0.370748
O O9 0.764180 0.084711 0.368280
O O10 0.500000 0.000000 0.380271
O O11 0.774164 0.257889 0.818650
O O12 0.024869 0.269209 0.000000
O O13 0.017956 0.141786 0.500000
#
# Coordination Sequence:
#
# PCOD9429043 Si02
#       5
#     8   8   8   8   8
#     4   9  19  37  61  86 115 152 191 234 286 341
#     4   9  18  34  56  85 121 158 195 236 285 342
#     4  11  22  37  56  79 110 151 200 244 283 331
#     4   9  18  33  55  84 113 141 181 234 286 335
#     4  11  24  39  57  82 113 150 191 238 289 339
#
# _framework density 23.312135000000001
#
# number of rings (size 3 to 8) (size 9 to 14) (size 15 to 20)
#    0.000    2.200    0.000    3.600    0.000    6.800 
#    0.000    6.000    0.000    1.200    0.000    0.000 
#    0.000    0.000    0.000    0.000    0.000    0.000 
#
# Total GULP energy -222796.975623 kJ/mol
# GULP energy per Si atom -5569.924391 kJ/mol
# Density = 2.325908 g / cm^3
# Si number density = 23.312135 Si / 1000 Ang^3
#
#
#
# Elastic Constant Matrix: (Units=GPa)
#
#
# Indices 1 2 3 4 5 6 
#
# 1 133.0355 28.1660 16.3915 0.0000 0.0000 0.0000
# 2 28.1660 98.2870 -3.7363 0.0000 0.0000 0.0000
# 3 16.3915 -3.7363 176.2807 0.0000 0.0000 0.0000
# 4 0.0000 0.0000 0.0000 -34.9097 0.0000 0.0000
# 5 0.0000 0.0000 0.0000 0.0000 10.6059 0.0000
# 6 0.0000 0.0000 0.0000 0.0000 0.0000 39.8073
#
#
#
# Elastic Compliance Matrix: (Units=1/GPa)
#
#
# Indices 1 2 3 4 5 6 
#
# 1 0.008115 -0.002356 -0.000804 0.000000 0.000000 0.000000
# 2 -0.002356 0.010867 0.000449 0.000000 0.000000 0.000000
# 3 -0.000804 0.000449 0.005757 0.000000 0.000000 0.000000
# 4 0.000000 0.000000 0.000000 -0.028645 0.000000 0.000000
# 5 0.000000 0.000000 0.000000 0.000000 0.094287 0.000000
# 6 0.000000 0.000000 0.000000 0.000000 0.000000 0.025121
#
#
# Mechanical properties :
#
#
# Convention : Reuss Voigt Hill
#
# Bulk Modulus (GPa) = 51.77015 54.36061 53.06538
# Shear Modulus (GPa) = 39.25810 27.55283 33.40547
#
# Velocity S-wave (km/s) = 4.10813 3.44162 3.78956
# Velocity P-wave (km/s) = 6.69014 6.25797 6.47766
#
# Compressibility (1/GPa) = 0.01931615
#
# Stress axis : x y z
#
# Youngs Moduli (GPa) = 123.23280 92.02569 173.69850
#
# Poissons Ratio (x) = 0.21681 0.13974
# Poissons Ratio (y) = 0.29034 -0.07806
# Poissons Ratio (z) = 0.09914 -0.04136
#
# Static dielectric constant tensor:
#      x y z
#    x 1.961560 0.000000 0.000000 
#    y 0.000000 1.910480 0.000000 
#    z 0.000000 0.000000 1.965790 
# 
# From -- ./inp_files/11311.got.cif
#   From: 2010.05.17/outbox.cif.g08.bks.cpg/sg55_6_cif.got.tgz:11311.got - 2010.06.03 13:27:54.
