data_PCOD9429796
_publ_section_title
;
Structure prediction by ZEFSAII (Michael W. Deem and Ramdas Pophale) SiO2 
 PCOD9429796
Probable space group: P C C N
;
_chemical_formula_sum "Si O2"
_cell_formula_units_Z 60
_cell_length_a 9.441102
_cell_length_b 21.543695
_cell_length_c 17.194762
_cell_angle_alpha 90.000000
_cell_angle_beta 90.000000
_cell_angle_gamma 90.000000
_cell_volume 3497.349628
_symmetry_space_group_name_H-M "P C C N"
_symmetry_group_IT_number 56
_symmetry_cell_setting 'orthorhombic'
loop_
_space_group_symop_operation_xyz
x,y,z
1/2-x,1/2-y,z
1/2+x,-y,1/2-z
-x,1/2+y,1/2-z
-x,-y,-z
1/2+x,1/2+y,-z
1/2-x,y,1/2+z
x,1/2-y,1/2+z
loop_
_atom_site_type_symbol
_atom_site_label
_atom_site_fract_x
_atom_site_fract_y
_atom_site_fract_z
Si Si1 0.320396 0.463027 0.931242
Si Si2 0.171704 0.828094 0.069278
Si Si3 0.750000 0.750000 0.500844
Si Si4 0.477743 0.714036 0.602854
Si Si5 0.440984 0.356923 0.045669
Si Si6 0.456201 0.418341 0.343503
Si Si7 0.762982 0.036210 0.416458
Si Si8 0.955854 0.957675 0.832399
O O1 0.194624 0.432302 0.882322
O O2 0.427780 0.498402 0.873892
O O3 0.394849 0.409760 0.983109
O O4 0.264096 0.511806 0.996198
O O5 0.083031 0.782224 0.126706
O O6 0.334921 0.808131 0.058001
O O7 0.182597 0.898688 0.097084
O O8 0.082471 0.827224 0.990021
O O9 0.620013 0.725150 0.553666
O O10 0.817844 0.694062 0.452342
O O11 0.511922 0.655912 0.658663
O O12 0.467153 0.391228 0.125821
O O13 0.574735 0.449870 0.398055
O O14 0.468200 0.448749 0.258935
O O15 0.694609 0.986583 0.358086
#
# Coordination Sequence:
#
# PCOD9429796 Si02
#       8
#     8   8   4   8   8   8   8   8
#     4  11  19  35  55  83 104 151 184 226 261 337
#     4   9  16  33  56  77  99 134 192 224 255 319
#     4  10  18  34  58  80 100 140 188 238 264 314
#     4   9  19  31  54  81 100 137 182 230 266 320
#     4  10  18  34  57  78 104 141 191 222 263 330
#     4  11  22  34  51  84 116 140 177 233 281 324
#     4  10  19  35  56  80 104 145 188 225 264 325
#     4  11  21  35  53  80 116 148 174 223 287 333
#
# _framework density 17.155849
#
# number of rings (size 3 to 8) (size 9 to 14) (size 15 to 20)
#    0.000    1.867    4.000    2.000    0.000    0.000 
#    0.000    0.667    0.000   12.800    0.000    0.000 
#    0.000    0.000    0.000    0.000    0.000    0.000 
#
# Total GULP energy -334005.573203 kJ/mol
# GULP energy per Si atom -5566.759553 kJ/mol
# Density = 1.711680 g / cm^3
# Si number density = 17.155849 Si / 1000 Ang^3
#
#
#
# Elastic Constant Matrix: (Units=GPa)
#
#
# Indices 1 2 3 4 5 6 
#
# 1 80.0869 11.0096 18.9252 0.0000 0.0000 0.0000
# 2 11.0096 74.5543 21.0486 0.0000 0.0000 0.0000
# 3 18.9252 21.0486 61.9400 0.0000 0.0000 0.0000
# 4 0.0000 0.0000 0.0000 19.4818 0.0000 0.0000
# 5 0.0000 0.0000 0.0000 0.0000 9.6123 0.0000
# 6 0.0000 0.0000 0.0000 0.0000 0.0000 26.7870
#
#
#
# Elastic Compliance Matrix: (Units=1/GPa)
#
#
# Indices 1 2 3 4 5 6 
#
# 1 0.013515 -0.000918 -0.003817 0.000000 0.000000 0.000000
# 2 -0.000918 0.014899 -0.004782 0.000000 0.000000 0.000000
# 3 -0.003817 -0.004782 0.018936 0.000000 0.000000 0.000000
# 4 0.000000 0.000000 0.000000 0.051330 0.000000 0.000000
# 5 0.000000 0.000000 0.000000 0.000000 0.104034 0.000000
# 6 0.000000 0.000000 0.000000 0.000000 0.000000 0.037332
#
#
# Mechanical properties :
#
#
# Convention : Reuss Voigt Hill
#
# Bulk Modulus (GPa) = 35.31810 35.39423 35.35616
# Shear Modulus (GPa) = 18.62068 22.21605 20.41837
#
# Velocity S-wave (km/s) = 3.29809 3.60245 3.45363
# Velocity P-wave (km/s) = 5.92744 6.16274 6.04623
#
# Compressibility (1/GPa) = 0.02831410
#
# Stress axis : x y z
#
# Youngs Moduli (GPa) = 73.99349 67.11939 52.80888
#
# Poissons Ratio (x) = 0.06162 0.20159
# Poissons Ratio (y) = 0.06793 0.25256
# Poissons Ratio (z) = 0.28246 0.32100
#
# Static dielectric constant tensor:
#      x y z
#    x 1.594120 0.000000 0.000000 
#    y 0.000000 1.651790 0.000000 
#    z 0.000000 0.000000 1.535870 
# 
# From -- ./inp_files/11012.got.cif
#   From: 2010.05.17/outbox.cif.g08.bks.cpg/sg56_6_cif.got.tgz:11012.got - 2010.06.03 13:42:01.
