data_PCOD9429572
_publ_section_title
;
Structure prediction by ZEFSAII (Michael W. Deem and Ramdas Pophale) SiO2 
 PCOD9429572
Probable space group: P C C N
;
_chemical_formula_sum "Si O2"
_cell_formula_units_Z 56
_cell_length_a 30.030781
_cell_length_b 14.074154
_cell_length_c 8.222680
_cell_angle_alpha 90.000000
_cell_angle_beta 90.000000
_cell_angle_gamma 90.000000
_cell_volume 3475.380139
_symmetry_space_group_name_H-M "P C C N"
_symmetry_group_IT_number 56
_symmetry_cell_setting 'orthorhombic'
loop_
_space_group_symop_operation_xyz
x,y,z
1/2-x,1/2-y,z
1/2+x,-y,1/2-z
-x,1/2+y,1/2-z
-x,-y,-z
1/2+x,1/2+y,-z
1/2-x,y,1/2+z
x,1/2-y,1/2+z
loop_
_atom_site_type_symbol
_atom_site_label
_atom_site_fract_x
_atom_site_fract_y
_atom_site_fract_z
Si Si1 0.037771 0.538551 0.876419
Si Si2 0.853839 0.825692 0.715591
Si Si3 0.735325 0.640331 0.579941
Si Si4 0.817828 0.887249 0.245980
Si Si5 0.056525 0.134085 0.141758
Si Si6 0.896631 0.559037 0.919906
Si Si7 0.472691 0.169733 0.277747
O O1 0.044421 0.463635 0.730173
O O2 0.019426 0.634898 0.797695
O O3 0.082723 0.529653 0.982779
O O4 0.000000 0.500000 0.000000
O O5 0.804980 0.873709 0.709199
O O6 0.842862 0.713351 0.711270
O O7 0.889648 0.850413 0.854849
O O8 0.878168 0.866090 0.554276
O O9 0.750000 0.750000 0.594654
O O10 0.712934 0.627466 0.405580
O O11 0.781424 0.586294 0.611455
O O12 0.856313 0.959713 0.296814
O O13 0.036624 0.219751 0.249753
O O14 0.035442 0.143454 0.964566
O O15 0.935390 0.612340 0.823195
#
# Coordination Sequence:
#
# PCOD9429572 Si02
#       7
#     8   8   8   8   8   8   8
#     4   9  19  34  45  63  87 111 153 202 239 279
#     4   9  17  27  38  55  81 108 154 182 216 263
#     4   9  17  24  33  52  77 108 137 187 211 249
#     4  10  17  26  38  54  82 112 149 187 224 254
#     4  11  20  30  47  67  85 121 154 192 239 285
#     4   9  18  29  43  57  79 115 150 196 229 272
#     4  11  20  30  46  64  86 112 153 200 239 283
#
# _framework density 16.113344000000001
#
# number of rings (size 3 to 8) (size 9 to 14) (size 15 to 20)
#    0.000    2.286    1.429    4.286    2.000    1.143 
#    0.000    0.000    0.000    0.000    0.000    0.000 
#    0.000    0.000    0.000    0.000    0.000  374.286 
#
# Total GULP energy -311803.481694 kJ/mol
# GULP energy per Si atom -5567.919316 kJ/mol
# Density = 1.607667 g / cm^3
# Si number density = 16.113344 Si / 1000 Ang^3
#
#
#
# Elastic Constant Matrix: (Units=GPa)
#
#
# Indices 1 2 3 4 5 6 
#
# 1 74.1305 12.9508 15.3252 0.0000 0.0000 0.0000
# 2 12.9508 14.8291 -5.7856 0.0000 0.0000 0.0000
# 3 15.3252 -5.7856 43.3050 0.0000 0.0000 0.0000
# 4 0.0000 0.0000 0.0000 13.7076 0.0000 0.0000
# 5 0.0000 0.0000 0.0000 0.0000 27.9759 0.0000
# 6 0.0000 0.0000 0.0000 0.0000 0.0000 21.5964
#
#
#
# Elastic Compliance Matrix: (Units=1/GPa)
#
#
# Indices 1 2 3 4 5 6 
#
# 1 0.018974 -0.020246 -0.009420 0.000000 0.000000 0.000000
# 2 -0.020246 0.092746 0.019556 0.000000 0.000000 0.000000
# 3 -0.009420 0.019556 0.029038 0.000000 0.000000 0.000000
# 4 0.000000 0.000000 0.000000 0.072952 0.000000 0.000000
# 5 0.000000 0.000000 0.000000 0.000000 0.035745 0.000000
# 6 0.000000 0.000000 0.000000 0.000000 0.000000 0.046304
#
#
# Mechanical properties :
#
#
# Convention : Reuss Voigt Hill
#
# Bulk Modulus (GPa) = 8.29609 19.69393 13.99501
# Shear Modulus (GPa) = 14.03871 19.97426 17.00649
#
# Velocity S-wave (km/s) = 2.95489 3.52463 3.25226
# Velocity P-wave (km/s) = 4.09898 5.36774 4.77568
#
# Compressibility (1/GPa) = 0.12053873
#
# Stress axis : x y z
#
# Youngs Moduli (GPa) = 52.70362 10.78217 34.43741
#
# Poissons Ratio (x) = 0.21829 0.32439
# Poissons Ratio (y) = 1.06702 -0.67345
# Poissons Ratio (z) = 0.49645 -0.21085
#
# Static dielectric constant tensor:
#      x y z
#    x 1.618680 0.000000 0.000000 
#    y 0.000000 1.496930 0.000000 
#    z 0.000000 0.000000 1.623940 
# 
# From -- ./inp_files/3758.got.cif
#   From: 2010.05.17/outbox.cif.g08.bks.cpg/sg56_2_cif.got.tgz:3758.got - 2010.06.03 13:42:01.
