data_PCOD9429352
_publ_section_title
;
Structure prediction by ZEFSAII (Michael W. Deem and Ramdas Pophale) SiO2 
 PCOD9429352
Probable space group: P B A M
;
_chemical_formula_sum "Si O2"
_cell_formula_units_Z 64
_cell_length_a 21.000000
_cell_length_b 18.000000
_cell_length_c 9.000000
_cell_angle_alpha 90.000000
_cell_angle_beta 90.000000
_cell_angle_gamma 90.000000
_cell_volume 3402.000000
_symmetry_space_group_name_H-M "P B A M"
_symmetry_group_IT_number 55
_symmetry_cell_setting 'orthorhombic'
loop_
_space_group_symop_operation_xyz
x,y,z
-x,-y,z
1/2+x,1/2-y,-z
1/2-x,1/2+y,-z
-x,-y,-z
x,y,-z
1/2-x,1/2+y,z
1/2+x,1/2-y,z
loop_
_atom_site_type_symbol
_atom_site_label
_atom_site_fract_x
_atom_site_fract_y
_atom_site_fract_z
Si Si1 0.253950 0.931015 0.332248
Si Si2 0.237747 0.255139 0.669885
Si Si3 0.926588 0.417449 0.327811
Si Si4 0.477295 0.809625 0.171739
Si Si5 0.173813 0.040512 0.169688
Si Si6 0.804962 0.364959 0.167802
Si Si7 0.886242 0.555198 0.829428
Si Si8 0.113367 0.187933 0.819741
O O1 0.266350 0.956826 0.500000
O O2 0.250899 0.842434 0.331446
O O3 0.315457 0.948299 0.233066
O O4 0.191290 0.971016 0.270628
O O5 0.244170 0.227307 0.500000
O O6 0.286996 0.216956 0.780623
O O7 0.168800 0.231141 0.731906
O O8 0.936890 0.424206 0.500000
O O9 0.855029 0.395621 0.283667
O O10 0.931656 0.498317 0.254713
O O11 0.970246 0.352285 0.264303
O O12 0.415263 0.862923 0.181404
O O13 0.452886 0.728352 0.215779
O O14 0.497594 0.808295 0.000000
O O15 0.239075 0.089327 0.171799
O O16 0.120811 0.100712 0.215250
O O17 0.162372 0.017131 0.000000
O O18 0.830010 0.367759 0.000000
O O19 0.885201 0.532966 0.000000
O O20 0.123705 0.195415 0.000000
#
# Coordination Sequence:
#
# PCOD9429352 Si02
#       8
#     8   8   8   8   8   8   8   8
#     4  11  21  31  48  75 106 137 166 203 253 303
#     4  10  20  32  49  74 103 131 163 207 256 301
#     4  12  24  35  50  72 102 135 170 213 256 298
#     4  10  21  36  53  71  97 135 178 213 247 295
#     4   9  18  31  51  73  97 128 166 207 248 298
#     4  10  20  35  53  72  96 131 172 210 248 297
#     4  11  21  34  51  70  98 139 179 211 242 290
#     4   9  18  34  52  72  96 130 170 210 250 295
#
# _framework density 18.812463000000001
#
# number of rings (size 3 to 8) (size 9 to 14) (size 15 to 20)
#    0.000    1.750    2.500    3.750    0.000    6.500 
#    0.000    0.000    0.000    0.000    0.000    0.875 
#    0.000    7.000    0.000    0.000    0.000    0.000 
#
# Total GULP energy -356751.696275 kJ/mol
# GULP energy per Si atom -5574.245254 kJ/mol
# Density = 1.876965 g / cm^3
# Si number density = 18.812463 Si / 1000 Ang^3
#
#
#
# Elastic Constant Matrix: (Units=GPa)
#
#
# Indices 1 2 3 4 5 6 
#
# 1 1.9425 -1.1382 -6.5600 0.0000 0.0000 0.0000
# 2 -1.1382 17.4974 0.3147 0.0000 0.0000 0.0000
# 3 -6.5600 0.3147 30.8313 0.0000 0.0000 0.0000
# 4 0.0000 0.0000 0.0000 13.8030 0.0000 0.0000
# 5 0.0000 0.0000 0.0000 0.0000 27.0295 0.0000
# 6 0.0000 0.0000 0.0000 0.0000 0.0000 20.8339
#
#
#
# Elastic Compliance Matrix: (Units=1/GPa)
#
#
# Indices 1 2 3 4 5 6 
#
# 1 2.078487 0.127279 0.440943 0.000000 0.000000 0.000000
# 2 0.127279 0.064956 0.026418 0.000000 0.000000 0.000000
# 3 0.440943 0.026418 0.125985 0.000000 0.000000 0.000000
# 4 0.000000 0.000000 0.000000 0.072448 0.000000 0.000000
# 5 0.000000 0.000000 0.000000 0.000000 0.036997 0.000000
# 6 0.000000 0.000000 0.000000 0.000000 0.000000 0.047999
#
#
# Mechanical properties :
#
#
# Convention : Reuss Voigt Hill
#
# Bulk Modulus (GPa) = 0.28913 3.94490 2.11701
# Shear Modulus (GPa) = 2.09162 16.17692 9.13427
#
# Velocity S-wave (km/s) = 1.05558 2.93559 2.20590
# Velocity P-wave (km/s) = 1.28050 3.68670 2.75966
#
# Compressibility (1/GPa) = 3.45871031
#
# Stress axis : x y z
#
# Youngs Moduli (GPa) = 0.48112 15.39503 7.93745
#
# Poissons Ratio (x) = -1.95947 -3.49997
# Poissons Ratio (y) = -0.06124 -0.20969
# Poissons Ratio (z) = -0.21215 -0.40671
#
# Static dielectric constant tensor:
#      x y z
#    x 1.669750 0.000000 0.000000 
#    y 0.000000 1.715010 0.000000 
#    z 0.000000 0.000000 1.647370 
# 
# From -- ./inp_files/8963.got.cif
#   From: 2010.05.17/outbox.ucp.g08.bks.cvg/sg55_5_cif.got.tgz:8963.got - 2010.06.11 16:36:00.
