data_PCOD9429123
_publ_section_title
;
Structure prediction by ZEFSAII (Michael W. Deem and Ramdas Pophale) SiO2 
 PCOD9429123
Probable space group: P B A M
;
_chemical_formula_sum "Si O2"
_cell_formula_units_Z 40
_cell_length_a 7.684823
_cell_length_b 13.824312
_cell_length_c 14.555840
_cell_angle_alpha 90.000000
_cell_angle_beta 90.000000
_cell_angle_gamma 90.000000
_cell_volume 1546.374463
_symmetry_space_group_name_H-M "P B A M"
_symmetry_group_IT_number 55
_symmetry_cell_setting 'orthorhombic'
loop_
_space_group_symop_operation_xyz
x,y,z
-x,-y,z
1/2+x,1/2-y,-z
1/2-x,1/2+y,-z
-x,-y,-z
x,y,-z
1/2-x,1/2+y,z
1/2+x,1/2-y,z
loop_
_atom_site_type_symbol
_atom_site_label
_atom_site_fract_x
_atom_site_fract_y
_atom_site_fract_z
Si Si1 0.053557 0.716268 0.898011
Si Si2 0.849237 0.239278 0.300597
Si Si3 0.700647 0.587370 0.901665
Si Si4 0.858514 0.880584 0.603868
Si Si5 0.806222 0.540456 0.713626
O O1 0.141226 0.705352 0.797462
O O2 0.046010 0.834005 0.897643
O O3 0.875953 0.654914 0.898694
O O4 0.134077 0.695014 0.000000
O O5 0.812165 0.314101 0.381335
O O6 0.700829 0.155896 0.297995
O O7 0.011618 0.170901 0.325141
O O8 0.716613 0.522406 0.812655
O O9 0.698874 0.536969 0.000000
O O10 0.920861 0.877668 0.500000
O O11 0.802472 0.986539 0.635620
O O12 0.000000 0.500000 0.714754
#
# Coordination Sequence:
#
# PCOD9429123 Si02
#       5
#     8   8   8   8   8
#     4   9  17  33  60  92 125 161 201 249 310 379
#     4  11  23  43  68  95 128 165 214 268 325 391
#     4   9  18  34  59  92 129 169 212 258 314 382
#     4  12  26  44  67  92 122 166 218 275 331 382
#     4  11  24  41  62  93 131 167 210 262 320 385
#
# _framework density 25.866954
#
# number of rings (size 3 to 8) (size 9 to 14) (size 15 to 20)
#    0.000    1.600    0.000    6.000    0.000    3.200 
#    0.000    2.000    0.000    4.800    0.000    0.000 
#    0.000    0.000    0.000    0.000    0.000    0.000 
#
# Total GULP energy -223531.260269 kJ/mol
# GULP energy per Si atom -5588.281507 kJ/mol
# Density = 2.580808 g / cm^3
# Si number density = 25.866954 Si / 1000 Ang^3
#
#
#
# Elastic Constant Matrix: (Units=GPa)
#
#
# Indices 1 2 3 4 5 6 
#
# 1 72.9523 23.6692 22.8157 0.0000 0.0000 0.0000
# 2 23.6692 108.6000 37.3949 0.0000 0.0000 0.0000
# 3 22.8157 37.3949 172.9278 0.0000 0.0000 0.0000
# 4 0.0000 0.0000 0.0000 28.1263 0.0000 0.0000
# 5 0.0000 0.0000 0.0000 0.0000 29.0057 0.0000
# 6 0.0000 0.0000 0.0000 0.0000 0.0000 37.9864
#
#
#
# Elastic Compliance Matrix: (Units=1/GPa)
#
#
# Indices 1 2 3 4 5 6 
#
# 1 0.015049 -0.002805 -0.001379 0.000000 0.000000 0.000000
# 2 -0.002805 0.010472 -0.001894 0.000000 0.000000 0.000000
# 3 -0.001379 -0.001894 0.006374 0.000000 0.000000 0.000000
# 4 0.000000 0.000000 0.000000 0.035554 0.000000 0.000000
# 5 0.000000 0.000000 0.000000 0.000000 0.034476 0.000000
# 6 0.000000 0.000000 0.000000 0.000000 0.000000 0.026325
#
#
# Mechanical properties :
#
#
# Convention : Reuss Voigt Hill
#
# Bulk Modulus (GPa) = 50.66300 58.02665 54.34482
# Shear Modulus (GPa) = 34.01677 37.06371 35.54024
#
# Velocity S-wave (km/s) = 3.63032 3.78942 3.71072
# Velocity P-wave (km/s) = 6.09925 6.45195 6.27808
#
# Compressibility (1/GPa) = 0.01973827
#
# Stress axis : x y z
#
# Youngs Moduli (GPa) = 66.44986 95.49487 156.87887
#
# Poissons Ratio (x) = 0.26787 0.21633
# Poissons Ratio (y) = 0.18640 0.29719
# Poissons Ratio (z) = 0.09163 0.18090
#
# Static dielectric constant tensor:
#      x y z
#    x 2.184950 0.000000 0.000000 
#    y 0.000000 2.002130 0.000000 
#    z 0.000000 0.000000 1.985020 
# 
# From -- ./inp_files/17051.got.cif
#   From: 2010.05.17/outbox.cif.g08.bks.cpg/sg55_9_cif.got.tgz:17051.got - 2010.06.03 13:27:54.
