data_PCOD9429886
_publ_section_title
;
Structure prediction by ZEFSAII (Michael W. Deem and Ramdas Pophale) SiO2 
 PCOD9429886
Probable space group: P C C N
;
_chemical_formula_sum "Si O2"
_cell_formula_units_Z 32
_cell_length_a 5.029823
_cell_length_b 17.373673
_cell_length_c 12.363760
_cell_angle_alpha 90.000000
_cell_angle_beta 90.000000
_cell_angle_gamma 90.000000
_cell_volume 1080.425714
_symmetry_space_group_name_H-M "P C C N"
_symmetry_group_IT_number 56
_symmetry_cell_setting 'orthorhombic'
loop_
_space_group_symop_operation_xyz
x,y,z
1/2-x,1/2-y,z
1/2+x,-y,1/2-z
-x,1/2+y,1/2-z
-x,-y,-z
1/2+x,1/2+y,-z
1/2-x,y,1/2+z
x,1/2-y,1/2+z
loop_
_atom_site_type_symbol
_atom_site_label
_atom_site_fract_x
_atom_site_fract_y
_atom_site_fract_z
Si Si1 0.603516 0.822039 0.131480
Si Si2 0.601144 0.319697 0.597579
Si Si3 0.883122 0.909541 0.954297
Si Si4 0.703667 0.466423 0.310661
O O1 0.750000 0.750000 0.186316
O O2 0.381623 0.877359 0.182864
O O3 0.479739 0.787025 0.021274
O O4 0.808911 0.882900 0.075440
O O5 0.750000 0.250000 0.657203
O O6 0.318952 0.358788 0.624005
O O7 0.824805 0.383942 0.578393
O O8 0.789101 0.995233 0.924875
O O9 0.447036 0.510151 0.264710
#
# Coordination Sequence:
#
# PCOD9429886 Si02
#       4
#     8   8   8   8
#     4  10  23  43  76 101 134 185 254 302 352 418
#     4  10  18  36  68 104 126 163 236 311 348 390
#     4  10  21  40  70  99 131 180 242 298 344 419
#     4  12  28  45  64 103 155 196 230 290 378 450
#
# _framework density 29.617957000000001
#
# number of rings (size 3 to 8) (size 9 to 14) (size 15 to 20)
#    1.500    0.000    2.500    3.000    3.500    1.000 
#    0.000    6.250    0.000    1.500    0.000    0.000 
#    0.000    0.000    0.000    0.000    0.000    0.000 
#
# Total GULP energy -179118.204749 kJ/mol
# GULP energy per Si atom -5597.443898 kJ/mol
# Density = 2.955054 g / cm^3
# Si number density = 29.617957 Si / 1000 Ang^3
#
#
#
# Elastic Constant Matrix: (Units=GPa)
#
#
# Indices 1 2 3 4 5 6 
#
# 1 210.3318 45.7895 25.2322 0.0000 0.0000 0.0000
# 2 45.7895 193.8722 50.5226 0.0000 0.0000 0.0000
# 3 25.2322 50.5226 65.8999 0.0000 0.0000 0.0000
# 4 0.0000 0.0000 0.0000 45.4411 0.0000 0.0000
# 5 0.0000 0.0000 0.0000 0.0000 43.8342 0.0000
# 6 0.0000 0.0000 0.0000 0.0000 0.0000 64.2354
#
#
#
# Elastic Compliance Matrix: (Units=1/GPa)
#
#
# Indices 1 2 3 4 5 6 
#
# 1 0.005098 -0.000869 -0.001286 0.000000 0.000000 0.000000
# 2 -0.000869 0.006594 -0.004723 0.000000 0.000000 0.000000
# 3 -0.001286 -0.004723 0.019287 0.000000 0.000000 0.000000
# 4 0.000000 0.000000 0.000000 0.022006 0.000000 0.000000
# 5 0.000000 0.000000 0.000000 0.000000 0.022813 0.000000
# 6 0.000000 0.000000 0.000000 0.000000 0.000000 0.015568
#
#
# Mechanical properties :
#
#
# Convention : Reuss Voigt Hill
#
# Bulk Modulus (GPa) = 58.05616 79.24361 68.64988
# Shear Modulus (GPa) = 45.10083 53.93945 49.52014
#
# Velocity S-wave (km/s) = 3.90648 4.27215 4.09340
# Velocity P-wave (km/s) = 6.32390 7.15181 6.75056
#
# Compressibility (1/GPa) = 0.01722470
#
# Stress axis : x y z
#
# Youngs Moduli (GPa) = 196.16289 151.65373 51.84729
#
# Poissons Ratio (x) = 0.13178 0.06666
# Poissons Ratio (y) = 0.17046 0.24485
# Poissons Ratio (z) = 0.25220 0.71620
#
# Static dielectric constant tensor:
#      x y z
#    x 2.284310 0.000000 0.000000 
#    y 0.000000 2.394760 0.000000 
#    z 0.000000 0.000000 2.400120 
# 
# From -- ./inp_files/13709.got.cif
#   From: 2010.05.17/outbox.cif.g08.bks.cpg/sg56_7_cif.got.tgz:13709.got - 2010.06.03 13:42:01.
