data_PCOD9429809
_publ_section_title
;
Structure prediction by ZEFSAII (Michael W. Deem and Ramdas Pophale) SiO2 
 PCOD9429809
Probable space group: P C C N
;
_chemical_formula_sum "Si O2"
_cell_formula_units_Z 52
_cell_length_a 6.846675
_cell_length_b 14.972498
_cell_length_c 19.656274
_cell_angle_alpha 90.000000
_cell_angle_beta 90.000000
_cell_angle_gamma 90.000000
_cell_volume 2015.000574
_symmetry_space_group_name_H-M "P C C N"
_symmetry_group_IT_number 56
_symmetry_cell_setting 'orthorhombic'
loop_
_space_group_symop_operation_xyz
x,y,z
1/2-x,1/2-y,z
1/2+x,-y,1/2-z
-x,1/2+y,1/2-z
-x,-y,-z
1/2+x,1/2+y,-z
1/2-x,y,1/2+z
x,1/2-y,1/2+z
loop_
_atom_site_type_symbol
_atom_site_label
_atom_site_fract_x
_atom_site_fract_y
_atom_site_fract_z
Si Si1 0.917158 0.114504 0.708028
Si Si2 0.621180 0.937712 0.445716
Si Si3 0.862491 0.557407 0.296281
Si Si4 0.250000 0.250000 0.017785
Si Si5 0.903810 0.437227 0.065852
Si Si6 0.479146 0.628792 0.569159
Si Si7 0.978782 0.781820 0.706879
O O1 0.146121 0.095454 0.694425
O O2 0.841851 0.120709 0.630448
O O3 0.918883 0.197595 0.758298
O O4 0.846225 0.026276 0.746447
O O5 0.561532 0.969880 0.370467
O O6 0.618801 0.828089 0.446752
O O7 0.859916 0.942231 0.446314
O O8 0.500000 0.000000 0.500000
O O9 0.976767 0.638326 0.261785
O O10 0.104061 0.298085 0.967968
O O11 0.883035 0.542063 0.084681
O O12 0.833023 0.397209 0.993436
O O13 0.424496 0.673542 0.640158
O O14 0.750000 0.750000 0.693158
#
# Coordination Sequence:
#
# PCOD9429809 Si02
#       7
#     8   8   8   4   8   8   8
#     4  10  21  38  59  89 122 161 202 257 316 369
#     4  10  23  39  60  89 123 163 208 256 318 376
#     4  10  22  38  62  87 125 159 205 258 311 382
#     4  10  22  36  64  90 118 158 214 262 304 386
#     4   9  20  37  58  84 123 160 198 260 317 363
#     4  10  18  34  59  87 113 155 204 247 305 371
#     4  10  20  33  59  91 116 154 206 246 300 377
#
# _framework density 25.806445
#
# number of rings (size 3 to 8) (size 9 to 14) (size 15 to 20)
#    0.000    2.154    2.308    0.000    9.692    1.231 
#    0.000    1.538    0.000    1.846    0.000    0.000 
#    0.000    0.000    0.000    0.000    0.000    0.000 
#
# Total GULP energy -289813.235730 kJ/mol
# GULP energy per Si atom -5573.331456 kJ/mol
# Density = 2.574771 g / cm^3
# Si number density = 25.806445 Si / 1000 Ang^3
#
#
#
# Elastic Constant Matrix: (Units=GPa)
#
#
# Indices 1 2 3 4 5 6 
#
# 1 81.9222 10.8436 5.7241 0.0000 0.0000 0.0000
# 2 10.8436 115.2533 56.3698 0.0000 0.0000 0.0000
# 3 5.7241 56.3698 238.7591 0.0000 0.0000 0.0000
# 4 0.0000 0.0000 0.0000 41.5249 0.0000 0.0000
# 5 0.0000 0.0000 0.0000 0.0000 22.5143 0.0000
# 6 0.0000 0.0000 0.0000 0.0000 0.0000 -4.9317
#
#
#
# Elastic Compliance Matrix: (Units=1/GPa)
#
#
# Indices 1 2 3 4 5 6 
#
# 1 0.012361 -0.001151 -0.000025 0.000000 0.000000 0.000000
# 2 -0.001151 0.009916 -0.002314 0.000000 0.000000 0.000000
# 3 -0.000025 -0.002314 0.004735 0.000000 0.000000 0.000000
# 4 0.000000 0.000000 0.000000 0.024082 0.000000 0.000000
# 5 0.000000 0.000000 0.000000 0.000000 0.044416 0.000000
# 6 0.000000 0.000000 0.000000 0.000000 0.000000 -0.202768
#
#
# Mechanical properties :
#
#
# Convention : Reuss Voigt Hill
#
# Bulk Modulus (GPa) = 49.91515 64.64552 57.28033
# Shear Modulus (GPa) = -53.41787 36.02129 -8.69829
#
# Velocity S-wave (km/s) = -4.55460 3.74013 -1.83791
# Velocity P-wave (km/s) = 2.87664 6.61483 4.21194
#
# Compressibility (1/GPa) = 0.02003400
#
# Stress axis : x y z
#
# Youngs Moduli (GPa) = 80.90113 100.84293 211.18669
#
# Poissons Ratio (x) = 0.11606 0.00520
# Poissons Ratio (y) = 0.09311 0.48861
# Poissons Ratio (z) = 0.00199 0.23331
#
# Static dielectric constant tensor:
#      x y z
#    x 2.231550 0.000000 0.000000 
#    y 0.000000 2.176580 0.000000 
#    z 0.000000 0.000000 2.132800 
# 
# From -- ./inp_files/15718.got.cif
#   From: 2010.05.17/outbox.cif.g08.bks.cpg/sg56_8_cif.got.tgz:15718.got - 2010.06.03 13:42:01.
