data_PCOD9429072
_publ_section_title
;
Structure prediction by ZEFSAII (Michael W. Deem and Ramdas Pophale) SiO2 
 PCOD9429072
Probable space group: P B A M
;
_chemical_formula_sum "Si O2"
_cell_formula_units_Z 48
_cell_length_a 8.159064
_cell_length_b 14.365865
_cell_length_c 17.841931
_cell_angle_alpha 90.000000
_cell_angle_beta 90.000000
_cell_angle_gamma 90.000000
_cell_volume 2091.288630
_symmetry_space_group_name_H-M "P B A M"
_symmetry_group_IT_number 55
_symmetry_cell_setting 'orthorhombic'
loop_
_space_group_symop_operation_xyz
x,y,z
-x,-y,z
1/2+x,1/2-y,-z
1/2-x,1/2+y,-z
-x,-y,-z
x,y,-z
1/2-x,1/2+y,z
1/2+x,1/2-y,z
loop_
_atom_site_type_symbol
_atom_site_label
_atom_site_fract_x
_atom_site_fract_y
_atom_site_fract_z
Si Si1 0.289079 0.870974 0.586223
Si Si2 0.879050 0.710272 0.826040
Si Si3 0.815243 0.366436 0.912155
Si Si4 0.013433 0.230456 0.661493
Si Si5 0.807744 0.023869 0.821866
Si Si6 0.315431 0.543533 0.661746
O O1 0.245851 0.856272 0.500000
O O2 0.153544 0.821794 0.639785
O O3 0.454293 0.818286 0.608377
O O4 0.000000 0.000000 0.660849
O O5 0.810194 0.802516 0.864897
O O6 0.963129 0.735315 0.746692
O O7 0.737100 0.632261 0.816559
O O8 0.009703 0.664085 0.881199
O O9 0.779383 0.472778 0.890453
O O10 0.798228 0.350084 0.000000
O O11 0.214419 0.480180 0.604922
O O12 0.153192 0.151431 0.647800
O O13 0.747269 0.975496 0.744817
O O14 0.000000 0.000000 0.827351
#
# Coordination Sequence:
#
# PCOD9429072 Si02
#       6
#     8   8   8   8   8   8
#     4  11  23  40  64  97 133 167 214 275 333 387
#     4  12  24  43  71  96 134 180 227 278 331 410
#     4  12  27  44  67 101 137 174 224 285 346 394
#     4  11  22  40  66  93 126 171 220 263 323 400
#     4  11  23  43  70  98 131 177 228 276 332 407
#     4   9  20  38  64  91 122 167 218 257 317 392
#
# _framework density 22.952355000000001
#
# number of rings (size 3 to 8) (size 9 to 14) (size 15 to 20)
#    0.000    1.000    3.333    3.500    2.333    6.000 
#    0.000    0.833    0.000    2.000    0.000    0.000 
#    0.000    0.000    0.000    0.000    0.000    0.000 
#
# Total GULP energy -268623.975941 kJ/mol
# GULP energy per Si atom -5596.332832 kJ/mol
# Density = 2.290011 g / cm^3
# Si number density = 22.952355 Si / 1000 Ang^3
#
#
#
# Elastic Constant Matrix: (Units=GPa)
#
#
# Indices 1 2 3 4 5 6 
#
# 1 47.2766 7.3938 19.9105 0.0000 0.0000 0.0000
# 2 7.3938 105.3735 28.3709 0.0000 0.0000 0.0000
# 3 19.9105 28.3709 123.2406 0.0000 0.0000 0.0000
# 4 0.0000 0.0000 0.0000 27.1957 0.0000 0.0000
# 5 0.0000 0.0000 0.0000 0.0000 8.5532 0.0000
# 6 0.0000 0.0000 0.0000 0.0000 0.0000 39.5400
#
#
#
# Elastic Compliance Matrix: (Units=1/GPa)
#
#
# Indices 1 2 3 4 5 6 
#
# 1 0.022738 -0.000646 -0.003525 0.000000 0.000000 0.000000
# 2 -0.000646 0.010136 -0.002229 0.000000 0.000000 0.000000
# 3 -0.003525 -0.002229 0.009197 0.000000 0.000000 0.000000
# 4 0.000000 0.000000 0.000000 0.036770 0.000000 0.000000
# 5 0.000000 0.000000 0.000000 0.000000 0.116915 0.000000
# 6 0.000000 0.000000 0.000000 0.000000 0.000000 0.025291
#
#
# Mechanical properties :
#
#
# Convention : Reuss Voigt Hill
#
# Bulk Modulus (GPa) = 34.16466 43.02678 38.59572
# Shear Modulus (GPa) = 20.52525 29.73884 25.13204
#
# Velocity S-wave (km/s) = 2.99365 3.60346 3.31262
# Velocity P-wave (km/s) = 5.18330 6.00833 5.61100
#
# Compressibility (1/GPa) = 0.02927001
#
# Stress axis : x y z
#
# Youngs Moduli (GPa) = 43.98004 98.66306 108.73425
#
# Poissons Ratio (x) = 0.06378 0.38325
# Poissons Ratio (y) = 0.02843 0.24235
# Poissons Ratio (z) = 0.15501 0.21990
#
# Static dielectric constant tensor:
#      x y z
#    x 1.905960 0.000000 0.000000 
#    y 0.000000 1.859720 0.000000 
#    z 0.000000 0.000000 1.808340 
# 
# From -- ./inp_files/20770.got.cif
#   From: 2010.05.17/outbox.cif.g08.bks.cpg/sg55_11_cif.got.tgz:20770.got - 2010.06.03 13:27:54.
