data_PCOD9429659
_publ_section_title
;
Structure prediction by ZEFSAII (Michael W. Deem and Ramdas Pophale) SiO2 
 PCOD9429659
Probable space group: P C C N
;
_chemical_formula_sum "Si O2"
_cell_formula_units_Z 64
_cell_length_a 19.170487
_cell_length_b 8.499872
_cell_length_c 22.734467
_cell_angle_alpha 90.000000
_cell_angle_beta 90.000000
_cell_angle_gamma 90.000000
_cell_volume 3704.506048
_symmetry_space_group_name_H-M "P C C N"
_symmetry_group_IT_number 56
_symmetry_cell_setting 'orthorhombic'
loop_
_space_group_symop_operation_xyz
x,y,z
1/2-x,1/2-y,z
1/2+x,-y,1/2-z
-x,1/2+y,1/2-z
-x,-y,-z
1/2+x,1/2+y,-z
1/2-x,y,1/2+z
x,1/2-y,1/2+z
loop_
_atom_site_type_symbol
_atom_site_label
_atom_site_fract_x
_atom_site_fract_y
_atom_site_fract_z
Si Si1 0.429542 0.521421 0.305037
Si Si2 0.219506 0.580516 0.422046
Si Si3 0.286913 0.581077 0.239000
Si Si4 0.323482 0.159025 0.643078
Si Si5 0.146934 0.359614 0.900290
Si Si6 0.826573 0.667725 0.491116
Si Si7 0.834056 0.938422 0.185551
Si Si8 0.437394 0.294705 0.730485
O O1 0.357069 0.586095 0.277867
O O2 0.412998 0.463721 0.370929
O O3 0.491986 0.641842 0.297154
O O4 0.447903 0.363929 0.268085
O O5 0.250000 0.750000 0.434093
O O6 0.284955 0.467095 0.407609
O O7 0.181444 0.499702 0.476744
O O8 0.171444 0.573836 0.363815
O O9 0.250000 0.750000 0.234180
O O10 0.308426 0.504821 0.176755
O O11 0.232315 0.464956 0.272093
O O12 0.250000 0.250000 0.643087
O O13 0.349174 0.148553 0.575913
O O14 0.379710 0.251702 0.681901
O O15 0.165281 0.221713 0.853297
O O16 0.131449 0.276926 0.962688
O O17 0.750000 0.750000 0.489396
O O18 0.901878 0.923289 0.226184
#
# Coordination Sequence:
#
# PCOD9429659 Si02
#       8
#     8   8   8   8   8   8   8   8
#     4  10  22  34  51  78 112 144 172 221 273 326
#     4  10  18  27  50  82 103 132 170 234 275 302
#     4  11  22  32  54  82 111 139 178 220 275 323
#     4  10  19  35  55  75 103 152 183 215 267 326
#     4   9  18  32  53  74 104 135 184 222 265 312
#     4   8  17  32  51  73 102 136 190 225 256 314
#     4  10  18  32  51  75 106 139 168 217 265 332
#     4  10  22  33  52  77 112 143 176 213 276 330
#
# _framework density 17.276257999999999
#
# number of rings (size 3 to 8) (size 9 to 14) (size 15 to 20)
#    0.000    2.250    2.500    1.500    5.250    0.500 
#    0.000    0.625    0.000    0.000    0.000   32.375 
#    0.000    0.000    0.000    0.000    0.000    0.000 
#
# Total GULP energy -356738.130113 kJ/mol
# GULP energy per Si atom -5574.033283 kJ/mol
# Density = 1.723694 g / cm^3
# Si number density = 17.276258 Si / 1000 Ang^3
#
#
#
# Elastic Constant Matrix: (Units=GPa)
#
#
# Indices 1 2 3 4 5 6 
#
# 1 55.8289 21.3991 7.1605 0.0000 0.0000 0.0000
# 2 21.3991 68.2872 30.4837 0.0000 0.0000 0.0000
# 3 7.1605 30.4837 113.3532 0.0000 0.0000 0.0000
# 4 0.0000 0.0000 0.0000 11.3033 0.0000 0.0000
# 5 0.0000 0.0000 0.0000 0.0000 8.0007 0.0000
# 6 0.0000 0.0000 0.0000 0.0000 0.0000 32.7437
#
#
#
# Elastic Compliance Matrix: (Units=1/GPa)
#
#
# Indices 1 2 3 4 5 6 
#
# 1 0.020381 -0.006605 0.000489 0.000000 0.000000 0.000000
# 2 -0.006605 0.018782 -0.004634 0.000000 0.000000 0.000000
# 3 0.000489 -0.004634 0.010037 0.000000 0.000000 0.000000
# 4 0.000000 0.000000 0.000000 0.088470 0.000000 0.000000
# 5 0.000000 0.000000 0.000000 0.000000 0.124990 0.000000
# 6 0.000000 0.000000 0.000000 0.000000 0.000000 0.030540
#
#
# Mechanical properties :
#
#
# Convention : Reuss Voigt Hill
#
# Bulk Modulus (GPa) = 36.10042 39.50621 37.80332
# Shear Modulus (GPa) = 15.43527 22.30460 18.86994
#
# Velocity S-wave (km/s) = 2.99229 3.59702 3.30850
# Velocity P-wave (km/s) = 5.73408 6.33786 6.04351
#
# Compressibility (1/GPa) = 0.02770051
#
# Stress axis : x y z
#
# Youngs Moduli (GPa) = 49.06577 53.24143 99.62862
#
# Poissons Ratio (x) = 0.35165 -0.04870
# Poissons Ratio (y) = 0.32407 0.46166
# Poissons Ratio (z) = -0.02398 0.24671
#
# Static dielectric constant tensor:
#      x y z
#    x 1.568880 0.000000 0.000000 
#    y 0.000000 1.612020 0.000000 
#    z 0.000000 0.000000 1.607530 
# 
# From -- ./inp_files/19531.got.cif
#   From: 2010.05.17/outbox.cif.g08.bks.cpg/sg56_10_cif.got.tgz:19531.got - 2010.06.03 13:42:01.
