data_PCOD9429807
_publ_section_title
;
Structure prediction by ZEFSAII (Michael W. Deem and Ramdas Pophale) SiO2 
 PCOD9429807
Probable space group: P C C N
;
_chemical_formula_sum "Si O2"
_cell_formula_units_Z 64
_cell_length_a 12.887401
_cell_length_b 18.220735
_cell_length_c 10.633392
_cell_angle_alpha 90.000000
_cell_angle_beta 90.000000
_cell_angle_gamma 90.000000
_cell_volume 2496.910976
_symmetry_space_group_name_H-M "P C C N"
_symmetry_group_IT_number 56
_symmetry_cell_setting 'orthorhombic'
loop_
_space_group_symop_operation_xyz
x,y,z
1/2-x,1/2-y,z
1/2+x,-y,1/2-z
-x,1/2+y,1/2-z
-x,-y,-z
1/2+x,1/2+y,-z
1/2-x,y,1/2+z
x,1/2-y,1/2+z
loop_
_atom_site_type_symbol
_atom_site_label
_atom_site_fract_x
_atom_site_fract_y
_atom_site_fract_z
Si Si1 0.422809 0.577841 0.073835
Si Si2 0.432164 0.815210 0.906898
Si Si3 0.037580 0.626831 0.162396
Si Si4 0.396903 0.274994 0.217763
Si Si5 0.531585 0.534036 0.314968
Si Si6 0.200159 0.021432 0.875608
Si Si7 0.637684 0.831100 0.547663
Si Si8 0.736963 0.118538 0.230011
O O1 0.465725 0.527105 0.186204
O O2 0.521062 0.631023 0.043324
O O3 0.326874 0.620449 0.139584
O O4 0.375350 0.526396 0.966948
O O5 0.491464 0.756008 0.826255
O O6 0.493604 0.890500 0.872811
O O7 0.315441 0.823808 0.861792
O O8 0.443634 0.812516 0.055247
O O9 0.030308 0.543031 0.115058
O O10 0.141315 0.626064 0.246952
O O11 0.928364 0.647176 0.223951
O O12 0.356841 0.220446 0.327530
O O13 0.344649 0.288839 0.082852
O O14 0.646971 0.542316 0.257537
O O15 0.215745 0.099743 0.940294
O O16 0.283115 0.960398 0.838199
#
# Coordination Sequence:
#
# PCOD9429807 Si02
#       8
#     8   8   8   8   8   8   8   8
#     4  10  18  35  57  83 116 152 199 254 305 364
#     4  11  21  38  54  83 123 153 200 252 302 371
#     4  11  22  35  55  83 116 159 199 235 307 364
#     4  12  22  37  57  88 124 163 197 246 311 371
#     4   9  18  34  56  80 110 148 200 261 294 348
#     4  10  18  34  59  84 114 155 206 263 301 358
#     4  11  21  38  60  87 125 158 209 250 308 374
#     4  10  21  35  54  85 118 158 198 247 302 366
#
# _framework density 25.631671000000001
#
# number of rings (size 3 to 8) (size 9 to 14) (size 15 to 20)
#    0.000    1.500    5.000    4.875    0.000    0.500 
#    0.000    1.250    0.000    0.000    0.000   13.125 
#    0.000    0.000    0.000    0.000    0.000    0.000 
#
# Total GULP energy -357385.261295 kJ/mol
# GULP energy per Si atom -5584.144708 kJ/mol
# Density = 2.557333 g / cm^3
# Si number density = 25.631671 Si / 1000 Ang^3
#
#
#
# Elastic Constant Matrix: (Units=GPa)
#
#
# Indices 1 2 3 4 5 6 
#
# 1 66.9611 25.9588 9.9749 0.0000 0.0000 0.0000
# 2 25.9588 89.2382 26.3090 0.0000 0.0000 0.0000
# 3 9.9749 26.3090 119.5402 0.0000 0.0000 0.0000
# 4 0.0000 0.0000 0.0000 33.9691 0.0000 0.0000
# 5 0.0000 0.0000 0.0000 0.0000 0.4522 0.0000
# 6 0.0000 0.0000 0.0000 0.0000 0.0000 31.8016
#
#
#
# Elastic Compliance Matrix: (Units=1/GPa)
#
#
# Indices 1 2 3 4 5 6 
#
# 1 0.016846 -0.004797 -0.000350 0.000000 0.000000 0.000000
# 2 -0.004797 0.013350 -0.002538 0.000000 0.000000 0.000000
# 3 -0.000350 -0.002538 0.008953 0.000000 0.000000 0.000000
# 4 0.000000 0.000000 0.000000 0.029438 0.000000 0.000000
# 5 0.000000 0.000000 0.000000 0.000000 2.211414 0.000000
# 6 0.000000 0.000000 0.000000 0.000000 0.000000 0.031445
#
#
# Mechanical properties :
#
#
# Convention : Reuss Voigt Hill
#
# Bulk Modulus (GPa) = 42.05407 44.46943 43.26175
# Shear Modulus (GPa) = 2.14156 27.47771 14.80963
#
# Velocity S-wave (km/s) = 0.91506 3.27773 2.40633
# Velocity P-wave (km/s) = 4.19036 5.63132 4.96341
#
# Compressibility (1/GPa) = 0.02377891
#
# Stress axis : x y z
#
# Youngs Moduli (GPa) = 59.36165 74.90847 111.69307
#
# Poissons Ratio (x) = 0.35935 0.03908
# Poissons Ratio (y) = 0.28477 0.28345
# Poissons Ratio (z) = 0.02077 0.19010
#
# Static dielectric constant tensor:
#      x y z
#    x 2.054940 0.000000 0.000000 
#    y 0.000000 2.035140 0.000000 
#    z 0.000000 0.000000 2.066530 
# 
# From -- ./inp_files/8041.got.cif
#   From: 2010.05.17/outbox.cif.g08.bks.cpg/sg56_5_cif.got.tgz:8041.got - 2010.06.03 13:42:01.
