data_PCOD9429109
_publ_section_title
;
Structure prediction by ZEFSAII (Michael W. Deem and Ramdas Pophale) SiO2 
 PCOD9429109
Probable space group: P B A M
;
_chemical_formula_sum "Si O2"
_cell_formula_units_Z 40
_cell_length_a 13.896956
_cell_length_b 14.354852
_cell_length_c 8.366817
_cell_angle_alpha 90.000000
_cell_angle_beta 90.000000
_cell_angle_gamma 90.000000
_cell_volume 1669.085837
_symmetry_space_group_name_H-M "P B A M"
_symmetry_group_IT_number 55
_symmetry_cell_setting 'orthorhombic'
loop_
_space_group_symop_operation_xyz
x,y,z
-x,-y,z
1/2+x,1/2-y,-z
1/2-x,1/2+y,-z
-x,-y,-z
x,y,-z
1/2-x,1/2+y,z
1/2+x,1/2-y,z
loop_
_atom_site_type_symbol
_atom_site_label
_atom_site_fract_x
_atom_site_fract_y
_atom_site_fract_z
Si Si1 0.303885 0.224620 0.186771
Si Si2 0.901696 0.549077 0.814531
Si Si3 0.700537 0.568675 0.314225
Si Si4 0.108775 0.111948 0.809574
Si Si5 0.492863 0.778940 0.317570
O O1 0.296404 0.335059 0.217254
O O2 0.206853 0.169838 0.228498
O O3 0.396974 0.194967 0.286464
O O4 0.323684 0.207537 0.000000
O O5 0.807532 0.527035 0.713948
O O6 0.926960 0.658031 0.796089
O O7 0.000000 0.500000 0.760768
O O8 0.883901 0.525214 0.000000
O O9 0.684529 0.588965 0.500000
O O10 0.625991 0.492219 0.250997
O O11 0.025337 0.171385 0.726019
O O12 0.094630 0.111854 0.000000
O O13 0.465123 0.796466 0.500000
#
# Coordination Sequence:
#
# PCOD9429109 Si02
#       5
#     8   8   8   8   8
#     4  11  24  44  69  95 131 177 225 271 329 402
#     4  11  23  41  65  95 131 174 225 270 325 397
#     4  12  25  41  66  98 134 171 218 277 337 390
#     4  11  24  44  69  95 131 177 225 271 329 402
#     4  12  25  41  66  98 134 171 218 277 337 390
#
# _framework density 23.965214
#
# number of rings (size 3 to 8) (size 9 to 14) (size 15 to 20)
#    0.000    0.600    2.000    6.600    0.000    9.600 
#    0.000    4.000    0.000    0.000    0.000    0.000 
#    0.000    0.000    0.000    0.000    0.000    0.000 
#
# Total GULP energy -224207.088096 kJ/mol
# GULP energy per Si atom -5605.177202 kJ/mol
# Density = 2.391067 g / cm^3
# Si number density = 23.965214 Si / 1000 Ang^3
#
#
#
# Elastic Constant Matrix: (Units=GPa)
#
#
# Indices 1 2 3 4 5 6 
#
# 1 50.2935 -3.6565 10.2165 0.0000 0.0000 0.0000
# 2 -3.6565 99.6827 -5.3799 0.0000 0.0000 0.0000
# 3 10.2165 -5.3799 67.1936 0.0000 0.0000 0.0000
# 4 0.0000 0.0000 0.0000 -58.3387 0.0000 0.0000
# 5 0.0000 0.0000 0.0000 0.0000 45.3255 0.0000
# 6 0.0000 0.0000 0.0000 0.0000 0.0000 42.4838
#
#
#
# Elastic Compliance Matrix: (Units=1/GPa)
#
#
# Indices 1 2 3 4 5 6 
#
# 1 0.020551 0.000588 -0.003078 0.000000 0.000000 0.000000
# 2 0.000588 0.010092 0.000719 0.000000 0.000000 0.000000
# 3 -0.003078 0.000719 0.015408 0.000000 0.000000 0.000000
# 4 0.000000 0.000000 0.000000 -0.017141 0.000000 0.000000
# 5 0.000000 0.000000 0.000000 0.000000 0.022063 0.000000
# 6 0.000000 0.000000 0.000000 0.000000 0.000000 0.023538
#
#
# Mechanical properties :
#
#
# Convention : Reuss Voigt Hill
#
# Bulk Modulus (GPa) = 23.52458 24.39223 23.95840
# Shear Modulus (GPa) = 54.21638 20.29344 37.25491
#
# Velocity S-wave (km/s) = 4.76152 2.91312 3.94704
# Velocity P-wave (km/s) = 6.32984 4.63846 5.54897
#
# Compressibility (1/GPa) = 0.04250874
#
# Stress axis : x y z
#
# Youngs Moduli (GPa) = 48.65893 99.08668 64.90198
#
# Poissons Ratio (x) = -0.05824 0.19975
# Poissons Ratio (y) = -0.02860 -0.04664
# Poissons Ratio (z) = 0.14976 -0.07121
#
# Static dielectric constant tensor:
#      x y z
#    x 1.939120 0.000000 0.000000 
#    y 0.000000 1.968320 0.000000 
#    z 0.000000 0.000000 1.788400 
# 
# From -- ./inp_files/5203.got.cif
#   From: 2010.05.17/outbox.cif.g08.bks.cpg/sg55_3_cif.got.tgz:5203.got - 2010.06.03 13:27:54.
