data_PCOD9429502
_publ_section_title
;
Structure prediction by ZEFSAII (Michael W. Deem and Ramdas Pophale) SiO2 
 PCOD9429502
Probable space group: P C C N
;
_chemical_formula_sum "Si O2"
_cell_formula_units_Z 64
_cell_length_a 32.909426
_cell_length_b 14.907951
_cell_length_c 5.471306
_cell_angle_alpha 90.000000
_cell_angle_beta 90.000000
_cell_angle_gamma 90.000000
_cell_volume 2684.288982
_symmetry_space_group_name_H-M "P C C N"
_symmetry_group_IT_number 56
_symmetry_cell_setting 'orthorhombic'
loop_
_space_group_symop_operation_xyz
x,y,z
1/2-x,1/2-y,z
1/2+x,-y,1/2-z
-x,1/2+y,1/2-z
-x,-y,-z
1/2+x,1/2+y,-z
1/2-x,y,1/2+z
x,1/2-y,1/2+z
loop_
_atom_site_type_symbol
_atom_site_label
_atom_site_fract_x
_atom_site_fract_y
_atom_site_fract_z
Si Si1 0.387606 0.566174 0.959867
Si Si2 0.356956 0.308418 0.980210
Si Si3 0.641994 0.435975 0.533520
Si Si4 0.831997 0.241378 0.088979
Si Si5 0.054377 0.192225 0.982694
Si Si6 0.763321 0.080498 0.421569
Si Si7 0.964239 0.310089 0.494568
Si Si8 0.269759 0.118678 0.575225
O O1 0.383269 0.523808 0.691174
O O2 0.356425 0.649876 0.918566
O O3 0.371357 0.523033 0.209169
O O4 0.431045 0.611598 0.001694
O O5 0.355174 0.256598 0.719466
O O6 0.401611 0.354429 0.988872
O O7 0.316186 0.365622 0.003810
O O8 0.637032 0.327117 0.572532
O O9 0.689724 0.443224 0.474062
O O10 0.808935 0.252550 0.338371
O O11 0.054387 0.246616 0.727170
O O12 0.009851 0.148515 0.990832
O O13 0.744096 0.124028 0.659898
O O14 0.738866 0.986832 0.405431
O O15 0.959692 0.250770 0.746233
O O16 0.257617 0.153003 0.846265
#
# Coordination Sequence:
#
# PCOD9429502 Si02
#       8
#     8   8   8   8   8   8   8   8
#     4  10  17  26  43  67  93 122 157 196 242 293
#     4  10  19  32  50  75 107 137 160 187 235 291
#     4  10  18  29  46  64  87 120 157 204 252 287
#     4   8  14  23  37  57  81 108 141 180 226 278
#     4   8  16  27  41  64  99 138 164 184 220 280
#     4  10  21  37  52  66  89 119 160 211 253 292
#     4  10  16  25  41  65  98 134 166 193 228 280
#     4  10  21  35  52  74  98 123 163 206 240 286
#
# _framework density 23.842441000000001
#
# number of rings (size 3 to 8) (size 9 to 14) (size 15 to 20)
#    0.000    2.500    0.000    4.500    0.000    1.500 
#    0.000    0.000    0.000   20.250    0.000    0.000 
#    0.000   24.000    0.000    0.000    0.000    0.000 
#
# Total GULP energy -357023.807387 kJ/mol
# GULP energy per Si atom -5578.496990 kJ/mol
# Density = 2.378817 g / cm^3
# Si number density = 23.842441 Si / 1000 Ang^3
#
#
#
# Elastic Constant Matrix: (Units=GPa)
#
#
# Indices 1 2 3 4 5 6 
#
# 1 155.0704 13.6892 15.5813 0.0000 0.0000 0.0000
# 2 13.6892 27.7943 13.0737 0.0000 0.0000 0.0000
# 3 15.5813 13.0737 238.8233 0.0000 0.0000 0.0000
# 4 0.0000 0.0000 0.0000 2.3376 0.0000 0.0000
# 5 0.0000 0.0000 0.0000 0.0000 39.0977 0.0000
# 6 0.0000 0.0000 0.0000 0.0000 0.0000 71.9182
#
#
#
# Elastic Compliance Matrix: (Units=1/GPa)
#
#
# Indices 1 2 3 4 5 6 
#
# 1 0.006758 -0.003204 -0.000266 0.000000 0.000000 0.000000
# 2 -0.003204 0.038448 -0.001896 0.000000 0.000000 0.000000
# 3 -0.000266 -0.001896 0.004308 0.000000 0.000000 0.000000
# 4 0.000000 0.000000 0.000000 0.427788 0.000000 0.000000
# 5 0.000000 0.000000 0.000000 0.000000 0.025577 0.000000
# 6 0.000000 0.000000 0.000000 0.000000 0.000000 0.013905
#
#
# Mechanical properties :
#
#
# Convention : Reuss Voigt Hill
#
# Bulk Modulus (GPa) = 25.78325 56.26406 41.02366
# Shear Modulus (GPa) = 9.25168 47.96028 28.60598
#
# Velocity S-wave (km/s) = 1.97200 4.48990 3.46756
# Velocity P-wave (km/s) = 4.00281 7.10833 5.76849
#
# Compressibility (1/GPa) = 0.03878487
#
# Stress axis : x y z
#
# Youngs Moduli (GPa) = 147.96894 26.00902 232.11031
#
# Poissons Ratio (x) = 0.08332 0.06164
# Poissons Ratio (y) = 0.47404 0.44002
# Poissons Ratio (z) = 0.03929 0.04931
#
# Static dielectric constant tensor:
#      x y z
#    x 1.881810 0.000000 0.000000 
#    y 0.000000 2.016280 0.000000 
#    z 0.000000 0.000000 2.036810 
# 
# From -- ./inp_files/1380.got.cif
#   From: 2010.05.17/outbox.cif.g08.bks.cpg/sg56_1_cif.got.tgz:1380.got - 2010.06.03 13:42:01.
