data_PCOD9429997
_publ_section_title
;
Structure prediction by ZEFSAII (Michael W. Deem and Ramdas Pophale) SiO2 
 PCOD9429997
Probable space group: P C C N
;
_chemical_formula_sum "Si O2"
_cell_formula_units_Z 36
_cell_length_a 13.937834
_cell_length_b 15.358306
_cell_length_c 7.654247
_cell_angle_alpha 90.000000
_cell_angle_beta 90.000000
_cell_angle_gamma 90.000000
_cell_volume 1638.479744
_symmetry_space_group_name_H-M "P C C N"
_symmetry_group_IT_number 56
_symmetry_cell_setting 'orthorhombic'
loop_
_space_group_symop_operation_xyz
x,y,z
1/2-x,1/2-y,z
1/2+x,-y,1/2-z
-x,1/2+y,1/2-z
-x,-y,-z
1/2+x,1/2+y,-z
1/2-x,y,1/2+z
x,1/2-y,1/2+z
loop_
_atom_site_type_symbol
_atom_site_label
_atom_site_fract_x
_atom_site_fract_y
_atom_site_fract_z
Si Si1 0.750000 0.750000 0.333872
Si Si2 0.620132 0.435751 0.347105
Si Si3 0.632012 0.655094 0.089168
Si Si4 0.517266 0.103903 0.169294
Si Si5 0.339316 0.960873 0.539016
O O1 0.722756 0.666594 0.219246
O O2 0.842087 0.727403 0.448311
O O3 0.562406 0.527496 0.355880
O O4 0.561164 0.374399 0.480571
O O5 0.629408 0.412879 0.141818
O O6 0.727094 0.448914 0.421715
O O7 0.538010 0.669783 0.203430
O O8 0.634481 0.561311 0.000710
O O9 0.602119 0.067705 0.291402
#
# Coordination Sequence:
#
# PCOD9429997 Si02
#       5
#     4   8   8   8   8
#     4  10  22  36  56  76 112 162 184 220 276 326
#     4  10  19  31  51  83 111 146 175 222 293 337
#     4  10  20  37  51  81 111 149 192 220 271 347
#     4  10  21  34  53  84 114 150 183 233 296 330
#     4  11  19  35  56  84 120 145 181 239 294 333
#
# _framework density 21.971588000000001
#
# number of rings (size 3 to 8) (size 9 to 14) (size 15 to 20)
#    0.000    1.778    2.222    5.333    0.000    0.000 
#   12.000    0.000    0.000    0.000    0.000    4.667 
#    0.000    0.000    0.000    0.000    0.000    0.000 
#
# Total GULP energy -200697.645792 kJ/mol
# GULP energy per Si atom -5574.934605 kJ/mol
# Density = 2.192158 g / cm^3
# Si number density = 21.971588 Si / 1000 Ang^3
#
#
#
# Elastic Constant Matrix: (Units=GPa)
#
#
# Indices 1 2 3 4 5 6 
#
# 1 107.8850 -0.1420 26.1263 0.0000 0.0000 0.0000
# 2 -0.1420 10.2812 16.2057 0.0000 0.0000 0.0000
# 3 26.1263 16.2057 105.0699 0.0000 0.0000 0.0000
# 4 0.0000 0.0000 0.0000 14.3481 0.0000 0.0000
# 5 0.0000 0.0000 0.0000 0.0000 41.3075 0.0000
# 6 0.0000 0.0000 0.0000 0.0000 0.0000 16.6127
#
#
#
# Elastic Compliance Matrix: (Units=1/GPa)
#
#
# Indices 1 2 3 4 5 6 
#
# 1 0.010086 0.005407 -0.003342 0.000000 0.000000 0.000000
# 2 0.005407 0.131406 -0.021612 0.000000 0.000000 0.000000
# 3 -0.003342 -0.021612 0.013682 0.000000 0.000000 0.000000
# 4 0.000000 0.000000 0.000000 0.069696 0.000000 0.000000
# 5 0.000000 0.000000 0.000000 0.000000 0.024209 0.000000
# 6 0.000000 0.000000 0.000000 0.000000 0.000000 0.060195
#
#
# Mechanical properties :
#
#
# Convention : Reuss Voigt Hill
#
# Bulk Modulus (GPa) = 8.61480 34.17959 21.39719
# Shear Modulus (GPa) = 12.91787 26.52339 19.72063
#
# Velocity S-wave (km/s) = 2.42737 3.47820 2.99917
# Velocity P-wave (km/s) = 3.43301 5.63210 4.66402
#
# Compressibility (1/GPa) = 0.11607932
#
# Stress axis : x y z
#
# Youngs Moduli (GPa) = 99.15215 7.60998 73.08954
#
# Poissons Ratio (x) = -0.04115 0.24425
# Poissons Ratio (y) = -0.53609 1.57963
# Poissons Ratio (z) = 0.33134 0.16447
#
# Static dielectric constant tensor:
#      x y z
#    x 1.820830 0.000000 0.000000 
#    y 0.000000 1.835550 0.000000 
#    z 0.000000 0.000000 1.946690 
# 
# From -- ./inp_files/3167.got.cif
#   From: 2010.05.17/outbox.cif.g08.bks.cpg/sg56_2_cif.got.tgz:3167.got - 2010.06.03 13:42:01.
