data_PCOD9429830
_publ_section_title
;
Structure prediction by ZEFSAII (Michael W. Deem and Ramdas Pophale) SiO2 
 PCOD9429830
Probable space group: P C C N
;
_chemical_formula_sum "Si O2"
_cell_formula_units_Z 64
_cell_length_a 16.269338
_cell_length_b 9.931216
_cell_length_c 19.986105
_cell_angle_alpha 90.000000
_cell_angle_beta 90.000000
_cell_angle_gamma 90.000000
_cell_volume 3229.241122
_symmetry_space_group_name_H-M "P C C N"
_symmetry_group_IT_number 56
_symmetry_cell_setting 'orthorhombic'
loop_
_space_group_symop_operation_xyz
x,y,z
1/2-x,1/2-y,z
1/2+x,-y,1/2-z
-x,1/2+y,1/2-z
-x,-y,-z
1/2+x,1/2+y,-z
1/2-x,y,1/2+z
x,1/2-y,1/2+z
loop_
_atom_site_type_symbol
_atom_site_label
_atom_site_fract_x
_atom_site_fract_y
_atom_site_fract_z
Si Si1 0.445463 0.732931 0.219008
Si Si2 0.752990 0.910643 0.629849
Si Si3 0.299509 0.613915 0.134827
Si Si4 0.936680 0.863136 0.627013
Si Si5 0.063727 0.382771 0.018515
Si Si6 0.250469 0.087311 0.023982
Si Si7 0.535820 0.621639 0.342323
Si Si8 0.167813 0.991824 0.738578
O O1 0.386626 0.654452 0.167213
O O2 0.532351 0.758418 0.181660
O O3 0.468701 0.664858 0.288731
O O4 0.396185 0.868209 0.238427
O O5 0.750000 0.750000 0.636674
O O6 0.850349 0.937327 0.639602
O O7 0.728887 0.942724 0.553423
O O8 0.697643 0.973277 0.687415
O O9 0.250000 0.750000 0.113123
O O10 0.299681 0.503567 0.075901
O O11 0.245822 0.553007 0.195256
O O12 0.929906 0.803887 0.551943
O O13 0.008489 0.973749 0.632891
O O14 0.152872 0.447453 0.032022
O O15 0.041269 0.303615 0.086259
O O16 0.000000 0.500000 0.000000
O O17 0.250000 0.250000 0.034608
O O18 0.621653 0.609220 0.303045
#
# Coordination Sequence:
#
# PCOD9429830 Si02
#       8
#     8   8   8   8   8   8   8   8
#     4  10  21  36  55  86 124 153 194 262 297 354
#     4  10  20  36  60  83 118 155 197 248 304 360
#     4  10  21  39  61  83 123 164 201 242 310 363
#     4   9  19  35  56  81 111 153 196 243 296 354
#     4   9  18  35  61  82 110 155 206 241 287 363
#     4  10  21  40  60  90 123 153 205 257 294 361
#     4  10  18  35  56  81 113 148 201 240 294 352
#     4  10  20  36  57  84 117 153 204 245 301 359
#
# _framework density 19.818898000000001
#
# number of rings (size 3 to 8) (size 9 to 14) (size 15 to 20)
#    0.000    2.250    1.250    1.500    1.750    0.500 
#    9.000    1.875    0.000    3.000    0.000    0.000 
#    0.000    0.000    0.000    0.000    0.000    0.000 
#
# Total GULP energy -356407.557175 kJ/mol
# GULP energy per Si atom -5568.868081 kJ/mol
# Density = 1.977379 g / cm^3
# Si number density = 19.818898 Si / 1000 Ang^3
#
#
#
# Elastic Constant Matrix: (Units=GPa)
#
#
# Indices 1 2 3 4 5 6 
#
# 1 54.7620 12.5096 45.3393 0.0000 0.0000 0.0000
# 2 12.5096 38.1943 60.2049 0.0000 0.0000 0.0000
# 3 45.3393 60.2049 198.4478 0.0000 0.0000 0.0000
# 4 0.0000 0.0000 0.0000 26.9771 0.0000 0.0000
# 5 0.0000 0.0000 0.0000 0.0000 22.4830 0.0000
# 6 0.0000 0.0000 0.0000 0.0000 0.0000 14.8337
#
#
#
# Elastic Compliance Matrix: (Units=1/GPa)
#
#
# Indices 1 2 3 4 5 6 
#
# 1 0.022560 0.001410 -0.005582 0.000000 0.000000 0.000000
# 2 0.001410 0.050265 -0.015571 0.000000 0.000000 0.000000
# 3 -0.005582 -0.015571 0.011039 0.000000 0.000000 0.000000
# 4 0.000000 0.000000 0.000000 0.037068 0.000000 0.000000
# 5 0.000000 0.000000 0.000000 0.000000 0.044478 0.000000
# 6 0.000000 0.000000 0.000000 0.000000 0.000000 0.067414
#
#
# Mechanical properties :
#
#
# Convention : Reuss Voigt Hill
#
# Bulk Modulus (GPa) = 22.53443 58.61242 40.57343
# Shear Modulus (GPa) = 17.41526 24.41544 20.91535
#
# Velocity S-wave (km/s) = 2.96754 3.51369 3.25210
# Velocity P-wave (km/s) = 4.81005 6.78967 5.88371
#
# Compressibility (1/GPa) = 0.04437655
#
# Stress axis : x y z
#
# Youngs Moduli (GPa) = 44.32548 19.89450 90.59192
#
# Poissons Ratio (x) = -0.02805 0.50569
# Poissons Ratio (y) = -0.06249 1.41065
# Poissons Ratio (z) = 0.24743 0.30979
#
# Static dielectric constant tensor:
#      x y z
#    x 0.676180 0.000000 0.000000 
#    y 0.000000 1.742110 0.000000 
#    z 0.000000 0.000000 1.767910 
# 
# From -- ./inp_files/16729.got.cif
#   From: 2010.05.17/outbox.cif.g08.bks.cpg/sg56_9_cif.got.tgz:16729.got - 2010.06.03 13:42:01.
