data_PCOD9429227
_publ_section_title
;
Structure prediction by ZEFSAII (Michael W. Deem and Ramdas Pophale) SiO2 
 PCOD9429227
Probable space group: P B A M
;
_chemical_formula_sum "Si O2"
_cell_formula_units_Z 48
_cell_length_a 35.395293
_cell_length_b 7.631742
_cell_length_c 7.980347
_cell_angle_alpha 90.000000
_cell_angle_beta 90.000000
_cell_angle_gamma 90.000000
_cell_volume 2155.713133
_symmetry_space_group_name_H-M "P B A M"
_symmetry_group_IT_number 55
_symmetry_cell_setting 'orthorhombic'
loop_
_space_group_symop_operation_xyz
x,y,z
-x,-y,z
1/2+x,1/2-y,-z
1/2-x,1/2+y,-z
-x,-y,-z
x,y,-z
1/2-x,1/2+y,z
1/2+x,1/2-y,z
loop_
_atom_site_type_symbol
_atom_site_label
_atom_site_fract_x
_atom_site_fract_y
_atom_site_fract_z
Si Si1 0.182525 0.163793 0.000000
Si Si2 0.979152 0.723556 0.687572
Si Si3 0.771508 0.735015 0.311300
Si Si4 0.690582 0.849575 0.311692
Si Si5 0.434140 0.878455 0.000000
Si Si6 0.558983 0.610751 0.312497
Si Si7 0.395607 0.489851 0.000000
Si Si8 0.855742 0.448001 0.000000
O O1 0.207958 0.158344 0.834378
O O2 0.148761 0.025876 0.000000
O O3 0.163154 0.357264 0.000000
O O4 0.973601 0.651614 0.500000
O O5 0.959649 0.616170 0.834426
O O6 0.023266 0.762833 0.717821
O O7 0.959347 0.915332 0.686963
O O8 0.776217 0.808749 0.500000
O O9 0.726786 0.727670 0.277831
O O10 0.790220 0.543322 0.311622
O O11 0.675996 0.815922 0.500000
O O12 0.659947 0.854310 0.166010
O O13 0.414924 0.684008 0.000000
O O14 0.400212 0.015819 0.000000
O O15 0.573931 0.644282 0.500000
O O16 0.589088 0.606261 0.165066
#
# Coordination Sequence:
#
# PCOD9429227 Si02
#       8
#     4   8   8   8   4   8   4   4
#     4   9  17  26  36  53  75  98 125 159 198 235
#     4   8  13  20  29  41  58  83 117 154 186 216
#     4   9  17  29  44  60  78 101 130 163 196 231
#     4   9  17  29  44  60  78 101 130 163 196 231
#     4   9  15  21  30  44  63  88 117 151 190 225
#     4   8  13  20  29  41  58  83 117 154 186 216
#     4   9  15  21  30  44  63  88 117 151 190 225
#     4   9  17  26  36  53  75  98 125 159 198 235
#
# _framework density 22.266414000000001
#
# number of rings (size 3 to 8) (size 9 to 14) (size 15 to 20)
#    0.000    3.333    0.000    2.000    0.000    3.333 
#    0.000    6.667    0.000    0.000    0.000    0.000 
#    0.000    0.000    0.000    0.000    0.000   13.333 
#
# Total GULP energy -268199.630868 kJ/mol
# GULP energy per Si atom -5587.492310 kJ/mol
# Density = 2.221573 g / cm^3
# Si number density = 22.266414 Si / 1000 Ang^3
#
#
#
# Elastic Constant Matrix: (Units=GPa)
#
#
# Indices 1 2 3 4 5 6 
#
# 1 42.2862 67.8394 37.7609 0.0000 0.0000 0.0000
# 2 67.8394 50.3320 87.6612 0.0000 0.0000 0.0000
# 3 37.7609 87.6612 105.4716 0.0000 0.0000 0.0000
# 4 0.0000 0.0000 0.0000 -3.9851 0.0000 0.0000
# 5 0.0000 0.0000 0.0000 0.0000 -73.5072 0.0000
# 6 0.0000 0.0000 0.0000 0.0000 0.0000 23.1422
#
#
#
# Elastic Compliance Matrix: (Units=1/GPa)
#
#
# Indices 1 2 3 4 5 6 
#
# 1 0.011394 0.018440 -0.019405 0.000000 0.000000 0.000000
# 2 0.018440 -0.014551 0.005492 0.000000 0.000000 0.000000
# 3 -0.019405 0.005492 0.011864 0.000000 0.000000 0.000000
# 4 0.000000 0.000000 0.000000 -0.250936 0.000000 0.000000
# 5 0.000000 0.000000 0.000000 0.000000 -0.013604 0.000000
# 6 0.000000 0.000000 0.000000 0.000000 0.000000 0.043211
#
#
# Mechanical properties :
#
#
# Convention : Reuss Voigt Hill
#
# Bulk Modulus (GPa) = 56.30522 64.95699 60.63111
# Shear Modulus (GPa) = -23.17448 -10.54812 -16.86130
#
# Velocity S-wave (km/s) = -3.22961 -2.17888 -2.75481
# Velocity P-wave (km/s) = 3.38153 4.78601 4.14371
#
# Compressibility (1/GPa) = 0.01776034
#
# Stress axis : x y z
#
# Youngs Moduli (GPa) = 87.76302 -68.72384 84.28813
#
# Poissons Ratio (x) = 1.26725 1.63564
# Poissons Ratio (y) = -1.61832 -0.46292
# Poissons Ratio (z) = 1.70307 0.37744
#
# Static dielectric constant tensor:
#      x y z
#    x 1.759620 0.000000 0.000000 
#    y 0.000000 1.880900 0.000000 
#    z 0.000000 0.000000 1.787850 
# 
# From -- ./inp_files/10599.got.cif
#   From: 2010.05.17/outbox.cif.g08.bks.cpg/sg55_6_cif.got.tgz:10599.got - 2010.06.03 13:27:54.
