data_PCOD9429701
_publ_section_title
;
Structure prediction by ZEFSAII (Michael W. Deem and Ramdas Pophale) SiO2 
 PCOD9429701
Probable space group: P C C N
;
_chemical_formula_sum "Si O2"
_cell_formula_units_Z 64
_cell_length_a 28.487811
_cell_length_b 5.611051
_cell_length_c 16.893005
_cell_angle_alpha 90.000000
_cell_angle_beta 90.000000
_cell_angle_gamma 90.000000
_cell_volume 2700.288744
_symmetry_space_group_name_H-M "P C C N"
_symmetry_group_IT_number 56
_symmetry_cell_setting 'orthorhombic'
loop_
_space_group_symop_operation_xyz
x,y,z
1/2-x,1/2-y,z
1/2+x,-y,1/2-z
-x,1/2+y,1/2-z
-x,-y,-z
1/2+x,1/2+y,-z
1/2-x,y,1/2+z
x,1/2-y,1/2+z
loop_
_atom_site_type_symbol
_atom_site_label
_atom_site_fract_x
_atom_site_fract_y
_atom_site_fract_z
Si Si1 0.303004 0.744549 0.750939
Si Si2 0.379254 0.945016 0.521548
Si Si3 0.594858 0.737949 0.340338
Si Si4 0.497544 0.491995 0.597114
Si Si5 0.650065 0.761569 0.200371
Si Si6 0.300563 0.261454 0.454942
Si Si7 0.032313 0.494205 0.420397
Si Si8 0.174618 0.555642 0.087390
O O1 0.250000 0.750000 0.781421
O O2 0.328484 0.508921 0.788475
O O3 0.303843 0.711864 0.656013
O O4 0.325195 0.003700 0.762946
O O5 0.366922 0.673604 0.536261
O O6 0.405614 0.034299 0.601672
O O7 0.327805 0.052370 0.501759
O O8 0.414657 0.004604 0.451556
O O9 0.554079 0.561744 0.368605
O O10 0.600144 0.763230 0.246120
O O11 0.646320 0.641873 0.363943
O O12 0.500000 0.500000 0.500000
O O13 0.517541 0.748999 0.621589
O O14 0.524381 0.248492 0.621452
O O15 0.659860 0.823272 0.109122
O O16 0.250000 0.250000 0.413056
O O17 0.290430 0.452540 0.523605
O O18 0.000000 0.500000 0.500000
#
# Coordination Sequence:
#
# PCOD9429701 Si02
#       8
#     8   8   8   8   8   8   8   8
#     4  11  23  40  67  90 122 162 228 281 333 386
#     4  11  21  38  61  96 129 168 219 275 332 391
#     4  10  20  37  63  94 130 165 222 269 330 385
#     4  10  18  30  57  95 127 163 197 265 316 396
#     4  11  25  45  63  92 128 180 219 274 336 410
#     4  11  27  43  62  89 134 182 228 277 347 411
#     4  10  19  31  58  91 131 160 205 259 325 391
#     4  10  23  37  63  92 128 169 217 287 330 392
#
# _framework density 23.701167999999999
#
# number of rings (size 3 to 8) (size 9 to 14) (size 15 to 20)
#    0.000    1.500    3.750    2.625    5.250    0.000 
#    0.000    0.000    0.000    1.500    0.000    0.000 
#    0.000    0.000    0.000    0.000    0.000    0.000 
#
# Total GULP energy -356333.080517 kJ/mol
# GULP energy per Si atom -5567.704383 kJ/mol
# Density = 2.364722 g / cm^3
# Si number density = 23.701168 Si / 1000 Ang^3
#
#
#
# Elastic Constant Matrix: (Units=GPa)
#
#
# Indices 1 2 3 4 5 6 
#
# 1 70.1659 27.9934 -2.6373 0.0000 0.0000 0.0000
# 2 27.9934 145.1649 12.0924 0.0000 0.0000 0.0000
# 3 -2.6373 12.0924 67.1996 0.0000 0.0000 0.0000
# 4 0.0000 0.0000 0.0000 19.7504 0.0000 0.0000
# 5 0.0000 0.0000 0.0000 0.0000 21.2341 0.0000
# 6 0.0000 0.0000 0.0000 0.0000 0.0000 22.4195
#
#
#
# Elastic Compliance Matrix: (Units=1/GPa)
#
#
# Indices 1 2 3 4 5 6 
#
# 1 0.015529 -0.003092 0.001166 0.000000 0.000000 0.000000
# 2 -0.003092 0.007609 -0.001491 0.000000 0.000000 0.000000
# 3 0.001166 -0.001491 0.015195 0.000000 0.000000 0.000000
# 4 0.000000 0.000000 0.000000 0.050632 0.000000 0.000000
# 5 0.000000 0.000000 0.000000 0.000000 0.047094 0.000000
# 6 0.000000 0.000000 0.000000 0.000000 0.000000 0.044604
#
#
# Mechanical properties :
#
#
# Convention : Reuss Voigt Hill
#
# Bulk Modulus (GPa) = 31.74572 39.71415 35.72994
# Shear Modulus (GPa) = 25.25300 29.01961 27.13630
#
# Velocity S-wave (km/s) = 3.26770 3.50293 3.38736
# Velocity P-wave (km/s) = 5.25932 5.75789 5.51424
#
# Compressibility (1/GPa) = 0.03150031
#
# Stress axis : x y z
#
# Youngs Moduli (GPa) = 64.39464 131.42171 65.81107
#
# Poissons Ratio (x) = 0.40632 -0.07672
# Poissons Ratio (y) = 0.19909 0.09810
# Poissons Ratio (z) = -0.07507 0.19589
#
# Static dielectric constant tensor:
#      x y z
#    x 1.844480 0.000000 0.000000 
#    y 0.000000 1.966040 0.000000 
#    z 0.000000 0.000000 1.980160 
# 
# From -- ./inp_files/17141.got.cif
#   From: 2010.05.17/outbox.cif.g08.bks.cpg/sg56_9_cif.got.tgz:17141.got - 2010.06.03 13:42:01.
