data_PCOD9429244
_publ_section_title
;
Structure prediction by ZEFSAII (Michael W. Deem and Ramdas Pophale) SiO2 
 PCOD9429244
Probable space group: P B A M
;
_chemical_formula_sum "Si O2"
_cell_formula_units_Z 40
_cell_length_a 14.284309
_cell_length_b 7.537853
_cell_length_c 17.395454
_cell_angle_alpha 90.000000
_cell_angle_beta 90.000000
_cell_angle_gamma 90.000000
_cell_volume 1873.021092
_symmetry_space_group_name_H-M "P B A M"
_symmetry_group_IT_number 55
_symmetry_cell_setting 'orthorhombic'
loop_
_space_group_symop_operation_xyz
x,y,z
-x,-y,z
1/2+x,1/2-y,-z
1/2-x,1/2+y,-z
-x,-y,-z
x,y,-z
1/2-x,1/2+y,z
1/2+x,1/2-y,z
loop_
_atom_site_type_symbol
_atom_site_label
_atom_site_fract_x
_atom_site_fract_y
_atom_site_fract_z
Si Si1 0.390831 0.791056 0.500000
Si Si2 0.106898 0.311197 0.914232
Si Si3 0.958639 0.201952 0.202455
Si Si4 0.681265 0.613053 0.500000
Si Si5 0.036594 0.794376 0.377380
Si Si6 0.689393 0.586404 0.086379
O O1 0.356832 0.586838 0.500000
O O2 0.293052 0.892862 0.500000
O O3 0.457493 0.809917 0.574287
O O4 0.199980 0.424004 0.900673
O O5 0.030949 0.314189 0.848066
O O6 0.145372 0.108888 0.915104
O O7 0.069613 0.345834 0.000000
O O8 0.863440 0.189291 0.153753
O O9 0.949664 0.263705 0.289935
O O10 0.000000 0.000000 0.205342
O O11 0.632774 0.704591 0.574002
O O12 0.000000 0.000000 0.376237
O O13 0.675243 0.663636 0.000000
#
# Coordination Sequence:
#
# PCOD9429244 Si02
#       6
#     4   8   8   4   8   8
#     4   9  17  31  50  68  88 115 145 177 216 260
#     4   9  17  29  45  65  88 115 148 183 217 255
#     4   9  16  28  47  66  86 116 151 181 211 255
#     4   9  17  31  50  68  88 115 145 177 216 260
#     4   8  16  30  46  66  90 116 146 177 213 262
#     4   9  17  29  45  65  88 115 148 183 217 255
#
# _framework density 21.355872999999999
#
# number of rings (size 3 to 8) (size 9 to 14) (size 15 to 20)
#    0.000    3.200    0.000    1.800    0.000    4.000 
#    0.000    3.000    0.000    7.200    0.000    0.000 
#    0.000    0.000    0.000    0.000    0.000    0.000 
#
# Total GULP energy -223324.559633 kJ/mol
# GULP energy per Si atom -5583.113991 kJ/mol
# Density = 2.130727 g / cm^3
# Si number density = 21.355873 Si / 1000 Ang^3
#
#
#
# Elastic Constant Matrix: (Units=GPa)
#
#
# Indices 1 2 3 4 5 6 
#
# 1 -26.6630 103.9993 -27.0819 0.0000 0.0000 0.0000
# 2 103.9993 6.0119 104.8219 0.0000 0.0000 0.0000
# 3 -27.0819 104.8219 99.4689 0.0000 0.0000 0.0000
# 4 0.0000 0.0000 0.0000 10.8813 0.0000 0.0000
# 5 0.0000 0.0000 0.0000 0.0000 17.6356 0.0000
# 6 0.0000 0.0000 0.0000 0.0000 0.0000 31.2968
#
#
#
# Elastic Compliance Matrix: (Units=1/GPa)
#
#
# Indices 1 2 3 4 5 6 
#
# 1 0.007455 0.009459 -0.007939 0.000000 0.000000 0.000000
# 2 0.009459 0.002429 0.000016 0.000000 0.000000 0.000000
# 3 -0.007939 0.000016 0.007876 0.000000 0.000000 0.000000
# 4 0.000000 0.000000 0.000000 0.091901 0.000000 0.000000
# 5 0.000000 0.000000 0.000000 0.000000 0.056703 0.000000
# 6 0.000000 0.000000 0.000000 0.000000 0.000000 0.031952
#
#
# Mechanical properties :
#
#
# Convention : Reuss Voigt Hill
#
# Bulk Modulus (GPa) = 48.00357 49.14405 48.57381
# Shear Modulus (GPa) = 24.72947 5.10131 14.91539
#
# Velocity S-wave (km/s) = 3.40659 1.54722 2.64563
# Velocity P-wave (km/s) = 6.16440 5.12384 5.66805
#
# Compressibility (1/GPa) = 0.02083178
#
# Stress axis : x y z
#
# Youngs Moduli (GPa) = 134.14273 411.65768 126.97472
#
# Poissons Ratio (x) = -3.89402 1.00802
# Poissons Ratio (y) = -1.26891 -0.00197
# Poissons Ratio (z) = 1.06493 -0.00639
#
# Static dielectric constant tensor:
#      x y z
#    x 1.761220 0.000000 0.000000 
#    y 0.000000 1.849070 0.000000 
#    z 0.000000 0.000000 1.739200 
# 
# From -- ./inp_files/18764.got.cif
#   From: 2010.05.17/outbox.cif.g08.bks.cpg/sg55_10_cif.got.tgz:18764.got - 2010.06.03 13:27:54.
