data_PCOD9429280
_publ_section_title
;
Structure prediction by ZEFSAII (Michael W. Deem and Ramdas Pophale) SiO2 
 PCOD9429280
Probable space group: P B A M
;
_chemical_formula_sum "Si O2"
_cell_formula_units_Z 64
_cell_length_a 12.000000
_cell_length_b 30.000000
_cell_length_c 9.000000
_cell_angle_alpha 90.000000
_cell_angle_beta 90.000000
_cell_angle_gamma 90.000000
_cell_volume 3240.000000
_symmetry_space_group_name_H-M "P B A M"
_symmetry_group_IT_number 55
_symmetry_cell_setting 'orthorhombic'
loop_
_space_group_symop_operation_xyz
x,y,z
-x,-y,z
1/2+x,1/2-y,-z
1/2-x,1/2+y,-z
-x,-y,-z
x,y,-z
1/2-x,1/2+y,z
1/2+x,1/2-y,z
loop_
_atom_site_type_symbol
_atom_site_label
_atom_site_fract_x
_atom_site_fract_y
_atom_site_fract_z
Si Si1 0.333541 0.326125 0.335009
Si Si2 0.787047 0.024702 0.179825
Si Si3 0.068094 0.222899 0.671756
Si Si4 0.114890 0.314873 0.825852
Si Si5 0.074836 0.415102 0.180897
Si Si6 0.964618 0.082348 0.328435
Si Si7 0.162494 0.136695 0.177757
Si Si8 0.167395 0.564921 0.819753
O O1 0.283526 0.318945 0.500000
O O2 0.442855 0.296030 0.321921
O O3 0.246595 0.315993 0.207328
O O4 0.376553 0.376665 0.327305
O O5 0.685784 0.058146 0.222305
O O6 0.900863 0.041398 0.253261
O O7 0.745370 0.975911 0.228073
O O8 0.798945 0.025645 0.000000
O O9 0.102272 0.224974 0.500000
O O10 0.071130 0.271301 0.743974
O O11 0.142444 0.185313 0.753246
O O12 0.074833 0.363471 0.771271
O O13 0.090828 0.311447 0.000000
O O14 0.960147 0.438025 0.230836
O O15 0.074873 0.414822 0.000000
O O16 0.995007 0.073696 0.500000
O O17 0.068026 0.102833 0.238551
O O18 0.278031 0.112423 0.217874
O O19 0.153714 0.139729 0.000000
O O20 0.165449 0.562228 0.000000
#
# Coordination Sequence:
#
# PCOD9429280 Si02
#       8
#     8   8   8   8   8   8   8   8
#     4   9  19  36  55  74 104 145 184 228 278 331
#     4  10  18  33  59  86 111 147 191 234 279 336
#     4  10  22  39  57  80 111 150 189 228 286 348
#     4  11  21  33  56  88 113 141 185 237 283 335
#     4   9  18  33  54  84 116 145 184 233 284 334
#     4  10  20  35  56  80 111 148 187 235 284 334
#     4  10  20  36  57  82 112 148 191 239 287 338
#     4   9  19  34  55  84 118 150 183 230 287 339
#
# _framework density 19.753086
#
# number of rings (size 3 to 8) (size 9 to 14) (size 15 to 20)
#    0.000    2.250    1.250    2.625    0.000    5.500 
#    0.000    5.000    0.000    6.750    0.000    0.000 
#    0.000    0.000    0.000    0.000    0.000    0.000 
#
# Total GULP energy -357083.827813 kJ/mol
# GULP energy per Si atom -5579.434810 kJ/mol
# Density = 1.970813 g / cm^3
# Si number density = 19.753086 Si / 1000 Ang^3
#
#
#
# Elastic Constant Matrix: (Units=GPa)
#
#
# Indices 1 2 3 4 5 6 
#
# 1 -6.1865 -3.3475 -3.7791 0.0000 0.0000 0.0000
# 2 -3.3475 90.2962 17.5317 0.0000 0.0000 0.0000
# 3 -3.7791 17.5317 44.9000 0.0000 0.0000 0.0000
# 4 0.0000 0.0000 0.0000 11.2156 0.0000 0.0000
# 5 0.0000 0.0000 0.0000 0.0000 0.6529 0.0000
# 6 0.0000 0.0000 0.0000 0.0000 0.0000 18.5410
#
#
#
# Elastic Compliance Matrix: (Units=1/GPa)
#
#
# Indices 1 2 3 4 5 6 
#
# 1 -0.152752 -0.003426 -0.011519 0.000000 0.000000 0.000000
# 2 -0.003426 0.011906 -0.004937 0.000000 0.000000 0.000000
# 3 -0.011519 -0.004937 0.023230 0.000000 0.000000 0.000000
# 4 0.000000 0.000000 0.000000 0.089161 0.000000 0.000000
# 5 0.000000 0.000000 0.000000 0.000000 1.531676 0.000000
# 6 0.000000 0.000000 0.000000 0.000000 0.000000 0.053935
#
#
# Mechanical properties :
#
#
# Convention : Reuss Voigt Hill
#
# Bulk Modulus (GPa) = -6.35399 16.64665 5.14633
# Shear Modulus (GPa) = 3.23738 13.98887 8.61312
#
# Velocity S-wave (km/s) = 1.28159 2.66406 2.09042
# Velocity P-wave (km/s) = 1.01672 4.23186 2.90473
#
# Compressibility (1/GPa) = -0.15738148
#
# Stress axis : x y z
#
# Youngs Moduli (GPa) = -6.54654 83.98949 43.04769
#
# Poissons Ratio (x) = 0.28779 0.49586
# Poissons Ratio (y) = -0.02243 0.21254
# Poissons Ratio (z) = -0.07541 0.41468
#
# Static dielectric constant tensor:
#      x y z
#    x 1.701880 0.000000 0.000000 
#    y 0.000000 1.699660 0.000000 
#    z 0.000000 0.000000 1.681770 
# 
# From -- ./inp_files/4580.got.cif
#   From: 2010.05.17/outbox.ucp.g08.bks.cvg/sg55_3_cif.got.tgz:4580.got - 2010.06.11 16:36:00.
