data_PCOD9429976
_publ_section_title
;
Structure prediction by ZEFSAII (Michael W. Deem and Ramdas Pophale) SiO2 
 PCOD9429976
Probable space group: P C C N
;
_chemical_formula_sum "Si O2"
_cell_formula_units_Z 48
_cell_length_a 5.216124
_cell_length_b 18.061361
_cell_length_c 20.533710
_cell_angle_alpha 90.000000
_cell_angle_beta 90.000000
_cell_angle_gamma 90.000000
_cell_volume 1934.486950
_symmetry_space_group_name_H-M "P C C N"
_symmetry_group_IT_number 56
_symmetry_cell_setting 'orthorhombic'
loop_
_space_group_symop_operation_xyz
x,y,z
1/2-x,1/2-y,z
1/2+x,-y,1/2-z
-x,1/2+y,1/2-z
-x,-y,-z
1/2+x,1/2+y,-z
1/2-x,y,1/2+z
x,1/2-y,1/2+z
loop_
_atom_site_type_symbol
_atom_site_label
_atom_site_fract_x
_atom_site_fract_y
_atom_site_fract_z
Si Si1 0.711916 0.366693 0.330376
Si Si2 0.279532 0.336223 0.750882
Si Si3 0.402269 0.015270 0.209038
Si Si4 0.024486 0.164313 0.459874
Si Si5 0.474075 0.913176 0.497459
Si Si6 0.500602 0.221375 0.581920
O O1 0.508171 0.357875 0.272470
O O2 0.681655 0.455278 0.344975
O O3 0.586096 0.319508 0.388591
O O4 0.997122 0.348167 0.306411
O O5 0.250000 0.250000 0.741556
O O6 0.364840 0.397366 0.697446
O O7 0.693661 0.002204 0.233223
O O8 0.816154 0.106052 0.484880
O O9 0.003640 0.231198 0.512499
O O10 0.304878 0.126849 0.458854
O O11 0.507832 0.865433 0.431365
O O12 0.500000 0.000000 0.500000
O O13 0.750000 0.250000 0.617436
O O14 0.250000 0.250000 0.614920
#
# Coordination Sequence:
#
# PCOD9429976 Si02
#       6
#     8   8   8   8   8   8
#     4  10  19  31  47  68  98 128 154 196 242 286
#     4  10  19  29  45  70  96 127 164 197 233 279
#     4   8  16  30  44  62  92 127 159 187 227 278
#     4  10  19  31  47  69  93 122 153 189 240 288
#     4  10  19  31  46  66  93 122 155 190 228 288
#     4   8  16  28  42  61  87 114 142 173 222 275
#
# _framework density 24.812781999999999
#
# number of rings (size 3 to 8) (size 9 to 14) (size 15 to 20)
#    0.000    2.667    0.000    2.000    0.000    6.000 
#    0.000    0.000    0.000    0.000    0.000   10.500 
#    0.000    8.000    0.000    0.000    0.000    0.000 
#
# Total GULP energy -267543.112356 kJ/mol
# GULP energy per Si atom -5573.814841 kJ/mol
# Density = 2.475631 g / cm^3
# Si number density = 24.812782 Si / 1000 Ang^3
#
#
#
# Elastic Constant Matrix: (Units=GPa)
#
#
# Indices 1 2 3 4 5 6 
#
# 1 147.4898 38.1074 8.4758 0.0000 0.0000 0.0000
# 2 38.1074 178.7034 -5.6758 0.0000 0.0000 0.0000
# 3 8.4758 -5.6758 31.0697 0.0000 0.0000 0.0000
# 4 0.0000 0.0000 0.0000 -10.1993 0.0000 0.0000
# 5 0.0000 0.0000 0.0000 0.0000 -13.8385 0.0000
# 6 0.0000 0.0000 0.0000 0.0000 0.0000 33.7863
#
#
#
# Elastic Compliance Matrix: (Units=1/GPa)
#
#
# Indices 1 2 3 4 5 6 
#
# 1 0.007335 -0.001637 -0.002300 0.000000 0.000000 0.000000
# 2 -0.001637 0.005994 0.001542 0.000000 0.000000 0.000000
# 3 -0.002300 0.001542 0.033095 0.000000 0.000000 0.000000
# 4 0.000000 0.000000 0.000000 -0.098046 0.000000 0.000000
# 5 0.000000 0.000000 0.000000 0.000000 -0.072262 0.000000
# 6 0.000000 0.000000 0.000000 0.000000 0.000000 0.029598
#
#
# Mechanical properties :
#
#
# Convention : Reuss Voigt Hill
#
# Bulk Modulus (GPa) = 24.01971 48.78640 36.40305
# Shear Modulus (GPa) = -66.12284 23.04007 -21.54139
#
# Velocity S-wave (km/s) = -5.16784 3.05053 -2.94965
# Velocity P-wave (km/s) = 5.08993 5.66676 1.76136
#
# Compressibility (1/GPa) = 0.04163247
#
# Stress axis : x y z
#
# Youngs Moduli (GPa) = 136.32637 166.83445 30.21623
#
# Poissons Ratio (x) = 0.27315 0.06950
# Poissons Ratio (y) = 0.22320 -0.04658
# Poissons Ratio (z) = 0.31357 -0.25719
#
# Static dielectric constant tensor:
#      x y z
#    x 1.981850 0.000000 0.000000 
#    y 0.000000 2.185530 0.000000 
#    z 0.000000 0.000000 2.062250 
# 
# From -- ./inp_files/20071.got.cif
#   From: 2010.05.17/outbox.cif.g08.bks.cpg/sg56_11_cif.got.tgz:20071.got - 2010.06.03 13:42:01.
