data_PCOD9429737
_publ_section_title
;
Structure prediction by ZEFSAII (Michael W. Deem and Ramdas Pophale) SiO2 
 PCOD9429737
Probable space group: P C C N
;
_chemical_formula_sum "Si O2"
_cell_formula_units_Z 64
_cell_length_a 7.174808
_cell_length_b 17.607366
_cell_length_c 19.537431
_cell_angle_alpha 90.000000
_cell_angle_beta 90.000000
_cell_angle_gamma 90.000000
_cell_volume 2468.153312
_symmetry_space_group_name_H-M "P C C N"
_symmetry_group_IT_number 56
_symmetry_cell_setting 'orthorhombic'
loop_
_space_group_symop_operation_xyz
x,y,z
1/2-x,1/2-y,z
1/2+x,-y,1/2-z
-x,1/2+y,1/2-z
-x,-y,-z
1/2+x,1/2+y,-z
1/2-x,y,1/2+z
x,1/2-y,1/2+z
loop_
_atom_site_type_symbol
_atom_site_label
_atom_site_fract_x
_atom_site_fract_y
_atom_site_fract_z
Si Si1 0.044507 0.365070 0.931022
Si Si2 0.568296 0.509734 0.906898
Si Si3 0.330158 0.501676 0.359429
Si Si4 0.472836 0.227990 0.802440
Si Si5 0.546860 0.875046 0.522838
Si Si6 0.960216 0.336795 0.192818
Si Si7 0.526620 0.768705 0.944641
Si Si8 0.838794 0.594412 0.273252
O O1 0.021482 0.450936 0.902193
O O2 0.971591 0.303670 0.876311
O O3 0.272631 0.353704 0.932115
O O4 0.993118 0.342395 0.007852
O O5 0.343387 0.515916 0.907994
O O6 0.596501 0.424378 0.932544
O O7 0.617221 0.532400 0.830334
O O8 0.629402 0.571551 0.962039
O O9 0.380355 0.581376 0.325843
O O10 0.275560 0.447444 0.295773
O O11 0.250000 0.250000 0.805037
O O12 0.575435 0.297965 0.765942
O O13 0.491454 0.154913 0.751548
O O14 0.455689 0.803614 0.486528
O O15 0.940125 0.280536 0.129208
O O16 0.179978 0.354735 0.194193
O O17 0.750000 0.750000 0.939372
#
# Coordination Sequence:
#
# PCOD9429737 Si02
#       8
#     8   8   8   8   8   8   8   8
#     4   9  18  33  54  80 109 141 186 239 280 326
#     4  10  19  35  55  79 113 148 183 232 287 345
#     4  10  22  35  51  80 114 149 181 221 286 347
#     4   9  17  31  53  80 108 141 184 236 280 319
#     4   9  18  32  55  81 106 142 190 238 287 334
#     4  11  21  34  56  84 112 142 183 235 283 332
#     4  10  18  32  54  81 104 134 187 239 276 315
#     4  10  19  34  55  78 108 143 188 230 271 331
#
# _framework density 25.930318
#
# number of rings (size 3 to 8) (size 9 to 14) (size 15 to 20)
#    0.000    2.250    0.000    5.250    0.000    3.500 
#    0.000    2.500    0.000    0.000    0.000    7.000 
#    0.000    0.000    0.000    0.000    0.000    0.000 
#
# Total GULP energy -357813.864092 kJ/mol
# GULP energy per Si atom -5590.841626 kJ/mol
# Density = 2.587130 g / cm^3
# Si number density = 25.930318 Si / 1000 Ang^3
#
#
#
# Elastic Constant Matrix: (Units=GPa)
#
#
# Indices 1 2 3 4 5 6 
#
# 1 49.3423 11.5553 11.3343 0.0000 0.0000 0.0000
# 2 11.5553 109.7397 36.0949 0.0000 0.0000 0.0000
# 3 11.3343 36.0949 121.2883 0.0000 0.0000 0.0000
# 4 0.0000 0.0000 0.0000 50.4143 0.0000 0.0000
# 5 0.0000 0.0000 0.0000 0.0000 17.8612 0.0000
# 6 0.0000 0.0000 0.0000 0.0000 0.0000 26.5324
#
#
#
# Elastic Compliance Matrix: (Units=1/GPa)
#
#
# Indices 1 2 3 4 5 6 
#
# 1 0.021005 -0.001736 -0.001446 0.000000 0.000000 0.000000
# 2 -0.001736 0.010245 -0.002887 0.000000 0.000000 0.000000
# 3 -0.001446 -0.002887 0.009239 0.000000 0.000000 0.000000
# 4 0.000000 0.000000 0.000000 0.019836 0.000000 0.000000
# 5 0.000000 0.000000 0.000000 0.000000 0.055987 0.000000
# 6 0.000000 0.000000 0.000000 0.000000 0.000000 0.037690
#
#
# Mechanical properties :
#
#
# Convention : Reuss Voigt Hill
#
# Bulk Modulus (GPa) = 35.27182 44.25991 39.76586
# Shear Modulus (GPa) = 28.47543 33.72063 31.09803
#
# Velocity S-wave (km/s) = 3.31743 3.61006 3.46684
# Velocity P-wave (km/s) = 5.32033 5.87219 5.60306
#
# Compressibility (1/GPa) = 0.02835124
#
# Stress axis : x y z
#
# Youngs Moduli (GPa) = 47.60681 97.61139 108.23686
#
# Poissons Ratio (x) = 0.16946 0.15654
# Poissons Ratio (y) = 0.08265 0.31243
# Poissons Ratio (z) = 0.06885 0.28176
#
# Static dielectric constant tensor:
#      x y z
#    x 2.084420 0.000000 0.000000 
#    y 0.000000 2.109710 0.000000 
#    z 0.000000 0.000000 1.977890 
# 
# From -- ./inp_files/18367.got.cif
#   From: 2010.05.17/outbox.cif.g08.bks.cpg/sg56_10_cif.got.tgz:18367.got - 2010.06.03 13:42:01.
