data_PCOD9429943
_publ_section_title
;
Structure prediction by ZEFSAII (Michael W. Deem and Ramdas Pophale) SiO2 
 PCOD9429943
Probable space group: P C C N
;
_chemical_formula_sum "Si O2"
_cell_formula_units_Z 48
_cell_length_a 8.868914
_cell_length_b 14.669153
_cell_length_c 18.619639
_cell_angle_alpha 90.000000
_cell_angle_beta 90.000000
_cell_angle_gamma 90.000000
_cell_volume 2422.404912
_symmetry_space_group_name_H-M "P C C N"
_symmetry_group_IT_number 56
_symmetry_cell_setting 'orthorhombic'
loop_
_space_group_symop_operation_xyz
x,y,z
1/2-x,1/2-y,z
1/2+x,-y,1/2-z
-x,1/2+y,1/2-z
-x,-y,-z
1/2+x,1/2+y,-z
1/2-x,y,1/2+z
x,1/2-y,1/2+z
loop_
_atom_site_type_symbol
_atom_site_label
_atom_site_fract_x
_atom_site_fract_y
_atom_site_fract_z
Si Si1 0.642684 0.937727 0.268852
Si Si2 0.064314 0.397844 0.312684
Si Si3 0.194357 0.144664 0.589461
Si Si4 0.079169 0.778098 0.754131
Si Si5 0.580465 0.248359 0.577191
Si Si6 0.921164 0.595123 0.517926
O O1 0.776877 0.939900 0.211816
O O2 0.727814 0.900852 0.341126
O O3 0.509500 0.872046 0.238168
O O4 0.566730 0.032870 0.288971
O O5 0.069744 0.386579 0.398015
O O6 0.029840 0.302514 0.273278
O O7 0.250000 0.250000 0.593395
O O8 0.256000 0.097138 0.517796
O O9 0.014678 0.157952 0.583306
O O10 0.250000 0.750000 0.729554
O O11 0.086480 0.783770 0.840404
O O12 0.750000 0.250000 0.550618
O O13 0.500948 0.175781 0.526016
O O14 0.000000 0.500000 0.500000
#
# Coordination Sequence:
#
# PCOD9429943 Si02
#       6
#     8   8   8   8   8   8
#     4  12  22  43  63  99 135 173 225 275 339 392
#     4  12  25  39  70  99 131 177 227 279 331 408
#     4  10  18  39  66  88 127 178 209 266 336 397
#     4  11  22  40  65  94 132 176 223 273 331 401
#     4  10  21  39  67  94 128 180 224 262 340 409
#     4  11  22  41  66  94 130 170 220 278 339 397
#
# _framework density 19.815021000000002
#
# number of rings (size 3 to 8) (size 9 to 14) (size 15 to 20)
#    0.000    1.000    6.667    1.500    0.000    6.000 
#    0.000    2.500    0.000    0.000    0.000    0.000 
#    0.000    0.000    0.000    0.000    0.000    0.000 
#
# Total GULP energy -267637.290837 kJ/mol
# GULP energy per Si atom -5575.776892 kJ/mol
# Density = 1.976992 g / cm^3
# Si number density = 19.815021 Si / 1000 Ang^3
#
#
#
# Elastic Constant Matrix: (Units=GPa)
#
#
# Indices 1 2 3 4 5 6 
#
# 1 87.2140 -13.8919 4.3065 0.0000 0.0000 0.0000
# 2 -13.8919 45.0615 16.1358 0.0000 0.0000 0.0000
# 3 4.3065 16.1358 89.9777 0.0000 0.0000 0.0000
# 4 0.0000 0.0000 0.0000 19.2324 0.0000 0.0000
# 5 0.0000 0.0000 0.0000 0.0000 26.0894 0.0000
# 6 0.0000 0.0000 0.0000 0.0000 0.0000 32.2625
#
#
#
# Elastic Compliance Matrix: (Units=1/GPa)
#
#
# Indices 1 2 3 4 5 6 
#
# 1 0.012209 0.004246 -0.001346 0.000000 0.000000 0.000000
# 2 0.004246 0.025191 -0.004721 0.000000 0.000000 0.000000
# 3 -0.001346 -0.004721 0.012025 0.000000 0.000000 0.000000
# 4 0.000000 0.000000 0.000000 0.051996 0.000000 0.000000
# 5 0.000000 0.000000 0.000000 0.000000 0.038330 0.000000
# 6 0.000000 0.000000 0.000000 0.000000 0.000000 0.030996
#
#
# Mechanical properties :
#
#
# Convention : Reuss Voigt Hill
#
# Bulk Modulus (GPa) = 21.84205 26.15046 23.99626
# Shear Modulus (GPa) = 26.36456 29.89705 28.13081
#
# Velocity S-wave (km/s) = 3.65161 3.88855 3.77194
# Velocity P-wave (km/s) = 5.36897 5.77815 5.57732
#
# Compressibility (1/GPa) = 0.04578324
#
# Stress axis : x y z
#
# Youngs Moduli (GPa) = 81.90828 39.69636 83.16107
#
# Poissons Ratio (x) = -0.16854 0.11191
# Poissons Ratio (y) = -0.34776 0.39259
# Poissons Ratio (z) = 0.11023 0.18740
#
# Static dielectric constant tensor:
#      x y z
#    x 1.840820 0.000000 0.000000 
#    y 0.000000 1.700140 0.000000 
#    z 0.000000 0.000000 1.673730 
# 
# From -- ./inp_files/14828.got.cif
#   From: 2010.05.17/outbox.cif.g08.bks.cpg/sg56_8_cif.got.tgz:14828.got - 2010.06.03 13:42:01.
