data_PCOD9429549
_publ_section_title
;
Structure prediction by ZEFSAII (Michael W. Deem and Ramdas Pophale) SiO2 
 PCOD9429549
Probable space group: P C C N
;
_chemical_formula_sum "Si O2"
_cell_formula_units_Z 44
_cell_length_a 9.379187
_cell_length_b 13.939005
_cell_length_c 18.051609
_cell_angle_alpha 90.000000
_cell_angle_beta 90.000000
_cell_angle_gamma 90.000000
_cell_volume 2360.004803
_symmetry_space_group_name_H-M "P C C N"
_symmetry_group_IT_number 56
_symmetry_cell_setting 'orthorhombic'
loop_
_space_group_symop_operation_xyz
x,y,z
1/2-x,1/2-y,z
1/2+x,-y,1/2-z
-x,1/2+y,1/2-z
-x,-y,-z
1/2+x,1/2+y,-z
1/2-x,y,1/2+z
x,1/2-y,1/2+z
loop_
_atom_site_type_symbol
_atom_site_label
_atom_site_fract_x
_atom_site_fract_y
_atom_site_fract_z
Si Si1 0.952870 0.709976 0.863255
Si Si2 0.750000 0.250000 0.078096
Si Si3 0.186143 0.402963 0.888799
Si Si4 0.750000 0.750000 0.732516
Si Si5 0.750000 0.750000 0.485005
Si Si6 0.346319 0.549968 0.985330
Si Si7 0.914224 0.001563 0.421224
O O1 0.885665 0.743260 0.786652
O O2 0.879014 0.772050 0.929067
O O3 0.909016 0.601127 0.882440
O O4 0.120858 0.713471 0.871751
O O5 0.680421 0.337208 0.031056
O O6 0.243866 0.342818 0.820018
O O7 0.277228 0.495311 0.913883
O O8 0.020536 0.429528 0.876185
O O9 0.202287 0.334569 0.960858
O O10 0.500000 0.500000 0.000000
O O11 0.243793 0.531498 0.056085
O O12 0.000000 0.000000 0.500000
#
# Coordination Sequence:
#
# PCOD9429549 Si02
#       7
#     8   4   8   4   4   8   8
#     4  11  21  39  60  92 123 165 212 262 319 379
#     4  12  22  36  60  94 136 160 210 276 328 384
#     4  10  19  41  60  89 122 163 213 257 318 380
#     4  10  26  40  64  88 122 184 216 254 322 406
#     4  10  16  32  70  84 112 156 214 258 296 384
#     4  11  22  37  65 106 125 159 213 278 333 381
#     4  10  18  39  64  88 123 162 203 267 319 365
#
# _framework density 18.644030999999998
#
# number of rings (size 3 to 8) (size 9 to 14) (size 15 to 20)
#    0.000    1.455    7.273    1.091    2.545    1.455 
#    3.273    1.818    0.000    2.182    0.000    0.000 
#    0.000    0.000    0.000    0.000    0.000    0.000 
#
# Total GULP energy -245072.173916 kJ/mol
# GULP energy per Si atom -5569.822134 kJ/mol
# Density = 1.860160 g / cm^3
# Si number density = 18.644031 Si / 1000 Ang^3
#
#
#
# Elastic Constant Matrix: (Units=GPa)
#
#
# Indices 1 2 3 4 5 6 
#
# 1 154.3877 38.5834 31.5509 0.0000 0.0000 0.0000
# 2 38.5834 108.4112 29.7937 0.0000 0.0000 0.0000
# 3 31.5509 29.7937 82.0028 0.0000 0.0000 0.0000
# 4 0.0000 0.0000 0.0000 13.1738 0.0000 0.0000
# 5 0.0000 0.0000 0.0000 0.0000 2.0213 0.0000
# 6 0.0000 0.0000 0.0000 0.0000 0.0000 33.8572
#
#
#
# Elastic Compliance Matrix: (Units=1/GPa)
#
#
# Indices 1 2 3 4 5 6 
#
# 1 0.007423 -0.002063 -0.002107 0.000000 0.000000 0.000000
# 2 -0.002063 0.010821 -0.003138 0.000000 0.000000 0.000000
# 3 -0.002107 -0.003138 0.014145 0.000000 0.000000 0.000000
# 4 0.000000 0.000000 0.000000 0.075908 0.000000 0.000000
# 5 0.000000 0.000000 0.000000 0.000000 0.494737 0.000000
# 6 0.000000 0.000000 0.000000 0.000000 0.000000 0.029536
#
#
# Mechanical properties :
#
#
# Convention : Reuss Voigt Hill
#
# Bulk Modulus (GPa) = 56.25999 60.51753 58.38876
# Shear Modulus (GPa) = 7.65568 26.13535 16.89552
#
# Velocity S-wave (km/s) = 2.02858 3.74813 3.01361
# Velocity P-wave (km/s) = 5.97731 7.15970 6.59506
#
# Compressibility (1/GPa) = 0.01777462
#
# Stress axis : x y z
#
# Youngs Moduli (GPa) = 134.71141 92.41581 70.69518
#
# Poissons Ratio (x) = 0.19065 0.14893
# Poissons Ratio (y) = 0.27791 0.22182
# Poissons Ratio (z) = 0.28378 0.28997
#
# Static dielectric constant tensor:
#      x y z
#    x 1.704780 0.000000 0.000000 
#    y 0.000000 1.741190 0.000000 
#    z 0.000000 0.000000 1.626320 
# 
# From -- ./inp_files/14737.got.cif
#   From: 2010.05.17/outbox.cif.g08.bks.cpg/sg56_8_cif.got.tgz:14737.got - 2010.06.03 13:42:01.
