data_PCOD9429165
_publ_section_title
;
Structure prediction by ZEFSAII (Michael W. Deem and Ramdas Pophale) SiO2 
 PCOD9429165
Probable space group: P B A M
;
_chemical_formula_sum "Si O2"
_cell_formula_units_Z 40
_cell_length_a 9.421871
_cell_length_b 10.501373
_cell_length_c 19.026145
_cell_angle_alpha 90.000000
_cell_angle_beta 90.000000
_cell_angle_gamma 90.000000
_cell_volume 1882.495907
_symmetry_space_group_name_H-M "P B A M"
_symmetry_group_IT_number 55
_symmetry_cell_setting 'orthorhombic'
loop_
_space_group_symop_operation_xyz
x,y,z
-x,-y,z
1/2+x,1/2-y,-z
1/2-x,1/2+y,-z
-x,-y,-z
x,y,-z
1/2-x,1/2+y,z
1/2+x,1/2-y,z
loop_
_atom_site_type_symbol
_atom_site_label
_atom_site_fract_x
_atom_site_fract_y
_atom_site_fract_z
Si Si1 0.588118 0.627812 0.415547
Si Si2 0.584783 0.121121 0.199105
Si Si3 0.408880 0.866761 0.644517
Si Si4 0.982422 0.790124 0.077342
Si Si5 0.228480 0.996436 0.077138
O O1 0.500000 0.500000 0.394429
O O2 0.586553 0.634774 0.500000
O O3 0.753065 0.621175 0.391051
O O4 0.505980 0.752359 0.386034
O O5 0.628618 0.175282 0.274099
O O6 0.494620 0.210037 0.147168
O O7 0.691214 0.058568 0.143296
O O8 0.500000 0.000000 0.223806
O O9 0.500000 0.000000 0.635877
O O10 0.097218 0.900170 0.072761
O O11 0.831296 0.861375 0.086514
O O12 0.982412 0.727378 0.000000
O O13 0.298861 0.994485 0.000000
#
# Coordination Sequence:
#
# PCOD9429165 Si02
#       5
#     8   8   8   8   8
#     4  11  25  47  76 106 139 181 226 280 342 412
#     4  11  25  38  58  90 126 165 209 265 329 391
#     4  11  26  45  69 107 145 182 230 279 346 420
#     4   9  20  38  59  83 116 164 217 267 320 380
#     4   9  20  38  58  83 116 162 216 267 322 378
#
# _framework density 21.248386
#
# number of rings (size 3 to 8) (size 9 to 14) (size 15 to 20)
#    0.000    1.800    0.000    3.600    5.600    8.000 
#    0.000    0.000    0.000    0.000    0.000    0.000 
#    0.000    0.000    0.000    0.000    0.000    0.000 
#
# Total GULP energy -222762.278250 kJ/mol
# GULP energy per Si atom -5569.056956 kJ/mol
# Density = 2.120002 g / cm^3
# Si number density = 21.248386 Si / 1000 Ang^3
#
#
#
# Elastic Constant Matrix: (Units=GPa)
#
#
# Indices 1 2 3 4 5 6 
#
# 1 119.8338 50.3721 43.7702 0.0000 0.0000 0.0000
# 2 50.3721 124.8897 41.9115 0.0000 0.0000 0.0000
# 3 43.7702 41.9115 140.4319 0.0000 0.0000 0.0000
# 4 0.0000 0.0000 0.0000 25.0693 0.0000 0.0000
# 5 0.0000 0.0000 0.0000 0.0000 79.3076 0.0000
# 6 0.0000 0.0000 0.0000 0.0000 0.0000 42.8074
#
#
#
# Elastic Compliance Matrix: (Units=1/GPa)
#
#
# Indices 1 2 3 4 5 6 
#
# 1 0.010660 -0.003539 -0.002266 0.000000 0.000000 0.000000
# 2 -0.003539 0.010073 -0.001903 0.000000 0.000000 0.000000
# 3 -0.002266 -0.001903 0.008395 0.000000 0.000000 0.000000
# 4 0.000000 0.000000 0.000000 0.039889 0.000000 0.000000
# 5 0.000000 0.000000 0.000000 0.000000 0.012609 0.000000
# 6 0.000000 0.000000 0.000000 0.000000 0.000000 0.023360
#
#
# Mechanical properties :
#
#
# Convention : Reuss Voigt Hill
#
# Bulk Modulus (GPa) = 72.93217 73.02922 72.98069
# Shear Modulus (GPa) = 40.00775 46.04365 43.02570
#
# Velocity S-wave (km/s) = 4.34390 4.66007 4.50476
# Velocity P-wave (km/s) = 7.71735 7.96235 7.84080
#
# Compressibility (1/GPa) = 0.01371137
#
# Stress axis : x y z
#
# Youngs Moduli (GPa) = 93.80535 99.27328 119.11406
#
# Poissons Ratio (x) = 0.35134 0.26996
# Poissons Ratio (y) = 0.33199 0.22670
# Poissons Ratio (z) = 0.21260 0.18894
#
# Static dielectric constant tensor:
#      x y z
#    x 1.813640 0.000000 0.000000 
#    y 0.000000 1.809360 0.000000 
#    z 0.000000 0.000000 1.814070 
# 
# From -- ./inp_files/20610.got.cif
#   From: 2010.05.17/outbox.cif.g08.bks.cpg/sg55_11_cif.got.tgz:20610.got - 2010.06.03 13:27:54.
