data_PCOD9429813
_publ_section_title
;
Structure prediction by ZEFSAII (Michael W. Deem and Ramdas Pophale) SiO2 
 PCOD9429813
Probable space group: P C C N
;
_chemical_formula_sum "Si O2"
_cell_formula_units_Z 60
_cell_length_a 22.208397
_cell_length_b 13.968178
_cell_length_c 9.134093
_cell_angle_alpha 90.000000
_cell_angle_beta 90.000000
_cell_angle_gamma 90.000000
_cell_volume 2833.494684
_symmetry_space_group_name_H-M "P C C N"
_symmetry_group_IT_number 56
_symmetry_cell_setting 'orthorhombic'
loop_
_space_group_symop_operation_xyz
x,y,z
1/2-x,1/2-y,z
1/2+x,-y,1/2-z
-x,1/2+y,1/2-z
-x,-y,-z
1/2+x,1/2+y,-z
1/2-x,y,1/2+z
x,1/2-y,1/2+z
loop_
_atom_site_type_symbol
_atom_site_label
_atom_site_fract_x
_atom_site_fract_y
_atom_site_fract_z
Si Si1 0.864410 0.369908 0.160867
Si Si2 0.654389 0.096994 0.837378
Si Si3 0.614138 0.722310 0.296327
Si Si4 0.714128 0.597770 0.416960
Si Si5 0.250000 0.750000 0.256942
Si Si6 0.051711 0.808502 0.802397
Si Si7 0.032042 0.245461 0.946803
Si Si8 0.167169 0.078327 0.250165
O O1 0.798866 0.317770 0.163458
O O2 0.913575 0.293797 0.213649
O O3 0.858867 0.470698 0.244299
O O4 0.878350 0.390875 0.992311
O O5 0.706677 0.176549 0.827071
O O6 0.605027 0.115342 0.713405
O O7 0.684487 0.994730 0.841207
O O8 0.679861 0.684509 0.337286
O O9 0.571688 0.698325 0.433779
O O10 0.620067 0.836428 0.273000
O O11 0.580067 0.686495 0.151069
O O12 0.783730 0.590895 0.377377
O O13 0.699115 0.594864 0.590134
O O14 0.005071 0.808840 0.668402
O O15 0.015630 0.811435 0.953622
#
# Coordination Sequence:
#
# PCOD9429813 Si02
#       8
#     8   8   8   8   4   8   8   8
#     4  10  20  37  61  94 126 162 199 243 315 373
#     4  10  20  37  61  94 126 162 199 243 315 373
#     4  11  23  43  65  89 117 171 207 268 296 362
#     4  11  24  42  63  94 127 161 204 253 312 374
#     4  10  18  34  60  92 126 166 186 254 294 384
#     4  10  20  41  65  93 125 164 198 266 298 376
#     4  10  22  42  65  87 122 164 220 250 312 342
#     4  11  24  42  63  94 127 161 204 253 312 374
#
# _framework density 21.175263999999999
#
# number of rings (size 3 to 8) (size 9 to 14) (size 15 to 20)
#    0.000    1.600    4.000    0.800    1.867    1.067 
#    2.400    8.000    0.000    0.000    0.000    0.000 
#    0.000    0.000    0.000    0.000    0.000    0.000 
#
# Total GULP energy -334690.623860 kJ/mol
# GULP energy per Si atom -5578.177064 kJ/mol
# Density = 2.112707 g / cm^3
# Si number density = 21.175264 Si / 1000 Ang^3
#
#
#
# Elastic Constant Matrix: (Units=GPa)
#
#
# Indices 1 2 3 4 5 6 
#
# 1 68.3638 5.1141 12.5936 0.0000 0.0000 0.0000
# 2 5.1141 73.1638 -3.5216 0.0000 0.0000 0.0000
# 3 12.5936 -3.5216 67.5279 0.0000 0.0000 0.0000
# 4 0.0000 0.0000 0.0000 12.5070 0.0000 0.0000
# 5 0.0000 0.0000 0.0000 0.0000 33.9647 0.0000
# 6 0.0000 0.0000 0.0000 0.0000 0.0000 14.0975
#
#
#
# Elastic Compliance Matrix: (Units=1/GPa)
#
#
# Indices 1 2 3 4 5 6 
#
# 1 0.015253 -0.001206 -0.002908 0.000000 0.000000 0.000000
# 2 -0.001206 0.013798 0.000945 0.000000 0.000000 0.000000
# 3 -0.002908 0.000945 0.015400 0.000000 0.000000 0.000000
# 4 0.000000 0.000000 0.000000 0.079955 0.000000 0.000000
# 5 0.000000 0.000000 0.000000 0.000000 0.029442 0.000000
# 6 0.000000 0.000000 0.000000 0.000000 0.000000 0.070935
#
#
# Mechanical properties :
#
#
# Convention : Reuss Voigt Hill
#
# Bulk Modulus (GPa) = 26.23782 26.38083 26.30933
# Shear Modulus (GPa) = 20.50640 25.10514 22.80577
#
# Velocity S-wave (km/s) = 3.11531 3.44697 3.28533
# Velocity P-wave (km/s) = 5.03566 5.32236 5.18099
#
# Compressibility (1/GPa) = 0.03811293
#
# Stress axis : x y z
#
# Youngs Moduli (GPa) = 65.55880 72.47563 64.93425
#
# Poissons Ratio (x) = 0.08742 0.18880
# Poissons Ratio (y) = 0.07907 -0.06133
# Poissons Ratio (z) = 0.19062 -0.06845
#
# Static dielectric constant tensor:
#      x y z
#    x 1.781170 0.000000 0.000000 
#    y 0.000000 1.790260 0.000000 
#    z 0.000000 0.000000 1.778920 
# 
# From -- ./inp_files/4792.got.cif
#   From: 2010.05.17/outbox.cif.g08.bks.cpg/sg56_3_cif.got.tgz:4792.got - 2010.06.03 13:42:01.
