data_PCOD9429271
_publ_section_title
;
Structure prediction by ZEFSAII (Michael W. Deem and Ramdas Pophale) SiO2 
 PCOD9429271
Probable space group: P B A M
;
_chemical_formula_sum "Si O2"
_cell_formula_units_Z 64
_cell_length_a 21.000000
_cell_length_b 21.000000
_cell_length_c 9.000000
_cell_angle_alpha 90.000000
_cell_angle_beta 90.000000
_cell_angle_gamma 90.000000
_cell_volume 3969.000000
_symmetry_space_group_name_H-M "P B A M"
_symmetry_group_IT_number 55
_symmetry_cell_setting 'orthorhombic'
loop_
_space_group_symop_operation_xyz
x,y,z
-x,-y,z
1/2+x,1/2-y,-z
1/2-x,1/2+y,-z
-x,-y,-z
x,y,-z
1/2-x,1/2+y,z
1/2+x,1/2-y,z
loop_
_atom_site_type_symbol
_atom_site_label
_atom_site_fract_x
_atom_site_fract_y
_atom_site_fract_z
Si Si1 0.707019 0.690767 0.320238
Si Si2 0.197611 0.425044 0.320842
Si Si3 0.928522 0.224212 0.822400
Si Si4 0.570451 0.130652 0.820231
Si Si5 0.298481 0.071565 0.321138
Si Si6 0.706467 0.313764 0.319863
Si Si7 0.564711 0.271656 0.680243
Si Si8 0.573043 0.877422 0.824273
O O1 0.699251 0.693001 0.500000
O O2 0.747921 0.627210 0.283289
O O3 0.636757 0.695376 0.246641
O O4 0.751314 0.751661 0.276095
O O5 0.188125 0.420887 0.500000
O O6 0.131011 0.407733 0.240993
O O7 0.215934 0.497898 0.283361
O O8 0.923582 0.300935 0.800420
O O9 0.996513 0.204714 0.747135
O O10 0.931340 0.212460 0.000000
O O11 0.573157 0.200336 0.744833
O O12 0.499698 0.103352 0.783147
O O13 0.573257 0.136518 0.000000
O O14 0.300920 0.075933 0.500000
O O15 0.245123 0.123050 0.270264
O O16 0.368143 0.090457 0.259651
O O17 0.706162 0.313934 0.500000
O O18 0.631496 0.307240 0.277555
O O19 0.560423 0.270434 0.500000
O O20 0.580602 0.889494 0.000000
#
# Coordination Sequence:
#
# PCOD9429271 Si02
#       8
#     8   8   8   8   8   8   8   8
#     4  10  18  33  54  76 100 132 171 211 253 298
#     4  10  21  35  51  74 103 133 171 213 255 302
#     4  10  20  33  50  79 108 132 168 212 255 303
#     4  10  20  33  49  72 105 140 174 209 249 299
#     4  10  20  34  52  74 100 132 169 212 254 300
#     4   9  17  31  53  78 100 127 169 212 252 298
#     4  10  18  32  54  78 104 134 168 212 260 304
#     4   9  19  33  47  69 102 136 168 203 244 297
#
# _framework density 16.124969
#
# number of rings (size 3 to 8) (size 9 to 14) (size 15 to 20)
#    0.000    2.250    2.500    1.875    0.000    4.000 
#    0.000    3.750    0.000    0.750    0.000    5.250 
#    0.000    0.000    0.000    0.000    0.000    0.000 
#
# Total GULP energy -356725.232806 kJ/mol
# GULP energy per Si atom -5573.831763 kJ/mol
# Density = 1.608827 g / cm^3
# Si number density = 16.124969 Si / 1000 Ang^3
#
#
#
# Elastic Constant Matrix: (Units=GPa)
#
#
# Indices 1 2 3 4 5 6 
#
# 1 177.6943 74.8648 45.5267 0.0000 0.0000 0.0000
# 2 74.8648 103.3629 29.9408 0.0000 0.0000 0.0000
# 3 45.5267 29.9408 46.2282 0.0000 0.0000 0.0000
# 4 0.0000 0.0000 0.0000 14.0419 0.0000 0.0000
# 5 0.0000 0.0000 0.0000 0.0000 28.1989 0.0000
# 6 0.0000 0.0000 0.0000 0.0000 0.0000 26.7691
#
#
#
# Elastic Compliance Matrix: (Units=1/GPa)
#
#
# Indices 1 2 3 4 5 6 
#
# 1 0.009231 -0.004988 -0.005860 0.000000 0.000000 0.000000
# 2 -0.004988 0.014605 -0.004546 0.000000 0.000000 0.000000
# 3 -0.005860 -0.004546 0.030347 0.000000 0.000000 0.000000
# 4 0.000000 0.000000 0.000000 0.071215 0.000000 0.000000
# 5 0.000000 0.000000 0.000000 0.000000 0.035462 0.000000
# 6 0.000000 0.000000 0.000000 0.000000 0.000000 0.037357
#
#
# Mechanical properties :
#
#
# Convention : Reuss Voigt Hill
#
# Bulk Modulus (GPa) = 42.74687 69.77222 56.25954
# Shear Modulus (GPa) = 21.11459 25.59887 23.35673
#
# Velocity S-wave (km/s) = 3.62254 3.98870 3.81002
# Velocity P-wave (km/s) = 6.63810 8.03596 7.37024
#
# Compressibility (1/GPa) = 0.02339353
#
# Stress axis : x y z
#
# Youngs Moduli (GPa) = 108.33572 68.47189 32.95193
#
# Poissons Ratio (x) = 0.34155 0.19309
# Poissons Ratio (y) = 0.54041 0.14981
# Poissons Ratio (z) = 0.63482 0.31130
#
# Static dielectric constant tensor:
#      x y z
#    x 1.541780 0.000000 0.000000 
#    y 0.000000 1.543960 0.000000 
#    z 0.000000 0.000000 1.540600 
# 
# From -- ./inp_files/8212.got.cif
#   From: 2010.05.17/outbox.ucp.g08.bks.cvg/sg55_5_cif.got.tgz:8212.got - 2010.06.11 16:36:00.
