data_PCOD9429361
_publ_section_title
;
Structure prediction by ZEFSAII (Michael W. Deem and Ramdas Pophale) SiO2 
 PCOD9429361
Probable space group: P B A M
;
_chemical_formula_sum "Si O2"
_cell_formula_units_Z 64
_cell_length_a 9.000000
_cell_length_b 12.000000
_cell_length_c 30.000000
_cell_angle_alpha 90.000000
_cell_angle_beta 90.000000
_cell_angle_gamma 90.000000
_cell_volume 3240.000000
_symmetry_space_group_name_H-M "P B A M"
_symmetry_group_IT_number 55
_symmetry_cell_setting 'orthorhombic'
loop_
_space_group_symop_operation_xyz
x,y,z
-x,-y,z
1/2+x,1/2-y,-z
1/2-x,1/2+y,-z
-x,-y,-z
x,y,-z
1/2-x,1/2+y,z
1/2+x,1/2-y,z
loop_
_atom_site_type_symbol
_atom_site_label
_atom_site_fract_x
_atom_site_fract_y
_atom_site_fract_z
Si Si1 0.483835 0.632200 0.551038
Si Si2 0.519207 0.126553 0.660608
Si Si3 0.545685 0.767423 0.920870
Si Si4 0.550981 0.868190 0.236506
Si Si5 0.722181 0.091681 0.048746
Si Si6 0.767070 0.248696 0.607134
Si Si7 0.200216 0.101690 0.882114
Si Si8 0.095944 0.114680 0.217554
O O1 0.500000 0.500000 0.552050
O O2 0.462036 0.668914 0.500000
O O3 0.346301 0.671176 0.581203
O O4 0.633264 0.684158 0.571311
O O5 0.513798 0.135274 0.713717
O O6 0.668076 0.171085 0.638422
O O7 0.381722 0.190740 0.639340
O O8 0.500000 0.000000 0.647639
O O9 0.665663 0.697216 0.948887
O O10 0.444193 0.860816 0.944422
O O11 0.645473 0.828427 0.883304
O O12 0.426807 0.678069 0.903912
O O13 0.733935 0.869983 0.237619
O O14 0.488670 0.740775 0.218641
O O15 0.500000 0.000000 0.219690
O O16 0.768436 0.007061 0.087907
O O17 0.735936 0.037978 0.000000
O O18 0.140828 0.082333 0.832955
O O19 0.000000 0.000000 0.233275
#
# Coordination Sequence:
#
# PCOD9429361 Si02
#       8
#     8   8   8   8   8   8   8   8
#     4  10  20  34  53  82 119 163 212 256 306 369
#     4  10  21  39  60  87 119 155 206 258 321 386
#     4  10  23  40  61  88 120 157 200 247 300 360
#     4  11  25  44  68  97 131 171 215 271 332 403
#     4  11  23  40  62  90 123 160 202 250 303 361
#     4  10  20  35  58  84 118 160 203 261 319 370
#     4  11  24  42  63  88 120 158 200 247 303 371
#     4  12  25  44  69  99 132 169 216 266 328 395
#
# _framework density 19.753086
#
# number of rings (size 3 to 8) (size 9 to 14) (size 15 to 20)
#    0.000    1.375    0.000    5.250    0.000    9.000 
#    0.000    3.125    0.000    6.000    0.000    0.000 
#    0.000    0.000    0.000    0.000    0.000    0.000 
#
# Total GULP energy -356520.735189 kJ/mol
# GULP energy per Si atom -5570.636487 kJ/mol
# Density = 1.970813 g / cm^3
# Si number density = 19.753086 Si / 1000 Ang^3
#
#
#
# Elastic Constant Matrix: (Units=GPa)
#
#
# Indices 1 2 3 4 5 6 
#
# 1 89.4603 26.9554 -25.7018 0.0000 0.0000 0.0000
# 2 26.9554 115.1953 6.8493 0.0000 0.0000 0.0000
# 3 -25.7018 6.8493 26.3730 0.0000 0.0000 0.0000
# 4 0.0000 0.0000 0.0000 33.6931 0.0000 0.0000
# 5 0.0000 0.0000 0.0000 0.0000 16.4857 0.0000
# 6 0.0000 0.0000 0.0000 0.0000 0.0000 7.8058
#
#
#
# Elastic Compliance Matrix: (Units=1/GPa)
#
#
# Indices 1 2 3 4 5 6 
#
# 1 0.018369 -0.005447 0.019316 0.000000 0.000000 0.000000
# 2 -0.005447 0.010432 -0.008017 0.000000 0.000000 0.000000
# 3 0.019316 -0.008017 0.058824 0.000000 0.000000 0.000000
# 4 0.000000 0.000000 0.000000 0.029680 0.000000 0.000000
# 5 0.000000 0.000000 0.000000 0.000000 0.060659 0.000000
# 6 0.000000 0.000000 0.000000 0.000000 0.000000 0.128109
#
#
# Mechanical properties :
#
#
# Convention : Reuss Voigt Hill
#
# Bulk Modulus (GPa) = 10.06763 27.47048 18.76906
# Shear Modulus (GPa) = 15.26818 26.45865 20.86341
#
# Velocity S-wave (km/s) = 2.78322 3.66385 3.25346
# Velocity P-wave (km/s) = 3.92889 5.64229 4.86167
#
# Compressibility (1/GPa) = 0.09932824
#
# Stress axis : x y z
#
# Youngs Moduli (GPa) = 54.44039 95.85768 16.99985
#
# Poissons Ratio (x) = 0.52211 -0.32837
# Poissons Ratio (y) = 0.29652 0.13630
# Poissons Ratio (z) = -1.05156 0.76853
#
# Static dielectric constant tensor:
#      x y z
#    x 1.675940 0.000000 0.000000 
#    y 0.000000 1.740720 0.000000 
#    z 0.000000 0.000000 1.711060 
# 
# From -- ./inp_files/24153.got.cif
#   From: 2010.05.17/outbox.ucp.g08.bks.cvg/sg55_13_cif.got.tgz:24153.got - 2010.06.11 16:36:00.
