data_PCOD9429898
_publ_section_title
;
Structure prediction by ZEFSAII (Michael W. Deem and Ramdas Pophale) SiO2 
 PCOD9429898
Probable space group: P C C N
;
_chemical_formula_sum "Si O2"
_cell_formula_units_Z 60
_cell_length_a 10.458384
_cell_length_b 11.278525
_cell_length_c 23.895276
_cell_angle_alpha 90.000000
_cell_angle_beta 90.000000
_cell_angle_gamma 90.000000
_cell_volume 2818.570755
_symmetry_space_group_name_H-M "P C C N"
_symmetry_group_IT_number 56
_symmetry_cell_setting 'orthorhombic'
loop_
_space_group_symop_operation_xyz
x,y,z
1/2-x,1/2-y,z
1/2+x,-y,1/2-z
-x,1/2+y,1/2-z
-x,-y,-z
1/2+x,1/2+y,-z
1/2-x,y,1/2+z
x,1/2-y,1/2+z
loop_
_atom_site_type_symbol
_atom_site_label
_atom_site_fract_x
_atom_site_fract_y
_atom_site_fract_z
Si Si1 0.906310 0.900469 0.344388
Si Si2 0.179696 0.618476 0.904669
Si Si3 0.550896 0.917343 0.433658
Si Si4 0.106975 0.296048 0.277561
Si Si5 0.250000 0.250000 0.072321
Si Si6 0.894595 0.049892 0.171372
Si Si7 0.360437 0.845263 0.208310
Si Si8 0.699162 0.381046 0.987894
O O1 0.908288 0.820301 0.288642
O O2 0.805535 0.850107 0.387735
O O3 0.042231 0.888850 0.375973
O O4 0.861475 0.030639 0.324540
O O5 0.250000 0.750000 0.901875
O O6 0.271267 0.537415 0.867685
O O7 0.185279 0.581236 0.969992
O O8 0.636567 0.812492 0.459212
O O9 0.507116 0.903521 0.369172
O O10 0.420252 0.899441 0.468532
O O11 0.637473 0.035640 0.440447
O O12 0.250000 0.250000 0.288015
O O13 0.074131 0.421254 0.305425
O O14 0.001600 0.206525 0.299711
O O15 0.855449 0.127445 0.224904
O O16 0.250000 0.750000 0.194376
O O17 0.750000 0.250000 0.969782
#
# Coordination Sequence:
#
# PCOD9429898 Si02
#       8
#     8   8   8   8   4   8   8   8
#     4  11  23  37  62  90 129 169 218 266 318 389
#     4  10  18  37  65  93 117 164 220 264 323 406
#     4  10  22  39  65  94 123 163 216 276 324 404
#     4  11  22  37  58  87 130 168 214 261 314 380
#     4  12  22  38  60  90 124 160 212 260 318 378
#     4  10  21  36  62  83 121 170 210 256 319 375
#     4  11  24  39  58  91 135 175 222 262 324 386
#     4   9  19  41  69  91 121 161 214 274 348 397
#
# _framework density 21.287385
#
# number of rings (size 3 to 8) (size 9 to 14) (size 15 to 20)
#    0.000    1.600    0.667    6.000    1.867    2.667 
#    2.400    2.667   19.067    0.000    0.000    0.000 
#    0.000    0.000    0.000    0.000    0.000    0.000 
#
# Total GULP energy -334307.486104 kJ/mol
# GULP energy per Si atom -5571.791435 kJ/mol
# Density = 2.123893 g / cm^3
# Si number density = 21.287385 Si / 1000 Ang^3
#
#
#
# Elastic Constant Matrix: (Units=GPa)
#
#
# Indices 1 2 3 4 5 6 
#
# 1 103.5177 24.5696 19.0971 0.0000 0.0000 0.0000
# 2 24.5696 76.2986 4.9697 0.0000 0.0000 0.0000
# 3 19.0971 4.9697 29.4923 0.0000 0.0000 0.0000
# 4 0.0000 0.0000 0.0000 19.0471 0.0000 0.0000
# 5 0.0000 0.0000 0.0000 0.0000 38.1367 0.0000
# 6 0.0000 0.0000 0.0000 0.0000 0.0000 41.2430
#
#
#
# Elastic Compliance Matrix: (Units=1/GPa)
#
#
# Indices 1 2 3 4 5 6 
#
# 1 0.011749 -0.003324 -0.007048 0.000000 0.000000 0.000000
# 2 -0.003324 0.014193 -0.000239 0.000000 0.000000 0.000000
# 3 -0.007048 -0.000239 0.038511 0.000000 0.000000 0.000000
# 4 0.000000 0.000000 0.000000 0.052502 0.000000 0.000000
# 5 0.000000 0.000000 0.000000 0.000000 0.026221 0.000000
# 6 0.000000 0.000000 0.000000 0.000000 0.000000 0.024247
#
#
# Mechanical properties :
#
#
# Convention : Reuss Voigt Hill
#
# Bulk Modulus (GPa) = 23.13179 34.06460 28.59820
# Shear Modulus (GPa) = 24.62384 30.39682 27.51033
#
# Velocity S-wave (km/s) = 3.40477 3.78289 3.59880
# Velocity P-wave (km/s) = 5.13290 5.92599 5.54364
#
# Compressibility (1/GPa) = 0.04323055
#
# Stress axis : x y z
#
# Youngs Moduli (GPa) = 85.11042 70.45969 25.96656
#
# Poissons Ratio (x) = 0.23424 0.18301
# Poissons Ratio (y) = 0.28295 0.00620
# Poissons Ratio (z) = 0.59985 0.01683
#
# Static dielectric constant tensor:
#      x y z
#    x 2.058300 0.000000 0.000000 
#    y 0.000000 1.828560 0.000000 
#    z 0.000000 0.000000 1.810040 
# 
# From -- ./inp_files/22105.got.cif
#   From: 2010.05.17/outbox.cif.g08.bks.cpg/sg56_12_cif.got.tgz:22105.got - 2010.06.03 13:42:01.
