data_PCOD9429232
_publ_section_title
;
Structure prediction by ZEFSAII (Michael W. Deem and Ramdas Pophale) SiO2 
 PCOD9429232
Probable space group: P B A M
;
_chemical_formula_sum "Si O2"
_cell_formula_units_Z 40
_cell_length_a 7.045204
_cell_length_b 14.561476
_cell_length_c 15.973624
_cell_angle_alpha 90.000000
_cell_angle_beta 90.000000
_cell_angle_gamma 90.000000
_cell_volume 1638.711227
_symmetry_space_group_name_H-M "P B A M"
_symmetry_group_IT_number 55
_symmetry_cell_setting 'orthorhombic'
loop_
_space_group_symop_operation_xyz
x,y,z
-x,-y,z
1/2+x,1/2-y,-z
1/2-x,1/2+y,-z
-x,-y,-z
x,y,-z
1/2-x,1/2+y,z
1/2+x,1/2-y,z
loop_
_atom_site_type_symbol
_atom_site_label
_atom_site_fract_x
_atom_site_fract_y
_atom_site_fract_z
Si Si1 0.653683 0.830368 0.410079
Si Si2 0.785583 0.114626 0.410064
Si Si3 0.710042 0.616960 0.228049
Si Si4 0.225461 0.527234 0.095454
Si Si5 0.149820 0.670521 0.228026
O O1 0.744172 0.854720 0.500000
O O2 0.443746 0.873438 0.410542
O O3 0.637142 0.719579 0.410089
O O4 0.740855 0.850867 0.319220
O O5 0.833876 0.071792 0.500000
O O6 0.838451 0.075880 0.319453
O O7 0.676331 0.552989 0.148984
O O8 0.634111 0.720219 0.218368
O O9 0.937502 0.631581 0.231781
O O10 0.244705 0.619222 0.150705
O O11 0.000000 0.500000 0.092447
O O12 0.288309 0.537059 0.000000
#
# Coordination Sequence:
#
# PCOD9429232 Si02
#       5
#     8   8   8   8   8
#     4   8  13  22  38  61  87 113 141 174 212 254
#     4   8  13  22  38  61  87 113 141 174 212 254
#     4   9  17  30  48  68  90 118 150 182 219 264
#     4   9  18  32  48  66  90 119 149 183 226 272
#     4   9  17  30  48  68  90 118 150 182 219 264
#
# _framework density 24.409424000000001
#
# number of rings (size 3 to 8) (size 9 to 14) (size 15 to 20)
#    0.000    3.400    0.000    0.000    0.000    0.800 
#    0.000    2.000    0.000    7.200    0.000    0.000 
#    0.000   32.000    0.000    0.000    0.000    0.000 
#
# Total GULP energy -223338.208871 kJ/mol
# GULP energy per Si atom -5583.455222 kJ/mol
# Density = 2.435387 g / cm^3
# Si number density = 24.409424 Si / 1000 Ang^3
#
#
#
# Elastic Constant Matrix: (Units=GPa)
#
#
# Indices 1 2 3 4 5 6 
#
# 1 74.8867 9.9004 20.9325 0.0000 0.0000 0.0000
# 2 9.9004 103.1157 100.7332 0.0000 0.0000 0.0000
# 3 20.9325 100.7332 333.0068 0.0000 0.0000 0.0000
# 4 0.0000 0.0000 0.0000 47.2404 0.0000 0.0000
# 5 0.0000 0.0000 0.0000 0.0000 1.0583 0.0000
# 6 0.0000 0.0000 0.0000 0.0000 0.0000 -26.4511
#
#
#
# Elastic Compliance Matrix: (Units=1/GPa)
#
#
# Indices 1 2 3 4 5 6 
#
# 1 0.013625 -0.000669 -0.000654 0.000000 0.000000 0.000000
# 2 -0.000669 0.013799 -0.004132 0.000000 0.000000 0.000000
# 3 -0.000654 -0.004132 0.004294 0.000000 0.000000 0.000000
# 4 0.000000 0.000000 0.000000 0.021168 0.000000 0.000000
# 5 0.000000 0.000000 0.000000 0.000000 0.944888 0.000000
# 6 0.000000 0.000000 0.000000 0.000000 0.000000 -0.037806
#
#
# Mechanical properties :
#
#
# Convention : Reuss Voigt Hill
#
# Bulk Modulus (GPa) = 48.06096 86.01569 67.03832
# Shear Modulus (GPa) = 5.11345 29.66573 17.38959
#
# Velocity S-wave (km/s) = 1.44894 3.48995 2.67200
# Velocity P-wave (km/s) = 4.74673 7.18018 6.08631
#
# Compressibility (1/GPa) = 0.02080691
#
# Stress axis : x y z
#
# Youngs Moduli (GPa) = 73.39563 72.47126 232.88599
#
# Poissons Ratio (x) = 0.04850 0.15230
# Poissons Ratio (y) = 0.04912 0.96227
# Poissons Ratio (z) = 0.04800 0.29945
#
# Static dielectric constant tensor:
#      x y z
#    x 1.990310 0.000000 0.000000 
#    y 0.000000 1.911110 0.000000 
#    z 0.000000 0.000000 1.931600 
# 
# From -- ./inp_files/17060.got.cif
#   From: 2010.05.17/outbox.cif.g08.bks.cpg/sg55_9_cif.got.tgz:17060.got - 2010.06.03 13:27:54.
