data_PCOD9429599
_publ_section_title
;
Structure prediction by ZEFSAII (Michael W. Deem and Ramdas Pophale) SiO2 
 PCOD9429599
Probable space group: P C C N
;
_chemical_formula_sum "Si O2"
_cell_formula_units_Z 48
_cell_length_a 10.305222
_cell_length_b 22.910293
_cell_length_c 8.835645
_cell_angle_alpha 90.000000
_cell_angle_beta 90.000000
_cell_angle_gamma 90.000000
_cell_volume 2086.057398
_symmetry_space_group_name_H-M "P C C N"
_symmetry_group_IT_number 56
_symmetry_cell_setting 'orthorhombic'
loop_
_space_group_symop_operation_xyz
x,y,z
1/2-x,1/2-y,z
1/2+x,-y,1/2-z
-x,1/2+y,1/2-z
-x,-y,-z
1/2+x,1/2+y,-z
1/2-x,y,1/2+z
x,1/2-y,1/2+z
loop_
_atom_site_type_symbol
_atom_site_label
_atom_site_fract_x
_atom_site_fract_y
_atom_site_fract_z
Si Si1 0.319612 0.055578 0.484970
Si Si2 0.940753 0.670102 0.821231
Si Si3 0.345819 0.369355 0.243388
Si Si4 0.420890 0.939931 0.966558
Si Si5 0.907188 0.756780 0.589545
Si Si6 0.810472 0.025764 0.256740
O O1 0.211274 0.089886 0.381409
O O2 0.401145 0.097068 0.596633
O O3 0.391233 0.016316 0.357662
O O4 0.251834 0.015205 0.612324
O O5 0.787647 0.657158 0.823225
O O6 0.964746 0.697481 0.657052
O O7 0.005823 0.612138 0.883063
O O8 0.965461 0.723913 0.931946
O O9 0.423156 0.315119 0.308998
O O10 0.301367 0.951830 0.853614
O O11 0.379860 0.925888 0.140384
O O12 0.500000 0.000000 0.000000
O O13 0.750000 0.750000 0.577649
#
# Coordination Sequence:
#
# PCOD9429599 Si02
#       6
#     8   8   8   8   8   8
#     4   9  16  29  55  86 120 162 196 234 314 390
#     4  11  22  37  56  86 125 161 215 253 317 393
#     4  10  17  30  56  88 128 167 190 249 322 390
#     4  11  23  43  66  93 127 172 215 267 324 388
#     4  10  21  35  56  91 130 166 199 269 331 390
#     4   9  20  38  59  90 130 164 209 263 312 367
#
# _framework density 23.009913000000001
#
# number of rings (size 3 to 8) (size 9 to 14) (size 15 to 20)
#    0.000    2.000    1.667    4.500    4.667    0.000 
#    0.000   10.833    0.000    3.000    0.000    0.000 
#    0.000    0.000    0.000    0.000    0.000    0.000 
#
# Total GULP energy -267567.587027 kJ/mol
# GULP energy per Si atom -5574.324730 kJ/mol
# Density = 2.295754 g / cm^3
# Si number density = 23.009913 Si / 1000 Ang^3
#
#
#
# Elastic Constant Matrix: (Units=GPa)
#
#
# Indices 1 2 3 4 5 6 
#
# 1 23.2316 7.5026 11.5563 0.0000 0.0000 0.0000
# 2 7.5026 76.8928 36.5034 0.0000 0.0000 0.0000
# 3 11.5563 36.5034 134.9711 0.0000 0.0000 0.0000
# 4 0.0000 0.0000 0.0000 49.7937 0.0000 0.0000
# 5 0.0000 0.0000 0.0000 0.0000 29.4569 0.0000
# 6 0.0000 0.0000 0.0000 0.0000 0.0000 26.4089
#
#
#
# Elastic Compliance Matrix: (Units=1/GPa)
#
#
# Indices 1 2 3 4 5 6 
#
# 1 0.045545 -0.002975 -0.003095 0.000000 0.000000 0.000000
# 2 -0.002975 0.015115 -0.003833 0.000000 0.000000 0.000000
# 3 -0.003095 -0.003833 0.008711 0.000000 0.000000 0.000000
# 4 0.000000 0.000000 0.000000 0.020083 0.000000 0.000000
# 5 0.000000 0.000000 0.000000 0.000000 0.033948 0.000000
# 6 0.000000 0.000000 0.000000 0.000000 0.000000 0.037866
#
#
# Mechanical properties :
#
#
# Convention : Reuss Voigt Hill
#
# Bulk Modulus (GPa) = 20.17551 38.46890 29.32221
# Shear Modulus (GPa) = 25.30423 33.10077 29.20250
#
# Velocity S-wave (km/s) = 3.31979 3.79693 3.56635
# Velocity P-wave (km/s) = 4.84581 5.99808 5.45247
#
# Compressibility (1/GPa) = 0.04956504
#
# Stress axis : x y z
#
# Youngs Moduli (GPa) = 21.95624 66.15890 114.80110
#
# Poissons Ratio (x) = 0.19680 0.35532
# Poissons Ratio (y) = 0.06531 0.44006
# Poissons Ratio (z) = 0.06796 0.25360
#
# Static dielectric constant tensor:
#      x y z
#    x 1.975090 0.000000 0.000000 
#    y 0.000000 1.995530 0.000000 
#    z 0.000000 0.000000 1.989060 
# 
# From -- ./inp_files/2786.got.cif
#   From: 2010.05.17/outbox.cif.g08.bks.cpg/sg56_2_cif.got.tgz:2786.got - 2010.06.03 13:42:01.
