data_PCOD9429389
_publ_section_title
;
Structure prediction by ZEFSAII (Michael W. Deem and Ramdas Pophale) SiO2 
 PCOD9429389
Probable space group: P B A M
;
_chemical_formula_sum "Si O2"
_cell_formula_units_Z 64
_cell_length_a 24.000000
_cell_length_b 15.000000
_cell_length_c 9.000000
_cell_angle_alpha 90.000000
_cell_angle_beta 90.000000
_cell_angle_gamma 90.000000
_cell_volume 3240.000000
_symmetry_space_group_name_H-M "P B A M"
_symmetry_group_IT_number 55
_symmetry_cell_setting 'orthorhombic'
loop_
_space_group_symop_operation_xyz
x,y,z
-x,-y,z
1/2+x,1/2-y,-z
1/2-x,1/2+y,-z
-x,-y,-z
x,y,-z
1/2-x,1/2+y,z
1/2+x,1/2-y,z
loop_
_atom_site_type_symbol
_atom_site_label
_atom_site_fract_x
_atom_site_fract_y
_atom_site_fract_z
Si Si1 0.456045 0.073096 0.321365
Si Si2 0.958391 0.082970 0.834016
Si Si3 0.519018 0.228921 0.172745
Si Si4 0.752290 0.283898 0.320115
Si Si5 0.169860 0.550844 0.681544
Si Si6 0.131619 0.193289 0.822489
Si Si7 0.870488 0.988671 0.325962
Si Si8 0.241090 0.915330 0.679956
O O1 0.454162 0.069202 0.500000
O O2 0.481257 0.165880 0.270358
O O3 0.393408 0.057407 0.266316
O O4 0.500000 0.000000 0.267408
O O5 0.911603 0.069438 0.710746
O O6 0.992568 0.173099 0.820322
O O7 0.932964 0.080526 0.000000
O O8 0.000000 0.000000 0.821737
O O9 0.583324 0.237398 0.222087
O O10 0.518118 0.200450 0.000000
O O11 0.749533 0.287310 0.500000
O O12 0.793583 0.363076 0.273312
O O13 0.690443 0.294054 0.256489
O O14 0.770591 0.185072 0.271287
O O15 0.169459 0.550616 0.500000
O O16 0.201709 0.461171 0.730341
O O17 0.112202 0.095622 0.770839
O O18 0.136932 0.196147 0.000000
O O19 0.871312 0.966251 0.500000
O O20 0.808830 0.018629 0.281417
O O21 0.242470 0.912378 0.500000
#
# Coordination Sequence:
#
# PCOD9429389 Si02
#       8
#     8   8   8   8   8   8   8   8
#     4  10  23  40  62  89 116 153 203 256 299 339
#     4  10  20  38  57  79 119 162 189 226 293 355
#     4  10  23  41  60  81 115 163 198 233 296 356
#     4  10  20  36  61  86 112 151 190 238 295 351
#     4   9  18  36  57  84 121 150 185 239 298 350
#     4  11  22  39  59  83 118 155 193 241 295 354
#     4  11  21  35  58  88 116 151 196 239 286 350
#     4   9  19  34  57  85 114 148 185 231 298 354
#
# _framework density 19.753086
#
# number of rings (size 3 to 8) (size 9 to 14) (size 15 to 20)
#    0.000    2.000    2.500    0.750    3.500    2.000 
#    0.000    1.875    0.000    0.000    0.000    0.000 
#    0.000    0.000    0.000    0.000    0.000    0.000 
#
# Total GULP energy -356957.663728 kJ/mol
# GULP energy per Si atom -5577.463496 kJ/mol
# Density = 1.970813 g / cm^3
# Si number density = 19.753086 Si / 1000 Ang^3
#
#
#
# Elastic Constant Matrix: (Units=GPa)
#
#
# Indices 1 2 3 4 5 6 
#
# 1 85.8005 -1.0272 5.4833 0.0000 0.0000 0.0000
# 2 -1.0272 47.0230 -1.9380 0.0000 0.0000 0.0000
# 3 5.4833 -1.9380 -5.3779 0.0000 0.0000 0.0000
# 4 0.0000 0.0000 0.0000 -198.9163 0.0000 0.0000
# 5 0.0000 0.0000 0.0000 0.0000 2.0014 0.0000
# 6 0.0000 0.0000 0.0000 0.0000 0.0000 20.9282
#
#
#
# Elastic Compliance Matrix: (Units=1/GPa)
#
#
# Indices 1 2 3 4 5 6 
#
# 1 0.010965 0.000690 0.010931 0.000000 0.000000 0.000000
# 2 0.000690 0.020998 -0.006863 0.000000 0.000000 0.000000
# 3 0.010931 -0.006863 -0.172328 0.000000 0.000000 0.000000
# 4 0.000000 0.000000 0.000000 -0.005027 0.000000 0.000000
# 5 0.000000 0.000000 0.000000 0.000000 0.499657 0.000000
# 6 0.000000 0.000000 0.000000 0.000000 0.000000 0.047782
#
#
# Mechanical properties :
#
#
# Convention : Reuss Voigt Hill
#
# Bulk Modulus (GPa) = -7.64233 14.72020 3.53894
# Shear Modulus (GPa) = 14.33008 -26.86884 -6.26938
#
# Velocity S-wave (km/s) = 2.69636 -3.69214 -1.78347
# Velocity P-wave (km/s) = 2.41174 3.27224 1.56382
#
# Compressibility (1/GPa) = -0.13085008
#
# Stress axis : x y z
#
# Youngs Moduli (GPa) = 91.20223 47.62271 -5.80289
#
# Poissons Ratio (x) = -0.03286 0.06343
# Poissons Ratio (y) = -0.06293 -0.03983
# Poissons Ratio (z) = -0.99692 0.32686
#
# Static dielectric constant tensor:
#      x y z
#    x 1.778950 0.000000 0.000000 
#    y 0.000000 1.714730 0.000000 
#    z 0.000000 0.000000 1.663870 
# 
# From -- ./inp_files/9789.got.cif
#   From: 2010.05.17/outbox.ucp.g08.bks.cvg/sg55_5_cif.got.tgz:9789.got - 2010.06.11 16:36:00.
