data_PCOD9429162
_publ_section_title
;
Structure prediction by ZEFSAII (Michael W. Deem and Ramdas Pophale) SiO2 
 PCOD9429162
Probable space group: P B A M
;
_chemical_formula_sum "Si O2"
_cell_formula_units_Z 48
_cell_length_a 10.135261
_cell_length_b 15.631803
_cell_length_c 15.594624
_cell_angle_alpha 90.000000
_cell_angle_beta 90.000000
_cell_angle_gamma 90.000000
_cell_volume 2470.693759
_symmetry_space_group_name_H-M "P B A M"
_symmetry_group_IT_number 55
_symmetry_cell_setting 'orthorhombic'
loop_
_space_group_symop_operation_xyz
x,y,z
-x,-y,z
1/2+x,1/2-y,-z
1/2-x,1/2+y,-z
-x,-y,-z
x,y,-z
1/2-x,1/2+y,z
1/2+x,1/2-y,z
loop_
_atom_site_type_symbol
_atom_site_label
_atom_site_fract_x
_atom_site_fract_y
_atom_site_fract_z
Si Si1 0.755564 0.651157 0.270742
Si Si2 0.900026 0.335628 0.000000
Si Si3 0.588609 0.327951 0.000000
Si Si4 0.984535 0.898843 0.185545
Si Si5 0.243430 0.658324 0.695545
Si Si6 0.659819 0.002977 0.401842
Si Si7 0.012093 0.600859 0.180820
O O1 0.620249 0.642294 0.218588
O O2 0.756198 0.740868 0.321463
O O3 0.781380 0.572231 0.335488
O O4 0.873506 0.645937 0.201283
O O5 0.745743 0.311032 0.000000
O O6 0.935004 0.387510 0.085290
O O7 0.997490 0.255344 0.000000
O O8 0.552359 0.376450 0.087898
O O9 0.869326 0.868419 0.248557
O O10 0.000000 0.000000 0.192807
O O11 0.219961 0.590336 0.619864
O O12 0.117102 0.643007 0.755901
O O13 0.689151 0.026490 0.500000
O O14 0.500000 0.000000 0.392991
O O15 0.000000 0.500000 0.198228
#
# Coordination Sequence:
#
# PCOD9429162 Si02
#       7
#     8   4   4   8   8   8   8
#     4  12  24  42  73  99 134 177 224 272 340 401
#     4  12  27  42  64 100 136 179 234 283 327 388
#     4  12  27  44  62 100 138 179 234 277 331 392
#     4  12  25  43  67  97 137 181 220 279 339 387
#     4  12  22  44  69 100 132 177 220 276 333 402
#     4  11  24  46  73 100 134 175 223 278 336 414
#     4  12  23  45  68  94 133 184 232 272 324 400
#
# _framework density 19.427741000000001
#
# number of rings (size 3 to 8) (size 9 to 14) (size 15 to 20)
#    0.000    0.167    6.667    3.500    2.333    0.667 
#    0.000    1.667    0.000    0.000    0.000    0.000 
#    0.000    0.000    0.000    0.000    0.000    0.000 
#
# Total GULP energy -268417.759619 kJ/mol
# GULP energy per Si atom -5592.036659 kJ/mol
# Density = 1.938352 g / cm^3
# Si number density = 19.427741 Si / 1000 Ang^3
#
#
#
# Elastic Constant Matrix: (Units=GPa)
#
#
# Indices 1 2 3 4 5 6 
#
# 1 154.8545 27.5512 33.2579 0.0000 0.0000 0.0000
# 2 27.5512 122.1919 5.8621 0.0000 0.0000 0.0000
# 3 33.2579 5.8621 88.9629 0.0000 0.0000 0.0000
# 4 0.0000 0.0000 0.0000 12.7166 0.0000 0.0000
# 5 0.0000 0.0000 0.0000 0.0000 4.2249 0.0000
# 6 0.0000 0.0000 0.0000 0.0000 0.0000 -34.6074
#
#
#
# Elastic Compliance Matrix: (Units=1/GPa)
#
#
# Indices 1 2 3 4 5 6 
#
# 1 0.007292 -0.001518 -0.002626 0.000000 0.000000 0.000000
# 2 -0.001518 0.008526 0.000006 0.000000 0.000000 0.000000
# 3 -0.002626 0.000006 0.012222 0.000000 0.000000 0.000000
# 4 0.000000 0.000000 0.000000 0.078637 0.000000 0.000000
# 5 0.000000 0.000000 0.000000 0.000000 0.236691 0.000000
# 6 0.000000 0.000000 0.000000 0.000000 0.000000 -0.028896
#
#
# Mechanical properties :
#
#
# Convention : Reuss Voigt Hill
#
# Bulk Modulus (GPa) = 50.59978 55.48355 53.04166
# Shear Modulus (GPa) = 15.18206 16.42270 15.80238
#
# Velocity S-wave (km/s) = 2.79850 2.91060 2.85510
# Velocity P-wave (km/s) = 6.04515 6.31794 6.18305
#
# Compressibility (1/GPa) = 0.01976293
#
# Stress axis : x y z
#
# Youngs Moduli (GPa) = 137.14149 117.29007 81.82010
#
# Poissons Ratio (x) = 0.17806 0.21485
# Poissons Ratio (y) = 0.20820 -0.00047
# Poissons Ratio (z) = 0.36012 -0.00067
#
# Static dielectric constant tensor:
#      x y z
#    x 1.697080 0.000000 0.000000 
#    y 0.000000 1.688630 0.000000 
#    z 0.000000 0.000000 1.687190 
# 
# From -- ./inp_files/20847.got.cif
#   From: 2010.05.17/outbox.cif.g08.bks.cpg/sg55_11_cif.got.tgz:20847.got - 2010.06.03 13:27:54.
