data_PCOD9429055
_publ_section_title
;
Structure prediction by ZEFSAII (Michael W. Deem and Ramdas Pophale) SiO2 
 PCOD9429055
Probable space group: P B A M
;
_chemical_formula_sum "Si O2"
_cell_formula_units_Z 48
_cell_length_a 15.251151
_cell_length_b 19.138169
_cell_length_c 8.486523
_cell_angle_alpha 90.000000
_cell_angle_beta 90.000000
_cell_angle_gamma 90.000000
_cell_volume 2477.038740
_symmetry_space_group_name_H-M "P B A M"
_symmetry_group_IT_number 55
_symmetry_cell_setting 'orthorhombic'
loop_
_space_group_symop_operation_xyz
x,y,z
-x,-y,z
1/2+x,1/2-y,-z
1/2-x,1/2+y,-z
-x,-y,-z
x,y,-z
1/2-x,1/2+y,z
1/2+x,1/2-y,z
loop_
_atom_site_type_symbol
_atom_site_label
_atom_site_fract_x
_atom_site_fract_y
_atom_site_fract_z
Si Si1 0.922863 0.587264 0.185709
Si Si2 0.886571 0.436934 0.313912
Si Si3 0.235404 0.328372 0.688824
Si Si4 0.252659 0.674568 0.186564
Si Si5 0.088127 0.090489 0.690950
Si Si6 0.610829 0.568921 0.308795
O O1 0.880288 0.512430 0.231006
O O2 0.856023 0.647301 0.236223
O O3 0.015363 0.589977 0.276087
O O4 0.940137 0.589043 0.000000
O O5 0.875583 0.447308 0.500000
O O6 0.816023 0.381892 0.252700
O O7 0.228325 0.333756 0.500000
O O8 0.259737 0.250074 0.735985
O O9 0.311000 0.381751 0.745088
O O10 0.348920 0.646478 0.231423
O O11 0.242887 0.679969 0.000000
O O12 0.094082 0.095970 0.500000
O O13 0.985982 0.095377 0.736700
O O14 0.118973 0.012203 0.737139
O O15 0.611661 0.569094 0.500000
#
# Coordination Sequence:
#
# PCOD9429055 Si02
#       6
#     8   8   8   8   8   8
#     4  11  22  39  62  91 121 150 187 243 301 348
#     4  11  22  40  64  88 113 153 201 242 286 351
#     4  11  22  38  58  84 117 159 201 236 281 350
#     4  12  25  39  54  82 120 157 194 243 297 341
#     4   9  17  36  62  87 111 142 184 235 288 347
#     4   8  17  34  61  88 110 139 185 235 280 333
#
# _framework density 19.377976
#
# number of rings (size 3 to 8) (size 9 to 14) (size 15 to 20)
#    0.000    1.667    0.000    8.000    0.000    2.667 
#    0.000    9.167    0.000    0.000    0.000    0.000 
#    0.000    0.000    0.000    0.000    0.000    0.000 
#
# Total GULP energy -268317.751837 kJ/mol
# GULP energy per Si atom -5589.953163 kJ/mol
# Density = 1.933387 g / cm^3
# Si number density = 19.377976 Si / 1000 Ang^3
#
#
#
# Elastic Constant Matrix: (Units=GPa)
#
#
# Indices 1 2 3 4 5 6 
#
# 1 37.1084 11.3168 -7.0263 0.0000 0.0000 0.0000
# 2 11.3168 26.9347 -8.2988 0.0000 0.0000 0.0000
# 3 -7.0263 -8.2988 42.5163 0.0000 0.0000 0.0000
# 4 0.0000 0.0000 0.0000 28.5519 0.0000 0.0000
# 5 0.0000 0.0000 0.0000 0.0000 -7.7263 0.0000
# 6 0.0000 0.0000 0.0000 0.0000 0.0000 6.2577
#
#
#
# Elastic Compliance Matrix: (Units=1/GPa)
#
#
# Indices 1 2 3 4 5 6 
#
# 1 0.031211 -0.012262 0.002765 0.000000 0.000000 0.000000
# 2 -0.012262 0.044320 0.006624 0.000000 0.000000 0.000000
# 3 0.002765 0.006624 0.025270 0.000000 0.000000 0.000000
# 4 0.000000 0.000000 0.000000 0.035024 0.000000 0.000000
# 5 0.000000 0.000000 0.000000 0.000000 -0.129428 0.000000
# 6 0.000000 0.000000 0.000000 0.000000 0.000000 0.159804
#
#
# Mechanical properties :
#
#
# Convention : Reuss Voigt Hill
#
# Bulk Modulus (GPa) = 10.52016 10.94920 10.73468
# Shear Modulus (GPa) = 24.55426 12.78785 18.67105
#
# Velocity S-wave (km/s) = 3.56353 2.57167 3.10743
# Velocity P-wave (km/s) = 4.72994 3.80534 4.29261
#
# Compressibility (1/GPa) = 0.09505555
#
# Stress axis : x y z
#
# Youngs Moduli (GPa) = 32.04013 22.56338 39.57218
#
# Poissons Ratio (x) = 0.27666 -0.10940
# Poissons Ratio (y) = 0.39286 -0.26214
# Poissons Ratio (z) = -0.08858 -0.14947
#
# Static dielectric constant tensor:
#      x y z
#    x 1.671180 0.000000 0.000000 
#    y 0.000000 1.652580 0.000000 
#    z 0.000000 0.000000 1.654330 
# 
# From -- ./inp_files/5636.got.cif
#   From: 2010.05.17/outbox.cif.g08.bks.cpg/sg55_3_cif.got.tgz:5636.got - 2010.06.03 13:27:54.
