data_PCOD9429541
_publ_section_title
;
Structure prediction by ZEFSAII (Michael W. Deem and Ramdas Pophale) SiO2 
 PCOD9429541
Probable space group: P C C N
;
_chemical_formula_sum "Si O2"
_cell_formula_units_Z 48
_cell_length_a 25.287323
_cell_length_b 14.121213
_cell_length_c 5.549790
_cell_angle_alpha 90.000000
_cell_angle_beta 90.000000
_cell_angle_gamma 90.000000
_cell_volume 1981.761604
_symmetry_space_group_name_H-M "P C C N"
_symmetry_group_IT_number 56
_symmetry_cell_setting 'orthorhombic'
loop_
_space_group_symop_operation_xyz
x,y,z
1/2-x,1/2-y,z
1/2+x,-y,1/2-z
-x,1/2+y,1/2-z
-x,-y,-z
1/2+x,1/2+y,-z
1/2-x,y,1/2+z
x,1/2-y,1/2+z
loop_
_atom_site_type_symbol
_atom_site_label
_atom_site_fract_x
_atom_site_fract_y
_atom_site_fract_z
Si Si1 0.174736 0.298950 0.489520
Si Si2 0.428756 0.389874 0.937567
Si Si3 0.187881 0.785545 0.887503
Si Si4 0.524789 0.258620 0.906748
Si Si5 0.781704 0.010235 0.000522
Si Si6 0.546748 0.570783 0.561240
O O1 0.191461 0.252884 0.743040
O O2 0.111118 0.304010 0.486229
O O3 0.191554 0.408007 0.480832
O O4 0.488976 0.352991 0.911295
O O5 0.415720 0.430076 0.673055
O O6 0.426994 0.451219 0.180934
O O7 0.250000 0.750000 0.868408
O O8 0.166578 0.770835 0.618579
O O9 0.184398 0.895402 0.960676
O O10 0.554641 0.250195 0.656772
O O11 0.481290 0.173523 0.908596
O O12 0.757673 0.015180 0.731190
O O13 0.500000 0.500000 0.500000
#
# Coordination Sequence:
#
# PCOD9429541 Si02
#       6
#     8   8   8   8   8   8
#     4  12  25  40  57  80 117 171 202 241 299 357
#     4  10  19  35  53  73 108 143 191 222 262 342
#     4  10  16  32  58  84 106 132 175 245 306 332
#     4   8  14  25  43  64  92 122 161 203 244 296
#     4  12  23  37  58  87 119 147 205 256 306 359
#     4  10  18  29  51  82 104 125 169 234 282 309
#
# _framework density 24.220876000000001
#
# number of rings (size 3 to 8) (size 9 to 14) (size 15 to 20)
#    0.000    1.667    3.333    5.500    0.000    2.000 
#    0.000    0.000    0.000    0.000    0.000   21.000 
#    0.000    0.000    0.000    0.000    0.000    0.000 
#
# Total GULP energy -267920.634626 kJ/mol
# GULP energy per Si atom -5581.679888 kJ/mol
# Density = 2.416575 g / cm^3
# Si number density = 24.220876 Si / 1000 Ang^3
#
#
#
# Elastic Constant Matrix: (Units=GPa)
#
#
# Indices 1 2 3 4 5 6 
#
# 1 40.5452 -0.0177 14.5416 0.0000 0.0000 0.0000
# 2 -0.0177 97.0107 15.9061 0.0000 0.0000 0.0000
# 3 14.5416 15.9061 230.2369 0.0000 0.0000 0.0000
# 4 0.0000 0.0000 0.0000 37.4751 0.0000 0.0000
# 5 0.0000 0.0000 0.0000 0.0000-1040.5178 0.0000
# 6 0.0000 0.0000 0.0000 0.0000 0.0000 20.3550
#
#
#
# Elastic Compliance Matrix: (Units=1/GPa)
#
#
# Indices 1 2 3 4 5 6 
#
# 1 0.025242 0.000269 -0.001613 0.000000 0.000000 0.000000
# 2 0.000269 0.010429 -0.000737 0.000000 0.000000 0.000000
# 3 -0.001613 -0.000737 0.004496 0.000000 0.000000 0.000000
# 4 0.000000 0.000000 0.000000 0.026684 0.000000 0.000000
# 5 0.000000 0.000000 0.000000 0.000000 -0.000961 0.000000
# 6 0.000000 0.000000 0.000000 0.000000 0.000000 0.049128
#
#
# Mechanical properties :
#
#
# Convention : Reuss Voigt Hill
#
# Bulk Modulus (GPa) = 27.77388 47.62809 37.70098
# Shear Modulus (GPa) = 38.11465 -174.04666 -67.96601
#
# Velocity S-wave (km/s) = 3.97120 -8.48611 -5.30300
# Velocity P-wave (km/s) = 5.70255 8.73568 4.67937
#
# Compressibility (1/GPa) = 0.03600505
#
# Stress axis : x y z
#
# Youngs Moduli (GPa) = 39.61589 95.88549 222.41140
#
# Poissons Ratio (x) = -0.02580 0.35872
# Poissons Ratio (y) = -0.01066 0.16403
# Poissons Ratio (z) = 0.06390 0.07072
#
# Static dielectric constant tensor:
#      x y z
#    x 1.937760 0.000000 0.000000 
#    y 0.000000 1.902150 0.000000 
#    z 0.000000 0.000000 2.039980 
# 
# From -- ./inp_files/1203.got.cif
#   From: 2010.05.17/outbox.cif.g08.bks.cpg/sg56_1_cif.got.tgz:1203.got - 2010.06.03 13:42:01.
