data_PCOD9429804
_publ_section_title
;
Structure prediction by ZEFSAII (Michael W. Deem and Ramdas Pophale) SiO2 
 PCOD9429804
Probable space group: P C C N
;
_chemical_formula_sum "Si O2"
_cell_formula_units_Z 44
_cell_length_a 8.330923
_cell_length_b 11.521426
_cell_length_c 22.293795
_cell_angle_alpha 90.000000
_cell_angle_beta 90.000000
_cell_angle_gamma 90.000000
_cell_volume 2139.850135
_symmetry_space_group_name_H-M "P C C N"
_symmetry_group_IT_number 56
_symmetry_cell_setting 'orthorhombic'
loop_
_space_group_symop_operation_xyz
x,y,z
1/2-x,1/2-y,z
1/2+x,-y,1/2-z
-x,1/2+y,1/2-z
-x,-y,-z
1/2+x,1/2+y,-z
1/2-x,y,1/2+z
x,1/2-y,1/2+z
loop_
_atom_site_type_symbol
_atom_site_label
_atom_site_fract_x
_atom_site_fract_y
_atom_site_fract_z
Si Si1 0.250000 0.250000 0.690929
Si Si2 0.397085 0.663237 0.344439
Si Si3 0.750000 0.250000 0.919680
Si Si4 0.750000 0.750000 0.520612
Si Si5 0.443802 0.317151 0.867818
Si Si6 0.952583 0.374590 0.020789
Si Si7 0.679768 0.913469 0.201242
O O1 0.420933 0.286408 0.661169
O O2 0.304622 0.142027 0.733422
O O3 0.250000 0.750000 0.326294
O O4 0.370473 0.633258 0.414880
O O5 0.388041 0.541349 0.308247
O O6 0.630877 0.324827 0.879269
O O7 0.852623 0.325694 0.965258
O O8 0.852741 0.673424 0.568071
O O9 0.620008 0.692327 0.479010
O O10 0.408827 0.188133 0.839025
O O11 0.361068 0.409192 0.824978
O O12 0.000000 0.500000 0.000000
#
# Coordination Sequence:
#
# PCOD9429804 Si02
#       7
#     4   8   4   4   8   8   8
#     4  10  26  48  70  94 130 178 224 286 346 388
#     4  12  25  44  66 100 134 170 227 282 328 403
#     4  10  18  34  58  98 124 170 220 244 326 394
#     4   8  16  32  58  80 124 168 200 244 308 376
#     4   8  16  37  63  93 125 164 217 264 308 407
#     4  11  21  39  59  90 134 173 206 264 329 390
#     4   9  21  46  65  91 127 166 221 276 338 386
#
# _framework density 20.562187999999999
#
# number of rings (size 3 to 8) (size 9 to 14) (size 15 to 20)
#    0.000    2.545    0.909    3.818    2.545    0.000 
#   16.364    2.727    0.000    0.000    0.000    0.000 
#    0.000    0.000    0.000    0.000    0.000    0.000 
#
# Total GULP energy -245018.343383 kJ/mol
# GULP energy per Si atom -5568.598713 kJ/mol
# Density = 2.051539 g / cm^3
# Si number density = 20.562188 Si / 1000 Ang^3
#
#
#
# Elastic Constant Matrix: (Units=GPa)
#
#
# Indices 1 2 3 4 5 6 
#
# 1 126.7370 34.4600 15.0994 0.0000 0.0000 0.0000
# 2 34.4600 82.8136 13.1472 0.0000 0.0000 0.0000
# 3 15.0994 13.1472 55.6212 0.0000 0.0000 0.0000
# 4 0.0000 0.0000 0.0000 -22.5538 0.0000 0.0000
# 5 0.0000 0.0000 0.0000 0.0000 -22.1418 0.0000
# 6 0.0000 0.0000 0.0000 0.0000 0.0000 14.9191
#
#
#
# Elastic Compliance Matrix: (Units=1/GPa)
#
#
# Indices 1 2 3 4 5 6 
#
# 1 0.009036 -0.003502 -0.001625 0.000000 0.000000 0.000000
# 2 -0.003502 0.013903 -0.002336 0.000000 0.000000 0.000000
# 3 -0.001625 -0.002336 0.018972 0.000000 0.000000 0.000000
# 4 0.000000 0.000000 0.000000 -0.044338 0.000000 0.000000
# 5 0.000000 0.000000 0.000000 0.000000 -0.045163 0.000000
# 6 0.000000 0.000000 0.000000 0.000000 0.000000 0.067028
#
#
# Mechanical properties :
#
#
# Convention : Reuss Voigt Hill
#
# Bulk Modulus (GPa) = 37.05671 43.39834 40.22752
# Shear Modulus (GPa) = 115.31510 7.54235 61.42873
#
# Velocity S-wave (km/s) = 7.49686 1.91730 5.47170
# Velocity P-wave (km/s) = 9.64355 5.10422 7.71528
#
# Compressibility (1/GPa) = 0.02698566
#
# Stress axis : x y z
#
# Youngs Moduli (GPa) = 110.66582 71.92490 52.70910
#
# Poissons Ratio (x) = 0.25189 0.08567
# Poissons Ratio (y) = 0.38756 0.12311
# Poissons Ratio (z) = 0.17986 0.16799
#
# Static dielectric constant tensor:
#      x y z
#    x 1.781120 0.000000 0.000000 
#    y 0.000000 1.725500 0.000000 
#    z 0.000000 0.000000 1.736150 
# 
# From -- ./inp_files/20460.got.cif
#   From: 2010.05.17/outbox.cif.g08.bks.cpg/sg56_11_cif.got.tgz:20460.got - 2010.06.03 13:42:01.
