data_PCOD9429885
_publ_section_title
;
Structure prediction by ZEFSAII (Michael W. Deem and Ramdas Pophale) SiO2 
 PCOD9429885
Probable space group: P C C N
;
_chemical_formula_sum "Si O2"
_cell_formula_units_Z 48
_cell_length_a 7.567063
_cell_length_b 10.872119
_cell_length_c 26.804921
_cell_angle_alpha 90.000000
_cell_angle_beta 90.000000
_cell_angle_gamma 90.000000
_cell_volume 2205.241103
_symmetry_space_group_name_H-M "P C C N"
_symmetry_group_IT_number 56
_symmetry_cell_setting 'orthorhombic'
loop_
_space_group_symop_operation_xyz
x,y,z
1/2-x,1/2-y,z
1/2+x,-y,1/2-z
-x,1/2+y,1/2-z
-x,-y,-z
1/2+x,1/2+y,-z
1/2-x,y,1/2+z
x,1/2-y,1/2+z
loop_
_atom_site_type_symbol
_atom_site_label
_atom_site_fract_x
_atom_site_fract_y
_atom_site_fract_z
Si Si1 0.750000 0.750000 0.430467
Si Si2 0.865358 0.017258 0.144110
Si Si3 0.750000 0.250000 0.912335
Si Si4 0.381473 0.501694 0.048563
Si Si5 0.444465 0.690686 0.768426
Si Si6 0.503164 0.137820 0.145920
Si Si7 0.963399 0.637009 0.156628
O O1 0.769622 0.622311 0.458254
O O2 0.915270 0.777990 0.395065
O O3 0.940245 0.066435 0.197280
O O4 0.710770 0.118462 0.135444
O O5 0.004542 0.010416 0.099738
O O6 0.742517 0.894744 0.145893
O O7 0.723831 0.371616 0.945337
O O8 0.922434 0.271816 0.877435
O O9 0.500000 0.500000 0.000000
O O10 0.250000 0.750000 0.760458
O O11 0.534701 0.795024 0.802130
O O12 0.523898 0.668330 0.714627
O O13 0.439595 0.996609 0.148109
#
# Coordination Sequence:
#
# PCOD9429885 Si02
#       7
#     4   8   4   8   8   8   8
#     4  12  22  46  74  98 136 188 230 294 342 428
#     4   9  22  41  65  96 138 181 234 294 337 413
#     4  12  26  48  68 104 146 178 230 310 346 416
#     4  12  28  48  77 104 135 184 239 294 360 413
#     4  10  18  36  66 100 141 185 235 275 345 418
#     4   9  21  39  65  99 137 190 234 278 346 412
#     4  10  22  39  67 100 148 182 227 287 353 412
#
# _framework density 21.766328999999999
#
# number of rings (size 3 to 8) (size 9 to 14) (size 15 to 20)
#    1.000    0.667    4.167    0.000    0.000    7.333 
#    0.000    2.500    0.000    0.000    0.000    0.000 
#    0.000    0.000    0.000    0.000    0.000    0.000 
#
# Total GULP energy -267666.221628 kJ/mol
# GULP energy per Si atom -5576.379617 kJ/mol
# Density = 2.171679 g / cm^3
# Si number density = 21.766329 Si / 1000 Ang^3
#
#
#
# Elastic Constant Matrix: (Units=GPa)
#
#
# Indices 1 2 3 4 5 6 
#
# 1 42.7521 17.6261 12.6569 0.0000 0.0000 0.0000
# 2 17.6261 144.0931 28.3405 0.0000 0.0000 0.0000
# 3 12.6569 28.3405 58.7385 0.0000 0.0000 0.0000
# 4 0.0000 0.0000 0.0000 -1.9671 0.0000 0.0000
# 5 0.0000 0.0000 0.0000 0.0000 26.5370 0.0000
# 6 0.0000 0.0000 0.0000 0.0000 0.0000 34.5193
#
#
#
# Elastic Compliance Matrix: (Units=1/GPa)
#
#
# Indices 1 2 3 4 5 6 
#
# 1 0.025636 -0.002264 -0.004432 0.000000 0.000000 0.000000
# 2 -0.002264 0.007868 -0.003308 0.000000 0.000000 0.000000
# 3 -0.004432 -0.003308 0.019576 0.000000 0.000000 0.000000
# 4 0.000000 0.000000 0.000000 -0.508351 0.000000 0.000000
# 5 0.000000 0.000000 0.000000 0.000000 0.037683 0.000000
# 6 0.000000 0.000000 0.000000 0.000000 0.000000 0.028969
#
#
# Mechanical properties :
#
#
# Convention : Reuss Voigt Hill
#
# Bulk Modulus (GPa) = 30.23754 40.31453 35.27604
# Shear Modulus (GPa) = -13.98258 24.28186 5.14964
#
# Velocity S-wave (km/s) = -2.53730 3.34364 1.53981
# Velocity P-wave (km/s) = 2.31045 5.78518 4.40491
#
# Compressibility (1/GPa) = 0.03307147
#
# Stress axis : x y z
#
# Youngs Moduli (GPa) = 39.00731 127.10392 51.08391
#
# Poissons Ratio (x) = 0.28780 0.22638
# Poissons Ratio (y) = 0.08833 0.16899
# Poissons Ratio (z) = 0.17286 0.42047
#
# Static dielectric constant tensor:
#      x y z
#    x 1.957440 0.000000 0.000000 
#    y 0.000000 1.902710 0.000000 
#    z 0.000000 0.000000 1.749680 
# 
# From -- ./inp_files/23299.got.cif
#   From: 2010.05.17/outbox.cif.g08.bks.cpg/sg56_12_cif.got.tgz:23299.got - 2010.06.03 13:42:01.
