data_PCOD9429268
_publ_section_title
;
Structure prediction by ZEFSAII (Michael W. Deem and Ramdas Pophale) SiO2 
 PCOD9429268
Probable space group: P B A M
;
_chemical_formula_sum "Si O2"
_cell_formula_units_Z 64
_cell_length_a 21.000000
_cell_length_b 21.000000
_cell_length_c 9.000000
_cell_angle_alpha 90.000000
_cell_angle_beta 90.000000
_cell_angle_gamma 90.000000
_cell_volume 3969.000000
_symmetry_space_group_name_H-M "P B A M"
_symmetry_group_IT_number 55
_symmetry_cell_setting 'orthorhombic'
loop_
_space_group_symop_operation_xyz
x,y,z
-x,-y,z
1/2+x,1/2-y,-z
1/2-x,1/2+y,-z
-x,-y,-z
x,y,-z
1/2-x,1/2+y,z
1/2+x,1/2-y,z
loop_
_atom_site_type_symbol
_atom_site_label
_atom_site_fract_x
_atom_site_fract_y
_atom_site_fract_z
Si Si1 0.571883 0.304312 0.178049
Si Si2 0.307281 0.531430 0.324230
Si Si3 0.713898 0.333640 0.176022
Si Si4 0.009421 0.688928 0.680080
Si Si5 0.951057 0.559298 0.821528
Si Si6 0.835173 0.485925 0.320021
Si Si7 0.142729 0.654616 0.178410
Si Si8 0.060131 0.044533 0.821046
O O1 0.648587 0.294314 0.203262
O O2 0.529683 0.251124 0.261760
O O3 0.556890 0.379179 0.219317
O O4 0.560859 0.298446 0.000000
O O5 0.316758 0.525673 0.500000
O O6 0.294246 0.604348 0.277299
O O7 0.239386 0.498479 0.286540
O O8 0.373635 0.516190 0.242745
O O9 0.787380 0.312161 0.200490
O O10 0.710729 0.351685 0.000000
O O11 0.009795 0.687167 0.500000
O O12 0.082045 0.687642 0.743973
O O13 0.977253 0.624004 0.745792
O O14 0.884669 0.536148 0.748890
O O15 0.000000 0.500000 0.797996
O O16 0.945174 0.568571 0.000000
O O17 0.841962 0.481792 0.500000
O O18 0.850834 0.416811 0.246868
O O19 0.131810 0.650038 0.000000
O O20 0.063565 0.043434 0.000000
O O21 0.000000 0.000000 0.776192
#
# Coordination Sequence:
#
# PCOD9429268 Si02
#       8
#     8   8   8   8   8   8   8   8
#     4   9  18  35  56  78 105 135 172 218 262 312
#     4   9  17  28  47  78 109 136 166 206 259 313
#     4   8  16  31  53  76  99 130 171 217 257 299
#     4  12  24  35  51  76 108 143 176 214 265 319
#     4  11  22  35  53  76 102 139 184 223 261 305
#     4  10  19  31  49  75 107 138 172 215 262 309
#     4  10  18  31  52  78 103 133 175 218 258 304
#     4   9  18  34  58  84 107 135 176 220 262 309
#
# _framework density 16.124969
#
# number of rings (size 3 to 8) (size 9 to 14) (size 15 to 20)
#    0.000    2.250    1.250    3.375    0.000    4.750 
#    0.000    0.000    2.750    0.000    0.000    0.000 
#    0.000    0.000    0.000    0.000    0.000    0.000 
#
# Total GULP energy -356464.788282 kJ/mol
# GULP energy per Si atom -5569.762317 kJ/mol
# Density = 1.608827 g / cm^3
# Si number density = 16.124969 Si / 1000 Ang^3
#
#
#
# Elastic Constant Matrix: (Units=GPa)
#
#
# Indices 1 2 3 4 5 6 
#
# 1 178.2776 59.8526 59.8214 0.0000 0.0000 0.0000
# 2 59.8526 70.7501 34.2055 0.0000 0.0000 0.0000
# 3 59.8214 34.2055 84.2723 0.0000 0.0000 0.0000
# 4 0.0000 0.0000 0.0000 22.0273 0.0000 0.0000
# 5 0.0000 0.0000 0.0000 0.0000 32.1867 0.0000
# 6 0.0000 0.0000 0.0000 0.0000 0.0000 32.6244
#
#
#
# Elastic Compliance Matrix: (Units=1/GPa)
#
#
# Indices 1 2 3 4 5 6 
#
# 1 0.008806 -0.005508 -0.004015 0.000000 0.000000 0.000000
# 2 -0.005508 0.021031 -0.004626 0.000000 0.000000 0.000000
# 3 -0.004015 -0.004626 0.016594 0.000000 0.000000 0.000000
# 4 0.000000 0.000000 0.000000 0.045398 0.000000 0.000000
# 5 0.000000 0.000000 0.000000 0.000000 0.031069 0.000000
# 6 0.000000 0.000000 0.000000 0.000000 0.000000 0.030652
#
#
# Mechanical properties :
#
#
# Convention : Reuss Voigt Hill
#
# Bulk Modulus (GPa) = 55.15212 71.22878 63.19045
# Shear Modulus (GPa) = 26.61099 29.32905 27.97002
#
# Velocity S-wave (km/s) = 4.06679 4.26944 4.16935
# Velocity P-wave (km/s) = 7.50526 8.28088 7.90259
#
# Compressibility (1/GPa) = 0.01813167
#
# Stress axis : x y z
#
# Youngs Moduli (GPa) = 113.56183 47.54960 60.26221
#
# Poissons Ratio (x) = 0.26192 0.24196
# Poissons Ratio (y) = 0.62553 0.27878
# Poissons Ratio (z) = 0.45596 0.21997
#
# Static dielectric constant tensor:
#      x y z
#    x 1.586310 0.000000 0.000000 
#    y 0.000000 1.514790 0.000000 
#    z 0.000000 0.000000 1.538180 
# 
# From -- ./inp_files/9175.got.cif
#   From: 2010.05.17/outbox.ucp.g08.bks.cvg/sg55_5_cif.got.tgz:9175.got - 2010.06.11 16:36:00.
