data_PCOD9429880
_publ_section_title
;
Structure prediction by ZEFSAII (Michael W. Deem and Ramdas Pophale) SiO2 
 PCOD9429880
Probable space group: P C C N
;
_chemical_formula_sum "Si O2"
_cell_formula_units_Z 48
_cell_length_a 15.492543
_cell_length_b 10.639856
_cell_length_c 12.878478
_cell_angle_alpha 90.000000
_cell_angle_beta 90.000000
_cell_angle_gamma 90.000000
_cell_volume 2122.868050
_symmetry_space_group_name_H-M "P C C N"
_symmetry_group_IT_number 56
_symmetry_cell_setting 'orthorhombic'
loop_
_space_group_symop_operation_xyz
x,y,z
1/2-x,1/2-y,z
1/2+x,-y,1/2-z
-x,1/2+y,1/2-z
-x,-y,-z
1/2+x,1/2+y,-z
1/2-x,y,1/2+z
x,1/2-y,1/2+z
loop_
_atom_site_type_symbol
_atom_site_label
_atom_site_fract_x
_atom_site_fract_y
_atom_site_fract_z
Si Si1 0.203710 0.978586 0.772938
Si Si2 0.929057 0.836562 0.848127
Si Si3 0.383138 0.592762 0.203023
Si Si4 0.547972 0.134365 0.834805
Si Si5 0.750000 0.750000 0.772399
Si Si6 0.932387 0.350157 0.060646
Si Si7 0.250000 0.750000 0.923481
O O1 0.281405 0.935534 0.697211
O O2 0.109128 0.964973 0.724155
O O3 0.213026 0.871053 0.859844
O O4 0.226569 0.124493 0.793227
O O5 0.833208 0.780471 0.843863
O O6 0.962302 0.834471 0.729065
O O7 0.998256 0.758714 0.912818
O O8 0.926691 0.986048 0.867343
O O9 0.402843 0.732853 0.171162
O O10 0.413596 0.586108 0.325789
O O11 0.535655 0.093872 0.951870
O O12 0.836726 0.302983 0.028000
#
# Coordination Sequence:
#
# PCOD9429880 Si02
#       7
#     8   8   8   8   4   8   4
#     4  10  18  39  61  90 119 168 205 261 313 387
#     4  10  22  42  60  88 126 172 207 265 321 388
#     4   9  20  39  59  87 122 163 214 250 324 382
#     4  11  21  35  66  91 124 163 217 272 319 380
#     4  10  24  40  68  82 130 172 208 260 336 376
#     4  10  22  35  61  99 120 165 218 266 317 381
#     4  10  18  36  64  94 128 158 218 260 314 390
#
# _framework density 22.610921999999999
#
# number of rings (size 3 to 8) (size 9 to 14) (size 15 to 20)
#    0.000    2.000    5.000    0.000    7.000    1.333 
#    0.000    0.833    7.333    0.000    0.000    0.000 
#    0.000    0.000    0.000    0.000    0.000    0.000 
#
# Total GULP energy -267396.650592 kJ/mol
# GULP energy per Si atom -5570.763554 kJ/mol
# Density = 2.255946 g / cm^3
# Si number density = 22.610922 Si / 1000 Ang^3
#
#
#
# Elastic Constant Matrix: (Units=GPa)
#
#
# Indices 1 2 3 4 5 6 
#
# 1 112.9422 16.6095 28.4056 0.0000 0.0000 0.0000
# 2 16.6095 87.7521 2.0650 0.0000 0.0000 0.0000
# 3 28.4056 2.0650 76.2488 0.0000 0.0000 0.0000
# 4 0.0000 0.0000 0.0000 2.5014 0.0000 0.0000
# 5 0.0000 0.0000 0.0000 0.0000 8.3963 0.0000
# 6 0.0000 0.0000 0.0000 0.0000 0.0000 14.8412
#
#
#
# Elastic Compliance Matrix: (Units=1/GPa)
#
#
# Indices 1 2 3 4 5 6 
#
# 1 0.010050 -0.001815 -0.003695 0.000000 0.000000 0.000000
# 2 -0.001815 0.011731 0.000359 0.000000 0.000000 0.000000
# 3 -0.003695 0.000359 0.014482 0.000000 0.000000 0.000000
# 4 0.000000 0.000000 0.000000 0.399784 0.000000 0.000000
# 5 0.000000 0.000000 0.000000 0.000000 0.119100 0.000000
# 6 0.000000 0.000000 0.000000 0.000000 0.000000 0.067380
#
#
# Mechanical properties :
#
#
# Convention : Reuss Voigt Hill
#
# Bulk Modulus (GPa) = 38.52149 41.23371 39.87760
# Shear Modulus (GPa) = 7.79443 20.47196 14.13319
#
# Velocity S-wave (km/s) = 1.85868 3.01225 2.50283
# Velocity P-wave (km/s) = 4.65617 5.51126 5.10166
#
# Compressibility (1/GPa) = 0.02595954
#
# Stress axis : x y z
#
# Youngs Moduli (GPa) = 99.49882 85.24489 69.05228
#
# Poissons Ratio (x) = 0.15475 0.25515
# Poissons Ratio (y) = 0.18063 -0.02476
# Poissons Ratio (z) = 0.36765 -0.03057
#
# Static dielectric constant tensor:
#      x y z
#    x 1.885450 0.000000 0.000000 
#    y 0.000000 1.917020 0.000000 
#    z 0.000000 0.000000 1.843570 
# 
# From -- ./inp_files/12246.got.cif
#   From: 2010.05.17/outbox.cif.g08.bks.cpg/sg56_7_cif.got.tgz:12246.got - 2010.06.03 13:42:01.
