data_PCOD9429042
_publ_section_title
;
Structure prediction by ZEFSAII (Michael W. Deem and Ramdas Pophale) SiO2 
 PCOD9429042
Probable space group: P B A M
;
_chemical_formula_sum "Si O2"
_cell_formula_units_Z 58
_cell_length_a 10.953668
_cell_length_b 34.542079
_cell_length_c 7.491395
_cell_angle_alpha 90.000000
_cell_angle_beta 90.000000
_cell_angle_gamma 90.000000
_cell_volume 2834.462681
_symmetry_space_group_name_H-M "P B A M"
_symmetry_group_IT_number 55
_symmetry_cell_setting 'orthorhombic'
loop_
_space_group_symop_operation_xyz
x,y,z
-x,-y,z
1/2+x,1/2-y,-z
1/2-x,1/2+y,-z
-x,-y,-z
x,y,-z
1/2-x,1/2+y,z
1/2+x,1/2-y,z
loop_
_atom_site_type_symbol
_atom_site_label
_atom_site_fract_x
_atom_site_fract_y
_atom_site_fract_z
Si Si1 0.500000 0.500000 0.500000
Si Si2 0.984411 0.136538 0.294483
Si Si3 0.930868 0.558736 0.217947
Si Si4 0.558267 0.446521 0.205158
Si Si5 0.702176 0.134947 0.216147
Si Si6 0.199295 0.277145 0.781247
Si Si7 0.817518 0.478898 0.783140
Si Si8 0.023462 0.774879 0.207064
O O1 0.469313 0.467600 0.342040
O O2 0.019022 0.138916 0.500000
O O3 0.051750 0.099758 0.212711
O O4 0.002645 0.179192 0.214903
O O5 0.840518 0.127976 0.275797
O O6 0.883799 0.600252 0.278499
O O7 0.844892 0.522863 0.272666
O O8 0.067224 0.546984 0.273142
O O9 0.930336 0.558970 0.000000
O O10 0.689672 0.461430 0.274908
O O11 0.538163 0.457793 0.000000
O O12 0.668975 0.178587 0.270060
O O13 0.702839 0.134343 0.000000
O O14 0.338794 0.268747 0.719136
O O15 0.091698 0.248810 0.718436
O O16 0.203760 0.275785 0.000000
O O17 0.815523 0.478600 0.000000
O O18 0.031156 0.763279 0.000000
#
# Coordination Sequence:
#
# PCOD9429042 Si02
#       8
#     2   8   8   8   8   8   8   8
#     4  12  26  40  56  88 116 148 198 240 278 346
#     4  11  22  37  54  80 113 150 191 240 287 345
#     4   8  14  28  51  80 108 140 184 230 275 335
#     4  11  23  40  59  84 118 154 192 241 293 341
#     4   9  17  31  55  82 109 142 184 235 289 345
#     4   8  15  29  51  80 109 136 183 236 286 353
#     4   8  16  30  51  78 110 147 187 227 277 335
#     4   9  17  34  56  80 109 147 187 237 299 355
#
# _framework density 20.462430999999999
#
# number of rings (size 3 to 8) (size 9 to 14) (size 15 to 20)
#    0.000    2.759    0.690    3.103    1.931    0.000 
#    2.483    2.759    1.517    0.828    0.000    0.000 
#    0.000    0.000    0.000    0.000    0.000    0.000 
#
# Total GULP energy -323040.911008 kJ/mol
# GULP energy per Si atom -5569.670879 kJ/mol
# Density = 2.041586 g / cm^3
# Si number density = 20.462431 Si / 1000 Ang^3
#
#
#
# Elastic Constant Matrix: (Units=GPa)
#
#
# Indices 1 2 3 4 5 6 
#
# 1 113.3215 95.7737 7.6562 0.0000 0.0000 0.0000
# 2 95.7737 139.9579 4.4530 0.0000 0.0000 0.0000
# 3 7.6562 4.4530 78.9180 0.0000 0.0000 0.0000
# 4 0.0000 0.0000 0.0000 32.1765 0.0000 0.0000
# 5 0.0000 0.0000 0.0000 0.0000 5.8482 0.0000
# 6 0.0000 0.0000 0.0000 0.0000 0.0000 37.0211
#
#
#
# Elastic Compliance Matrix: (Units=1/GPa)
#
#
# Indices 1 2 3 4 5 6 
#
# 1 0.021047 -0.014363 -0.001231 0.000000 0.000000 0.000000
# 2 -0.014363 0.016960 0.000436 0.000000 0.000000 0.000000
# 3 -0.001231 0.000436 0.012766 0.000000 0.000000 0.000000
# 4 0.000000 0.000000 0.000000 0.031079 0.000000 0.000000
# 5 0.000000 0.000000 0.000000 0.000000 0.170991 0.000000
# 6 0.000000 0.000000 0.000000 0.000000 0.000000 0.027012
#
#
# Mechanical properties :
#
#
# Convention : Reuss Voigt Hill
#
# Bulk Modulus (GPa) = 48.88392 60.88481 54.88436
# Shear Modulus (GPa) = 15.77340 29.96347 22.86843
#
# Velocity S-wave (km/s) = 2.77942 3.83079 3.34665
# Velocity P-wave (km/s) = 5.85164 7.02749 6.46635
#
# Compressibility (1/GPa) = 0.02045663
#
# Stress axis : x y z
#
# Youngs Moduli (GPa) = 47.51347 58.96274 78.33178
#
# Poissons Ratio (x) = 0.84689 0.09646
# Poissons Ratio (y) = 0.68244 -0.03419
# Poissons Ratio (z) = 0.05851 -0.02574
#
# Static dielectric constant tensor:
#      x y z
#    x 1.752070 0.000000 0.000000 
#    y 0.000000 1.722930 0.000000 
#    z 0.000000 0.000000 1.865850 
# 
# From -- ./inp_files/4347.got.cif
#   From: 2010.05.17/outbox.cif.g08.bks.cpg/sg55_3_cif.got.tgz:4347.got - 2010.06.03 13:27:54.
