data_PCOD9429379
_publ_section_title
;
Structure prediction by ZEFSAII (Michael W. Deem and Ramdas Pophale) SiO2 
 PCOD9429379
Probable space group: P B A M
;
_chemical_formula_sum "Si O2"
_cell_formula_units_Z 64
_cell_length_a 15.000000
_cell_length_b 12.000000
_cell_length_c 18.000000
_cell_angle_alpha 90.000000
_cell_angle_beta 90.000000
_cell_angle_gamma 90.000000
_cell_volume 3240.000000
_symmetry_space_group_name_H-M "P B A M"
_symmetry_group_IT_number 55
_symmetry_cell_setting 'orthorhombic'
loop_
_space_group_symop_operation_xyz
x,y,z
-x,-y,z
1/2+x,1/2-y,-z
1/2-x,1/2+y,-z
-x,-y,-z
x,y,-z
1/2-x,1/2+y,z
1/2+x,1/2-y,z
loop_
_atom_site_type_symbol
_atom_site_label
_atom_site_fract_x
_atom_site_fract_y
_atom_site_fract_z
Si Si1 0.235085 0.015180 0.676991
Si Si2 0.026182 0.370971 0.849247
Si Si3 0.879227 0.954671 0.177423
Si Si4 0.600993 0.677848 0.916260
Si Si5 0.206034 0.259499 0.130429
Si Si6 0.501465 0.287788 0.276898
Si Si7 0.710304 0.731621 0.294571
Si Si8 0.572555 0.401411 0.584300
O O1 0.193969 0.013446 0.760403
O O2 0.287554 0.137438 0.676283
O O3 0.161305 0.042636 0.615553
O O4 0.254466 0.880124 0.666311
O O5 0.956870 0.282407 0.885735
O O6 0.025501 0.327648 0.763785
O O7 0.000000 0.500000 0.856709
O O8 0.125089 0.345980 0.880048
O O9 0.836694 0.863210 0.121827
O O10 0.952250 0.885122 0.226333
O O11 0.905962 0.064776 0.132213
O O12 0.704801 0.713804 0.913888
O O13 0.572277 0.654701 0.000000
O O14 0.238663 0.262124 0.216133
O O15 0.394650 0.296383 0.283179
O O16 0.543127 0.306723 0.357717
O O17 0.500000 0.500000 0.587488
O O18 0.581046 0.362240 0.500000
#
# Coordination Sequence:
#
# PCOD9429379 Si02
#       8
#     8   8   8   8   8   8   8   8
#     4  10  20  35  61  93 127 167 210 273 319 391
#     4  11  26  43  66  97 132 174 225 270 333 408
#     4   9  21  40  65  89 121 164 220 266 322 385
#     4  12  26  43  67  95 127 174 220 279 347 398
#     4  10  23  41  63  91 128 164 211 278 335 394
#     4  10  20  39  68  94 124 167 217 281 316 386
#     4  11  20  35  66  95 125 161 220 270 337 379
#     4  10  20  37  63  95 128 173 221 266 329 391
#
# _framework density 19.753086
#
# number of rings (size 3 to 8) (size 9 to 14) (size 15 to 20)
#    0.000    1.625    3.750    0.750    5.250    4.750 
#    0.000    5.625    0.000    0.375    0.000    0.000 
#    0.000    0.000    0.000    0.000    0.000    0.000 
#
# Total GULP energy -356687.342169 kJ/mol
# GULP energy per Si atom -5573.239721 kJ/mol
# Density = 1.970813 g / cm^3
# Si number density = 19.753086 Si / 1000 Ang^3
#
#
#
# Elastic Constant Matrix: (Units=GPa)
#
#
# Indices 1 2 3 4 5 6 
#
# 1 70.7623 28.1656 19.3617 0.0000 0.0000 0.0000
# 2 28.1656 142.1966 36.5376 0.0000 0.0000 0.0000
# 3 19.3617 36.5376 95.0693 0.0000 0.0000 0.0000
# 4 0.0000 0.0000 0.0000 16.1868 0.0000 0.0000
# 5 0.0000 0.0000 0.0000 0.0000 8.2223 0.0000
# 6 0.0000 0.0000 0.0000 0.0000 0.0000 28.6357
#
#
#
# Elastic Compliance Matrix: (Units=1/GPa)
#
#
# Indices 1 2 3 4 5 6 
#
# 1 0.015756 -0.002548 -0.002230 0.000000 0.000000 0.000000
# 2 -0.002548 0.008215 -0.002638 0.000000 0.000000 0.000000
# 3 -0.002230 -0.002638 0.011987 0.000000 0.000000 0.000000
# 4 0.000000 0.000000 0.000000 0.061779 0.000000 0.000000
# 5 0.000000 0.000000 0.000000 0.000000 0.121621 0.000000
# 6 0.000000 0.000000 0.000000 0.000000 0.000000 0.034921
#
#
# Mechanical properties :
#
#
# Convention : Reuss Voigt Hill
#
# Bulk Modulus (GPa) = 47.33504 52.90644 50.12074
# Shear Modulus (GPa) = 18.10592 25.53985 21.82288
#
# Velocity S-wave (km/s) = 3.03084 3.59967 3.32743
# Velocity P-wave (km/s) = 6.02191 6.64220 6.33965
#
# Compressibility (1/GPa) = 0.02112600
#
# Stress axis : x y z
#
# Youngs Moduli (GPa) = 63.46764 121.72649 83.42565
#
# Poissons Ratio (x) = 0.31016 0.18601
# Poissons Ratio (y) = 0.16171 0.22011
# Poissons Ratio (z) = 0.14151 0.32116
#
# Static dielectric constant tensor:
#      x y z
#    x 1.758810 0.000000 0.000000 
#    y 0.000000 1.749430 0.000000 
#    z 0.000000 0.000000 1.703420 
# 
# From -- ./inp_files/21643.got.cif
#   From: 2010.05.17/outbox.ucp.g08.bks.cvg/sg55_11_cif.got.tgz:21643.got - 2010.06.11 16:36:00.
