data_PCOD9429907
_publ_section_title
;
Structure prediction by ZEFSAII (Michael W. Deem and Ramdas Pophale) SiO2 
 PCOD9429907
Probable space group: P C C N
;
_chemical_formula_sum "Si O2"
_cell_formula_units_Z 40
_cell_length_a 7.211652
_cell_length_b 7.426020
_cell_length_c 27.634943
_cell_angle_alpha 90.000000
_cell_angle_beta 90.000000
_cell_angle_gamma 90.000000
_cell_volume 1479.958200
_symmetry_space_group_name_H-M "P C C N"
_symmetry_group_IT_number 56
_symmetry_cell_setting 'orthorhombic'
loop_
_space_group_symop_operation_xyz
x,y,z
1/2-x,1/2-y,z
1/2+x,-y,1/2-z
-x,1/2+y,1/2-z
-x,-y,-z
1/2+x,1/2+y,-z
1/2-x,y,1/2+z
x,1/2-y,1/2+z
loop_
_atom_site_type_symbol
_atom_site_label
_atom_site_fract_x
_atom_site_fract_y
_atom_site_fract_z
Si Si1 0.521673 0.611772 0.207977
Si Si2 0.744507 0.041359 0.906349
Si Si3 0.392303 0.491901 0.688445
Si Si4 0.822830 0.541749 0.613492
Si Si5 0.282270 0.036170 0.489308
O O1 0.548945 0.620717 0.265351
O O2 0.323879 0.523233 0.199165
O O3 0.496509 0.817712 0.192056
O O4 0.666615 0.509273 0.171975
O O5 0.750000 0.250000 0.891768
O O6 0.612388 0.938384 0.868080
O O7 0.961447 0.998326 0.899432
O O8 0.684401 0.034652 0.962114
O O9 0.750000 0.750000 0.611240
O O10 0.730586 0.464289 0.564173
O O11 0.250000 0.250000 0.489741
O O12 0.500000 0.000000 0.500000
#
# Coordination Sequence:
#
# PCOD9429907 Si02
#       5
#     8   8   8   8   8
#     4  10  21  37  59  83 120 154 207 246 310 367
#     4  10  18  38  60  83 121 155 200 259 314 369
#     4  10  21  38  56  88 117 160 200 256 303 380
#     4   9  18  35  58  82 111 157 197 243 307 374
#     4   9  19  37  61  87 120 160 211 259 316 389
#
# _framework density 27.027792000000002
#
# number of rings (size 3 to 8) (size 9 to 14) (size 15 to 20)
#    0.000    2.400    4.000    0.000    2.800    0.000 
#   10.800    9.000    4.400    0.000    0.000    0.000 
#    0.000    0.000    0.000    0.000    0.000    0.000 
#
# Total GULP energy -222921.398356 kJ/mol
# GULP energy per Si atom -5573.034959 kJ/mol
# Density = 2.696628 g / cm^3
# Si number density = 27.027792 Si / 1000 Ang^3
#
#
#
# Elastic Constant Matrix: (Units=GPa)
#
#
# Indices 1 2 3 4 5 6 
#
# 1 59.1001 2.2131 78.8797 0.0000 0.0000 0.0000
# 2 2.2131 58.4449 25.3645 0.0000 0.0000 0.0000
# 3 78.8797 25.3645 287.4728 0.0000 0.0000 0.0000
# 4 0.0000 0.0000 0.0000 49.5388 0.0000 0.0000
# 5 0.0000 0.0000 0.0000 0.0000 26.2145 0.0000
# 6 0.0000 0.0000 0.0000 0.0000 0.0000 21.8247
#
#
#
# Elastic Compliance Matrix: (Units=1/GPa)
#
#
# Indices 1 2 3 4 5 6 
#
# 1 0.026987 0.002279 -0.007606 0.000000 0.000000 0.000000
# 2 0.002279 0.017984 -0.002212 0.000000 0.000000 0.000000
# 3 -0.007606 -0.002212 0.005761 0.000000 0.000000 0.000000
# 4 0.000000 0.000000 0.000000 0.020186 0.000000 0.000000
# 5 0.000000 0.000000 0.000000 0.000000 0.038147 0.000000
# 6 0.000000 0.000000 0.000000 0.000000 0.000000 0.045820
#
#
# Mechanical properties :
#
#
# Convention : Reuss Voigt Hill
#
# Bulk Modulus (GPa) = 28.04798 68.65917 48.35357
# Shear Modulus (GPa) = 27.49573 39.41963 33.45768
#
# Velocity S-wave (km/s) = 3.19300 3.82315 3.52220
# Velocity P-wave (km/s) = 4.89833 6.70425 5.87114
#
# Compressibility (1/GPa) = 0.03565319
#
# Stress axis : x y z
#
# Youngs Moduli (GPa) = 37.05540 55.60539 173.58801
#
# Poissons Ratio (x) = -0.12673 1.32030
# Poissons Ratio (y) = -0.08445 0.38400
# Poissons Ratio (z) = 0.28184 0.12301
#
# Static dielectric constant tensor:
#      x y z
#    x 2.156730 0.000000 0.000000 
#    y 0.000000 2.073870 0.000000 
#    z 0.000000 0.000000 2.261830 
# 
# From -- ./inp_files/20347.got.cif
#   From: 2010.05.17/outbox.cif.g08.bks.cpg/sg56_11_cif.got.tgz:20347.got - 2010.06.03 13:42:01.
