data_PCOD9429021
_publ_section_title
;
Structure prediction by ZEFSAII (Michael W. Deem and Ramdas Pophale) SiO2 
 PCOD9429021
Probable space group: P B A M
;
_chemical_formula_sum "Si O2"
_cell_formula_units_Z 64
_cell_length_a 25.376959
_cell_length_b 9.829223
_cell_length_c 12.925173
_cell_angle_alpha 90.000000
_cell_angle_beta 90.000000
_cell_angle_gamma 90.000000
_cell_volume 3224.000726
_symmetry_space_group_name_H-M "P B A M"
_symmetry_group_IT_number 55
_symmetry_cell_setting 'orthorhombic'
loop_
_space_group_symop_operation_xyz
x,y,z
-x,-y,z
1/2+x,1/2-y,-z
1/2-x,1/2+y,-z
-x,-y,-z
x,y,-z
1/2-x,1/2+y,z
1/2+x,1/2-y,z
loop_
_atom_site_type_symbol
_atom_site_label
_atom_site_fract_x
_atom_site_fract_y
_atom_site_fract_z
Si Si1 0.577779 0.071895 0.310545
Si Si2 0.466709 0.198439 0.621654
Si Si3 0.765996 0.872516 0.616952
Si Si4 0.143585 0.504885 0.122034
Si Si5 0.886662 0.843302 0.614275
Si Si6 0.345545 0.330550 0.121396
Si Si7 0.241266 0.390159 0.756471
Si Si8 0.943142 0.044797 0.235201
O O1 0.520728 0.140214 0.328889
O O2 0.595476 0.047198 0.193012
O O3 0.616244 0.182409 0.362101
O O4 0.575038 0.923942 0.362925
O O5 0.474155 0.221403 0.500000
O O6 0.451033 0.333761 0.681816
O O7 0.749102 0.836858 0.500000
O O8 0.828283 0.903577 0.613016
O O9 0.760684 0.754197 0.700647
O O10 0.736885 0.001023 0.664417
O O11 0.151250 0.667237 0.140105
O O12 0.194919 0.424344 0.163074
O O13 0.135614 0.483958 0.000000
O O14 0.910328 0.862358 0.500000
O O15 0.919655 0.917592 0.701979
O O16 0.297448 0.394916 0.185652
O O17 0.400226 0.400256 0.154870
O O18 0.335959 0.350128 0.000000
O O19 0.000000 0.000000 0.192309
#
# Coordination Sequence:
#
# PCOD9429021 Si02
#       8
#     8   8   8   8   8   8   8   8
#     4  11  21  40  61  93 127 163 211 265 310 375
#     4  11  23  39  64  95 130 170 214 257 319 390
#     4  11  24  39  63  97 137 171 204 255 318 383
#     4  11  24  43  68  96 125 169 221 273 326 375
#     4  11  22  38  61  92 133 170 204 255 317 380
#     4  11  25  46  67  91 127 172 217 274 328 374
#     4  12  22  45  67  97 130 170 218 263 316 391
#     4  12  24  41  65  95 130 167 214 268 323 390
#
# _framework density 19.851112000000001
#
# number of rings (size 3 to 8) (size 9 to 14) (size 15 to 20)
#    0.000    0.750    6.250    2.625    0.000    0.750 
#    0.000    5.000    0.000    0.000    0.000    0.000 
#    0.000    0.000    0.000    0.000    0.000    0.000 
#
# Total GULP energy -357506.519410 kJ/mol
# GULP energy per Si atom -5586.039366 kJ/mol
# Density = 1.980593 g / cm^3
# Si number density = 19.851112 Si / 1000 Ang^3
#
#
#
# Elastic Constant Matrix: (Units=GPa)
#
#
# Indices 1 2 3 4 5 6 
#
# 1 53.0739 -1.4006 28.1324 0.0000 0.0000 0.0000
# 2 -1.4006 59.0187 2.5413 0.0000 0.0000 0.0000
# 3 28.1324 2.5413 91.6638 0.0000 0.0000 0.0000
# 4 0.0000 0.0000 0.0000 24.2949 0.0000 0.0000
# 5 0.0000 0.0000 0.0000 0.0000 -56.7314 0.0000
# 6 0.0000 0.0000 0.0000 0.0000 0.0000 22.2092
#
#
#
# Elastic Compliance Matrix: (Units=1/GPa)
#
#
# Indices 1 2 3 4 5 6 
#
# 1 0.022543 0.000834 -0.006942 0.000000 0.000000 0.000000
# 2 0.000834 0.016995 -0.000727 0.000000 0.000000 0.000000
# 3 -0.006942 -0.000727 0.013060 0.000000 0.000000 0.000000
# 4 0.000000 0.000000 0.000000 0.041161 0.000000 0.000000
# 5 0.000000 0.000000 0.000000 0.000000 -0.017627 0.000000
# 6 0.000000 0.000000 0.000000 0.000000 0.000000 0.045026
#
#
# Mechanical properties :
#
#
# Convention : Reuss Voigt Hill
#
# Bulk Modulus (GPa) = 25.68833 29.14472 27.41653
# Shear Modulus (GPa) = 33.82839 9.58676 21.70757
#
# Velocity S-wave (km/s) = 4.13256 2.19996 3.31043
# Velocity P-wave (km/s) = 5.97824 4.60072 5.33413
#
# Compressibility (1/GPa) = 0.03892818
#
# Stress axis : x y z
#
# Youngs Moduli (GPa) = 44.35917 58.84126 76.56915
#
# Poissons Ratio (x) = -0.04907 0.53153
# Poissons Ratio (y) = -0.03699 0.05567
# Poissons Ratio (z) = 0.30793 0.04278
#
# Static dielectric constant tensor:
#      x y z
#    x 1.731060 0.000000 0.000000 
#    y 0.000000 1.696670 0.000000 
#    z 0.000000 0.000000 1.665640 
# 
# From -- ./inp_files/16248.got.cif
#   From: 2010.05.17/outbox.cif.g08.bks.cpg/sg55_9_cif.got.tgz:16248.got - 2010.06.03 13:27:54.
