data_PCOD9429868
_publ_section_title
;
Structure prediction by ZEFSAII (Michael W. Deem and Ramdas Pophale) SiO2 
 PCOD9429868
Probable space group: P C C N
;
_chemical_formula_sum "Si O2"
_cell_formula_units_Z 56
_cell_length_a 9.274109
_cell_length_b 15.614605
_cell_length_c 17.327102
_cell_angle_alpha 90.000000
_cell_angle_beta 90.000000
_cell_angle_gamma 90.000000
_cell_volume 2509.164476
_symmetry_space_group_name_H-M "P C C N"
_symmetry_group_IT_number 56
_symmetry_cell_setting 'orthorhombic'
loop_
_space_group_symop_operation_xyz
x,y,z
1/2-x,1/2-y,z
1/2+x,-y,1/2-z
-x,1/2+y,1/2-z
-x,-y,-z
1/2+x,1/2+y,-z
1/2-x,y,1/2+z
x,1/2-y,1/2+z
loop_
_atom_site_type_symbol
_atom_site_label
_atom_site_fract_x
_atom_site_fract_y
_atom_site_fract_z
Si Si1 0.235328 0.438181 0.129660
Si Si2 0.683072 0.465263 0.675597
Si Si3 0.995168 0.061699 0.425532
Si Si4 0.495030 0.480661 0.829927
Si Si5 0.391281 0.203961 0.014143
Si Si6 0.135086 0.178879 0.774138
Si Si7 0.587328 0.218872 0.147612
O O1 0.396448 0.471252 0.113329
O O2 0.182276 0.371073 0.065955
O O3 0.208503 0.386377 0.210285
O O4 0.135734 0.523301 0.124302
O O5 0.638498 0.545228 0.623687
O O6 0.598752 0.472720 0.755476
O O7 0.613433 0.382838 0.634687
O O8 0.853925 0.461569 0.682484
O O9 0.002957 0.158880 0.453220
O O10 0.000000 0.000000 0.500000
O O11 0.435741 0.383634 0.837811
O O12 0.250000 0.250000 0.981958
O O13 0.491702 0.253257 0.076508
O O14 0.250000 0.250000 0.797405
O O15 0.008152 0.225166 0.724892
O O16 0.750000 0.250000 0.155496
#
# Coordination Sequence:
#
# PCOD9429868 Si02
#       7
#     8   8   8   8   8   8   8
#     4  10  18  36  61  90 117 156 206 252 293 365
#     4  11  20  35  58  89 119 159 197 246 298 365
#     4  10  18  39  60  84 118 159 203 253 303 358
#     4  11  21  35  59  93 120 159 201 245 299 365
#     4  10  21  38  61  86 119 161 201 258 314 351
#     4  10  20  36  56  87 124 158 195 246 302 357
#     4  10  20  32  56  90 117 146 200 257 304 338
#
# _framework density 22.318186000000001
#
# number of rings (size 3 to 8) (size 9 to 14) (size 15 to 20)
#    0.000    1.714    7.143    1.714    4.000    0.000 
#    0.000    5.000    0.000    3.429    0.000    0.000 
#    0.000    0.000    0.000    0.000    0.000    0.000 
#
# Total GULP energy -312202.728407 kJ/mol
# GULP energy per Si atom -5575.048722 kJ/mol
# Density = 2.226739 g / cm^3
# Si number density = 22.318186 Si / 1000 Ang^3
#
#
#
# Elastic Constant Matrix: (Units=GPa)
#
#
# Indices 1 2 3 4 5 6 
#
# 1 179.2926 34.0492 16.3446 0.0000 0.0000 0.0000
# 2 34.0492 53.0916 8.0686 0.0000 0.0000 0.0000
# 3 16.3446 8.0686 20.2675 0.0000 0.0000 0.0000
# 4 0.0000 0.0000 0.0000 8.8141 0.0000 0.0000
# 5 0.0000 0.0000 0.0000 0.0000 13.4258 0.0000
# 6 0.0000 0.0000 0.0000 0.0000 0.0000 49.3203
#
#
#
# Elastic Compliance Matrix: (Units=1/GPa)
#
#
# Indices 1 2 3 4 5 6 
#
# 1 0.006627 -0.003659 -0.003887 0.000000 0.000000 0.000000
# 2 -0.003659 0.022069 -0.005835 0.000000 0.000000 0.000000
# 3 -0.003887 -0.005835 0.054798 0.000000 0.000000 0.000000
# 4 0.000000 0.000000 0.000000 0.113455 0.000000 0.000000
# 5 0.000000 0.000000 0.000000 0.000000 0.074483 0.000000
# 6 0.000000 0.000000 0.000000 0.000000 0.000000 0.020276
#
#
# Mechanical properties :
#
#
# Convention : Reuss Voigt Hill
#
# Bulk Modulus (GPa) = 17.62712 41.06405 29.34559
# Shear Modulus (GPa) = 14.82007 27.25799 21.03903
#
# Velocity S-wave (km/s) = 2.57968 3.49855 3.07365
# Velocity P-wave (km/s) = 4.09735 5.89569 5.07678
#
# Compressibility (1/GPa) = 0.05673076
#
# Stress axis : x y z
#
# Youngs Moduli (GPa) = 150.90338 45.31281 18.24892
#
# Poissons Ratio (x) = 0.16581 0.07094
# Poissons Ratio (y) = 0.55218 0.10648
# Poissons Ratio (z) = 0.58662 0.26439
#
# Static dielectric constant tensor:
#      x y z
#    x 1.880130 0.000000 0.000000 
#    y 0.000000 1.908400 0.000000 
#    z 0.000000 0.000000 1.893460 
# 
# From -- ./inp_files/18335.got.cif
#   From: 2010.05.17/outbox.cif.g08.bks.cpg/sg56_10_cif.got.tgz:18335.got - 2010.06.03 13:42:01.
