data_PCOD9429079
_publ_section_title
;
Structure prediction by ZEFSAII (Michael W. Deem and Ramdas Pophale) SiO2 
 PCOD9429079
Probable space group: P B A M
;
_chemical_formula_sum "Si O2"
_cell_formula_units_Z 32
_cell_length_a 8.837818
_cell_length_b 9.556183
_cell_length_c 17.336299
_cell_angle_alpha 90.000000
_cell_angle_beta 90.000000
_cell_angle_gamma 90.000000
_cell_volume 1464.151107
_symmetry_space_group_name_H-M "P B A M"
_symmetry_group_IT_number 55
_symmetry_cell_setting 'orthorhombic'
loop_
_space_group_symop_operation_xyz
x,y,z
-x,-y,z
1/2+x,1/2-y,-z
1/2-x,1/2+y,-z
-x,-y,-z
x,y,-z
1/2-x,1/2+y,z
1/2+x,1/2-y,z
loop_
_atom_site_type_symbol
_atom_site_label
_atom_site_fract_x
_atom_site_fract_y
_atom_site_fract_z
Si Si1 0.281682 0.057245 0.408689
Si Si2 0.577914 0.216243 0.347828
Si Si3 0.422060 0.852736 0.823368
Si Si4 0.110561 0.867828 0.089450
O O1 0.295494 0.036745 0.500000
O O2 0.420402 0.154333 0.378945
O O3 0.131315 0.142246 0.388113
O O4 0.303170 0.908308 0.367695
O O5 0.577019 0.233705 0.255966
O O6 0.481926 0.230416 0.886676
O O7 0.500000 0.000000 0.805361
O O8 0.255425 0.877496 0.855950
O O9 0.157828 0.861621 0.000000
O O10 0.000000 0.000000 0.099093
#
# Coordination Sequence:
#
# PCOD9429079 Si02
#       4
#     8   8   8   8
#     4  11  22  42  65  92 132 170 217 269 323 387
#     4  11  24  41  63  98 127 172 216 266 327 385
#     4  12  24  44  68  99 136 177 219 276 333 398
#     4  11  26  44  69 100 134 175 221 273 333 400
#
# _framework density 21.855668000000001
#
# number of rings (size 3 to 8) (size 9 to 14) (size 15 to 20)
#    0.000    0.750    2.500    6.750    3.500    5.000 
#    0.000    2.500    0.000    0.000    0.000    0.000 
#    0.000    0.000    0.000    0.000    0.000    0.000 
#
# Total GULP energy -179242.456565 kJ/mol
# GULP energy per Si atom -5601.326768 kJ/mol
# Density = 2.180592 g / cm^3
# Si number density = 21.855668 Si / 1000 Ang^3
#
#
#
# Elastic Constant Matrix: (Units=GPa)
#
#
# Indices 1 2 3 4 5 6 
#
# 1 54.2309 2.6786 11.1906 0.0000 0.0000 0.0000
# 2 2.6786 43.9365 -17.3258 0.0000 0.0000 0.0000
# 3 11.1906 -17.3258 77.7073 0.0000 0.0000 0.0000
# 4 0.0000 0.0000 0.0000 16.1546 0.0000 0.0000
# 5 0.0000 0.0000 0.0000 0.0000 -353.1272 0.0000
# 6 0.0000 0.0000 0.0000 0.0000 0.0000 28.6663
#
#
#
# Elastic Compliance Matrix: (Units=1/GPa)
#
#
# Indices 1 2 3 4 5 6 
#
# 1 0.019249 -0.002485 -0.003326 0.000000 0.000000 0.000000
# 2 -0.002485 0.025275 0.005993 0.000000 0.000000 0.000000
# 3 -0.003326 0.005993 0.014684 0.000000 0.000000 0.000000
# 4 0.000000 0.000000 0.000000 0.061902 0.000000 0.000000
# 5 0.000000 0.000000 0.000000 0.000000 -0.002832 0.000000
# 6 0.000000 0.000000 0.000000 0.000000 0.000000 0.034884
#
#
# Mechanical properties :
#
#
# Convention : Reuss Voigt Hill
#
# Bulk Modulus (GPa) = 16.78643 18.77349 17.77996
# Shear Modulus (GPa) = 28.95946 -49.70583 -10.37318
#
# Velocity S-wave (km/s) = 3.64405 -4.77411 -2.18095
# Velocity P-wave (km/s) = 5.04011 4.66702 1.34566
#
# Compressibility (1/GPa) = 0.05957193
#
# Stress axis : x y z
#
# Youngs Moduli (GPa) = 51.95136 39.56480 68.10102
#
# Poissons Ratio (x) = 0.09832 0.22651
# Poissons Ratio (y) = 0.12910 -0.40815
# Poissons Ratio (z) = 0.17280 -0.23712
#
# Static dielectric constant tensor:
#      x y z
#    x 1.804970 0.000000 0.000000 
#    y 0.000000 1.772500 0.000000 
#    z 0.000000 0.000000 1.739250 
# 
# From -- ./inp_files/18044.got.cif
#   From: 2010.05.17/outbox.cif.g08.bks.cpg/sg55_10_cif.got.tgz:18044.got - 2010.06.03 13:27:54.
