data_PCOD9429511
_publ_section_title
;
Structure prediction by ZEFSAII (Michael W. Deem and Ramdas Pophale) SiO2 
 PCOD9429511
Probable space group: P C C N
;
_chemical_formula_sum "Si O2"
_cell_formula_units_Z 64
_cell_length_a 8.307811
_cell_length_b 16.596031
_cell_length_c 18.871024
_cell_angle_alpha 90.000000
_cell_angle_beta 90.000000
_cell_angle_gamma 90.000000
_cell_volume 2601.874305
_symmetry_space_group_name_H-M "P C C N"
_symmetry_group_IT_number 56
_symmetry_cell_setting 'orthorhombic'
loop_
_space_group_symop_operation_xyz
x,y,z
1/2-x,1/2-y,z
1/2+x,-y,1/2-z
-x,1/2+y,1/2-z
-x,-y,-z
1/2+x,1/2+y,-z
1/2-x,y,1/2+z
x,1/2-y,1/2+z
loop_
_atom_site_type_symbol
_atom_site_label
_atom_site_fract_x
_atom_site_fract_y
_atom_site_fract_z
Si Si1 0.040877 0.098392 0.567243
Si Si2 0.503465 0.718084 0.640025
Si Si3 0.824912 0.117187 0.851432
Si Si4 0.091160 0.208288 0.211603
Si Si5 0.396587 0.627730 0.302417
Si Si6 0.072818 0.602308 0.393158
Si Si7 0.230342 0.983881 0.006938
Si Si8 0.443289 0.747952 0.993138
O O1 0.025023 0.077833 0.650374
O O2 0.891969 0.060583 0.522794
O O3 0.997880 0.192017 0.567991
O O4 0.205208 0.070143 0.532184
O O5 0.456645 0.812533 0.639365
O O6 0.344952 0.664088 0.652045
O O7 0.615375 0.692116 0.704423
O O8 0.544104 0.713278 0.557508
O O9 0.861424 0.085486 0.772771
O O10 0.816299 0.061014 0.920035
O O11 0.250000 0.250000 0.182864
O O12 0.953806 0.279401 0.211873
O O13 0.053650 0.128405 0.166731
O O14 0.235891 0.625169 0.350374
O O15 0.112765 0.522124 0.438802
O O16 0.037494 0.661327 0.459317
O O17 0.250000 0.750000 0.009880
#
# Coordination Sequence:
#
# PCOD9429511 Si02
#       8
#     8   8   8   8   8   8   8   8
#     4  10  19  29  51  86 123 149 195 264 312 363
#     4  10  17  28  50  81 112 146 190 252 317 363
#     4  10  16  28  53  82 106 146 200 258 303 364
#     4  11  22  33  52  85 121 150 193 256 325 381
#     4  10  19  32  58  81 113 154 203 249 312 368
#     4  11  18  33  59  87 113 152 205 261 313 380
#     4  10  19  30  51  87 120 147 203 262 309 368
#     4  12  15  28  55  86 119 156 199 263 319 373
#
# _framework density 24.597652
#
# number of rings (size 3 to 8) (size 9 to 14) (size 15 to 20)
#    0.000    1.500    8.750    0.375    0.000    0.000 
#    0.000    0.625    2.750    0.750    0.000    0.000 
#    0.000    0.000    0.000    0.000    0.000    0.000 
#
# Total GULP energy -356631.565042 kJ/mol
# GULP energy per Si atom -5572.368204 kJ/mol
# Density = 2.454167 g / cm^3
# Si number density = 24.597652 Si / 1000 Ang^3
#
#
#
# Elastic Constant Matrix: (Units=GPa)
#
#
# Indices 1 2 3 4 5 6 
#
# 1 61.2319 28.3658 27.8134 0.0000 0.0000 0.0000
# 2 28.3658 22.8209 -2.7215 0.0000 0.0000 0.0000
# 3 27.8134 -2.7215 155.9470 0.0000 0.0000 0.0000
# 4 0.0000 0.0000 0.0000 7.6705 0.0000 0.0000
# 5 0.0000 0.0000 0.0000 0.0000 12.6719 0.0000
# 6 0.0000 0.0000 0.0000 0.0000 0.0000 31.2663
#
#
#
# Elastic Compliance Matrix: (Units=1/GPa)
#
#
# Indices 1 2 3 4 5 6 
#
# 1 0.050710 -0.064243 -0.010165 0.000000 0.000000 0.000000
# 2 -0.064243 0.125300 0.013645 0.000000 0.000000 0.000000
# 3 -0.010165 0.013645 0.008464 0.000000 0.000000 0.000000
# 4 0.000000 0.000000 0.000000 0.130369 0.000000 0.000000
# 5 0.000000 0.000000 0.000000 0.000000 0.078915 0.000000
# 6 0.000000 0.000000 0.000000 0.000000 0.000000 0.031983
#
#
# Mechanical properties :
#
#
# Convention : Reuss Voigt Hill
#
# Bulk Modulus (GPa) = 15.88689 38.54613 27.21651
# Shear Modulus (GPa) = 8.79896 22.75788 15.77842
#
# Velocity S-wave (km/s) = 1.89339 3.04502 2.53545
# Velocity P-wave (km/s) = 3.35449 5.29788 4.43397
#
# Compressibility (1/GPa) = 0.06294497
#
# Stress axis : x y z
#
# Youngs Moduli (GPa) = 19.72017 7.98088 118.15360
#
# Poissons Ratio (x) = 0.51272 1.20107
# Poissons Ratio (y) = 1.26688 -1.61216
# Poissons Ratio (z) = 0.20046 -0.10890
#
# Static dielectric constant tensor:
#      x y z
#    x 2.006730 0.000000 0.000000 
#    y 0.000000 1.959600 0.000000 
#    z 0.000000 0.000000 2.080180 
# 
# From -- ./inp_files/18386.got.cif
#   From: 2010.05.17/outbox.cif.g08.bks.cpg/sg56_10_cif.got.tgz:18386.got - 2010.06.03 13:42:01.
