data_PCOD9429167
_publ_section_title
;
Structure prediction by ZEFSAII (Michael W. Deem and Ramdas Pophale) SiO2 
 PCOD9429167
Probable space group: P B A M
;
_chemical_formula_sum "Si O2"
_cell_formula_units_Z 40
_cell_length_a 8.633460
_cell_length_b 20.247899
_cell_length_c 11.564446
_cell_angle_alpha 90.000000
_cell_angle_beta 90.000000
_cell_angle_gamma 90.000000
_cell_volume 2021.574168
_symmetry_space_group_name_H-M "P B A M"
_symmetry_group_IT_number 55
_symmetry_cell_setting 'orthorhombic'
loop_
_space_group_symop_operation_xyz
x,y,z
-x,-y,z
1/2+x,1/2-y,-z
1/2-x,1/2+y,-z
-x,-y,-z
x,y,-z
1/2-x,1/2+y,z
1/2+x,1/2-y,z
loop_
_atom_site_type_symbol
_atom_site_label
_atom_site_fract_x
_atom_site_fract_y
_atom_site_fract_z
Si Si1 0.013455 0.650400 0.000000
Si Si2 0.237320 0.755232 0.000000
Si Si3 0.435718 0.072642 0.777066
Si Si4 0.929082 0.687720 0.636723
Si Si5 0.103658 0.808547 0.240544
Si Si6 0.417876 0.569571 0.139389
O O1 0.189062 0.678502 0.000000
O O2 0.981351 0.606459 0.888277
O O3 0.910739 0.716642 0.000000
O O4 0.168747 0.782473 0.881242
O O5 0.469915 0.124342 0.675409
O O6 0.257897 0.067367 0.815624
O O7 0.500000 0.000000 0.753628
O O8 0.934299 0.697343 0.500000
O O9 0.752796 0.677697 0.679639
O O10 0.999586 0.751627 0.701398
O O11 0.004460 0.872357 0.207734
O O12 0.500000 0.500000 0.164276
O O13 0.428276 0.578677 0.000000
#
# Coordination Sequence:
#
# PCOD9429167 Si02
#       6
#     4   4   8   8   8   8
#     4  12  25  38  66 105 139 175 221 269 353 406
#     4  12  22  38  66 102 133 170 209 282 338 402
#     4  12  25  43  68  99 142 180 224 281 342 411
#     4  12  27  46  70  96 132 184 236 285 332 399
#     4  12  23  43  68  99 137 172 226 284 342 403
#     4  11  25  40  66 103 142 176 214 271 350 426
#
# _framework density 19.786562
#
# number of rings (size 3 to 8) (size 9 to 14) (size 15 to 20)
#    0.000    0.200    6.000    3.300    2.800    0.400 
#    0.000    1.000    0.000    4.200    0.000    0.000 
#    0.000    0.000    0.000    0.000    0.000    0.000 
#
# Total GULP energy -223773.125663 kJ/mol
# GULP energy per Si atom -5594.328142 kJ/mol
# Density = 1.974153 g / cm^3
# Si number density = 19.786562 Si / 1000 Ang^3
#
#
#
# Elastic Constant Matrix: (Units=GPa)
#
#
# Indices 1 2 3 4 5 6 
#
# 1 124.6700 73.0828 54.5851 0.0000 0.0000 0.0000
# 2 73.0828 175.8042 54.3883 0.0000 0.0000 0.0000
# 3 54.5851 54.3883 126.2624 0.0000 0.0000 0.0000
# 4 0.0000 0.0000 0.0000 8.8982 0.0000 0.0000
# 5 0.0000 0.0000 0.0000 0.0000 23.6249 0.0000
# 6 0.0000 0.0000 0.0000 0.0000 0.0000 38.9485
#
#
#
# Elastic Compliance Matrix: (Units=1/GPa)
#
#
# Indices 1 2 3 4 5 6 
#
# 1 0.011772 -0.003830 -0.003440 0.000000 0.000000 0.000000
# 2 -0.003830 0.007809 -0.001708 0.000000 0.000000 0.000000
# 3 -0.003440 -0.001708 0.010143 0.000000 0.000000 0.000000
# 4 0.000000 0.000000 0.000000 0.112383 0.000000 0.000000
# 5 0.000000 0.000000 0.000000 0.000000 0.042328 0.000000
# 6 0.000000 0.000000 0.000000 0.000000 0.000000 0.025675
#
#
# Mechanical properties :
#
#
# Convention : Reuss Voigt Hill
#
# Bulk Modulus (GPa) = 84.96936 87.87211 86.42074
# Shear Modulus (GPa) = 21.55295 30.60635 26.07965
#
# Velocity S-wave (km/s) = 3.30399 3.93724 3.63443
# Velocity P-wave (km/s) = 7.58890 8.07314 7.83476
#
# Compressibility (1/GPa) = 0.01176895
#
# Stress axis : x y z
#
# Youngs Moduli (GPa) = 84.94631 128.06493 98.59276
#
# Poissons Ratio (x) = 0.49044 0.33912
# Poissons Ratio (y) = 0.32531 0.16839
# Poissons Ratio (z) = 0.29218 0.21873
#
# Static dielectric constant tensor:
#      x y z
#    x 1.749580 0.000000 0.000000 
#    y 0.000000 1.682790 0.000000 
#    z 0.000000 0.000000 1.666930 
# 
# From -- ./inp_files/12078.got.cif
#   From: 2010.05.17/outbox.cif.g08.bks.cpg/sg55_7_cif.got.tgz:12078.got - 2010.06.03 13:27:54.
