data_PCOD9429414
_publ_section_title
;
Structure prediction by ZEFSAII (Michael W. Deem and Ramdas Pophale) SiO2 
 PCOD9429414
Probable space group: P B A M
;
_chemical_formula_sum "Si O2"
_cell_formula_units_Z 40
_cell_length_a 24.000000
_cell_length_b 9.000000
_cell_length_c 9.000000
_cell_angle_alpha 90.000000
_cell_angle_beta 90.000000
_cell_angle_gamma 90.000000
_cell_volume 1944.000000
_symmetry_space_group_name_H-M "P B A M"
_symmetry_group_IT_number 55
_symmetry_cell_setting 'orthorhombic'
loop_
_space_group_symop_operation_xyz
x,y,z
-x,-y,z
1/2+x,1/2-y,-z
1/2-x,1/2+y,-z
-x,-y,-z
x,y,-z
1/2-x,1/2+y,z
1/2+x,1/2-y,z
loop_
_atom_site_type_symbol
_atom_site_label
_atom_site_fract_x
_atom_site_fract_y
_atom_site_fract_z
Si Si1 0.611890 0.291711 0.324559
Si Si2 0.190334 0.433684 0.167725
Si Si3 0.305290 0.454293 0.324981
Si Si4 0.874982 0.269332 0.831325
Si Si5 0.000143 0.673502 0.820914
O O1 0.602340 0.282017 0.500000
O O2 0.662005 0.183602 0.276104
O O3 0.640189 0.448220 0.287090
O O4 0.554106 0.254227 0.243871
O O5 0.249509 0.486803 0.232528
O O6 0.143399 0.559991 0.157078
O O7 0.199359 0.374569 0.000000
O O8 0.293796 0.468914 0.500000
O O9 0.328550 0.295120 0.277916
O O10 0.939194 0.259623 0.780550
O O11 0.870123 0.206306 0.000000
O O12 0.000000 0.500000 0.774734
O O13 0.996945 0.677407 0.000000
#
# Coordination Sequence:
#
# PCOD9429414 Si02
#       5
#     8   8   8   8   8
#     4  11  24  40  61  91 124 161 199 241 301 359
#     4  11  22  40  65  90 118 156 205 252 295 352
#     4  11  25  41  57  87 128 161 197 245 298 360
#     4  10  22  40  64  91 118 156 202 249 300 351
#     4  10  20  40  65  90 119 152 202 254 294 350
#
# _framework density 20.576132000000001
#
# number of rings (size 3 to 8) (size 9 to 14) (size 15 to 20)
#    0.000    1.400    2.000    3.000    0.000   10.000 
#    0.000    4.000    0.000    0.000    0.000    0.000 
#    0.000    0.000    0.000    0.000    0.000    0.000 
#
# Total GULP energy -223153.916858 kJ/mol
# GULP energy per Si atom -5578.847921 kJ/mol
# Density = 2.052930 g / cm^3
# Si number density = 20.576132 Si / 1000 Ang^3
#
#
#
# Elastic Constant Matrix: (Units=GPa)
#
#
# Indices 1 2 3 4 5 6 
#
# 1 132.0840 -9.5811 19.6614 0.0000 0.0000 0.0000
# 2 -9.5811 19.2580 -11.6161 0.0000 0.0000 0.0000
# 3 19.6614 -11.6161 -16.2114 0.0000 0.0000 0.0000
# 4 0.0000 0.0000 0.0000 12.7446 0.0000 0.0000
# 5 0.0000 0.0000 0.0000 0.0000 27.1415 0.0000
# 6 0.0000 0.0000 0.0000 0.0000 0.0000 7.8447
#
#
#
# Elastic Compliance Matrix: (Units=1/GPa)
#
#
# Indices 1 2 3 4 5 6 
#
# 1 0.007374 0.006328 0.004409 0.000000 0.000000 0.000000
# 2 0.006328 0.041687 -0.022196 0.000000 0.000000 0.000000
# 3 0.004409 -0.022196 -0.040434 0.000000 0.000000 0.000000
# 4 0.000000 0.000000 0.000000 0.078465 0.000000 0.000000
# 5 0.000000 0.000000 0.000000 0.000000 0.036844 0.000000
# 6 0.000000 0.000000 0.000000 0.000000 0.000000 0.127474
#
#
# Mechanical properties :
#
#
# Convention : Reuss Voigt Hill
#
# Bulk Modulus (GPa) = -69.97076 14.67321 -27.64878
# Shear Modulus (GPa) = 18.54855 18.65727 18.60291
#
# Velocity S-wave (km/s) = 3.00569 3.01448 3.01009
# Velocity P-wave (km/s) = 4.69405 4.38894 1.17712
#
# Compressibility (1/GPa) = -0.01429168
#
# Stress axis : x y z
#
# Youngs Moduli (GPa) = 135.61748 23.98851 -24.73170
#
# Poissons Ratio (x) = -0.15179 0.10904
# Poissons Ratio (y) = -0.85816 -0.54893
# Poissons Ratio (z) = -0.59791 0.53244
#
# Static dielectric constant tensor:
#      x y z
#    x 1.672140 0.000000 0.000000 
#    y 0.000000 1.790310 0.000000 
#    z 0.000000 0.000000 1.715940 
# 
# From -- ./inp_files/2310.got.cif
#   From: 2010.05.17/outbox.ucp.g08.bks.cvg/sg55_2_cif.got.tgz:2310.got - 2010.06.11 16:36:00.
