data_PCOD9429921
_publ_section_title
;
Structure prediction by ZEFSAII (Michael W. Deem and Ramdas Pophale) SiO2 
 PCOD9429921
Probable space group: P C C N
;
_chemical_formula_sum "Si O2"
_cell_formula_units_Z 52
_cell_length_a 9.502324
_cell_length_b 15.965977
_cell_length_c 14.899618
_cell_angle_alpha 90.000000
_cell_angle_beta 90.000000
_cell_angle_gamma 90.000000
_cell_volume 2260.478953
_symmetry_space_group_name_H-M "P C C N"
_symmetry_group_IT_number 56
_symmetry_cell_setting 'orthorhombic'
loop_
_space_group_symop_operation_xyz
x,y,z
1/2-x,1/2-y,z
1/2+x,-y,1/2-z
-x,1/2+y,1/2-z
-x,-y,-z
1/2+x,1/2+y,-z
1/2-x,y,1/2+z
x,1/2-y,1/2+z
loop_
_atom_site_type_symbol
_atom_site_label
_atom_site_fract_x
_atom_site_fract_y
_atom_site_fract_z
Si Si1 0.912771 0.334750 0.370545
Si Si2 0.273359 0.395743 0.547592
Si Si3 0.816178 0.032484 0.313367
Si Si4 0.192100 0.056158 0.868947
Si Si5 0.432799 0.879168 0.431540
Si Si6 0.250000 0.250000 0.170421
Si Si7 0.480218 0.822475 0.244420
O O1 0.800659 0.396662 0.326554
O O2 0.885720 0.335497 0.477089
O O3 0.918834 0.245168 0.323842
O O4 0.063534 0.379492 0.358001
O O5 0.329101 0.476577 0.598820
O O6 0.296382 0.401446 0.441176
O O7 0.325681 0.315025 0.602507
O O8 0.102527 0.392498 0.561264
O O9 0.956549 0.083537 0.290046
O O10 0.771274 0.974471 0.230194
O O11 0.136392 0.970547 0.917730
O O12 0.406015 0.825495 0.342271
O O13 0.361021 0.296667 0.232959
#
# Coordination Sequence:
#
# PCOD9429921 Si02
#       7
#     8   8   8   8   8   4   8
#     4  11  19  39  63  94 123 170 215 269 336 405
#     4  10  18  38  64  92 120 172 222 278 323 394
#     4  11  21  36  64  97 131 164 221 276 333 400
#     4  10  19  36  65  92 119 168 217 267 342 393
#     4   9  18  38  63  87 122 166 219 264 336 398
#     4  10  22  42  64  88 138 170 230 276 330 410
#     4  10  23  38  59  98 128 175 216 273 330 399
#
# _framework density 23.003972999999998
#
# number of rings (size 3 to 8) (size 9 to 14) (size 15 to 20)
#    0.000    1.846    3.077    2.308    0.000    0.000 
#    2.769   18.462    0.000    1.846    0.000    0.000 
#    0.000    0.000    0.000    0.000    0.000    0.000 
#
# Total GULP energy -290760.579621 kJ/mol
# GULP energy per Si atom -5591.549608 kJ/mol
# Density = 2.295161 g / cm^3
# Si number density = 23.003973 Si / 1000 Ang^3
#
#
#
# Elastic Constant Matrix: (Units=GPa)
#
#
# Indices 1 2 3 4 5 6 
#
# 1 41.3719 22.0369 26.5372 0.0000 0.0000 0.0000
# 2 22.0369 107.1364 34.0751 0.0000 0.0000 0.0000
# 3 26.5372 34.0751 109.2810 0.0000 0.0000 0.0000
# 4 0.0000 0.0000 0.0000 39.8660 0.0000 0.0000
# 5 0.0000 0.0000 0.0000 0.0000 26.3715 0.0000
# 6 0.0000 0.0000 0.0000 0.0000 0.0000 34.6107
#
#
#
# Elastic Compliance Matrix: (Units=1/GPa)
#
#
# Indices 1 2 3 4 5 6 
#
# 1 0.030335 -0.004326 -0.006018 0.000000 0.000000 0.000000
# 2 -0.004326 0.010978 -0.002373 0.000000 0.000000 0.000000
# 3 -0.006018 -0.002373 0.011352 0.000000 0.000000 0.000000
# 4 0.000000 0.000000 0.000000 0.025084 0.000000 0.000000
# 5 0.000000 0.000000 0.000000 0.000000 0.037920 0.000000
# 6 0.000000 0.000000 0.000000 0.000000 0.000000 0.028893
#
#
# Mechanical properties :
#
#
# Convention : Reuss Voigt Hill
#
# Bulk Modulus (GPa) = 36.72001 47.00974 41.86487
# Shear Modulus (GPa) = 27.92181 31.84563 29.88372
#
# Velocity S-wave (km/s) = 3.48772 3.72473 3.60817
# Velocity P-wave (km/s) = 5.67592 6.24323 5.96632
#
# Compressibility (1/GPa) = 0.02723311
#
# Stress axis : x y z
#
# Youngs Moduli (GPa) = 32.96526 91.08873 88.09136
#
# Poissons Ratio (x) = 0.39402 0.53010
# Poissons Ratio (y) = 0.14260 0.20902
# Poissons Ratio (z) = 0.19837 0.21613
#
# Static dielectric constant tensor:
#      x y z
#    x 1.906160 0.000000 0.000000 
#    y 0.000000 1.837980 0.000000 
#    z 0.000000 0.000000 1.887520 
# 
# From -- ./inp_files/11792.got.cif
#   From: 2010.05.17/outbox.cif.g08.bks.cpg/sg56_6_cif.got.tgz:11792.got - 2010.06.03 13:42:01.
