data_PCOD9429366
_publ_section_title
;
Structure prediction by ZEFSAII (Michael W. Deem and Ramdas Pophale) SiO2 
 PCOD9429366
Probable space group: P B A M
;
_chemical_formula_sum "Si O2"
_cell_formula_units_Z 64
_cell_length_a 24.000000
_cell_length_b 15.000000
_cell_length_c 9.000000
_cell_angle_alpha 90.000000
_cell_angle_beta 90.000000
_cell_angle_gamma 90.000000
_cell_volume 3240.000000
_symmetry_space_group_name_H-M "P B A M"
_symmetry_group_IT_number 55
_symmetry_cell_setting 'orthorhombic'
loop_
_space_group_symop_operation_xyz
x,y,z
-x,-y,z
1/2+x,1/2-y,-z
1/2-x,1/2+y,-z
-x,-y,-z
x,y,-z
1/2-x,1/2+y,z
1/2+x,1/2-y,z
loop_
_atom_site_type_symbol
_atom_site_label
_atom_site_fract_x
_atom_site_fract_y
_atom_site_fract_z
Si Si1 0.650587 0.715644 0.822841
Si Si2 0.963692 0.697522 0.173105
Si Si3 0.924643 0.366373 0.323542
Si Si4 0.730858 0.991755 0.671638
Si Si5 0.616213 0.349751 0.820569
Si Si6 0.360816 0.464431 0.671679
Si Si7 0.376057 0.960396 0.171982
Si Si8 0.240200 0.193701 0.178228
O O1 0.618034 0.796268 0.747447
O O2 0.625807 0.624366 0.761030
O O3 0.716430 0.727998 0.785720
O O4 0.644953 0.719735 0.000000
O O5 0.936760 0.790692 0.221870
O O6 0.912760 0.627969 0.178038
O O7 0.014209 0.662338 0.270119
O O8 0.981890 0.703732 0.000000
O O9 0.920644 0.365997 0.500000
O O10 0.908400 0.462523 0.259514
O O11 0.714074 0.982747 0.500000
O O12 0.684935 0.048526 0.757762
O O13 0.734750 0.895054 0.747917
O O14 0.793544 0.027560 0.677173
O O15 0.616288 0.446404 0.747088
O O16 0.675210 0.302481 0.777653
O O17 0.616388 0.357183 0.000000
O O18 0.377723 0.458423 0.500000
O O19 0.370252 0.987270 0.000000
O O20 0.241058 0.183000 0.000000
#
# Coordination Sequence:
#
# PCOD9429366 Si02
#       8
#     8   8   8   8   8   8   8   8
#     4  11  22  37  62  90 118 157 204 248 293 351
#     4  10  23  41  63  87 116 155 202 251 298 351
#     4  12  25  41  61  86 122 158 198 249 300 358
#     4  10  20  34  54  84 123 161 193 234 292 353
#     4   9  19  39  62  87 117 153 199 250 297 350
#     4  10  22  38  57  87 126 162 195 242 301 358
#     4  11  22  37  60  88 120 159 201 247 294 351
#     4   9  18  33  57  85 115 152 194 241 292 348
#
# _framework density 19.753086
#
# number of rings (size 3 to 8) (size 9 to 14) (size 15 to 20)
#    0.000    1.750    1.250    3.000    1.750    5.000 
#    0.000    0.625    0.000    3.750    0.000    0.000 
#    0.000    0.000    0.000    0.000    0.000    0.000 
#
# Total GULP energy -357473.306419 kJ/mol
# GULP energy per Si atom -5585.520413 kJ/mol
# Density = 1.970813 g / cm^3
# Si number density = 19.753086 Si / 1000 Ang^3
#
#
#
# Elastic Constant Matrix: (Units=GPa)
#
#
# Indices 1 2 3 4 5 6 
#
# 1 5.0830 -26.0475 -12.1996 0.0000 0.0000 0.0000
# 2 -26.0475 38.6377 2.5186 0.0000 0.0000 0.0000
# 3 -12.1996 2.5186 18.2669 0.0000 0.0000 0.0000
# 4 0.0000 0.0000 0.0000 -634.4760 0.0000 0.0000
# 5 0.0000 0.0000 0.0000 0.0000 25.3191 0.0000
# 6 0.0000 0.0000 0.0000 0.0000 0.0000 -0.9757
#
#
#
# Elastic Compliance Matrix: (Units=1/GPa)
#
#
# Indices 1 2 3 4 5 6 
#
# 1 -0.053853 -0.034268 -0.031241 0.000000 0.000000 0.000000
# 2 -0.034268 0.004310 -0.023480 0.000000 0.000000 0.000000
# 3 -0.031241 -0.023480 0.037117 0.000000 0.000000 0.000000
# 4 0.000000 0.000000 0.000000 -0.001576 0.000000 0.000000
# 5 0.000000 0.000000 0.000000 0.000000 0.039496 0.000000
# 6 0.000000 0.000000 0.000000 0.000000 0.000000 -1.024859
#
#
# Mechanical properties :
#
#
# Convention : Reuss Voigt Hill
#
# Bulk Modulus (GPa) = -5.25196 -1.05216 -3.15206
# Shear Modulus (GPa) = -5.65065 -115.51212 -60.58139
#
# Velocity S-wave (km/s) = -1.69318 -7.65539 -5.54400
# Velocity P-wave (km/s) = 2.54697 8.86982 6.52537
#
# Compressibility (1/GPa) = -0.19040502
#
# Stress axis : x y z
#
# Youngs Moduli (GPa) = -18.56913 232.01306 26.94184
#
# Poissons Ratio (x) = 7.95070 0.84169
# Poissons Ratio (y) = -0.63633 0.63261
# Poissons Ratio (z) = -0.58012 5.44777
#
# Static dielectric constant tensor:
#      x y z
#    x 1.704480 0.000000 0.000000 
#    y 0.000000 1.680370 0.000000 
#    z 0.000000 0.000000 1.664520 
# 
# From -- ./inp_files/6700.got.cif
#   From: 2010.05.17/outbox.ucp.g08.bks.cvg/sg55_4_cif.got.tgz:6700.got - 2010.06.11 16:36:00.
