data_PCOD9429797
_publ_section_title
;
Structure prediction by ZEFSAII (Michael W. Deem and Ramdas Pophale) SiO2 
 PCOD9429797
Probable space group: P C C N
;
_chemical_formula_sum "Si O2"
_cell_formula_units_Z 48
_cell_length_a 12.870944
_cell_length_b 12.756954
_cell_length_c 13.355485
_cell_angle_alpha 90.000000
_cell_angle_beta 90.000000
_cell_angle_gamma 90.000000
_cell_volume 2192.891046
_symmetry_space_group_name_H-M "P C C N"
_symmetry_group_IT_number 56
_symmetry_cell_setting 'orthorhombic'
loop_
_space_group_symop_operation_xyz
x,y,z
1/2-x,1/2-y,z
1/2+x,-y,1/2-z
-x,1/2+y,1/2-z
-x,-y,-z
1/2+x,1/2+y,-z
1/2-x,y,1/2+z
x,1/2-y,1/2+z
loop_
_atom_site_type_symbol
_atom_site_label
_atom_site_fract_x
_atom_site_fract_y
_atom_site_fract_z
Si Si1 0.337970 0.434265 0.249222
Si Si2 0.551009 0.388415 0.475971
Si Si3 0.571491 0.382045 0.238465
Si Si4 0.879038 0.890864 0.242918
Si Si5 0.892180 0.152046 0.678755
Si Si6 0.144409 0.216822 0.427968
O O1 0.448100 0.389211 0.211632
O O2 0.232198 0.390848 0.201221
O O3 0.341390 0.560486 0.254108
O O4 0.335675 0.389173 0.363407
O O5 0.500000 0.500000 0.500000
O O6 0.581885 0.386881 0.359757
O O7 0.633426 0.366053 0.562367
O O8 0.460239 0.301629 0.487119
O O9 0.615969 0.491378 0.198723
O O10 0.621273 0.273095 0.205717
O O11 0.876449 0.804123 0.156862
O O12 0.984217 0.873030 0.304412
O O13 0.250000 0.250000 0.481497
#
# Coordination Sequence:
#
# PCOD9429797 Si02
#       6
#     8   8   8   8   8   8
#     4   9  18  32  57  80 108 146 182 228 278 329
#     4  11  18  34  57  84 109 148 190 231 281 342
#     4  10  21  36  57  83 112 146 187 234 280 337
#     4  10  18  34  57  78 111 147 180 228 288 328
#     4  11  20  35  58  83 113 148 191 229 283 339
#     4   9  17  33  54  83 113 139 183 239 275 328
#
# _framework density 21.888911
#
# number of rings (size 3 to 8) (size 9 to 14) (size 15 to 20)
#    0.000    2.000    8.333    0.000    0.000    0.667 
#    3.000    0.833    0.000    2.000    0.000    0.000 
#    0.000    0.000    0.000    0.000    0.000    0.000 
#
# Total GULP energy -267512.230906 kJ/mol
# GULP energy per Si atom -5573.171477 kJ/mol
# Density = 2.183909 g / cm^3
# Si number density = 21.888911 Si / 1000 Ang^3
#
#
#
# Elastic Constant Matrix: (Units=GPa)
#
#
# Indices 1 2 3 4 5 6 
#
# 1 66.3584 -4.1334 -7.3755 0.0000 0.0000 0.0000
# 2 -4.1334 174.8050 29.5433 0.0000 0.0000 0.0000
# 3 -7.3755 29.5433 41.5204 0.0000 0.0000 0.0000
# 4 0.0000 0.0000 0.0000 24.4953 0.0000 0.0000
# 5 0.0000 0.0000 0.0000 0.0000 3.6722 0.0000
# 6 0.0000 0.0000 0.0000 0.0000 0.0000 17.8007
#
#
#
# Elastic Compliance Matrix: (Units=1/GPa)
#
#
# Indices 1 2 3 4 5 6 
#
# 1 0.015375 -0.000111 0.002810 0.000000 0.000000 0.000000
# 2 -0.000111 0.006503 -0.004647 0.000000 0.000000 0.000000
# 3 0.002810 -0.004647 0.027890 0.000000 0.000000 0.000000
# 4 0.000000 0.000000 0.000000 0.040824 0.000000 0.000000
# 5 0.000000 0.000000 0.000000 0.000000 0.272314 0.000000
# 6 0.000000 0.000000 0.000000 0.000000 0.000000 0.056177
#
#
# Mechanical properties :
#
#
# Convention : Reuss Voigt Hill
#
# Bulk Modulus (GPa) = 21.79951 35.41695 28.60823
# Shear Modulus (GPa) = 11.40843 26.83695 19.12269
#
# Velocity S-wave (km/s) = 2.28545 3.50530 2.95892
# Velocity P-wave (km/s) = 4.11645 5.70949 4.97712
#
# Compressibility (1/GPa) = 0.04587259
#
# Stress axis : x y z
#
# Youngs Moduli (GPa) = 65.04017 153.76476 35.85454
#
# Poissons Ratio (x) = 0.01713 -0.10077
# Poissons Ratio (y) = 0.00725 0.16662
# Poissons Ratio (z) = -0.18279 0.71458
#
# Static dielectric constant tensor:
#      x y z
#    x 1.936220 0.000000 0.000000 
#    y 0.000000 1.815670 0.000000 
#    z 0.000000 0.000000 1.785050 
# 
# From -- ./inp_files/16256.got.cif
#   From: 2010.05.17/outbox.cif.g08.bks.cpg/sg56_9_cif.got.tgz:16256.got - 2010.06.03 13:42:01.
