data_PCOD9429110
_publ_section_title
;
Structure prediction by ZEFSAII (Michael W. Deem and Ramdas Pophale) SiO2 
 PCOD9429110
Probable space group: P B A M
;
_chemical_formula_sum "Si O2"
_cell_formula_units_Z 54
_cell_length_a 12.971214
_cell_length_b 13.987885
_cell_length_c 14.126442
_cell_angle_alpha 90.000000
_cell_angle_beta 90.000000
_cell_angle_gamma 90.000000
_cell_volume 2563.099514
_symmetry_space_group_name_H-M "P B A M"
_symmetry_group_IT_number 55
_symmetry_cell_setting 'orthorhombic'
loop_
_space_group_symop_operation_xyz
x,y,z
-x,-y,z
1/2+x,1/2-y,-z
1/2-x,1/2+y,-z
-x,-y,-z
x,y,-z
1/2-x,1/2+y,z
1/2+x,1/2-y,z
loop_
_atom_site_type_symbol
_atom_site_label
_atom_site_fract_x
_atom_site_fract_y
_atom_site_fract_z
Si Si1 0.276665 0.788389 0.394613
Si Si2 0.500000 0.000000 0.754366
Si Si3 0.102335 0.691859 0.283502
Si Si4 0.300006 0.894647 0.800469
Si Si5 0.045162 0.146925 0.339211
Si Si6 0.500000 0.500000 0.500000
Si Si7 0.386005 0.531645 0.838109
Si Si8 0.251326 0.702279 0.104961
O O1 0.266293 0.828614 0.500000
O O2 0.181142 0.720663 0.366078
O O3 0.287585 0.865444 0.310343
O O4 0.374555 0.718496 0.388142
O O5 0.542592 0.907008 0.699089
O O6 0.401331 0.959354 0.810750
O O7 0.166127 0.682742 0.185964
O O8 0.027846 0.783294 0.278857
O O9 0.308815 0.797254 0.858932
O O10 0.196114 0.946523 0.833226
O O11 0.102034 0.076077 0.267107
O O12 0.989904 0.083093 0.417203
O O13 0.500000 0.500000 0.868969
O O14 0.332219 0.616097 0.895297
O O15 0.207701 0.715407 0.000000
#
# Coordination Sequence:
#
# PCOD9429110 Si02
#       8
#     8   4   8   8   8   2   8   8
#     4  11  23  41  66  97 143 178 228 280 337 413
#     4  12  20  46  74  96 138 194 228 278 368 412
#     4  11  24  45  72  96 145 182 229 296 352 419
#     4  11  24  44  72 100 143 186 227 294 354 422
#     4  12  23  43  66 102 135 181 235 285 338 414
#     4  12  28  36  72 102 138 186 244 288 344 430
#     4  12  23  44  72  99 136 187 237 289 358 422
#     4  11  25  47  71 104 140 180 238 299 364 428
#
# _framework density 21.068241
#
# number of rings (size 3 to 8) (size 9 to 14) (size 15 to 20)
#    0.000    0.593    7.407    1.778    1.037    0.889 
#    0.000    8.148    0.000    0.000    0.000    0.000 
#    0.000    0.000    0.000    0.000    0.000    0.000 
#
# Total GULP energy -301197.481034 kJ/mol
# GULP energy per Si atom -5577.731130 kJ/mol
# Density = 2.102029 g / cm^3
# Si number density = 21.068241 Si / 1000 Ang^3
#
#
#
# Elastic Constant Matrix: (Units=GPa)
#
#
# Indices 1 2 3 4 5 6 
#
# 1 111.0202 43.7284 3.7296 0.0000 0.0000 0.0000
# 2 43.7284 122.2330 11.6962 0.0000 0.0000 0.0000
# 3 3.7296 11.6962 94.2231 0.0000 0.0000 0.0000
# 4 0.0000 0.0000 0.0000 -11.9466 0.0000 0.0000
# 5 0.0000 0.0000 0.0000 0.0000 -1.6548 0.0000
# 6 0.0000 0.0000 0.0000 0.0000 0.0000 39.7110
#
#
#
# Elastic Compliance Matrix: (Units=1/GPa)
#
#
# Indices 1 2 3 4 5 6 
#
# 1 0.010485 -0.003756 0.000051 0.000000 0.000000 0.000000
# 2 -0.003756 0.009625 -0.001046 0.000000 0.000000 0.000000
# 3 0.000051 -0.001046 0.010741 0.000000 0.000000 0.000000
# 4 0.000000 0.000000 0.000000 -0.083706 0.000000 0.000000
# 5 0.000000 0.000000 0.000000 0.000000 -0.604299 0.000000
# 6 0.000000 0.000000 0.000000 0.000000 0.000000 0.025182
#
#
# Mechanical properties :
#
#
# Convention : Reuss Voigt Hill
#
# Bulk Modulus (GPa) = 46.84005 49.53165 48.18585
# Shear Modulus (GPa) = -8.12541 23.11006 7.49232
#
# Velocity S-wave (km/s) = -1.96598 3.31556 1.88784
# Velocity P-wave (km/s) = 4.13852 6.18210 5.26050
#
# Compressibility (1/GPa) = 0.02134925
#
# Stress axis : x y z
#
# Youngs Moduli (GPa) = 95.37430 103.89777 93.10175
#
# Poissons Ratio (x) = 0.39023 -0.00477
# Poissons Ratio (y) = 0.35821 0.09739
# Poissons Ratio (z) = -0.00488 0.10869
#
# Static dielectric constant tensor:
#      x y z
#    x 1.819320 0.000000 0.000000 
#    y 0.000000 1.764810 0.000000 
#    z 0.000000 0.000000 1.750300 
# 
# From -- ./inp_files/18425.got.cif
#   From: 2010.05.17/outbox.cif.g08.bks.cpg/sg55_10_cif.got.tgz:18425.got - 2010.06.03 13:27:54.
