data_PCOD9429632
_publ_section_title
;
Structure prediction by ZEFSAII (Michael W. Deem and Ramdas Pophale) SiO2 
 PCOD9429632
Probable space group: P C C N
;
_chemical_formula_sum "Si O2"
_cell_formula_units_Z 56
_cell_length_a 11.497189
_cell_length_b 15.721604
_cell_length_c 13.042767
_cell_angle_alpha 90.000000
_cell_angle_beta 90.000000
_cell_angle_gamma 90.000000
_cell_volume 2357.535601
_symmetry_space_group_name_H-M "P C C N"
_symmetry_group_IT_number 56
_symmetry_cell_setting 'orthorhombic'
loop_
_space_group_symop_operation_xyz
x,y,z
1/2-x,1/2-y,z
1/2+x,-y,1/2-z
-x,1/2+y,1/2-z
-x,-y,-z
1/2+x,1/2+y,-z
1/2-x,y,1/2+z
x,1/2-y,1/2+z
loop_
_atom_site_type_symbol
_atom_site_label
_atom_site_fract_x
_atom_site_fract_y
_atom_site_fract_z
Si Si1 0.465453 0.257439 0.844173
Si Si2 0.169689 0.085029 0.884885
Si Si3 0.634670 0.020605 0.022025
Si Si4 0.293550 0.161454 0.700371
Si Si5 0.357511 0.873036 0.164240
Si Si6 0.518451 0.963134 0.332490
Si Si7 0.626151 0.126915 0.222991
O O1 0.403145 0.330163 0.909965
O O2 0.365623 0.199532 0.796770
O O3 0.567813 0.200711 0.891469
O O4 0.530576 0.302246 0.747594
O O5 0.201016 0.102012 0.762500
O O6 0.288839 0.059022 0.940238
O O7 0.083232 0.004760 0.900494
O O8 0.639349 0.092927 0.108898
O O9 0.684573 0.059693 0.918712
O O10 0.500000 0.000000 0.000000
O O11 0.250000 0.250000 0.649400
O O12 0.382051 0.103704 0.635418
O O13 0.447361 0.917122 0.241730
O O14 0.248323 0.844719 0.230382
O O15 0.583802 0.043902 0.285034
#
# Coordination Sequence:
#
# PCOD9429632 Si02
#       7
#     8   8   8   8   8   8   8
#     4   9  21  37  62  86 131 177 217 279 355 409
#     4  10  19  36  64  95 129 175 226 283 345 416
#     4  12  22  38  68 100 128 172 237 294 346 419
#     4   9  16  31  56  92 121 165 217 269 335 402
#     4  11  21  38  64  95 134 179 226 287 353 416
#     4  10  17  34  61  91 125 169 219 279 335 411
#     4  11  21  39  64  93 127 172 230 279 348 422
#
# _framework density 23.753616999999998
#
# number of rings (size 3 to 8) (size 9 to 14) (size 15 to 20)
#    0.000    1.714    4.286    1.286    0.000    0.000 
#    0.000    5.714    9.429    1.714    0.000    0.000 
#    0.000    0.000    0.000    0.000    0.000    0.000 
#
# Total GULP energy -312668.097801 kJ/mol
# GULP energy per Si atom -5583.358889 kJ/mol
# Density = 2.369955 g / cm^3
# Si number density = 23.753617 Si / 1000 Ang^3
#
#
#
# Elastic Constant Matrix: (Units=GPa)
#
#
# Indices 1 2 3 4 5 6 
#
# 1 136.7111 62.6833 29.7788 0.0000 0.0000 0.0000
# 2 62.6833 103.2442 13.4703 0.0000 0.0000 0.0000
# 3 29.7788 13.4703 45.5959 0.0000 0.0000 0.0000
# 4 0.0000 0.0000 0.0000 9.8479 0.0000 0.0000
# 5 0.0000 0.0000 0.0000 0.0000 29.8503 0.0000
# 6 0.0000 0.0000 0.0000 0.0000 0.0000 66.7541
#
#
#
# Elastic Compliance Matrix: (Units=1/GPa)
#
#
# Indices 1 2 3 4 5 6 
#
# 1 0.011362 -0.006168 -0.005599 0.000000 0.000000 0.000000
# 2 -0.006168 0.013422 0.000063 0.000000 0.000000 0.000000
# 3 -0.005599 0.000063 0.025570 0.000000 0.000000 0.000000
# 4 0.000000 0.000000 0.000000 0.101544 0.000000 0.000000
# 5 0.000000 0.000000 0.000000 0.000000 0.033500 0.000000
# 6 0.000000 0.000000 0.000000 0.000000 0.000000 0.014980
#
#
# Mechanical properties :
#
#
# Convention : Reuss Voigt Hill
#
# Bulk Modulus (GPa) = 37.10964 55.26843 46.18904
# Shear Modulus (GPa) = 21.48053 33.26506 27.37279
#
# Velocity S-wave (km/s) = 3.01043 3.74628 3.39833
# Velocity P-wave (km/s) = 5.26690 6.48311 5.90639
#
# Compressibility (1/GPa) = 0.02694717
#
# Stress axis : x y z
#
# Youngs Moduli (GPa) = 88.01067 74.50254 39.10894
#
# Poissons Ratio (x) = 0.45953 0.21895
# Poissons Ratio (y) = 0.54285 -0.00246
# Poissons Ratio (z) = 0.49273 -0.00469
#
# Static dielectric constant tensor:
#      x y z
#    x 2.017890 0.000000 0.000000 
#    y 0.000000 1.971660 0.000000 
#    z 0.000000 0.000000 1.872300 
# 
# From -- ./inp_files/11671.got.cif
#   From: 2010.05.17/outbox.cif.g08.bks.cpg/sg56_6_cif.got.tgz:11671.got - 2010.06.03 13:42:01.
