data_PCOD9429396
_publ_section_title
;
Structure prediction by ZEFSAII (Michael W. Deem and Ramdas Pophale) SiO2 
 PCOD9429396
Probable space group: P B A M
;
_chemical_formula_sum "Si O2"
_cell_formula_units_Z 64
_cell_length_a 9.000000
_cell_length_b 30.000000
_cell_length_c 12.000000
_cell_angle_alpha 90.000000
_cell_angle_beta 90.000000
_cell_angle_gamma 90.000000
_cell_volume 3240.000000
_symmetry_space_group_name_H-M "P B A M"
_symmetry_group_IT_number 55
_symmetry_cell_setting 'orthorhombic'
loop_
_space_group_symop_operation_xyz
x,y,z
-x,-y,z
1/2+x,1/2-y,-z
1/2-x,1/2+y,-z
-x,-y,-z
x,y,-z
1/2-x,1/2+y,z
1/2+x,1/2-y,z
loop_
_atom_site_type_symbol
_atom_site_label
_atom_site_fract_x
_atom_site_fract_y
_atom_site_fract_z
Si Si1 0.355178 0.545183 0.248994
Si Si2 0.010600 0.887806 0.372309
Si Si3 0.443417 0.050999 0.628309
Si Si4 0.900896 0.246924 0.240796
Si Si5 0.364134 0.805293 0.870843
Si Si6 0.320063 0.890236 0.252510
Si Si7 0.342122 0.696654 0.367351
Si Si8 0.870150 0.046431 0.125350
O O1 0.453246 0.562072 0.353098
O O2 0.189438 0.557859 0.283527
O O3 0.463809 0.565272 0.152039
O O4 0.347754 0.493942 0.211950
O O5 0.036611 0.878651 0.500000
O O6 0.880623 0.854194 0.335026
O O7 0.164363 0.878849 0.311196
O O8 0.396260 0.059619 0.500000
O O9 0.578448 0.082382 0.663633
O O10 0.500000 0.000000 0.634080
O O11 0.789363 0.213654 0.178773
O O12 0.797095 0.282552 0.303692
O O13 0.007971 0.269476 0.150725
O O14 0.010682 0.223533 0.329062
O O15 0.401735 0.847800 0.795801
O O16 0.349158 0.816127 0.000000
O O17 0.261470 0.919744 0.149520
O O18 0.320172 0.699833 0.500000
O O19 0.863942 0.030125 0.000000
#
# Coordination Sequence:
#
# PCOD9429396 Si02
#       8
#     8   8   8   8   8   8   8   8
#     4  10  20  37  59  85 117 157 202 245 295 353
#     4  10  21  37  59  89 122 158 198 245 301 363
#     4  11  23  40  60  88 125 161 197 248 308 363
#     4  10  22  40  64  90 123 156 198 250 302 366
#     4  11  23  42  66  89 121 160 204 251 304 358
#     4  11  22  41  62  90 121 159 205 250 299 361
#     4  10  20  38  61  92 122 155 195 242 304 369
#     4  10  21  41  64  85 118 160 207 258 301 343
#
# _framework density 19.753086
#
# number of rings (size 3 to 8) (size 9 to 14) (size 15 to 20)
#    0.000    1.625    2.500    2.625    1.750    0.000 
#    0.000    7.500    0.000    0.000    0.000    0.000 
#    0.000    0.000    0.000    0.000    0.000    0.000 
#
# Total GULP energy -356409.217439 kJ/mol
# GULP energy per Si atom -5568.894022 kJ/mol
# Density = 1.970813 g / cm^3
# Si number density = 19.753086 Si / 1000 Ang^3
#
#
#
# Elastic Constant Matrix: (Units=GPa)
#
#
# Indices 1 2 3 4 5 6 
#
# 1 67.8016 12.1476 11.8228 0.0000 0.0000 0.0000
# 2 12.1476 59.8955 20.6380 0.0000 0.0000 0.0000
# 3 11.8228 20.6380 43.9569 0.0000 0.0000 0.0000
# 4 0.0000 0.0000 0.0000 5.2031 0.0000 0.0000
# 5 0.0000 0.0000 0.0000 0.0000 8.6993 0.0000
# 6 0.0000 0.0000 0.0000 0.0000 0.0000 26.7571
#
#
#
# Elastic Compliance Matrix: (Units=1/GPa)
#
#
# Indices 1 2 3 4 5 6 
#
# 1 0.015685 -0.002061 -0.003251 0.000000 0.000000 0.000000
# 2 -0.002061 0.020189 -0.008924 0.000000 0.000000 0.000000
# 3 -0.003251 -0.008924 0.027814 0.000000 0.000000 0.000000
# 4 0.000000 0.000000 0.000000 0.192193 0.000000 0.000000
# 5 0.000000 0.000000 0.000000 0.000000 0.114952 0.000000
# 6 0.000000 0.000000 0.000000 0.000000 0.000000 0.037373
#
#
# Mechanical properties :
#
#
# Convention : Reuss Voigt Hill
#
# Bulk Modulus (GPa) = 28.39699 28.98565 28.69132
# Shear Modulus (GPa) = 11.15032 16.60160 13.87596
#
# Velocity S-wave (km/s) = 2.37847 2.90221 2.65329
# Velocity P-wave (km/s) = 4.68508 5.09276 4.89317
#
# Compressibility (1/GPa) = 0.03521500
#
# Stress axis : x y z
#
# Youngs Moduli (GPa) = 63.75499 49.53242 35.95309
#
# Poissons Ratio (x) = 0.10208 0.11689
# Poissons Ratio (y) = 0.13139 0.32086
# Poissons Ratio (z) = 0.20727 0.44205
#
# Static dielectric constant tensor:
#      x y z
#    x 1.692800 0.000000 0.000000 
#    y 0.000000 1.759500 0.000000 
#    z 0.000000 0.000000 1.670430 
# 
# From -- ./inp_files/12615.got.cif
#   From: 2010.05.17/outbox.ucp.g08.bks.cvg/sg55_7_cif.got.tgz:12615.got - 2010.06.11 16:36:00.
