data_PCOD9429392
_publ_section_title
;
Structure prediction by ZEFSAII (Michael W. Deem and Ramdas Pophale) SiO2 
 PCOD9429392
Probable space group: P B A M
;
_chemical_formula_sum "Si O2"
_cell_formula_units_Z 64
_cell_length_a 30.000000
_cell_length_b 12.000000
_cell_length_c 9.000000
_cell_angle_alpha 90.000000
_cell_angle_beta 90.000000
_cell_angle_gamma 90.000000
_cell_volume 3240.000000
_symmetry_space_group_name_H-M "P B A M"
_symmetry_group_IT_number 55
_symmetry_cell_setting 'orthorhombic'
loop_
_space_group_symop_operation_xyz
x,y,z
-x,-y,z
1/2+x,1/2-y,-z
1/2-x,1/2+y,-z
-x,-y,-z
x,y,-z
1/2-x,1/2+y,z
1/2+x,1/2-y,z
loop_
_atom_site_type_symbol
_atom_site_label
_atom_site_fract_x
_atom_site_fract_y
_atom_site_fract_z
Si Si1 0.174481 0.837097 0.677552
Si Si2 0.484791 0.629032 0.821009
Si Si3 0.686029 0.418239 0.669177
Si Si4 0.850377 0.583852 0.827003
Si Si5 0.902005 0.769825 0.668525
Si Si6 0.237054 0.261178 0.170884
Si Si7 0.879778 0.371798 0.321697
Si Si8 0.024024 0.619354 0.178996
O O1 0.170667 0.837329 0.500000
O O2 0.223362 0.800355 0.725471
O O3 0.139518 0.746341 0.732131
O O4 0.169166 0.963640 0.727797
O O5 0.500000 0.500000 0.777771
O O6 0.436746 0.650460 0.749392
O O7 0.507581 0.752017 0.779768
O O8 0.483898 0.628166 0.000000
O O9 0.703844 0.430953 0.500000
O O10 0.644194 0.336382 0.660309
O O11 0.721191 0.359984 0.775847
O O12 0.890521 0.659347 0.761702
O O13 0.805038 0.655339 0.815767
O O14 0.848144 0.471143 0.733965
O O15 0.858659 0.560164 0.000000
O O16 0.916321 0.742535 0.500000
O O17 0.251341 0.259633 0.000000
O O18 0.882538 0.373337 0.500000
O O19 0.927402 0.390411 0.249229
O O20 0.000000 0.500000 0.221578
O O21 0.024801 0.619214 0.000000
#
# Coordination Sequence:
#
# PCOD9429392 Si02
#       8
#     8   8   8   8   8   8   8   8
#     4  10  23  40  58  83 119 159 194 239 296 351
#     4  10  22  38  58  87 123 161 200 244 301 366
#     4   9  20  39  60  83 116 156 195 238 294 353
#     4  10  21  39  61  86 120 157 194 242 295 350
#     4  10  20  36  62  90 116 151 199 245 292 349
#     4  10  22  38  59  88 116 150 199 247 290 344
#     4  11  24  39  61  91 121 154 199 247 296 353
#     4  10  22  41  63  87 119 161 202 246 305 366
#
# _framework density 19.753086
#
# number of rings (size 3 to 8) (size 9 to 14) (size 15 to 20)
#    0.000    2.000    0.000    2.250    3.500    5.500 
#    0.000    0.000    0.000    0.000    0.000    0.000 
#    0.000    0.000    0.000    0.000    0.000    0.000 
#
# Total GULP energy -356643.229269 kJ/mol
# GULP energy per Si atom -5572.550457 kJ/mol
# Density = 1.970813 g / cm^3
# Si number density = 19.753086 Si / 1000 Ang^3
#
#
#
# Elastic Constant Matrix: (Units=GPa)
#
#
# Indices 1 2 3 4 5 6 
#
# 1 18.0569 5.4254 5.8847 0.0000 0.0000 0.0000
# 2 5.4254 115.1967 21.4430 0.0000 0.0000 0.0000
# 3 5.8847 21.4430 -21.0298 0.0000 0.0000 0.0000
# 4 0.0000 0.0000 0.0000 7.3393 0.0000 0.0000
# 5 0.0000 0.0000 0.0000 0.0000 12.0009 0.0000
# 6 0.0000 0.0000 0.0000 0.0000 0.0000 -5.0345
#
#
#
# Elastic Compliance Matrix: (Units=1/GPa)
#
#
# Indices 1 2 3 4 5 6 
#
# 1 0.053330 -0.004446 0.010390 0.000000 0.000000 0.000000
# 2 -0.004446 0.007667 0.006573 0.000000 0.000000 0.000000
# 3 0.010390 0.006573 -0.037942 0.000000 0.000000 0.000000
# 4 0.000000 0.000000 0.000000 0.136252 0.000000 0.000000
# 5 0.000000 0.000000 0.000000 0.000000 0.083327 0.000000
# 6 0.000000 0.000000 0.000000 0.000000 0.000000 -0.198628
#
#
# Mechanical properties :
#
#
# Convention : Reuss Voigt Hill
#
# Bulk Modulus (GPa) = 20.79428 19.74777 20.27103
# Shear Modulus (GPa) = 142.85404 8.15919 75.50661
#
# Velocity S-wave (km/s) = 8.51333 2.03459 6.18936
# Velocity P-wave (km/s) = 10.35306 3.94188 7.83340
#
# Compressibility (1/GPa) = 0.04809015
#
# Stress axis : x y z
#
# Youngs Moduli (GPa) = 18.75114 130.43544 -26.35617
#
# Poissons Ratio (x) = 0.57988 0.27384
# Poissons Ratio (y) = 0.08336 0.17325
# Poissons Ratio (z) = -0.19483 -0.85738
#
# Static dielectric constant tensor:
#      x y z
#    x 1.709210 0.000000 0.000000 
#    y 0.000000 1.740810 0.000000 
#    z 0.000000 0.000000 1.671120 
# 
# From -- ./inp_files/10853.got.cif
#   From: 2010.05.17/outbox.ucp.g08.bks.cvg/sg55_6_cif.got.tgz:10853.got - 2010.06.11 16:36:00.
