data_PCOD9429228
_publ_section_title
;
Structure prediction by ZEFSAII (Michael W. Deem and Ramdas Pophale) SiO2 
 PCOD9429228
Probable space group: P B A M
;
_chemical_formula_sum "Si O2"
_cell_formula_units_Z 40
_cell_length_a 27.493166
_cell_length_b 7.036565
_cell_length_c 9.237742
_cell_angle_alpha 90.000000
_cell_angle_beta 90.000000
_cell_angle_gamma 90.000000
_cell_volume 1787.110008
_symmetry_space_group_name_H-M "P B A M"
_symmetry_group_IT_number 55
_symmetry_cell_setting 'orthorhombic'
loop_
_space_group_symop_operation_xyz
x,y,z
-x,-y,z
1/2+x,1/2-y,-z
1/2-x,1/2+y,-z
-x,-y,-z
x,y,-z
1/2-x,1/2+y,z
1/2+x,1/2-y,z
loop_
_atom_site_type_symbol
_atom_site_label
_atom_site_fract_x
_atom_site_fract_y
_atom_site_fract_z
Si Si1 0.289058 0.037934 0.167201
Si Si2 0.486513 0.226375 0.333632
Si Si3 0.418684 0.688982 0.829599
Si Si4 0.108177 0.639324 0.169943
Si Si5 0.684462 0.404012 0.166668
O O1 0.335680 0.155185 0.224616
O O2 0.235347 0.029934 0.236050
O O3 0.306613 0.822270 0.160987
O O4 0.281973 0.103020 0.000000
O O5 0.481376 0.281149 0.500000
O O6 0.531877 0.330082 0.258536
O O7 0.435479 0.243279 0.250767
O O8 0.500000 0.000000 0.330152
O O9 0.370308 0.579310 0.774991
O O10 0.405535 0.914576 0.821664
O O11 0.425910 0.645909 0.000000
O O12 0.107666 0.687500 0.000000
O O13 0.682496 0.473689 0.000000
#
# Coordination Sequence:
#
# PCOD9429228 Si02
#       5
#     8   8   8   8   8
#     4   8  13  21  34  53  75  97 121 149 181 217
#     4   9  15  21  31  49  72  95 118 148 186 221
#     4   8  13  21  33  49  70  95 120 146 179 219
#     4   8  13  21  33  49  70  95 120 146 179 219
#     4   8  13  21  34  53  75  97 121 149 181 217
#
# _framework density 22.382505999999999
#
# number of rings (size 3 to 8) (size 9 to 14) (size 15 to 20)
#    0.000    3.800    0.000    3.000    0.000    2.400 
#    0.000    0.000    0.000    1.200    0.000    1.400 
#    0.000   11.200    0.000    0.000    0.000    0.000 
#
# Total GULP energy -222970.340239 kJ/mol
# GULP energy per Si atom -5574.258506 kJ/mol
# Density = 2.233156 g / cm^3
# Si number density = 22.382506 Si / 1000 Ang^3
#
#
#
# Elastic Constant Matrix: (Units=GPa)
#
#
# Indices 1 2 3 4 5 6 
#
# 1 273.4544 42.1954 79.0527 0.0000 0.0000 0.0000
# 2 42.1954 70.5076 4.3774 0.0000 0.0000 0.0000
# 3 79.0527 4.3774 44.5750 0.0000 0.0000 0.0000
# 4 0.0000 0.0000 0.0000 -0.9457 0.0000 0.0000
# 5 0.0000 0.0000 0.0000 0.0000 -7.3642 0.0000
# 6 0.0000 0.0000 0.0000 0.0000 0.0000 49.0859
#
#
#
# Elastic Compliance Matrix: (Units=1/GPa)
#
#
# Indices 1 2 3 4 5 6 
#
# 1 0.008596 -0.004223 -0.014829 0.000000 0.000000 0.000000
# 2 -0.004223 0.016345 0.005885 0.000000 0.000000 0.000000
# 3 -0.014829 0.005885 0.048156 0.000000 0.000000 0.000000
# 4 0.000000 0.000000 0.000000 -1.057407 0.000000 0.000000
# 5 0.000000 0.000000 0.000000 0.000000 -0.135792 0.000000
# 6 0.000000 0.000000 0.000000 0.000000 0.000000 0.020372
#
#
# Mechanical properties :
#
#
# Convention : Reuss Voigt Hill
#
# Bulk Modulus (GPa) = 21.38545 71.08757 46.23651
# Shear Modulus (GPa) = -4.72675 25.68264 10.47795
#
# Velocity S-wave (km/s) = -1.45478 3.39107 2.16598
# Velocity P-wave (km/s) = 2.59873 6.86744 5.19207
#
# Compressibility (1/GPa) = 0.04676077
#
# Stress axis : x y z
#
# Youngs Moduli (GPa) = 116.33817 61.18078 20.76595
#
# Poissons Ratio (x) = 0.25839 0.30795
# Poissons Ratio (y) = 0.49134 -0.12221
# Poissons Ratio (z) = 1.72523 -0.36005
#
# Static dielectric constant tensor:
#      x y z
#    x 1.898760 0.000000 0.000000 
#    y 0.000000 1.954090 0.000000 
#    z 0.000000 0.000000 1.723400 
# 
# From -- ./inp_files/2501.got.cif
#   From: 2010.05.17/outbox.cif.g08.bks.cpg/sg55_2_cif.got.tgz:2501.got - 2010.06.03 13:27:54.
