data_PCOD9429959
_publ_section_title
;
Structure prediction by ZEFSAII (Michael W. Deem and Ramdas Pophale) SiO2 
 PCOD9429959
Probable space group: P C C N
;
_chemical_formula_sum "Si O2"
_cell_formula_units_Z 60
_cell_length_a 9.991579
_cell_length_b 13.952159
_cell_length_c 19.244840
_cell_angle_alpha 90.000000
_cell_angle_beta 90.000000
_cell_angle_gamma 90.000000
_cell_volume 2682.809578
_symmetry_space_group_name_H-M "P C C N"
_symmetry_group_IT_number 56
_symmetry_cell_setting 'orthorhombic'
loop_
_space_group_symop_operation_xyz
x,y,z
1/2-x,1/2-y,z
1/2+x,-y,1/2-z
-x,1/2+y,1/2-z
-x,-y,-z
1/2+x,1/2+y,-z
1/2-x,y,1/2+z
x,1/2-y,1/2+z
loop_
_atom_site_type_symbol
_atom_site_label
_atom_site_fract_x
_atom_site_fract_y
_atom_site_fract_z
Si Si1 0.770871 0.406728 0.587165
Si Si2 0.126589 0.076451 0.743169
Si Si3 0.713633 0.101639 0.932463
Si Si4 0.250000 0.750000 0.808262
Si Si5 0.191395 0.121238 0.887100
Si Si6 0.158933 0.584504 0.713948
Si Si7 0.551840 0.903147 0.909127
Si Si8 0.549638 0.790958 0.048492
O O1 0.785969 0.384694 0.505923
O O2 0.821001 0.323645 0.638487
O O3 0.832723 0.509247 0.602750
O O4 0.608884 0.416000 0.598461
O O5 0.169196 0.144434 0.806234
O O6 0.111903 0.119988 0.666377
O O7 0.981779 0.039032 0.766753
O O8 0.226913 0.987707 0.738993
O O9 0.810516 0.100736 0.866768
O O10 0.598641 0.182035 0.927267
O O11 0.628225 0.000881 0.933247
O O12 0.165073 0.683284 0.756992
O O13 0.342226 0.146172 0.908906
O O14 0.095352 0.184116 0.935204
O O15 0.566914 0.823877 0.968828
#
# Coordination Sequence:
#
# PCOD9429959 Si02
#       8
#     8   8   8   4   8   8   8   8
#     4  11  20  42  68  98 133 188 232 286 340 424
#     4  11  23  45  70  99 136 183 223 293 349 418
#     4  10  21  40  71  97 131 180 241 275 358 421
#     4  12  24  42  68 102 142 182 234 288 338 420
#     4  11  21  39  64 101 143 169 229 291 358 394
#     4  11  26  43  71 101 139 182 240 284 353 417
#     4  10  18  40  70  92 125 182 245 266 345 431
#     4  10  21  37  69 102 130 182 230 291 337 432
#
# _framework density 22.364614
#
# number of rings (size 3 to 8) (size 9 to 14) (size 15 to 20)
#    0.000    1.333    5.333    0.800    3.733    0.533 
#    2.400    6.000    0.000    0.000    0.000    0.000 
#    0.000    0.000    0.000    0.000    0.000    0.000 
#
# Total GULP energy -335523.047426 kJ/mol
# GULP energy per Si atom -5592.050790 kJ/mol
# Density = 2.231371 g / cm^3
# Si number density = 22.364614 Si / 1000 Ang^3
#
#
#
# Elastic Constant Matrix: (Units=GPa)
#
#
# Indices 1 2 3 4 5 6 
#
# 1 76.7152 20.7828 45.3926 0.0000 0.0000 0.0000
# 2 20.7828 107.9963 37.1969 0.0000 0.0000 0.0000
# 3 45.3926 37.1969 159.1205 0.0000 0.0000 0.0000
# 4 0.0000 0.0000 0.0000 -34.4455 0.0000 0.0000
# 5 0.0000 0.0000 0.0000 0.0000 33.2653 0.0000
# 6 0.0000 0.0000 0.0000 0.0000 0.0000 23.2308
#
#
#
# Elastic Compliance Matrix: (Units=1/GPa)
#
#
# Indices 1 2 3 4 5 6 
#
# 1 0.015943 -0.001633 -0.004166 0.000000 0.000000 0.000000
# 2 -0.001633 0.010238 -0.001927 0.000000 0.000000 0.000000
# 3 -0.004166 -0.001927 0.007924 0.000000 0.000000 0.000000
# 4 0.000000 0.000000 0.000000 -0.029031 0.000000 0.000000
# 5 0.000000 0.000000 0.000000 0.000000 0.030061 0.000000
# 6 0.000000 0.000000 0.000000 0.000000 0.000000 0.043046
#
#
# Mechanical properties :
#
#
# Convention : Reuss Voigt Hill
#
# Bulk Modulus (GPa) = 53.61718 61.17518 57.39618
# Shear Modulus (GPa) = 50.07475 20.44077 35.25776
#
# Velocity S-wave (km/s) = 4.73696 3.02649 3.97482
# Velocity P-wave (km/s) = 7.34469 6.29490 6.83997
#
# Compressibility (1/GPa) = 0.01865074
#
# Stress axis : x y z
#
# Youngs Moduli (GPa) = 62.72414 97.67847 126.20498
#
# Poissons Ratio (x) = 0.15951 0.52581
# Poissons Ratio (y) = 0.10243 0.24324
# Poissons Ratio (z) = 0.26133 0.18826
#
# Static dielectric constant tensor:
#      x y z
#    x 1.824240 0.000000 0.000000 
#    y 0.000000 1.844740 0.000000 
#    z 0.000000 0.000000 1.855860 
# 
# From -- ./inp_files/15780.got.cif
#   From: 2010.05.17/outbox.cif.g08.bks.cpg/sg56_8_cif.got.tgz:15780.got - 2010.06.03 13:42:01.
