data_PCOD9429580
_publ_section_title
;
Structure prediction by ZEFSAII (Michael W. Deem and Ramdas Pophale) SiO2 
 PCOD9429580
Probable space group: P C C N
;
_chemical_formula_sum "Si O2"
_cell_formula_units_Z 56
_cell_length_a 12.339858
_cell_length_b 16.576423
_cell_length_c 10.977401
_cell_angle_alpha 90.000000
_cell_angle_beta 90.000000
_cell_angle_gamma 90.000000
_cell_volume 2245.435124
_symmetry_space_group_name_H-M "P C C N"
_symmetry_group_IT_number 56
_symmetry_cell_setting 'orthorhombic'
loop_
_space_group_symop_operation_xyz
x,y,z
1/2-x,1/2-y,z
1/2+x,-y,1/2-z
-x,1/2+y,1/2-z
-x,-y,-z
1/2+x,1/2+y,-z
1/2-x,y,1/2+z
x,1/2-y,1/2+z
loop_
_atom_site_type_symbol
_atom_site_label
_atom_site_fract_x
_atom_site_fract_y
_atom_site_fract_z
Si Si1 0.733283 0.574697 0.712977
Si Si2 0.847483 0.434405 0.069938
Si Si3 0.523584 0.890820 0.375406
Si Si4 0.942082 0.285799 0.147509
Si Si5 0.440044 0.147929 0.350888
Si Si6 0.054310 0.532152 0.157999
Si Si7 0.904753 0.676160 0.060632
O O1 0.722733 0.482875 0.668001
O O2 0.644682 0.603310 0.812894
O O3 0.855441 0.600340 0.734279
O O4 0.700370 0.624306 0.589729
O O5 0.848409 0.337834 0.081970
O O6 0.967876 0.466302 0.110538
O O7 0.840631 0.465901 0.929709
O O8 0.450464 0.810198 0.352384
O O9 0.537738 0.893814 0.520144
O O10 0.460044 0.959885 0.302513
O O11 0.951802 0.327469 0.278778
O O12 0.053340 0.304031 0.072726
O O13 0.393054 0.237659 0.376026
O O14 0.998200 0.618786 0.117868
#
# Coordination Sequence:
#
# PCOD9429580 Si02
#       7
#     8   8   8   8   8   8   8
#     4  10  19  32  41  66 101 135 166 192 231 297
#     4   8  16  29  50  60  87 140 170 193 225 284
#     4   9  19  30  43  70  98 123 163 199 232 287
#     4  10  17  28  45  69  91 129 164 192 233 285
#     4  11  19  27  43  70 100 129 153 200 246 281
#     4   8  13  31  46  62  87 126 171 195 213 273
#     4   8  16  27  42  62  92 127 160 188 216 284
#
# _framework density 24.939485000000001
#
# number of rings (size 3 to 8) (size 9 to 14) (size 15 to 20)
#    0.000    3.143    2.857    1.286    2.000    0.000 
#    0.000    2.857    0.000    0.000    0.000    0.000 
#    0.000    4.571    1.143    0.000    0.000    0.000 
#
# Total GULP energy -311764.054070 kJ/mol
# GULP energy per Si atom -5567.215251 kJ/mol
# Density = 2.488272 g / cm^3
# Si number density = 24.939485 Si / 1000 Ang^3
#
#
#
# Elastic Constant Matrix: (Units=GPa)
#
#
# Indices 1 2 3 4 5 6 
#
# 1 29.2739 11.7959 -7.9912 0.0000 0.0000 0.0000
# 2 11.7959 97.9946 1.8578 0.0000 0.0000 0.0000
# 3 -7.9912 1.8578 79.1881 0.0000 0.0000 0.0000
# 4 0.0000 0.0000 0.0000 32.6397 0.0000 0.0000
# 5 0.0000 0.0000 0.0000 0.0000 14.8574 0.0000
# 6 0.0000 0.0000 0.0000 0.0000 0.0000 24.9926
#
#
#
# Elastic Compliance Matrix: (Units=1/GPa)
#
#
# Indices 1 2 3 4 5 6 
#
# 1 0.037035 -0.004531 0.003844 0.000000 0.000000 0.000000
# 2 -0.004531 0.010764 -0.000710 0.000000 0.000000 0.000000
# 3 0.003844 -0.000710 0.013033 0.000000 0.000000 0.000000
# 4 0.000000 0.000000 0.000000 0.030638 0.000000 0.000000
# 5 0.000000 0.000000 0.000000 0.000000 0.067307 0.000000
# 6 0.000000 0.000000 0.000000 0.000000 0.000000 0.040012
#
#
# Mechanical properties :
#
#
# Convention : Reuss Voigt Hill
#
# Bulk Modulus (GPa) = 17.23031 24.19796 20.71414
# Shear Modulus (GPa) = 22.63190 27.88420 25.25805
#
# Velocity S-wave (km/s) = 3.01570 3.34739 3.18586
# Velocity P-wave (km/s) = 4.36460 4.96626 4.67512
#
# Compressibility (1/GPa) = 0.05803727
#
# Stress axis : x y z
#
# Youngs Moduli (GPa) = 27.00143 92.90657 76.73014
#
# Poissons Ratio (x) = 0.42095 -0.29492
# Poissons Ratio (y) = 0.12234 0.05446
# Poissons Ratio (z) = -0.10378 0.06594
#
# Static dielectric constant tensor:
#      x y z
#    x 2.067100 0.000000 0.000000 
#    y 0.000000 2.039250 0.000000 
#    z 0.000000 0.000000 2.151970 
# 
# From -- ./inp_files/8448.got.cif
#   From: 2010.05.17/outbox.cif.g08.bks.cpg/sg56_5_cif.got.tgz:8448.got - 2010.06.03 13:42:01.
