data_PCOD9429524
_publ_section_title
;
Structure prediction by ZEFSAII (Michael W. Deem and Ramdas Pophale) SiO2 
 PCOD9429524
Probable space group: P C C N
;
_chemical_formula_sum "Si O2"
_cell_formula_units_Z 52
_cell_length_a 13.944764
_cell_length_b 8.402989
_cell_length_c 23.189891
_cell_angle_alpha 90.000000
_cell_angle_beta 90.000000
_cell_angle_gamma 90.000000
_cell_volume 2717.338056
_symmetry_space_group_name_H-M "P C C N"
_symmetry_group_IT_number 56
_symmetry_cell_setting 'orthorhombic'
loop_
_space_group_symop_operation_xyz
x,y,z
1/2-x,1/2-y,z
1/2+x,-y,1/2-z
-x,1/2+y,1/2-z
-x,-y,-z
1/2+x,1/2+y,-z
1/2-x,y,1/2+z
x,1/2-y,1/2+z
loop_
_atom_site_type_symbol
_atom_site_label
_atom_site_fract_x
_atom_site_fract_y
_atom_site_fract_z
Si Si1 0.464366 0.173833 0.078609
Si Si2 0.750000 0.250000 0.517760
Si Si3 0.635502 0.968983 0.018664
Si Si4 0.393218 0.925073 0.395294
Si Si5 0.000861 0.005062 0.695493
Si Si6 0.138652 0.715521 0.269024
Si Si7 0.149388 0.219413 0.368463
O O1 0.546039 0.062287 0.048390
O O2 0.504655 0.349464 0.088379
O O3 0.450998 0.097500 0.141454
O O4 0.384093 0.160675 0.030157
O O5 0.808416 0.111966 0.487176
O O6 0.678509 0.148675 0.557889
O O7 0.677654 0.885336 0.075410
O O8 0.360636 0.849461 0.334581
O O9 0.393114 0.113448 0.389518
O O10 0.082573 0.917288 0.732014
O O11 0.927725 0.875232 0.668794
O O12 0.931470 0.129403 0.729225
O O13 0.250000 0.750000 0.252485
O O14 0.250000 0.250000 0.336312
#
# Coordination Sequence:
#
# PCOD9429524 Si02
#       7
#     8   4   8   8   8   8   8
#     4   8  18  34  50  72 109 146 180 237 285 350
#     4  10  16  30  50  78 102 142 188 230 284 342
#     4   9  17  31  51  75 108 141 187 229 291 342
#     4  10  18  31  54  79 109 144 190 240 291 332
#     4  10  22  37  57  85 117 152 199 239 302 348
#     4  11  21  38  60  85 117 159 198 249 296 359
#     4  11  19  31  55  88 114 146 195 250 286 354
#
# _framework density 19.136374
#
# number of rings (size 3 to 8) (size 9 to 14) (size 15 to 20)
#    0.000    2.154    2.308    2.769    0.000    0.615 
#    1.385    0.000    0.000    3.692    0.000    0.000 
#    0.000    0.000    0.000    0.000    0.000    0.000 
#
# Total GULP energy -289517.625431 kJ/mol
# GULP energy per Si atom -5567.646643 kJ/mol
# Density = 1.909282 g / cm^3
# Si number density = 19.136374 Si / 1000 Ang^3
#
#
#
# Elastic Constant Matrix: (Units=GPa)
#
#
# Indices 1 2 3 4 5 6 
#
# 1 48.6374 7.5671 20.2544 0.0000 0.0000 0.0000
# 2 7.5671 87.4388 2.3481 0.0000 0.0000 0.0000
# 3 20.2544 2.3481 30.1630 0.0000 0.0000 0.0000
# 4 0.0000 0.0000 0.0000 -0.4764 0.0000 0.0000
# 5 0.0000 0.0000 0.0000 0.0000 -2.8731 0.0000
# 6 0.0000 0.0000 0.0000 0.0000 0.0000 24.2847
#
#
#
# Elastic Compliance Matrix: (Units=1/GPa)
#
#
# Indices 1 2 3 4 5 6 
#
# 1 0.028881 -0.001983 -0.019239 0.000000 0.000000 0.000000
# 2 -0.001983 0.011597 0.000429 0.000000 0.000000 0.000000
# 3 -0.019239 0.000429 0.046039 0.000000 0.000000 0.000000
# 4 0.000000 0.000000 0.000000 -2.099003 0.000000 0.000000
# 5 0.000000 0.000000 0.000000 0.000000 -0.348056 0.000000
# 6 0.000000 0.000000 0.000000 0.000000 0.000000 0.041178
#
#
# Mechanical properties :
#
#
# Convention : Reuss Voigt Hill
#
# Bulk Modulus (GPa) = 22.25685 25.17535 23.71610
# Shear Modulus (GPa) = -2.20965 13.25834 5.52434
#
# Velocity S-wave (km/s) = -1.07573 2.63503 1.70091
# Velocity P-wave (km/s) = 3.18009 4.73732 4.03455
#
# Compressibility (1/GPa) = 0.04492998
#
# Stress axis : x y z
#
# Youngs Moduli (GPa) = 34.62540 86.23179 21.72087
#
# Poissons Ratio (x) = 0.17097 0.41788
# Poissons Ratio (y) = 0.06865 -0.00931
# Poissons Ratio (z) = 0.66615 -0.03696
#
# Static dielectric constant tensor:
#      x y z
#    x 1.756150 0.000000 0.000000 
#    y 0.000000 1.654960 0.000000 
#    z 0.000000 0.000000 1.659680 
# 
# From -- ./inp_files/21101.got.cif
#   From: 2010.05.17/outbox.cif.g08.bks.cpg/sg56_11_cif.got.tgz:21101.got - 2010.06.03 13:42:01.
