data_PCOD9429721
_publ_section_title
;
Structure prediction by ZEFSAII (Michael W. Deem and Ramdas Pophale) SiO2 
 PCOD9429721
Probable space group: P C C N
;
_chemical_formula_sum "Si O2"
_cell_formula_units_Z 40
_cell_length_a 10.371569
_cell_length_b 8.242963
_cell_length_c 24.043409
_cell_angle_alpha 90.000000
_cell_angle_beta 90.000000
_cell_angle_gamma 90.000000
_cell_volume 2055.530171
_symmetry_space_group_name_H-M "P C C N"
_symmetry_group_IT_number 56
_symmetry_cell_setting 'orthorhombic'
loop_
_space_group_symop_operation_xyz
x,y,z
1/2-x,1/2-y,z
1/2+x,-y,1/2-z
-x,1/2+y,1/2-z
-x,-y,-z
1/2+x,1/2+y,-z
1/2-x,y,1/2+z
x,1/2-y,1/2+z
loop_
_atom_site_type_symbol
_atom_site_label
_atom_site_fract_x
_atom_site_fract_y
_atom_site_fract_z
Si Si1 0.406201 0.262426 0.378142
Si Si2 0.582759 0.430869 0.550697
Si Si3 0.894606 0.809615 0.249167
Si Si4 0.129142 0.847284 0.793979
Si Si5 0.625983 0.431154 0.078878
O O1 0.250000 0.250000 0.380657
O O2 0.446174 0.438185 0.400560
O O3 0.438805 0.243972 0.313158
O O4 0.447067 0.105243 0.415962
O O5 0.500000 0.500000 0.500000
O O6 0.739598 0.444110 0.545006
O O7 0.558564 0.238424 0.561264
O O8 0.750000 0.750000 0.258896
O O9 0.997290 0.750693 0.293501
O O10 0.892466 0.000750 0.244859
O O11 0.250000 0.750000 0.771967
O O12 0.163282 0.902224 0.856270
#
# Coordination Sequence:
#
# PCOD9429721 Si02
#       5
#     8   8   8   8   8
#     4   8  17  33  52  79 112 144 187 235 287 353
#     4  10  18  31  58  81 104 148 197 238 296 346
#     4  10  21  33  56  88 120 158 198 240 292 357
#     4  11  20  35  60  86 119 162 195 238 299 365
#     4   9  19  35  54  82 112 145 192 240 297 355
#
# _framework density 19.459700999999999
#
# number of rings (size 3 to 8) (size 9 to 14) (size 15 to 20)
#    0.000    2.400    2.000    2.400    2.800    0.800 
#    0.000    0.000    4.400    8.400    0.000    0.000 
#    0.000    0.000    0.000    0.000    0.000    0.000 
#
# Total GULP energy -222688.731491 kJ/mol
# GULP energy per Si atom -5567.218287 kJ/mol
# Density = 1.941541 g / cm^3
# Si number density = 19.459701 Si / 1000 Ang^3
#
#
#
# Elastic Constant Matrix: (Units=GPa)
#
#
# Indices 1 2 3 4 5 6 
#
# 1 71.8355 37.4755 27.3129 0.0000 0.0000 0.0000
# 2 37.4755 133.0946 23.5260 0.0000 0.0000 0.0000
# 3 27.3129 23.5260 36.9385 0.0000 0.0000 0.0000
# 4 0.0000 0.0000 0.0000 34.3060 0.0000 0.0000
# 5 0.0000 0.0000 0.0000 0.0000 23.0297 0.0000
# 6 0.0000 0.0000 0.0000 0.0000 0.0000 21.1048
#
#
#
# Elastic Compliance Matrix: (Units=1/GPa)
#
#
# Indices 1 2 3 4 5 6 
#
# 1 0.020736 -0.003525 -0.013087 0.000000 0.000000 0.000000
# 2 -0.003525 0.009066 -0.003167 0.000000 0.000000 0.000000
# 3 -0.013087 -0.003167 0.038766 0.000000 0.000000 0.000000
# 4 0.000000 0.000000 0.000000 0.029149 0.000000 0.000000
# 5 0.000000 0.000000 0.000000 0.000000 0.043422 0.000000
# 6 0.000000 0.000000 0.000000 0.000000 0.000000 0.047383
#
#
# Mechanical properties :
#
#
# Convention : Reuss Voigt Hill
#
# Bulk Modulus (GPa) = 34.47293 46.49971 40.48632
# Shear Modulus (GPa) = 21.03043 25.92505 23.47774
#
# Velocity S-wave (km/s) = 3.29099 3.65395 3.47721
# Velocity P-wave (km/s) = 5.67400 6.46135 6.08044
#
# Compressibility (1/GPa) = 0.02900827
#
# Stress axis : x y z
#
# Youngs Moduli (GPa) = 48.22612 110.30290 25.79570
#
# Poissons Ratio (x) = 0.38885 0.33759
# Poissons Ratio (y) = 0.17001 0.08171
# Poissons Ratio (z) = 0.63114 0.34938
#
# Static dielectric constant tensor:
#      x y z
#    x 1.624180 0.000000 0.000000 
#    y 0.000000 1.805050 0.000000 
#    z 0.000000 0.000000 1.675300 
# 
# From -- ./inp_files/20334.got.cif
#   From: 2010.05.17/outbox.cif.g08.bks.cpg/sg56_11_cif.got.tgz:20334.got - 2010.06.03 13:42:01.
