data_PCOD9429798
_publ_section_title
;
Structure prediction by ZEFSAII (Michael W. Deem and Ramdas Pophale) SiO2 
 PCOD9429798
Probable space group: P C C N
;
_chemical_formula_sum "Si O2"
_cell_formula_units_Z 48
_cell_length_a 8.343810
_cell_length_b 7.552060
_cell_length_c 36.839415
_cell_angle_alpha 90.000000
_cell_angle_beta 90.000000
_cell_angle_gamma 90.000000
_cell_volume 2321.360354
_symmetry_space_group_name_H-M "P C C N"
_symmetry_group_IT_number 56
_symmetry_cell_setting 'orthorhombic'
loop_
_space_group_symop_operation_xyz
x,y,z
1/2-x,1/2-y,z
1/2+x,-y,1/2-z
-x,1/2+y,1/2-z
-x,-y,-z
1/2+x,1/2+y,-z
1/2-x,y,1/2+z
x,1/2-y,1/2+z
loop_
_atom_site_type_symbol
_atom_site_label
_atom_site_fract_x
_atom_site_fract_y
_atom_site_fract_z
Si Si1 0.696116 0.955725 0.838667
Si Si2 0.434250 0.037560 0.459594
Si Si3 0.935406 0.537293 0.040471
Si Si4 0.748806 0.453972 0.919254
Si Si5 0.853084 0.574823 0.267158
Si Si6 0.403116 0.832359 0.802356
O O1 0.750000 0.750000 0.840710
O O2 0.770632 0.025214 0.800987
O O3 0.508744 0.940847 0.830655
O O4 0.746318 0.041961 0.875812
O O5 0.424858 0.250145 0.454611
O O6 0.249526 0.971113 0.455059
O O7 0.579788 0.969697 0.433823
O O8 0.500000 0.000000 0.500000
O O9 0.081938 0.469173 0.065969
O O10 0.000000 0.500000 0.000000
O O11 0.750000 0.250000 0.931896
O O12 0.750000 0.750000 0.257943
O O13 0.872385 0.456978 0.232139
O O14 0.010382 0.661399 0.284524
O O15 0.250000 0.750000 0.820888
#
# Coordination Sequence:
#
# PCOD9429798 Si02
#       6
#     8   8   8   8   8   8
#     4   9  21  38  53  78 113 144 182 226 281 339
#     4  10  20  35  58  82 112 145 181 234 281 327
#     4  10  20  35  57  85 110 140 191 229 274 344
#     4  10  21  38  56  79 115 150 185 233 283 334
#     4   9  19  34  56  83 111 145 186 235 284 344
#     4  10  18  34  57  81 111 142 188 238 281 339
#
# _framework density 20.677530999999998
#
# number of rings (size 3 to 8) (size 9 to 14) (size 15 to 20)
#    0.000    2.667    1.667    2.000    0.000    3.333 
#    6.000    0.000    3.667    0.000    0.000    0.000 
#    0.000    0.000    0.000    0.000    0.000    0.000 
#
# Total GULP energy -267311.595444 kJ/mol
# GULP energy per Si atom -5568.991572 kJ/mol
# Density = 2.063047 g / cm^3
# Si number density = 20.677531 Si / 1000 Ang^3
#
#
#
# Elastic Constant Matrix: (Units=GPa)
#
#
# Indices 1 2 3 4 5 6 
#
# 1 181.0511 18.2917 57.4695 0.0000 0.0000 0.0000
# 2 18.2917 38.0134 1.2316 0.0000 0.0000 0.0000
# 3 57.4695 1.2316 96.2179 0.0000 0.0000 0.0000
# 4 0.0000 0.0000 0.0000 20.2547 0.0000 0.0000
# 5 0.0000 0.0000 0.0000 0.0000 0.9354 0.0000
# 6 0.0000 0.0000 0.0000 0.0000 0.0000 5.4510
#
#
#
# Elastic Compliance Matrix: (Units=1/GPa)
#
#
# Indices 1 2 3 4 5 6 
#
# 1 0.007214 -0.003333 -0.004266 0.000000 0.000000 0.000000
# 2 -0.003333 0.027857 0.001634 0.000000 0.000000 0.000000
# 3 -0.004266 0.001634 0.012920 0.000000 0.000000 0.000000
# 4 0.000000 0.000000 0.000000 0.049371 0.000000 0.000000
# 5 0.000000 0.000000 0.000000 0.000000 1.069009 0.000000
# 6 0.000000 0.000000 0.000000 0.000000 0.000000 0.183453
#
#
# Mechanical properties :
#
#
# Convention : Reuss Voigt Hill
#
# Bulk Modulus (GPa) = 27.73029 52.14090 39.93559
# Shear Modulus (GPa) = 3.63960 21.21419 12.42690
#
# Velocity S-wave (km/s) = 1.32815 3.20653 2.45416
# Velocity P-wave (km/s) = 3.97391 6.24340 5.23316
#
# Compressibility (1/GPa) = 0.03606165
#
# Stress axis : x y z
#
# Youngs Moduli (GPa) = 138.61398 35.89699 77.39721
#
# Poissons Ratio (x) = 0.11965 0.33020
# Poissons Ratio (y) = 0.46203 -0.12649
# Poissons Ratio (z) = 0.59137 -0.05867
#
# Static dielectric constant tensor:
#      x y z
#    x 1.878290 0.000000 0.000000 
#    y 0.000000 1.899810 0.000000 
#    z 0.000000 0.000000 1.700990 
# 
# From -- ./inp_files/23220.got.cif
#   From: 2010.05.17/outbox.cif.g08.bks.cpg/sg56_12_cif.got.tgz:23220.got - 2010.06.03 13:42:01.
