data_PCOD9429638
_publ_section_title
;
Structure prediction by ZEFSAII (Michael W. Deem and Ramdas Pophale) SiO2 
 PCOD9429638
Probable space group: P C C N
;
_chemical_formula_sum "Si O2"
_cell_formula_units_Z 60
_cell_length_a 13.331972
_cell_length_b 13.053088
_cell_length_c 18.393510
_cell_angle_alpha 90.000000
_cell_angle_beta 90.000000
_cell_angle_gamma 90.000000
_cell_volume 3200.901217
_symmetry_space_group_name_H-M "P C C N"
_symmetry_group_IT_number 56
_symmetry_cell_setting 'orthorhombic'
loop_
_space_group_symop_operation_xyz
x,y,z
1/2-x,1/2-y,z
1/2+x,-y,1/2-z
-x,1/2+y,1/2-z
-x,-y,-z
1/2+x,1/2+y,-z
1/2-x,y,1/2+z
x,1/2-y,1/2+z
loop_
_atom_site_type_symbol
_atom_site_label
_atom_site_fract_x
_atom_site_fract_y
_atom_site_fract_z
Si Si1 0.492136 0.904087 0.083437
Si Si2 0.116289 0.391793 0.049508
Si Si3 0.976187 0.812939 0.886551
Si Si4 0.669263 0.339755 0.838253
Si Si5 0.476680 0.236780 0.781259
Si Si6 0.139142 0.732284 0.503118
Si Si7 0.250000 0.250000 0.248367
Si Si8 0.701962 0.561417 0.858430
O O1 0.503039 0.856191 0.162681
O O2 0.457697 0.021423 0.082698
O O3 0.592817 0.891941 0.035911
O O4 0.411823 0.835664 0.037005
O O5 0.091723 0.281550 0.083618
O O6 0.225132 0.426747 0.073324
O O7 0.998673 0.789964 0.802448
O O8 0.910140 0.914996 0.884706
O O9 0.068739 0.813107 0.941196
O O10 0.750000 0.250000 0.821042
O O11 0.560786 0.319330 0.803536
O O12 0.711435 0.451329 0.821509
O O13 0.653154 0.336566 0.925338
O O14 0.358085 0.264544 0.787719
O O15 0.250000 0.750000 0.473242
O O16 0.268130 0.349615 0.198145
#
# Coordination Sequence:
#
# PCOD9429638 Si02
#       8
#     8   8   8   8   8   8   4   8
#     4   9  20  33  61  86 111 158 204 258 296 360
#     4  10  17  36  58  85 111 156 209 243 302 367
#     4  10  21  33  58  81 120 158 193 251 306 369
#     4  10  22  39  63  89 118 165 207 257 305 362
#     4  10  20  41  56  91 124 158 207 246 308 370
#     4   9  18  37  54  82 117 155 201 256 304 358
#     4  10  22  40  58  90 126 170 190 252 310 372
#     4  11  19  38  60  85 118 161 202 245 319 356
#
# _framework density 18.744721999999999
#
# number of rings (size 3 to 8) (size 9 to 14) (size 15 to 20)
#    0.000    2.133    2.667    2.400    0.000    3.200 
#   12.000    0.000    5.867    0.000    0.000    0.000 
#    0.000    0.000    0.000    0.000    0.000    0.000 
#
# Total GULP energy -334399.982365 kJ/mol
# GULP energy per Si atom -5573.333039 kJ/mol
# Density = 1.870206 g / cm^3
# Si number density = 18.744722 Si / 1000 Ang^3
#
#
#
# Elastic Constant Matrix: (Units=GPa)
#
#
# Indices 1 2 3 4 5 6 
#
# 1 121.1218 16.0347 26.7121 0.0000 0.0000 0.0000
# 2 16.0347 93.6095 3.3848 0.0000 0.0000 0.0000
# 3 26.7121 3.3848 51.8103 0.0000 0.0000 0.0000
# 4 0.0000 0.0000 0.0000 10.0517 0.0000 0.0000
# 5 0.0000 0.0000 0.0000 0.0000 35.4230 0.0000
# 6 0.0000 0.0000 0.0000 0.0000 0.0000 22.1250
#
#
#
# Elastic Compliance Matrix: (Units=1/GPa)
#
#
# Indices 1 2 3 4 5 6 
#
# 1 0.009509 -0.001455 -0.004808 0.000000 0.000000 0.000000
# 2 -0.001455 0.010931 0.000036 0.000000 0.000000 0.000000
# 3 -0.004808 0.000036 0.021777 0.000000 0.000000 0.000000
# 4 0.000000 0.000000 0.000000 0.099486 0.000000 0.000000
# 5 0.000000 0.000000 0.000000 0.000000 0.028230 0.000000
# 6 0.000000 0.000000 0.000000 0.000000 0.000000 0.045198
#
#
# Mechanical properties :
#
#
# Convention : Reuss Voigt Hill
#
# Bulk Modulus (GPa) = 33.59750 39.86720 36.73235
# Shear Modulus (GPa) = 21.05213 28.21393 24.63303
#
# Velocity S-wave (km/s) = 3.35490 3.88386 3.62903
# Velocity P-wave (km/s) = 5.74193 6.43639 6.09905
#
# Compressibility (1/GPa) = 0.02976412
#
# Stress axis : x y z
#
# Youngs Moduli (GPa) = 105.16321 91.48628 45.91897
#
# Poissons Ratio (x) = 0.13311 0.22076
# Poissons Ratio (y) = 0.15301 -0.00166
# Poissons Ratio (z) = 0.50558 -0.00330
#
# Static dielectric constant tensor:
#      x y z
#    x 1.692530 0.000000 0.000000 
#    y 0.000000 1.672770 0.000000 
#    z 0.000000 0.000000 1.629640 
# 
# From -- ./inp_files/16316.got.cif
#   From: 2010.05.17/outbox.cif.g08.bks.cpg/sg56_9_cif.got.tgz:16316.got - 2010.06.03 13:42:01.
