data_PCOD9429287
_publ_section_title
;
Structure prediction by ZEFSAII (Michael W. Deem and Ramdas Pophale) SiO2 
 PCOD9429287
Probable space group: P B A M
;
_chemical_formula_sum "Si O2"
_cell_formula_units_Z 64
_cell_length_a 24.000000
_cell_length_b 18.000000
_cell_length_c 9.000000
_cell_angle_alpha 90.000000
_cell_angle_beta 90.000000
_cell_angle_gamma 90.000000
_cell_volume 3888.000000
_symmetry_space_group_name_H-M "P B A M"
_symmetry_group_IT_number 55
_symmetry_cell_setting 'orthorhombic'
loop_
_space_group_symop_operation_xyz
x,y,z
-x,-y,z
1/2+x,1/2-y,-z
1/2-x,1/2+y,-z
-x,-y,-z
x,y,-z
1/2-x,1/2+y,z
1/2+x,1/2-y,z
loop_
_atom_site_type_symbol
_atom_site_label
_atom_site_fract_x
_atom_site_fract_y
_atom_site_fract_z
Si Si1 0.763553 0.191127 0.334473
Si Si2 0.069859 0.117576 0.322777
Si Si3 0.951681 0.177602 0.320679
Si Si4 0.226060 0.957095 0.175992
Si Si5 0.399542 0.469320 0.178632
Si Si6 0.192805 0.171153 0.673233
Si Si7 0.630015 0.800955 0.328143
Si Si8 0.705737 0.912500 0.823812
O O1 0.765171 0.157580 0.500000
O O2 0.709581 0.242673 0.320455
O O3 0.817507 0.244027 0.322251
O O4 0.766369 0.127904 0.214576
O O5 0.068749 0.102943 0.500000
O O6 0.066319 0.039613 0.237733
O O7 0.129432 0.154036 0.286760
O O8 0.016991 0.168907 0.288130
O O9 0.943873 0.173021 0.500000
O O10 0.922358 0.253820 0.270505
O O11 0.921456 0.107269 0.246796
O O12 0.164667 0.980530 0.231276
O O13 0.277780 0.005642 0.231877
O O14 0.224196 0.968065 0.000000
O O15 0.401244 0.465996 0.000000
O O16 0.202155 0.148136 0.500000
O O17 0.238057 0.131458 0.776684
O O18 0.620304 0.819520 0.500000
O O19 0.652328 0.873228 0.245741
O O20 0.699441 0.910565 0.000000
#
# Coordination Sequence:
#
# PCOD9429287 Si02
#       8
#     8   8   8   8   8   8   8   8
#     4   9  17  29  47  67  89 117 149 189 231 273
#     4  10  20  33  50  67  91 128 163 194 230 272
#     4  10  20  34  49  67  92 126 164 195 228 273
#     4  10  20  31  44  67  95 123 153 185 228 275
#     4  11  21  32  44  65  98 130 161 195 227 265
#     4   9  18  32  47  68  92 118 154 193 231 271
#     4   9  18  32  47  67  92 118 153 194 232 272
#     4  10  19  31  47  67  92 120 152 189 231 278
#
# _framework density 16.460905
#
# number of rings (size 3 to 8) (size 9 to 14) (size 15 to 20)
#    0.000    2.250    2.500    1.875    0.000    6.000 
#    0.000    0.000    0.000    0.000    0.000    0.875 
#    0.000    7.000    0.000    0.000    0.000    0.000 
#
# Total GULP energy -356465.038642 kJ/mol
# GULP energy per Si atom -5569.766229 kJ/mol
# Density = 1.642344 g / cm^3
# Si number density = 16.460905 Si / 1000 Ang^3
#
#
#
# Elastic Constant Matrix: (Units=GPa)
#
#
# Indices 1 2 3 4 5 6 
#
# 1 28.2062 0.7796 2.7984 0.0000 0.0000 0.0000
# 2 0.7796 5.2617 -0.3987 0.0000 0.0000 0.0000
# 3 2.7984 -0.3987 1.7961 0.0000 0.0000 0.0000
# 4 0.0000 0.0000 0.0000 20.3341 0.0000 0.0000
# 5 0.0000 0.0000 0.0000 0.0000 14.3668 0.0000
# 6 0.0000 0.0000 0.0000 0.0000 0.0000 25.8850
#
#
#
# Elastic Compliance Matrix: (Units=1/GPa)
#
#
# Indices 1 2 3 4 5 6 
#
# 1 0.042613 -0.011540 -0.068955 0.000000 0.000000 0.000000
# 2 -0.011540 0.196430 0.061587 0.000000 0.000000 0.000000
# 3 -0.068955 0.061587 0.677876 0.000000 0.000000 0.000000
# 4 0.000000 0.000000 0.000000 0.049178 0.000000 0.000000
# 5 0.000000 0.000000 0.000000 0.000000 0.069605 0.000000
# 6 0.000000 0.000000 0.000000 0.000000 0.000000 0.038632
#
#
# Mechanical properties :
#
#
# Convention : Reuss Voigt Hill
#
# Bulk Modulus (GPa) = 1.13752 4.62473 2.88112
# Shear Modulus (GPa) = 3.55825 14.25617 8.90721
#
# Velocity S-wave (km/s) = 1.47185 2.94609 2.32871
# Velocity P-wave (km/s) = 1.89235 3.79318 2.99743
#
# Compressibility (1/GPa) = 0.87910480
#
# Stress axis : x y z
#
# Youngs Moduli (GPa) = 23.46691 5.09087 1.47520
#
# Poissons Ratio (x) = 0.05875 0.10172
# Poissons Ratio (y) = 0.27080 -0.09085
# Poissons Ratio (z) = 1.61816 -0.31353
#
# Static dielectric constant tensor:
#      x y z
#    x 1.566030 0.000000 0.000000 
#    y 0.000000 1.569280 0.000000 
#    z 0.000000 0.000000 1.562630 
# 
# From -- ./inp_files/8142.got.cif
#   From: 2010.05.17/outbox.ucp.g08.bks.cvg/sg55_5_cif.got.tgz:8142.got - 2010.06.11 16:36:00.
