data_PCOD9429463
_publ_section_title
;
Structure prediction by ZEFSAII (Michael W. Deem and Ramdas Pophale) SiO2 
 PCOD9429463
Probable space group: P B A M
;
_chemical_formula_sum "Si O2"
_cell_formula_units_Z 40
_cell_length_a 9.000000
_cell_length_b 15.000000
_cell_length_c 15.000000
_cell_angle_alpha 90.000000
_cell_angle_beta 90.000000
_cell_angle_gamma 90.000000
_cell_volume 2025.000000
_symmetry_space_group_name_H-M "P B A M"
_symmetry_group_IT_number 55
_symmetry_cell_setting 'orthorhombic'
loop_
_space_group_symop_operation_xyz
x,y,z
-x,-y,z
1/2+x,1/2-y,-z
1/2-x,1/2+y,-z
-x,-y,-z
x,y,-z
1/2-x,1/2+y,z
1/2+x,1/2-y,z
loop_
_atom_site_type_symbol
_atom_site_label
_atom_site_fract_x
_atom_site_fract_y
_atom_site_fract_z
Si Si1 0.671834 0.028790 0.196927
Si Si2 0.407932 0.255825 0.312202
Si Si3 0.162556 0.154785 0.195461
Si Si4 0.544354 0.292967 0.000000
Si Si5 0.843079 0.630361 0.392536
Si Si6 0.283735 0.877184 0.000000
O O1 0.675501 0.071852 0.298561
O O2 0.500000 0.000000 0.186394
O O3 0.785094 0.946563 0.201955
O O4 0.709689 0.076460 0.099960
O O5 0.300242 0.211391 0.237270
O O6 0.522033 0.318715 0.257320
O O7 0.300873 0.306697 0.380905
O O8 0.507581 0.185155 0.367157
O O9 0.121890 0.174697 0.092285
O O10 0.573001 0.187342 0.000000
O O11 0.373199 0.323823 0.000000
O O12 0.850183 0.600344 0.500000
#
# Coordination Sequence:
#
# PCOD9429463 Si02
#       6
#     8   8   8   4   8   4
#     4  12  26  44  66 100 137 179 215 278 339 391
#     4  10  22  43  67  96 131 175 221 275 325 395
#     4  11  23  43  67  95 135 173 223 271 336 394
#     4  12  25  41  71  99 128 181 225 275 319 396
#     4  11  23  43  69  99 133 174 225 273 330 393
#     4  12  28  45  70  98 138 174 225 269 332 396
#
# _framework density 19.753086
#
# number of rings (size 3 to 8) (size 9 to 14) (size 15 to 20)
#    0.000    0.800    2.000    6.300    2.800    4.400 
#    0.000    3.000    0.000    0.000    0.000    0.000 
#    0.000    0.000    0.000    0.000    0.000    0.000 
#
# Total GULP energy -222892.248537 kJ/mol
# GULP energy per Si atom -5572.306213 kJ/mol
# Density = 1.970813 g / cm^3
# Si number density = 19.753086 Si / 1000 Ang^3
#
#
#
# Elastic Constant Matrix: (Units=GPa)
#
#
# Indices 1 2 3 4 5 6 
#
# 1 126.5413 38.5239 42.7762 0.0000 0.0000 0.0000
# 2 38.5239 68.8971 48.7488 0.0000 0.0000 0.0000
# 3 42.7762 48.7488 194.7792 0.0000 0.0000 0.0000
# 4 0.0000 0.0000 0.0000 36.7580 0.0000 0.0000
# 5 0.0000 0.0000 0.0000 0.0000 31.0797 0.0000
# 6 0.0000 0.0000 0.0000 0.0000 0.0000 32.9711
#
#
#
# Elastic Compliance Matrix: (Units=1/GPa)
#
#
# Indices 1 2 3 4 5 6 
#
# 1 0.009662 -0.004741 -0.000935 0.000000 0.000000 0.000000
# 2 -0.004741 0.019964 -0.003955 0.000000 0.000000 0.000000
# 3 -0.000935 -0.003955 0.006329 0.000000 0.000000 0.000000
# 4 0.000000 0.000000 0.000000 0.027205 0.000000 0.000000
# 5 0.000000 0.000000 0.000000 0.000000 0.032175 0.000000
# 6 0.000000 0.000000 0.000000 0.000000 0.000000 0.030330
#
#
# Mechanical properties :
#
#
# Convention : Reuss Voigt Hill
#
# Bulk Modulus (GPa) = 59.90788 72.25726 66.08257
# Shear Modulus (GPa) = 33.22435 37.50635 35.36535
#
# Velocity S-wave (km/s) = 4.10565 4.36220 4.23587
# Velocity P-wave (km/s) = 7.27113 7.87600 7.57960
#
# Compressibility (1/GPa) = 0.01669230
#
# Stress axis : x y z
#
# Youngs Moduli (GPa) = 103.49827 50.09068 157.99311
#
# Poissons Ratio (x) = 0.23746 0.14779
# Poissons Ratio (y) = 0.49065 0.62492
# Poissons Ratio (z) = 0.09682 0.19813
#
# Static dielectric constant tensor:
#      x y z
#    x 1.691060 0.000000 0.000000 
#    y 0.000000 1.780980 0.000000 
#    z 0.000000 0.000000 1.709910 
# 
# From -- ./inp_files/17131.got.cif
#   From: 2010.05.17/outbox.ucp.g08.bks.cvg/sg55_9_cif.got.tgz:17131.got - 2010.06.11 16:36:00.
