data_PCOD9429582
_publ_section_title
;
Structure prediction by ZEFSAII (Michael W. Deem and Ramdas Pophale) SiO2 
 PCOD9429582
Probable space group: P C C N
;
_chemical_formula_sum "Si O2"
_cell_formula_units_Z 48
_cell_length_a 6.577613
_cell_length_b 27.230099
_cell_length_c 9.501192
_cell_angle_alpha 90.000000
_cell_angle_beta 90.000000
_cell_angle_gamma 90.000000
_cell_volume 1701.749503
_symmetry_space_group_name_H-M "P C C N"
_symmetry_group_IT_number 56
_symmetry_cell_setting 'orthorhombic'
loop_
_space_group_symop_operation_xyz
x,y,z
1/2-x,1/2-y,z
1/2+x,-y,1/2-z
-x,1/2+y,1/2-z
-x,-y,-z
1/2+x,1/2+y,-z
1/2-x,y,1/2+z
x,1/2-y,1/2+z
loop_
_atom_site_type_symbol
_atom_site_label
_atom_site_fract_x
_atom_site_fract_y
_atom_site_fract_z
Si Si1 0.113264 0.614079 0.391770
Si Si2 0.894522 0.854306 0.157278
Si Si3 0.944364 0.184029 0.339235
Si Si4 0.722436 0.948718 0.798807
Si Si5 0.738714 0.013303 0.540354
Si Si6 0.033351 0.230295 0.616395
O O1 0.256131 0.572317 0.458591
O O2 0.027335 0.648773 0.515920
O O3 0.178734 0.643699 0.252339
O O4 0.917474 0.583295 0.340658
O O5 0.657310 0.843137 0.122096
O O6 0.912718 0.909525 0.216105
O O7 0.930739 0.815253 0.279674
O O8 0.899372 0.210620 0.486846
O O9 0.964949 0.227039 0.223169
O O10 0.772177 0.993354 0.696245
O O11 0.645996 0.975863 0.936928
O O12 0.500000 0.000000 0.500000
O O13 0.250000 0.250000 0.556075
#
# Coordination Sequence:
#
# PCOD9429582 Si02
#       6
#     8   8   8   8   8   8
#     4  10  20  33  50  70 104 143 177 213 255 301
#     4  10  17  28  46  69 101 139 167 205 253 312
#     4  10  18  28  44  71 101 139 166 202 249 316
#     4  10  18  32  52  69 101 138 176 219 266 295
#     4  10  20  36  51  72 100 142 181 223 260 305
#     4  10  18  26  44  71 104 137 170 195 250 324
#
# _framework density 28.206267
#
# number of rings (size 3 to 8) (size 9 to 14) (size 15 to 20)
#    0.000    2.000    3.333    5.500    2.333    0.000 
#    0.000    5.000    0.000    0.000    0.000    0.000 
#    0.000   16.000    0.000    0.000    0.000    0.000 
#
# Total GULP energy -268948.723883 kJ/mol
# GULP energy per Si atom -5603.098414 kJ/mol
# Density = 2.814207 g / cm^3
# Si number density = 28.206267 Si / 1000 Ang^3
#
#
#
# Elastic Constant Matrix: (Units=GPa)
#
#
# Indices 1 2 3 4 5 6 
#
# 1 93.3035 28.1765 24.2232 0.0000 0.0000 0.0000
# 2 28.1765 141.4030 49.5413 0.0000 0.0000 0.0000
# 3 24.2232 49.5413 153.0436 0.0000 0.0000 0.0000
# 4 0.0000 0.0000 0.0000 73.0227 0.0000 0.0000
# 5 0.0000 0.0000 0.0000 0.0000 29.8484 0.0000
# 6 0.0000 0.0000 0.0000 0.0000 0.0000 60.4420
#
#
#
# Elastic Compliance Matrix: (Units=1/GPa)
#
#
# Indices 1 2 3 4 5 6 
#
# 1 0.011605 -0.001882 -0.001227 0.000000 0.000000 0.000000
# 2 -0.001882 0.008282 -0.002383 0.000000 0.000000 0.000000
# 3 -0.001227 -0.002383 0.007500 0.000000 0.000000 0.000000
# 4 0.000000 0.000000 0.000000 0.013694 0.000000 0.000000
# 5 0.000000 0.000000 0.000000 0.000000 0.033503 0.000000
# 6 0.000000 0.000000 0.000000 0.000000 0.000000 0.016545
#
#
# Mechanical properties :
#
#
# Convention : Reuss Voigt Hill
#
# Bulk Modulus (GPa) = 60.97215 65.73691 63.35453
# Shear Modulus (GPa) = 46.47663 51.71656 49.09660
#
# Velocity S-wave (km/s) = 4.06364 4.28660 4.17661
# Velocity P-wave (km/s) = 6.60916 6.91782 6.76525
#
# Compressibility (1/GPa) = 0.01640093
#
# Stress axis : x y z
#
# Youngs Moduli (GPa) = 86.17096 120.74412 133.33775
#
# Poissons Ratio (x) = 0.22729 0.16366
# Poissons Ratio (y) = 0.16221 0.31774
# Poissons Ratio (z) = 0.10577 0.28773
#
# Static dielectric constant tensor:
#      x y z
#    x 2.428460 0.000000 0.000000 
#    y 0.000000 1.919010 0.000000 
#    z 0.000000 0.000000 1.500140 
# 
# From -- ./inp_files/2233.got.cif
#   From: 2010.05.17/outbox.cif.g08.bks.cpg/sg56_2_cif.got.tgz:2233.got - 2010.06.03 13:42:01.
