data_PCOD9429044
_publ_section_title
;
Structure prediction by ZEFSAII (Michael W. Deem and Ramdas Pophale) SiO2 
 PCOD9429044
Probable space group: P B A M
;
_chemical_formula_sum "Si O2"
_cell_formula_units_Z 64
_cell_length_a 11.736809
_cell_length_b 33.917158
_cell_length_c 8.881138
_cell_angle_alpha 90.000000
_cell_angle_beta 90.000000
_cell_angle_gamma 90.000000
_cell_volume 3535.396357
_symmetry_space_group_name_H-M "P B A M"
_symmetry_group_IT_number 55
_symmetry_cell_setting 'orthorhombic'
loop_
_space_group_symop_operation_xyz
x,y,z
-x,-y,z
1/2+x,1/2-y,-z
1/2-x,1/2+y,-z
-x,-y,-z
x,y,-z
1/2-x,1/2+y,z
1/2+x,1/2-y,z
loop_
_atom_site_type_symbol
_atom_site_label
_atom_site_fract_x
_atom_site_fract_y
_atom_site_fract_z
Si Si1 0.682282 0.830748 0.820700
Si Si2 0.318878 0.590548 0.818770
Si Si3 0.830639 0.473811 0.680682
Si Si4 0.460338 0.363968 0.816914
Si Si5 0.049924 0.300565 0.321392
Si Si6 0.080098 0.441899 0.318434
Si Si7 0.700598 0.133232 0.180732
Si Si8 0.414094 0.715807 0.179758
O O1 0.732763 0.873589 0.778704
O O2 0.570402 0.818632 0.732026
O O3 0.785508 0.799936 0.796330
O O4 0.657422 0.831264 0.000000
O O5 0.272263 0.550196 0.751997
O O6 0.444101 0.604647 0.767484
O O7 0.319904 0.588192 0.000000
O O8 0.822463 0.472474 0.500000
O O9 0.845538 0.519548 0.723799
O O10 0.949793 0.452370 0.722273
O O11 0.331720 0.371679 0.768985
O O12 0.504142 0.320407 0.773894
O O13 0.462454 0.364468 0.000000
O O14 0.059405 0.302866 0.500000
O O15 0.148025 0.326698 0.244943
O O16 0.059880 0.255771 0.265472
O O17 0.084478 0.437590 0.500000
O O18 0.125911 0.402994 0.240567
O O19 0.697219 0.134302 0.000000
O O20 0.428413 0.722134 0.000000
#
# Coordination Sequence:
#
# PCOD9429044 Si02
#       8
#     8   8   8   8   8   8   8   8
#     4   9  19  36  57  79 103 134 178 225 266 315
#     4   9  17  33  57  82 104 132 177 229 269 309
#     4   9  18  33  55  80 110 146 179 215 271 331
#     4   8  18  37  58  78 104 139 179 225 272 317
#     4  12  25  36  51  79 113 142 173 219 274 329
#     4   9  19  36  54  78 113 147 178 221 272 321
#     4  11  22  37  57  80 106 143 186 222 268 327
#     4   9  19  38  60  78 100 137 184 226 266 315
#
# _framework density 18.102637999999999
#
# number of rings (size 3 to 8) (size 9 to 14) (size 15 to 20)
#    0.000    2.500    0.000    4.500    1.750    4.000 
#    0.000    5.625    0.000    3.750    0.000    0.000 
#    0.000    0.000    0.000    0.000    0.000    0.000 
#
# Total GULP energy -357179.580125 kJ/mol
# GULP energy per Si atom -5580.930939 kJ/mol
# Density = 1.806144 g / cm^3
# Si number density = 18.102638 Si / 1000 Ang^3
#
#
#
# Elastic Constant Matrix: (Units=GPa)
#
#
# Indices 1 2 3 4 5 6 
#
# 1 32.2363 -1.1935 11.2643 0.0000 0.0000 0.0000
# 2 -1.1935 39.0634 6.6866 0.0000 0.0000 0.0000
# 3 11.2643 6.6866 25.5854 0.0000 0.0000 0.0000
# 4 0.0000 0.0000 0.0000 36.3917 0.0000 0.0000
# 5 0.0000 0.0000 0.0000 0.0000 -13.0962 0.0000
# 6 0.0000 0.0000 0.0000 0.0000 0.0000 8.7468
#
#
#
# Elastic Compliance Matrix: (Units=1/GPa)
#
#
# Indices 1 2 3 4 5 6 
#
# 1 0.037288 0.004134 -0.017497 0.000000 0.000000 0.000000
# 2 0.004134 0.027257 -0.008944 0.000000 0.000000 0.000000
# 3 -0.017497 -0.008944 0.049125 0.000000 0.000000 0.000000
# 4 0.000000 0.000000 0.000000 0.027479 0.000000 0.000000
# 5 0.000000 0.000000 0.000000 0.000000 -0.076358 0.000000
# 6 0.000000 0.000000 0.000000 0.000000 0.000000 0.114327
#
#
# Mechanical properties :
#
#
# Convention : Reuss Voigt Hill
#
# Bulk Modulus (GPa) = 14.48069 14.48889 14.48479
# Shear Modulus (GPa) = 20.26351 11.75033 16.00692
#
# Velocity S-wave (km/s) = 3.34932 2.55050 2.97683
# Velocity P-wave (km/s) = 4.79311 4.08589 4.45356
#
# Compressibility (1/GPa) = 0.06905746
#
# Stress axis : x y z
#
# Youngs Moduli (GPa) = 26.81832 36.68831 20.35608
#
# Poissons Ratio (x) = -0.15168 0.35617
# Poissons Ratio (y) = -0.11087 0.18206
# Poissons Ratio (z) = 0.46924 0.32812
#
# Static dielectric constant tensor:
#      x y z
#    x 1.619730 0.000000 0.000000 
#    y 0.000000 1.604970 0.000000 
#    z 0.000000 0.000000 1.603990 
# 
# From -- ./inp_files/4608.got.cif
#   From: 2010.05.17/outbox.cif.g08.bks.cpg/sg55_3_cif.got.tgz:4608.got - 2010.06.03 13:27:54.
