data_PCOD9429640
_publ_section_title
;
Structure prediction by ZEFSAII (Michael W. Deem and Ramdas Pophale) SiO2 
 PCOD9429640
Probable space group: P C C N
;
_chemical_formula_sum "Si O2"
_cell_formula_units_Z 56
_cell_length_a 16.470506
_cell_length_b 9.183096
_cell_length_c 18.872766
_cell_angle_alpha 90.000000
_cell_angle_beta 90.000000
_cell_angle_gamma 90.000000
_cell_volume 2854.510345
_symmetry_space_group_name_H-M "P C C N"
_symmetry_group_IT_number 56
_symmetry_cell_setting 'orthorhombic'
loop_
_space_group_symop_operation_xyz
x,y,z
1/2-x,1/2-y,z
1/2+x,-y,1/2-z
-x,1/2+y,1/2-z
-x,-y,-z
1/2+x,1/2+y,-z
1/2-x,y,1/2+z
x,1/2-y,1/2+z
loop_
_atom_site_type_symbol
_atom_site_label
_atom_site_fract_x
_atom_site_fract_y
_atom_site_fract_z
Si Si1 0.990211 0.134882 0.803880
Si Si2 0.117552 0.398650 0.641860
Si Si3 0.032364 0.819953 0.352878
Si Si4 0.642035 0.047393 0.648643
Si Si5 0.417462 0.398272 0.987850
Si Si6 0.208032 0.094513 0.290987
Si Si7 0.554432 0.879197 0.107906
O O1 0.075271 0.048472 0.808098
O O2 0.001282 0.297473 0.831682
O O3 0.955398 0.121430 0.726176
O O4 0.930067 0.050906 0.855076
O O5 0.135703 0.381130 0.558975
O O6 0.176996 0.404731 0.709217
O O7 0.050169 0.272953 0.653252
O O8 0.105268 0.707022 0.364325
O O9 0.025015 0.956414 0.405325
O O10 0.637955 0.972054 0.572012
O O11 0.726463 0.029388 0.689120
O O12 0.441379 0.239816 0.954999
O O13 0.500000 0.500000 0.000000
O O14 0.250000 0.250000 0.299661
O O15 0.139475 0.095999 0.351605
#
# Coordination Sequence:
#
# PCOD9429640 Si02
#       7
#     8   8   8   8   8   8   8
#     4  10  17  36  60  91 117 160 211 268 300 372
#     4  11  22  37  64  91 125 156 217 265 318 382
#     4  11  19  35  61 100 120 160 216 275 316 369
#     4  10  22  37  63  87 130 166 210 265 324 387
#     4  11  20  41  62  93 121 169 208 262 327 386
#     4  12  21  40  61  91 121 173 215 257 317 390
#     4  11  21  34  65  91 128 164 215 261 330 385
#
# _framework density 19.618074
#
# number of rings (size 3 to 8) (size 9 to 14) (size 15 to 20)
#    0.000    1.143   10.000    0.857    0.000    1.143 
#    2.571    0.000    0.000    0.000    3.714    0.000 
#    0.000    0.000    0.000    0.000    0.000    0.000 
#
# Total GULP energy -311865.216285 kJ/mol
# GULP energy per Si atom -5569.021719 kJ/mol
# Density = 1.957342 g / cm^3
# Si number density = 19.618074 Si / 1000 Ang^3
#
#
#
# Elastic Constant Matrix: (Units=GPa)
#
#
# Indices 1 2 3 4 5 6 
#
# 1 52.1983 25.2125 25.1973 0.0000 0.0000 0.0000
# 2 25.2125 129.8442 28.6257 0.0000 0.0000 0.0000
# 3 25.1973 28.6257 113.2018 0.0000 0.0000 0.0000
# 4 0.0000 0.0000 0.0000 19.3869 0.0000 0.0000
# 5 0.0000 0.0000 0.0000 0.0000 21.2022 0.0000
# 6 0.0000 0.0000 0.0000 0.0000 0.0000 18.2461
#
#
#
# Elastic Compliance Matrix: (Units=1/GPa)
#
#
# Indices 1 2 3 4 5 6 
#
# 1 0.022886 -0.003517 -0.004205 0.000000 0.000000 0.000000
# 2 -0.003517 0.008697 -0.001416 0.000000 0.000000 0.000000
# 3 -0.004205 -0.001416 0.010128 0.000000 0.000000 0.000000
# 4 0.000000 0.000000 0.000000 0.051581 0.000000 0.000000
# 5 0.000000 0.000000 0.000000 0.000000 0.047165 0.000000
# 6 0.000000 0.000000 0.000000 0.000000 0.000000 0.054806
#
#
# Mechanical properties :
#
#
# Convention : Reuss Voigt Hill
#
# Bulk Modulus (GPa) = 42.67199 50.36835 46.52017
# Shear Modulus (GPa) = 22.58859 26.18097 24.38478
#
# Velocity S-wave (km/s) = 3.39693 3.65709 3.52941
# Velocity P-wave (km/s) = 6.09788 6.60020 6.35400
#
# Compressibility (1/GPa) = 0.02343458
#
# Stress axis : x y z
#
# Youngs Moduli (GPa) = 43.69441 114.98629 98.73740
#
# Poissons Ratio (x) = 0.40440 0.41518
# Poissons Ratio (y) = 0.15367 0.13985
# Poissons Ratio (z) = 0.18373 0.16286
#
# Static dielectric constant tensor:
#      x y z
#    x 1.736130 0.000000 0.000000 
#    y 0.000000 1.748880 0.000000 
#    z 0.000000 0.000000 1.753710 
# 
# From -- ./inp_files/19278.got.cif
#   From: 2010.05.17/outbox.cif.g08.bks.cpg/sg56_10_cif.got.tgz:19278.got - 2010.06.03 13:42:01.
