data_PCOD9429608
_publ_section_title
;
Structure prediction by ZEFSAII (Michael W. Deem and Ramdas Pophale) SiO2 
 PCOD9429608
Probable space group: P C C N
;
_chemical_formula_sum "Si O2"
_cell_formula_units_Z 64
_cell_length_a 7.785629
_cell_length_b 17.101231
_cell_length_c 23.666595
_cell_angle_alpha 90.000000
_cell_angle_beta 90.000000
_cell_angle_gamma 90.000000
_cell_volume 3151.061338
_symmetry_space_group_name_H-M "P C C N"
_symmetry_group_IT_number 56
_symmetry_cell_setting 'orthorhombic'
loop_
_space_group_symop_operation_xyz
x,y,z
1/2-x,1/2-y,z
1/2+x,-y,1/2-z
-x,1/2+y,1/2-z
-x,-y,-z
1/2+x,1/2+y,-z
1/2-x,y,1/2+z
x,1/2-y,1/2+z
loop_
_atom_site_type_symbol
_atom_site_label
_atom_site_fract_x
_atom_site_fract_y
_atom_site_fract_z
Si Si1 0.883035 0.431981 0.025468
Si Si2 0.757043 0.453033 0.806225
Si Si3 0.136992 0.091204 0.776361
Si Si4 0.183757 0.001350 0.875250
Si Si5 0.027447 0.203616 0.690696
Si Si6 0.670536 0.834237 0.932313
Si Si7 0.360437 0.638827 0.792305
Si Si8 0.673339 0.007412 0.429838
O O1 0.827519 0.461495 0.087036
O O2 0.996826 0.354917 0.032909
O O3 0.726737 0.436917 0.981709
O O4 0.000000 0.500000 0.000000
O O5 0.560150 0.429196 0.793221
O O6 0.867492 0.387733 0.772969
O O7 0.773845 0.466324 0.872733
O O8 0.798933 0.532101 0.772183
O O9 0.127626 0.173717 0.745694
O O10 0.237167 0.072386 0.834269
O O11 0.116354 0.935811 0.831746
O O12 0.026117 0.020304 0.916109
O O13 0.995458 0.295692 0.691430
O O14 0.833666 0.168500 0.695294
O O15 0.115496 0.175678 0.633208
O O16 0.750000 0.750000 0.949017
O O17 0.784735 0.914219 0.938494
#
# Coordination Sequence:
#
# PCOD9429608 Si02
#       8
#     8   8   8   8   8   8   8   8
#     4  10  22  37  58  80 107 156 201 249 297 348
#     4   9  17  31  50  82 112 152 192 237 292 355
#     4   9  18  29  55  81 117 147 190 239 291 358
#     4  10  18  35  55  88 112 149 199 250 296 349
#     4  10  17  32  51  84 115 153 185 238 310 359
#     4  11  21  35  55  82 115 145 195 253 303 357
#     4   9  18  29  55  83 116 150 192 242 301 366
#     4  10  20  34  57  83 113 153 198 250 293 360
#
# _framework density 20.310618999999999
#
# number of rings (size 3 to 8) (size 9 to 14) (size 15 to 20)
#    0.000    2.250    2.500    1.125    0.000    0.000 
#    0.000    0.000    5.500    0.000   13.000    0.000 
#    0.000    0.000    0.000    0.000    0.000    0.000 
#
# Total GULP energy -356850.086060 kJ/mol
# GULP energy per Si atom -5575.782595 kJ/mol
# Density = 2.026439 g / cm^3
# Si number density = 20.310619 Si / 1000 Ang^3
#
#
#
# Elastic Constant Matrix: (Units=GPa)
#
#
# Indices 1 2 3 4 5 6 
#
# 1 42.7015 27.9655 21.6525 0.0000 0.0000 0.0000
# 2 27.9655 81.9951 38.8567 0.0000 0.0000 0.0000
# 3 21.6525 38.8567 92.8293 0.0000 0.0000 0.0000
# 4 0.0000 0.0000 0.0000 21.1381 0.0000 0.0000
# 5 0.0000 0.0000 0.0000 0.0000 22.4361 0.0000
# 6 0.0000 0.0000 0.0000 0.0000 0.0000 29.6874
#
#
#
# Elastic Compliance Matrix: (Units=1/GPa)
#
#
# Indices 1 2 3 4 5 6 
#
# 1 0.031041 -0.008927 -0.003504 0.000000 0.000000 0.000000
# 2 -0.008927 0.017781 -0.005361 0.000000 0.000000 0.000000
# 3 -0.003504 -0.005361 0.013834 0.000000 0.000000 0.000000
# 4 0.000000 0.000000 0.000000 0.047308 0.000000 0.000000
# 5 0.000000 0.000000 0.000000 0.000000 0.044571 0.000000
# 6 0.000000 0.000000 0.000000 0.000000 0.000000 0.033684
#
#
# Mechanical properties :
#
#
# Convention : Reuss Voigt Hill
#
# Bulk Modulus (GPa) = 36.93654 43.83058 40.38356
# Shear Modulus (GPa) = 21.47535 23.25573 22.36554
#
# Velocity S-wave (km/s) = 3.25521 3.38746 3.32200
# Velocity P-wave (km/s) = 5.68805 6.07675 5.88560
#
# Compressibility (1/GPa) = 0.02707346
#
# Stress axis : x y z
#
# Youngs Moduli (GPa) = 32.21531 56.24085 72.28783
#
# Poissons Ratio (x) = 0.50203 0.25329
# Poissons Ratio (y) = 0.28757 0.38750
# Poissons Ratio (z) = 0.11288 0.30148
#
# Static dielectric constant tensor:
#      x y z
#    x 1.822450 0.000000 0.000000 
#    y 0.000000 1.728940 0.000000 
#    z 0.000000 0.000000 1.766470 
# 
# From -- ./inp_files/18393.got.cif
#   From: 2010.05.17/outbox.cif.g08.bks.cpg/sg56_10_cif.got.tgz:18393.got - 2010.06.03 13:42:01.
