data_PCOD9429725
_publ_section_title
;
Structure prediction by ZEFSAII (Michael W. Deem and Ramdas Pophale) SiO2 
 PCOD9429725
Probable space group: P C C N
;
_chemical_formula_sum "Si O2"
_cell_formula_units_Z 44
_cell_length_a 13.161734
_cell_length_b 5.853745
_cell_length_c 23.289062
_cell_angle_alpha 90.000000
_cell_angle_beta 90.000000
_cell_angle_gamma 90.000000
_cell_volume 1794.315903
_symmetry_space_group_name_H-M "P C C N"
_symmetry_group_IT_number 56
_symmetry_cell_setting 'orthorhombic'
loop_
_space_group_symop_operation_xyz
x,y,z
1/2-x,1/2-y,z
1/2+x,-y,1/2-z
-x,1/2+y,1/2-z
-x,-y,-z
1/2+x,1/2+y,-z
1/2-x,y,1/2+z
x,1/2-y,1/2+z
loop_
_atom_site_type_symbol
_atom_site_label
_atom_site_fract_x
_atom_site_fract_y
_atom_site_fract_z
Si Si1 0.385142 0.888075 0.798305
Si Si2 0.911901 0.887369 0.235915
Si Si3 0.578340 0.330793 0.574323
Si Si4 0.384261 0.617945 0.550482
Si Si5 0.432144 0.508627 0.134625
Si Si6 0.250000 0.250000 0.609141
O O1 0.356171 0.636703 0.770865
O O2 0.509399 0.885876 0.789663
O O3 0.362579 0.880887 0.866470
O O4 0.358354 0.141230 0.774358
O O5 0.996333 0.899674 0.184410
O O6 0.500706 0.536505 0.560349
O O7 0.632395 0.293917 0.513837
O O8 0.372912 0.800920 0.599801
O O9 0.309629 0.415948 0.566419
O O10 0.507371 0.117379 0.590448
O O11 0.337865 0.347237 0.149705
#
# Coordination Sequence:
#
# PCOD9429725 Si02
#       6
#     8   8   8   8   8   4
#     4   9  16  30  46  79 101 132 154 208 256 309
#     4   9  17  28  51  71 107 126 164 200 260 304
#     4   9  18  29  50  75 101 126 171 210 268 305
#     4  10  18  32  48  71 100 132 169 213 259 314
#     4  10  18  32  49  72  99 136 170 217 259 310
#     4  10  22  32  46  70  98 138 176 210 258 316
#
# _framework density 24.521881
#
# number of rings (size 3 to 8) (size 9 to 14) (size 15 to 20)
#    0.000    2.545    1.818    1.091    0.000    0.000 
#    0.000    0.000    0.000    1.091    0.000    5.091 
#    0.000    0.000    0.000    0.000    0.000    0.000 
#
# Total GULP energy -245326.506372 kJ/mol
# GULP energy per Si atom -5575.602418 kJ/mol
# Density = 2.446607 g / cm^3
# Si number density = 24.521881 Si / 1000 Ang^3
#
#
#
# Elastic Constant Matrix: (Units=GPa)
#
#
# Indices 1 2 3 4 5 6 
#
# 1 62.8046 28.2715 18.3382 0.0000 0.0000 0.0000
# 2 28.2715 143.2782 14.7378 0.0000 0.0000 0.0000
# 3 18.3382 14.7378 125.0923 0.0000 0.0000 0.0000
# 4 0.0000 0.0000 0.0000 -12.4705 0.0000 0.0000
# 5 0.0000 0.0000 0.0000 0.0000 -10.3319 0.0000
# 6 0.0000 0.0000 0.0000 0.0000 0.0000 10.0790
#
#
#
# Elastic Compliance Matrix: (Units=1/GPa)
#
#
# Indices 1 2 3 4 5 6 
#
# 1 0.018083 -0.003336 -0.002258 0.000000 0.000000 0.000000
# 2 -0.003336 0.007680 -0.000416 0.000000 0.000000 0.000000
# 3 -0.002258 -0.000416 0.008374 0.000000 0.000000 0.000000
# 4 0.000000 0.000000 0.000000 -0.080189 0.000000 0.000000
# 5 0.000000 0.000000 0.000000 0.000000 -0.096788 0.000000
# 6 0.000000 0.000000 0.000000 0.000000 0.000000 0.099216
#
#
# Mechanical properties :
#
#
# Convention : Reuss Voigt Hill
#
# Bulk Modulus (GPa) = 45.21108 50.43001 47.82054
# Shear Modulus (GPa) = -206.35269 15.44383 -95.45443
#
# Velocity S-wave (km/s) = -9.18331 2.51230 -6.24586
# Velocity P-wave (km/s) = 9.69366 5.38753 5.69832
#
# Compressibility (1/GPa) = 0.02211847
#
# Stress axis : x y z
#
# Youngs Moduli (GPa) = 55.29940 130.20077 119.41587
#
# Poissons Ratio (x) = 0.43434 0.26963
# Poissons Ratio (y) = 0.18448 0.04966
# Poissons Ratio (z) = 0.12486 0.05414
#
# Static dielectric constant tensor:
#      x y z
#    x 1.948940 0.000000 0.000000 
#    y 0.000000 2.105170 0.000000 
#    z 0.000000 0.000000 2.020390 
# 
# From -- ./inp_files/19392.got.cif
#   From: 2010.05.17/outbox.cif.g08.bks.cpg/sg56_10_cif.got.tgz:19392.got - 2010.06.03 13:42:01.
