data_PCOD9429936
_publ_section_title
;
Structure prediction by ZEFSAII (Michael W. Deem and Ramdas Pophale) SiO2 
 PCOD9429936
Probable space group: P C C N
;
_chemical_formula_sum "Si O2"
_cell_formula_units_Z 32
_cell_length_a 4.748182
_cell_length_b 23.602728
_cell_length_c 11.331398
_cell_angle_alpha 90.000000
_cell_angle_beta 90.000000
_cell_angle_gamma 90.000000
_cell_volume 1269.910320
_symmetry_space_group_name_H-M "P C C N"
_symmetry_group_IT_number 56
_symmetry_cell_setting 'orthorhombic'
loop_
_space_group_symop_operation_xyz
x,y,z
1/2-x,1/2-y,z
1/2+x,-y,1/2-z
-x,1/2+y,1/2-z
-x,-y,-z
1/2+x,1/2+y,-z
1/2-x,y,1/2+z
x,1/2-y,1/2+z
loop_
_atom_site_type_symbol
_atom_site_label
_atom_site_fract_x
_atom_site_fract_y
_atom_site_fract_z
Si Si1 0.963581 0.535706 0.288138
Si Si2 0.511970 0.788562 0.975642
Si Si3 0.709137 0.880014 0.621466
Si Si4 0.185532 0.903259 0.476428
O O1 0.205633 0.508200 0.204267
O O2 0.147963 0.552218 0.400426
O O3 0.811439 0.592717 0.241900
O O4 0.250000 0.750000 0.008649
O O5 0.383403 0.843615 0.909182
O O6 0.750000 0.750000 0.914706
O O7 0.670888 0.818651 0.086146
O O8 0.386703 0.884572 0.585381
O O9 0.883510 0.919471 0.527688
#
# Coordination Sequence:
#
# PCOD9429936 Si02
#       4
#     8   8   8   8
#     4  12  26  40  63  93 130 173 219 262 315 380
#     4  10  18  38  68  88 120 165 199 261 329 375
#     4  10  22  40  63  90 129 164 214 262 313 384
#     4  10  22  40  63  92 130 161 214 263 312 384
#
# _framework density 25.198630000000001
#
# number of rings (size 3 to 8) (size 9 to 14) (size 15 to 20)
#    1.500    0.000    2.500    3.000    0.000    6.000 
#    0.000    1.250    5.500    0.000    0.000    0.000 
#    0.000    0.000    0.000    0.000    0.000    0.000 
#
# Total GULP energy -178436.438320 kJ/mol
# GULP energy per Si atom -5576.138697 kJ/mol
# Density = 2.514128 g / cm^3
# Si number density = 25.198630 Si / 1000 Ang^3
#
#
#
# Elastic Constant Matrix: (Units=GPa)
#
#
# Indices 1 2 3 4 5 6 
#
# 1 158.4319 48.2761 -0.1048 0.0000 0.0000 0.0000
# 2 48.2761 97.3190 11.2101 0.0000 0.0000 0.0000
# 3 -0.1048 11.2101 12.9724 0.0000 0.0000 0.0000
# 4 0.0000 0.0000 0.0000 17.9698 0.0000 0.0000
# 5 0.0000 0.0000 0.0000 0.0000 26.2961 0.0000
# 6 0.0000 0.0000 0.0000 0.0000 0.0000 809.7791
#
#
#
# Elastic Compliance Matrix: (Units=1/GPa)
#
#
# Indices 1 2 3 4 5 6 
#
# 1 0.007591 -0.004190 0.003682 0.000000 0.000000 0.000000
# 2 -0.004190 0.013724 -0.011893 0.000000 0.000000 0.000000
# 3 0.003682 -0.011893 0.087394 0.000000 0.000000 0.000000
# 4 0.000000 0.000000 0.000000 0.055649 0.000000 0.000000
# 5 0.000000 0.000000 0.000000 0.000000 0.038028 0.000000
# 6 0.000000 0.000000 0.000000 0.000000 0.000000 0.001235
#
#
# Mechanical properties :
#
#
# Convention : Reuss Voigt Hill
#
# Bulk Modulus (GPa) = 11.91804 43.05404 27.48604
# Shear Modulus (GPa) = 19.50141 184.76514 102.13327
#
# Velocity S-wave (km/s) = 2.78494 8.57220 6.37332
# Velocity P-wave (km/s) = 3.88344 10.72846 8.06787
#
# Compressibility (1/GPa) = 0.08390640
#
# Stress axis : x y z
#
# Youngs Moduli (GPa) = 131.73603 72.86615 11.44245
#
# Poissons Ratio (x) = 0.30529 -0.04213
# Poissons Ratio (y) = 0.55193 0.13609
# Poissons Ratio (z) = -0.48503 0.86662
#
# Static dielectric constant tensor:
#      x y z
#    x 1.902490 0.000000 0.000000 
#    y 0.000000 2.047870 0.000000 
#    z 0.000000 0.000000 2.128860 
# 
# From -- ./inp_files/5493.got.cif
#   From: 2010.05.17/outbox.cif.g08.bks.cpg/sg56_3_cif.got.tgz:5493.got - 2010.06.03 13:42:01.
