data_PCOD9429262
_publ_section_title
;
Structure prediction by ZEFSAII (Michael W. Deem and Ramdas Pophale) SiO2 
 PCOD9429262
Probable space group: P B A M
;
_chemical_formula_sum "Si O2"
_cell_formula_units_Z 64
_cell_length_a 15.000000
_cell_length_b 30.000000
_cell_length_c 9.000000
_cell_angle_alpha 90.000000
_cell_angle_beta 90.000000
_cell_angle_gamma 90.000000
_cell_volume 4050.000000
_symmetry_space_group_name_H-M "P B A M"
_symmetry_group_IT_number 55
_symmetry_cell_setting 'orthorhombic'
loop_
_space_group_symop_operation_xyz
x,y,z
-x,-y,z
1/2+x,1/2-y,-z
1/2-x,1/2+y,-z
-x,-y,-z
x,y,-z
1/2-x,1/2+y,z
1/2+x,1/2-y,z
loop_
_atom_site_type_symbol
_atom_site_label
_atom_site_fract_x
_atom_site_fract_y
_atom_site_fract_z
Si Si1 0.104755 0.050034 0.321417
Si Si2 0.647832 0.364490 0.822097
Si Si3 0.199161 0.863905 0.678388
Si Si4 0.968547 0.281355 0.170713
Si Si5 0.648299 0.198341 0.321974
Si Si6 0.897389 0.048977 0.319374
Si Si7 0.237031 0.721437 0.820484
Si Si8 0.964972 0.177486 0.829216
O O1 0.107148 0.052944 0.500000
O O2 0.164120 0.088210 0.251024
O O3 0.000643 0.055569 0.275010
O O4 0.131262 0.000363 0.274865
O O5 0.716156 0.325434 0.787100
O O6 0.549841 0.348918 0.769582
O O7 0.644116 0.368406 0.000000
O O8 0.196999 0.864693 0.500000
O O9 0.294905 0.845291 0.722677
O O10 0.166639 0.911940 0.734062
O O11 0.122933 0.830536 0.735176
O O12 0.866440 0.282291 0.225672
O O13 0.991397 0.228925 0.168733
O O14 0.047727 0.303250 0.262823
O O15 0.969439 0.297645 0.000000
O O16 0.647987 0.202641 0.500000
O O17 0.704806 0.239636 0.254130
O O18 0.898039 0.049694 0.500000
O O19 0.237990 0.729061 0.000000
O O20 0.946807 0.164143 0.000000
#
# Coordination Sequence:
#
# PCOD9429262 Si02
#       8
#     8   8   8   8   8   8   8   8
#     4   9  16  28  47  67  88 122 156 185 222 276
#     4  10  19  30  44  68  96 120 151 192 233 269
#     4  10  19  31  46  67  95 127 155 188 231 274
#     4  10  20  35  51  64  89 130 167 196 225 272
#     4  11  22  31  46  72  98 122 153 197 242 273
#     4   8  15  28  45  65  91 121 156 185 218 277
#     4  10  20  35  51  66  90 128 166 192 226 278
#     4  10  18  28  46  68  91 123 159 192 223 265
#
# _framework density 15.802469
#
# number of rings (size 3 to 8) (size 9 to 14) (size 15 to 20)
#    0.000    2.250    3.750    1.125    0.000    2.000 
#    0.000    1.875    0.000    0.000    0.000    0.875 
#    0.000    7.000    0.000    0.000    0.000    0.000 
#
# Total GULP energy -356394.012612 kJ/mol
# GULP energy per Si atom -5568.656447 kJ/mol
# Density = 1.576650 g / cm^3
# Si number density = 15.802469 Si / 1000 Ang^3
#
#
#
# Elastic Constant Matrix: (Units=GPa)
#
#
# Indices 1 2 3 4 5 6 
#
# 1 41.6306 -2.9720 13.1011 0.0000 0.0000 0.0000
# 2 -2.9720 52.5690 12.1011 0.0000 0.0000 0.0000
# 3 13.1011 12.1011 4.7489 0.0000 0.0000 0.0000
# 4 0.0000 0.0000 0.0000 21.1718 0.0000 0.0000
# 5 0.0000 0.0000 0.0000 0.0000 19.4841 0.0000
# 6 0.0000 0.0000 0.0000 0.0000 0.0000 19.6011
#
#
#
# Elastic Compliance Matrix: (Units=1/GPa)
#
#
# Indices 1 2 3 4 5 6 
#
# 1 -0.018073 -0.030234 0.126901 0.000000 0.000000 0.000000
# 2 -0.030234 -0.004563 0.095036 0.000000 0.000000 0.000000
# 3 0.126901 0.095036 -0.381687 0.000000 0.000000 0.000000
# 4 0.000000 0.000000 0.000000 0.047233 0.000000 0.000000
# 5 0.000000 0.000000 0.000000 0.000000 0.051324 0.000000
# 6 0.000000 0.000000 0.000000 0.000000 0.000000 0.051018
#
#
# Mechanical properties :
#
#
# Convention : Reuss Voigt Hill
#
# Bulk Modulus (GPa) = -47.81114 15.93433 -15.93840
# Shear Modulus (GPa) = -7.75038 17.16596 4.70779
#
# Velocity S-wave (km/s) = -2.21702 3.29946 1.72789
# Velocity P-wave (km/s) = 6.07246 4.96191 2.47530
#
# Compressibility (1/GPa) = -0.02091563
#
# Stress axis : x y z
#
# Youngs Moduli (GPa) = -55.32984 -219.13212 -2.61995
#
# Poissons Ratio (x) = -6.62518 0.33248
# Poissons Ratio (y) = -1.67283 0.24899
# Poissons Ratio (z) = 7.02144 20.82552
#
# Static dielectric constant tensor:
#      x y z
#    x 1.522970 0.000000 0.000000 
#    y 0.000000 1.560620 0.000000 
#    z 0.000000 0.000000 1.536630 
# 
# From -- ./inp_files/6925.got.cif
#   From: 2010.05.17/outbox.ucp.g08.bks.cvg/sg55_4_cif.got.tgz:6925.got - 2010.06.11 16:36:00.
