data_PCOD9429805
_publ_section_title
;
Structure prediction by ZEFSAII (Michael W. Deem and Ramdas Pophale) SiO2 
 PCOD9429805
Probable space group: P C C N
;
_chemical_formula_sum "Si O2"
_cell_formula_units_Z 40
_cell_length_a 18.046382
_cell_length_b 7.746203
_cell_length_c 13.901886
_cell_angle_alpha 90.000000
_cell_angle_beta 90.000000
_cell_angle_gamma 90.000000
_cell_volume 1943.357689
_symmetry_space_group_name_H-M "P C C N"
_symmetry_group_IT_number 56
_symmetry_cell_setting 'orthorhombic'
loop_
_space_group_symop_operation_xyz
x,y,z
1/2-x,1/2-y,z
1/2+x,-y,1/2-z
-x,1/2+y,1/2-z
-x,-y,-z
1/2+x,1/2+y,-z
1/2-x,y,1/2+z
x,1/2-y,1/2+z
loop_
_atom_site_type_symbol
_atom_site_label
_atom_site_fract_x
_atom_site_fract_y
_atom_site_fract_z
Si Si1 0.327151 0.839413 0.094414
Si Si2 0.587680 0.037686 0.501294
Si Si3 0.026455 0.497066 0.841616
Si Si4 0.598262 0.335254 0.213129
Si Si5 0.597751 0.662926 0.479370
O O1 0.250000 0.750000 0.072757
O O2 0.339471 0.869991 0.207537
O O3 0.340839 0.017969 0.039666
O O4 0.390562 0.703971 0.061035
O O5 0.622385 0.858684 0.464683
O O6 0.500000 0.000000 0.500000
O O7 0.611369 0.080157 0.610044
O O8 0.085753 0.631683 0.801545
O O9 0.977918 0.409177 0.759131
O O10 0.969044 0.609458 0.906930
O O11 0.065180 0.362761 0.913478
#
# Coordination Sequence:
#
# PCOD9429805 Si02
#       5
#     8   8   8   8   8
#     4  11  26  44  61  90 137 178 222 267 328 403
#     4  12  21  41  71  98 126 172 219 276 344 389
#     4  10  18  34  58  99 129 150 213 273 328 376
#     4  11  21  35  64  98 129 167 209 276 330 394
#     4  10  20  38  62  91 127 166 211 267 321 395
#
# _framework density 20.582932
#
# number of rings (size 3 to 8) (size 9 to 14) (size 15 to 20)
#    0.000    1.200    4.000    4.800    0.000    1.600 
#    0.000    0.000    0.000    0.000    0.000    0.000 
#    0.000    0.000    0.000    0.000    0.000    0.000 
#
# Total GULP energy -223629.257332 kJ/mol
# GULP energy per Si atom -5590.731433 kJ/mol
# Density = 2.053608 g / cm^3
# Si number density = 20.582932 Si / 1000 Ang^3
#
#
#
# Elastic Constant Matrix: (Units=GPa)
#
#
# Indices 1 2 3 4 5 6 
#
# 1 51.0371 3.9683 -8.4504 0.0000 0.0000 0.0000
# 2 3.9683 109.9752 9.5759 0.0000 0.0000 0.0000
# 3 -8.4504 9.5759 73.4585 0.0000 0.0000 0.0000
# 4 0.0000 0.0000 0.0000 27.7611 0.0000 0.0000
# 5 0.0000 0.0000 0.0000 0.0000 9.1634 0.0000
# 6 0.0000 0.0000 0.0000 0.0000 0.0000 22.4379
#
#
#
# Elastic Compliance Matrix: (Units=1/GPa)
#
#
# Indices 1 2 3 4 5 6 
#
# 1 0.020069 -0.000936 0.002431 0.000000 0.000000 0.000000
# 2 -0.000936 0.009241 -0.001312 0.000000 0.000000 0.000000
# 3 0.002431 -0.001312 0.014064 0.000000 0.000000 0.000000
# 4 0.000000 0.000000 0.000000 0.036022 0.000000 0.000000
# 5 0.000000 0.000000 0.000000 0.000000 0.109130 0.000000
# 6 0.000000 0.000000 0.000000 0.000000 0.000000 0.044567
#
#
# Mechanical properties :
#
#
# Convention : Reuss Voigt Hill
#
# Bulk Modulus (GPa) = 22.86305 27.18427 25.02366
# Shear Modulus (GPa) = 20.21775 27.16426 23.69100
#
# Velocity S-wave (km/s) = 3.13750 3.63677 3.39632
# Velocity P-wave (km/s) = 4.92515 5.55614 5.25013
#
# Compressibility (1/GPa) = 0.04373869
#
# Stress axis : x y z
#
# Youngs Moduli (GPa) = 49.82860 108.21354 71.10446
#
# Poissons Ratio (x) = 0.10127 -0.17283
# Poissons Ratio (y) = 0.04663 0.09331
# Poissons Ratio (z) = -0.12112 0.14201
#
# Static dielectric constant tensor:
#      x y z
#    x 1.747120 0.000000 0.000000 
#    y 0.000000 1.750030 0.000000 
#    z 0.000000 0.000000 1.735250 
# 
# From -- ./inp_files/6212.got.cif
#   From: 2010.05.17/outbox.cif.g08.bks.cpg/sg56_4_cif.got.tgz:6212.got - 2010.06.03 13:42:01.
