data_PCOD9429006
_publ_section_title
;
Structure prediction by ZEFSAII (Michael W. Deem and Ramdas Pophale) SiO2 
 PCOD9429006
Probable space group: P B A M
;
_chemical_formula_sum "Si O2"
_cell_formula_units_Z 48
_cell_length_a 12.106127
_cell_length_b 18.835565
_cell_length_c 11.611836
_cell_angle_alpha 90.000000
_cell_angle_beta 90.000000
_cell_angle_gamma 90.000000
_cell_volume 2647.797520
_symmetry_space_group_name_H-M "P B A M"
_symmetry_group_IT_number 55
_symmetry_cell_setting 'orthorhombic'
loop_
_space_group_symop_operation_xyz
x,y,z
-x,-y,z
1/2+x,1/2-y,-z
1/2-x,1/2+y,-z
-x,-y,-z
x,y,-z
1/2-x,1/2+y,z
1/2+x,1/2-y,z
loop_
_atom_site_type_symbol
_atom_site_label
_atom_site_fract_x
_atom_site_fract_y
_atom_site_fract_z
Si Si1 0.602617 0.188976 0.860970
Si Si2 0.307955 0.389730 0.744473
Si Si3 0.930937 0.431369 0.139454
Si Si4 0.668573 0.551049 0.500000
Si Si5 0.319204 0.539669 0.137624
Si Si6 0.549995 0.337072 0.256494
Si Si7 0.913378 0.894489 0.500000
O O1 0.708967 0.149717 0.808523
O O2 0.496828 0.139838 0.831427
O O3 0.588960 0.265942 0.805440
O O4 0.611746 0.193255 0.000000
O O5 0.279982 0.416624 0.615711
O O6 0.337119 0.461337 0.813587
O O7 0.417281 0.341534 0.738990
O O8 0.803973 0.436023 0.175755
O O9 0.000000 0.500000 0.180408
O O10 0.929820 0.435190 0.000000
O O11 0.539716 0.575837 0.500000
O O12 0.662733 0.465157 0.500000
O O13 0.406325 0.595068 0.186361
O O14 0.323198 0.538303 0.000000
O O15 0.597344 0.348432 0.384868
#
# Coordination Sequence:
#
# PCOD9429006 Si02
#       7
#     8   8   8   4   8   8   4
#     4  11  24  39  58  88 127 164 196 243 308 373
#     4  11  22  39  63  88 117 158 207 251 297 357
#     4   9  18  36  57  79 113 160 200 228 279 360
#     4   9  18  37  64  86 111 153 202 254 297 348
#     4  11  21  35  60  90 118 154 200 248 302 359
#     4  11  24  38  60  89 121 156 195 256 309 358
#     4   9  18  39  62  85 115 154 199 245 308 359
#
# _framework density 18.128274999999999
#
# number of rings (size 3 to 8) (size 9 to 14) (size 15 to 20)
#    0.000    1.667    3.333    1.500    2.333    4.000 
#    0.000    0.000    0.000    4.000    0.000    0.000 
#    0.000    0.000    0.000    0.000    0.000    0.000 
#
# Total GULP energy -267972.336111 kJ/mol
# GULP energy per Si atom -5582.757002 kJ/mol
# Density = 1.808701 g / cm^3
# Si number density = 18.128275 Si / 1000 Ang^3
#
#
#
# Elastic Constant Matrix: (Units=GPa)
#
#
# Indices 1 2 3 4 5 6 
#
# 1 43.7719 31.8452 17.1857 0.0000 0.0000 0.0000
# 2 31.8452 112.2510 55.0916 0.0000 0.0000 0.0000
# 3 17.1857 55.0916 119.8808 0.0000 0.0000 0.0000
# 4 0.0000 0.0000 0.0000 27.5638 0.0000 0.0000
# 5 0.0000 0.0000 0.0000 0.0000 18.7029 0.0000
# 6 0.0000 0.0000 0.0000 0.0000 0.0000 24.4784
#
#
#
# Elastic Compliance Matrix: (Units=1/GPa)
#
#
# Indices 1 2 3 4 5 6 
#
# 1 0.028809 -0.007936 -0.000483 0.000000 0.000000 0.000000
# 2 -0.007936 0.013689 -0.005153 0.000000 0.000000 0.000000
# 3 -0.000483 -0.005153 0.010779 0.000000 0.000000 0.000000
# 4 0.000000 0.000000 0.000000 0.036279 0.000000 0.000000
# 5 0.000000 0.000000 0.000000 0.000000 0.053468 0.000000
# 6 0.000000 0.000000 0.000000 0.000000 0.000000 0.040852
#
#
# Mechanical properties :
#
#
# Convention : Reuss Voigt Hill
#
# Bulk Modulus (GPa) = 38.26605 53.79430 46.03018
# Shear Modulus (GPa) = 22.75502 25.60110 24.17806
#
# Velocity S-wave (km/s) = 3.54676 3.76203 3.65598
# Velocity P-wave (km/s) = 6.15849 6.97203 6.57784
#
# Compressibility (1/GPa) = 0.02613283
#
# Stress axis : x y z
#
# Youngs Moduli (GPa) = 34.71151 73.05061 92.77274
#
# Poissons Ratio (x) = 0.57972 0.04481
# Poissons Ratio (y) = 0.27547 0.47808
# Poissons Ratio (z) = 0.01676 0.37645
#
# Static dielectric constant tensor:
#      x y z
#    x 1.628280 0.000000 0.000000 
#    y 0.000000 1.596440 0.000000 
#    z 0.000000 0.000000 1.620360 
# 
# From -- ./inp_files/13232.got.cif
#   From: 2010.05.17/outbox.cif.g08.bks.cpg/sg55_7_cif.got.tgz:13232.got - 2010.06.03 13:27:54.
