data_PCOD9429965
_publ_section_title
;
Structure prediction by ZEFSAII (Michael W. Deem and Ramdas Pophale) SiO2 
 PCOD9429965
Probable space group: P C C N
;
_chemical_formula_sum "Si O2"
_cell_formula_units_Z 40
_cell_length_a 8.591662
_cell_length_b 13.816828
_cell_length_c 14.999081
_cell_angle_alpha 90.000000
_cell_angle_beta 90.000000
_cell_angle_gamma 90.000000
_cell_volume 1780.533647
_symmetry_space_group_name_H-M "P C C N"
_symmetry_group_IT_number 56
_symmetry_cell_setting 'orthorhombic'
loop_
_space_group_symop_operation_xyz
x,y,z
1/2-x,1/2-y,z
1/2+x,-y,1/2-z
-x,1/2+y,1/2-z
-x,-y,-z
1/2+x,1/2+y,-z
1/2-x,y,1/2+z
x,1/2-y,1/2+z
loop_
_atom_site_type_symbol
_atom_site_label
_atom_site_fract_x
_atom_site_fract_y
_atom_site_fract_z
Si Si1 0.541597 0.248339 0.377949
Si Si2 0.775324 0.416873 0.938564
Si Si3 0.225552 0.545193 0.365428
Si Si4 0.369038 0.445404 0.202438
Si Si5 0.250000 0.750000 0.791131
Si Si6 0.250000 0.250000 0.274747
O O1 0.570853 0.349305 0.429479
O O2 0.638529 0.164016 0.425890
O O3 0.615066 0.268896 0.280250
O O4 0.376179 0.211315 0.346168
O O5 0.747598 0.492000 0.858991
O O6 0.751546 0.471955 0.030738
O O7 0.339136 0.485727 0.301527
O O8 0.273339 0.656776 0.349914
O O9 0.044182 0.538584 0.334403
O O10 0.315821 0.334657 0.212094
#
# Coordination Sequence:
#
# PCOD9429965 Si02
#       6
#     8   8   8   8   4   4
#     4  10  20  43  71  98 134 170 228 275 331 413
#     4  10  22  45  69  96 134 183 224 270 341 413
#     4  12  24  43  73  96 133 181 223 279 342 396
#     4  12  24  42  66 100 134 178 231 278 335 404
#     4  10  18  42  68  90 126 180 218 262 342 402
#     4  12  24  40  68  98 138 180 220 294 336 380
#
# _framework density 22.465174000000001
#
# number of rings (size 3 to 8) (size 9 to 14) (size 15 to 20)
#    0.000    1.200    6.000    3.000    0.000    0.000 
#    0.000   10.000    0.000    0.000    0.000    0.000 
#    0.000    0.000    0.000    0.000    0.000    0.000 
#
# Total GULP energy -223291.268437 kJ/mol
# GULP energy per Si atom -5582.281711 kJ/mol
# Density = 2.241404 g / cm^3
# Si number density = 22.465174 Si / 1000 Ang^3
#
#
#
# Elastic Constant Matrix: (Units=GPa)
#
#
# Indices 1 2 3 4 5 6 
#
# 1 41.9021 2.4378 18.3967 0.0000 0.0000 0.0000
# 2 2.4378 97.1109 15.4706 0.0000 0.0000 0.0000
# 3 18.3967 15.4706 117.9522 0.0000 0.0000 0.0000
# 4 0.0000 0.0000 0.0000 7.5981 0.0000 0.0000
# 5 0.0000 0.0000 0.0000 0.0000 11.5503 0.0000
# 6 0.0000 0.0000 0.0000 0.0000 0.0000 8.3980
#
#
#
# Elastic Compliance Matrix: (Units=1/GPa)
#
#
# Indices 1 2 3 4 5 6 
#
# 1 0.025619 -0.000007 -0.003995 0.000000 0.000000 0.000000
# 2 -0.000007 0.010517 -0.001378 0.000000 0.000000 0.000000
# 3 -0.003995 -0.001378 0.009282 0.000000 0.000000 0.000000
# 4 0.000000 0.000000 0.000000 0.131611 0.000000 0.000000
# 5 0.000000 0.000000 0.000000 0.000000 0.086578 0.000000
# 6 0.000000 0.000000 0.000000 0.000000 0.000000 0.119076
#
#
# Mechanical properties :
#
#
# Convention : Reuss Voigt Hill
#
# Bulk Modulus (GPa) = 28.85292 36.61949 32.73621
# Shear Modulus (GPa) = 12.34577 20.21996 16.28287
#
# Velocity S-wave (km/s) = 2.34679 3.00335 2.69514
# Velocity P-wave (km/s) = 4.49606 5.32567 4.92835
#
# Compressibility (1/GPa) = 0.03465854
#
# Stress axis : x y z
#
# Youngs Moduli (GPa) = 39.03287 95.08179 107.73690
#
# Poissons Ratio (x) = 0.00064 0.43040
# Poissons Ratio (y) = 0.00026 0.14850
# Poissons Ratio (z) = 0.15593 0.13106
#
# Static dielectric constant tensor:
#      x y z
#    x 2.006210 0.000000 0.000000 
#    y 0.000000 1.863520 0.000000 
#    z 0.000000 0.000000 1.791220 
# 
# From -- ./inp_files/10422.got.cif
#   From: 2010.05.17/outbox.cif.g08.bks.cpg/sg56_6_cif.got.tgz:10422.got - 2010.06.03 13:42:01.
