data_PCOD9429821
_publ_section_title
;
Structure prediction by ZEFSAII (Michael W. Deem and Ramdas Pophale) SiO2 
 PCOD9429821
Probable space group: P C C N
;
_chemical_formula_sum "Si O2"
_cell_formula_units_Z 60
_cell_length_a 17.524717
_cell_length_b 9.612794
_cell_length_c 16.004021
_cell_angle_alpha 90.000000
_cell_angle_beta 90.000000
_cell_angle_gamma 90.000000
_cell_volume 2696.061295
_symmetry_space_group_name_H-M "P C C N"
_symmetry_group_IT_number 56
_symmetry_cell_setting 'orthorhombic'
loop_
_space_group_symop_operation_xyz
x,y,z
1/2-x,1/2-y,z
1/2+x,-y,1/2-z
-x,1/2+y,1/2-z
-x,-y,-z
1/2+x,1/2+y,-z
1/2-x,y,1/2+z
x,1/2-y,1/2+z
loop_
_atom_site_type_symbol
_atom_site_label
_atom_site_fract_x
_atom_site_fract_y
_atom_site_fract_z
Si Si1 0.750000 0.250000 0.031626
Si Si2 0.917688 0.987125 0.297618
Si Si3 0.512609 0.787808 0.287098
Si Si4 0.440674 0.114020 0.532397
Si Si5 0.106578 0.092373 0.510278
Si Si6 0.269836 0.039877 0.553318
Si Si7 0.749354 0.416654 0.272115
Si Si8 0.371783 0.874210 0.865370
O O1 0.674469 0.247709 0.087471
O O2 0.746675 0.112955 0.977926
O O3 0.984174 0.095279 0.275576
O O4 0.839175 0.046578 0.260731
O O5 0.913069 0.969596 0.398092
O O6 0.930055 0.833304 0.259439
O O7 0.544802 0.863692 0.369069
O O8 0.440087 0.695127 0.315616
O O9 0.444246 0.270630 0.495656
O O10 0.500000 0.000000 0.500000
O O11 0.353334 0.069806 0.519073
O O12 0.196818 0.129464 0.524110
O O13 0.100974 0.983779 0.434967
O O14 0.274382 0.018655 0.652776
O O15 0.750000 0.250000 0.291755
O O16 0.807523 0.437819 0.195768
#
# Coordination Sequence:
#
# PCOD9429821 Si02
#       8
#     4   8   8   8   8   8   8   8
#     4  10  18  34  64  94 124 172 228 270 326 392
#     4  10  23  44  67  96 137 178 231 273 344 407
#     4  11  24  43  65 100 136 180 214 286 345 407
#     4  11  24  43  65  99 138 176 225 281 347 410
#     4   9  23  45  68  93 132 184 225 286 337 403
#     4  10  21  38  67  94 128 176 227 274 328 401
#     4  11  20  39  67  97 127 174 233 272 319 407
#     4  11  21  38  68  93 134 170 226 275 336 402
#
# _framework density 22.254687000000001
#
# number of rings (size 3 to 8) (size 9 to 14) (size 15 to 20)
#    0.000    1.600    2.667    1.200    1.867    3.200 
#    7.200    0.000    2.933    0.000    0.000    0.000 
#    0.000    0.000    0.000    0.000    0.000    0.000 
#
# Total GULP energy -335232.676794 kJ/mol
# GULP energy per Si atom -5587.211280 kJ/mol
# Density = 2.220403 g / cm^3
# Si number density = 22.254687 Si / 1000 Ang^3
#
#
#
# Elastic Constant Matrix: (Units=GPa)
#
#
# Indices 1 2 3 4 5 6 
#
# 1 94.9438 43.4876 7.4261 0.0000 0.0000 0.0000
# 2 43.4876 103.9589 22.5064 0.0000 0.0000 0.0000
# 3 7.4261 22.5064 43.4190 0.0000 0.0000 0.0000
# 4 0.0000 0.0000 0.0000 23.4322 0.0000 0.0000
# 5 0.0000 0.0000 0.0000 0.0000 11.4442 0.0000
# 6 0.0000 0.0000 0.0000 0.0000 0.0000 46.6842
#
#
#
# Elastic Compliance Matrix: (Units=1/GPa)
#
#
# Indices 1 2 3 4 5 6 
#
# 1 0.013046 -0.005603 0.000673 0.000000 0.000000 0.000000
# 2 -0.005603 0.013242 -0.005905 0.000000 0.000000 0.000000
# 3 0.000673 -0.005905 0.025977 0.000000 0.000000 0.000000
# 4 0.000000 0.000000 0.000000 0.042676 0.000000 0.000000
# 5 0.000000 0.000000 0.000000 0.000000 0.087380 0.000000
# 6 0.000000 0.000000 0.000000 0.000000 0.000000 0.021421
#
#
# Mechanical properties :
#
#
# Convention : Reuss Voigt Hill
#
# Bulk Modulus (GPa) = 32.68603 43.24022 37.96313
# Shear Modulus (GPa) = 21.22136 27.57224 24.39680
#
# Velocity S-wave (km/s) = 3.09134 3.52368 3.31457
# Velocity P-wave (km/s) = 5.24032 6.00225 5.63418
#
# Compressibility (1/GPa) = 0.03059411
#
# Stress axis : x y z
#
# Youngs Moduli (GPa) = 76.64964 75.51963 38.49500
#
# Poissons Ratio (x) = 0.42315 -0.02591
# Poissons Ratio (y) = 0.42948 0.22733
# Poissons Ratio (z) = -0.05159 0.44598
#
# Static dielectric constant tensor:
#      x y z
#    x 1.871980 0.000000 0.000000 
#    y 0.000000 1.834720 0.000000 
#    z 0.000000 0.000000 1.824840 
# 
# From -- ./inp_files/16647.got.cif
#   From: 2010.05.17/outbox.cif.g08.bks.cpg/sg56_9_cif.got.tgz:16647.got - 2010.06.03 13:42:01.
