data_PCOD9429364
_publ_section_title
;
Structure prediction by ZEFSAII (Michael W. Deem and Ramdas Pophale) SiO2 
 PCOD9429364
Probable space group: P B A M
;
_chemical_formula_sum "Si O2"
_cell_formula_units_Z 64
_cell_length_a 30.000000
_cell_length_b 12.000000
_cell_length_c 9.000000
_cell_angle_alpha 90.000000
_cell_angle_beta 90.000000
_cell_angle_gamma 90.000000
_cell_volume 3240.000000
_symmetry_space_group_name_H-M "P B A M"
_symmetry_group_IT_number 55
_symmetry_cell_setting 'orthorhombic'
loop_
_space_group_symop_operation_xyz
x,y,z
-x,-y,z
1/2+x,1/2-y,-z
1/2-x,1/2+y,-z
-x,-y,-z
x,y,-z
1/2-x,1/2+y,z
1/2+x,1/2-y,z
loop_
_atom_site_type_symbol
_atom_site_label
_atom_site_fract_x
_atom_site_fract_y
_atom_site_fract_z
Si Si1 0.716406 0.300764 0.678433
Si Si2 0.912859 0.711454 0.837417
Si Si3 0.818598 0.589430 0.165410
Si Si4 0.181772 0.643920 0.321017
Si Si5 0.051934 0.483827 0.336780
Si Si6 0.122817 0.087110 0.675010
Si Si7 0.411417 0.228952 0.322206
Si Si8 0.452729 0.438436 0.821708
O O1 0.713918 0.297789 0.500000
O O2 0.710062 0.177065 0.741978
O O3 0.766742 0.333254 0.721307
O O4 0.674035 0.380622 0.723808
O O5 0.865172 0.652723 0.849881
O O6 0.943360 0.612729 0.782519
O O7 0.906050 0.802975 0.711559
O O8 0.925212 0.758709 0.000000
O O9 0.827343 0.475815 0.250461
O O10 0.800311 0.568906 0.000000
O O11 0.180096 0.637473 0.500000
O O12 0.141495 0.728672 0.278483
O O13 0.071165 0.451053 0.500000
O O14 0.073554 0.601654 0.295489
O O15 0.000000 0.500000 0.353718
O O16 0.124063 0.060966 0.500000
O O17 0.092777 0.997239 0.761250
O O18 0.414193 0.249955 0.500000
O O19 0.444805 0.313837 0.241079
O O20 0.500000 0.500000 0.776445
O O21 0.452478 0.437973 0.000000
#
# Coordination Sequence:
#
# PCOD9429364 Si02
#       8
#     8   8   8   8   8   8   8   8
#     4   9  20  37  59  87 116 154 200 247 298 358
#     4  10  20  35  57  85 117 151 188 233 293 353
#     4  10  20  34  54  82 116 151 187 234 292 351
#     4  10  20  37  61  86 117 155 197 243 295 356
#     4  10  21  36  57  89 120 149 192 241 293 350
#     4  10  21  39  63  87 115 154 203 252 299 354
#     4  10  22  40  62  89 121 158 201 248 296 355
#     4  11  26  45  63  86 121 164 208 257 312 368
#
# _framework density 19.753086
#
# number of rings (size 3 to 8) (size 9 to 14) (size 15 to 20)
#    0.000    2.000    1.250    1.500    1.750    5.250 
#    0.000    5.000    0.000    0.000    0.000    0.000 
#    0.000    0.000    0.000    0.000    0.000    0.000 
#
# Total GULP energy -356423.067289 kJ/mol
# GULP energy per Si atom -5569.110426 kJ/mol
# Density = 1.970813 g / cm^3
# Si number density = 19.753086 Si / 1000 Ang^3
#
#
#
# Elastic Constant Matrix: (Units=GPa)
#
#
# Indices 1 2 3 4 5 6 
#
# 1 84.5943 15.4649 22.8187 0.0000 0.0000 0.0000
# 2 15.4649 31.8803 -2.8265 0.0000 0.0000 0.0000
# 3 22.8187 -2.8265 6.9328 0.0000 0.0000 0.0000
# 4 0.0000 0.0000 0.0000 6.5014 0.0000 0.0000
# 5 0.0000 0.0000 0.0000 0.0000 18.7131 0.0000
# 6 0.0000 0.0000 0.0000 0.0000 0.0000 15.9875
#
#
#
# Elastic Compliance Matrix: (Units=1/GPa)
#
#
# Indices 1 2 3 4 5 6 
#
# 1 -0.095464 0.076948 0.345581 0.000000 0.000000 0.000000
# 2 0.076948 -0.029480 -0.265286 0.000000 0.000000 0.000000
# 3 0.345581 -0.265286 -1.101360 0.000000 0.000000 0.000000
# 4 0.000000 0.000000 0.000000 0.153813 0.000000 0.000000
# 5 0.000000 0.000000 0.000000 0.000000 0.053438 0.000000
# 6 0.000000 0.000000 0.000000 0.000000 0.000000 0.062549
#
#
# Mechanical properties :
#
#
# Convention : Reuss Voigt Hill
#
# Bulk Modulus (GPa) = -1.09671 21.59128 10.24728
# Shear Modulus (GPa) = -3.17475 14.10376 5.46451
#
# Velocity S-wave (km/s) = -1.26914 2.67498 1.66506
# Velocity P-wave (km/s) = 1.64439 4.52714 2.98253
#
# Compressibility (1/GPa) = -0.91181761
#
# Stress axis : x y z
#
# Youngs Moduli (GPa) = -10.47517 -33.92118 -0.90797
#
# Poissons Ratio (x) = 2.61017 0.31378
# Poissons Ratio (y) = 0.80605 -0.24087
# Poissons Ratio (z) = 3.62002 -8.99881
#
# Static dielectric constant tensor:
#      x y z
#    x 1.727560 0.000000 0.000000 
#    y 0.000000 1.598210 0.000000 
#    z 0.000000 0.000000 1.743770 
# 
# From -- ./inp_files/10781.got.cif
#   From: 2010.05.17/outbox.ucp.g08.bks.cvg/sg55_6_cif.got.tgz:10781.got - 2010.06.11 16:36:00.
