data_PCOD9429099
_publ_section_title
;
Structure prediction by ZEFSAII (Michael W. Deem and Ramdas Pophale) SiO2 
 PCOD9429099
Probable space group: P B A M
;
_chemical_formula_sum "Si O2"
_cell_formula_units_Z 34
_cell_length_a 9.132939
_cell_length_b 21.919426
_cell_length_c 8.291321
_cell_angle_alpha 90.000000
_cell_angle_beta 90.000000
_cell_angle_gamma 90.000000
_cell_volume 1659.829440
_symmetry_space_group_name_H-M "P B A M"
_symmetry_group_IT_number 55
_symmetry_cell_setting 'orthorhombic'
loop_
_space_group_symop_operation_xyz
x,y,z
-x,-y,z
1/2+x,1/2-y,-z
1/2-x,1/2+y,-z
-x,-y,-z
x,y,-z
1/2-x,1/2+y,z
1/2+x,1/2-y,z
loop_
_atom_site_type_symbol
_atom_site_label
_atom_site_fract_x
_atom_site_fract_y
_atom_site_fract_z
Si Si1 0.469524 0.281405 0.683453
Si Si2 0.470864 0.068787 0.802316
Si Si3 0.652883 0.390214 0.179409
Si Si4 0.837916 0.679638 0.813427
Si Si5 0.000000 0.000000 0.000000
O O1 0.489350 0.261387 0.500000
O O2 0.561640 0.342568 0.717799
O O3 0.301259 0.295963 0.718539
O O4 0.531904 0.228221 0.796195
O O5 0.311902 0.093178 0.752166
O O6 0.598730 0.115096 0.754792
O O7 0.500000 0.000000 0.748850
O O8 0.467817 0.068029 0.000000
O O9 0.675940 0.361097 0.000000
O O10 0.565208 0.452241 0.137859
O O11 0.793625 0.672340 0.000000
#
# Coordination Sequence:
#
# PCOD9429099 Si02
#       5
#     8   8   8   8   2
#     4  12  25  41  62  90 128 164 204 264 328 381
#     4   9  19  34  61  92 122 151 199 258 313 359
#     4   9  19  36  63  92 122 158 206 257 309 370
#     4  11  23  39  65  92 118 163 214 260 309 381
#     4   8  20  32  68  92 128 156 210 268 300 368
#
# _framework density 20.484031999999999
#
# number of rings (size 3 to 8) (size 9 to 14) (size 15 to 20)
#    0.706    1.176    0.000    4.235    3.294    1.882 
#    0.000    1.765    0.000    3.529    0.000    0.000 
#    0.000    0.000    0.000    0.000    0.000    0.000 
#
# Total GULP energy -189290.803747 kJ/mol
# GULP energy per Si atom -5567.376581 kJ/mol
# Density = 2.043741 g / cm^3
# Si number density = 20.484032 Si / 1000 Ang^3
#
#
#
# Elastic Constant Matrix: (Units=GPa)
#
#
# Indices 1 2 3 4 5 6 
#
# 1 76.1931 35.7519 -4.9641 0.0000 0.0000 0.0000
# 2 35.7519 77.7686 -10.4748 0.0000 0.0000 0.0000
# 3 -4.9641 -10.4748 24.3511 0.0000 0.0000 0.0000
# 4 0.0000 0.0000 0.0000 -1.9460 0.0000 0.0000
# 5 0.0000 0.0000 0.0000 0.0000 12.4157 0.0000
# 6 0.0000 0.0000 0.0000 0.0000 0.0000 29.5576
#
#
#
# Elastic Compliance Matrix: (Units=1/GPa)
#
#
# Indices 1 2 3 4 5 6 
#
# 1 0.016735 -0.007679 0.000108 0.000000 0.000000 0.000000
# 2 -0.007679 0.017173 0.005822 0.000000 0.000000 0.000000
# 3 0.000108 0.005822 0.043592 0.000000 0.000000 0.000000
# 4 0.000000 0.000000 0.000000 -0.513863 0.000000 0.000000
# 5 0.000000 0.000000 0.000000 0.000000 0.080543 0.000000
# 6 0.000000 0.000000 0.000000 0.000000 0.000000 0.033832
#
#
# Mechanical properties :
#
#
# Convention : Reuss Voigt Hill
#
# Bulk Modulus (GPa) = 13.51303 24.32653 18.91978
# Shear Modulus (GPa) = -17.01704 18.53877 0.76086
#
# Velocity S-wave (km/s) = -2.88539 3.01164 0.61012
# Velocity P-wave (km/s) = 2.11884 4.89847 3.12294
#
# Compressibility (1/GPa) = 0.07400267
#
# Stress axis : x y z
#
# Youngs Moduli (GPa) = 59.75615 58.23135 22.93982
#
# Poissons Ratio (x) = 0.44714 -0.00249
# Poissons Ratio (y) = 0.45885 -0.13355
# Poissons Ratio (z) = -0.00648 -0.33901
#
# Static dielectric constant tensor:
#      x y z
#    x 1.725470 0.000000 0.000000 
#    y 0.000000 1.709990 0.000000 
#    z 0.000000 0.000000 1.716470 
# 
# From -- ./inp_files/2145.got.cif
#   From: 2010.05.17/outbox.cif.g08.bks.cpg/sg55_2_cif.got.tgz:2145.got - 2010.06.03 13:27:54.
