data_PCOD9429503
_publ_section_title
;
Structure prediction by ZEFSAII (Michael W. Deem and Ramdas Pophale) SiO2 
 PCOD9429503
Probable space group: P C C N
;
_chemical_formula_sum "Si O2"
_cell_formula_units_Z 32
_cell_length_a 6.968219
_cell_length_b 34.882302
_cell_length_c 5.356047
_cell_angle_alpha 90.000000
_cell_angle_beta 90.000000
_cell_angle_gamma 90.000000
_cell_volume 1301.881059
_symmetry_space_group_name_H-M "P C C N"
_symmetry_group_IT_number 56
_symmetry_cell_setting 'orthorhombic'
loop_
_space_group_symop_operation_xyz
x,y,z
1/2-x,1/2-y,z
1/2+x,-y,1/2-z
-x,1/2+y,1/2-z
-x,-y,-z
1/2+x,1/2+y,-z
1/2-x,y,1/2+z
x,1/2-y,1/2+z
loop_
_atom_site_type_symbol
_atom_site_label
_atom_site_fract_x
_atom_site_fract_y
_atom_site_fract_z
Si Si1 0.968267 0.851162 0.392780
Si Si2 0.623783 0.038427 0.476191
Si Si3 0.468482 0.235118 0.910427
Si Si4 0.467374 0.118813 0.606892
O O1 0.967443 0.808008 0.490867
O O2 0.053513 0.876746 0.616181
O O3 0.750893 0.866799 0.357329
O O4 0.050484 0.854770 0.114772
O O5 0.725742 0.039379 0.206356
O O6 0.489953 0.075691 0.512497
O O7 0.500000 0.000000 0.500000
O O8 0.250000 0.250000 0.872868
O O9 0.552167 0.261059 0.133138
#
# Coordination Sequence:
#
# PCOD9429503 Si02
#       4
#     8   8   8   8
#     4  10  19  32  57  87 122 169 200 258 321 362
#     4  12  28  46  70  96 128 164 215 267 327 385
#     4  10  16  25  43  77 127 158 196 250 312 363
#     4  10  20  35  57  81 121 153 210 241 314 373
#
# _framework density 24.579816999999998
#
# number of rings (size 3 to 8) (size 9 to 14) (size 15 to 20)
#    0.000    1.500    0.000    9.750    7.000    0.000 
#    0.000    0.000    0.000    0.000    0.000    0.000 
#    0.000  244.000    0.000    0.000    0.000    0.000 
#
# Total GULP energy -178970.745141 kJ/mol
# GULP energy per Si atom -5592.835786 kJ/mol
# Density = 2.452387 g / cm^3
# Si number density = 24.579817 Si / 1000 Ang^3
#
#
#
# Elastic Constant Matrix: (Units=GPa)
#
#
# Indices 1 2 3 4 5 6 
#
# 1 84.0138 -12.0447 -19.4178 0.0000 0.0000 0.0000
# 2 -12.0447 130.0611 -12.4707 0.0000 0.0000 0.0000
# 3 -19.4178 -12.4707 188.1275 0.0000 0.0000 0.0000
# 4 0.0000 0.0000 0.0000 47.1942 0.0000 0.0000
# 5 0.0000 0.0000 0.0000 0.0000 11.9863 0.0000
# 6 0.0000 0.0000 0.0000 0.0000 0.0000 17.0624
#
#
#
# Elastic Compliance Matrix: (Units=1/GPa)
#
#
# Indices 1 2 3 4 5 6 
#
# 1 0.012402 0.001279 0.001365 0.000000 0.000000 0.000000
# 2 0.001279 0.007870 0.000654 0.000000 0.000000 0.000000
# 3 0.001365 0.000654 0.005500 0.000000 0.000000 0.000000
# 4 0.000000 0.000000 0.000000 0.021189 0.000000 0.000000
# 5 0.000000 0.000000 0.000000 0.000000 0.083429 0.000000
# 6 0.000000 0.000000 0.000000 0.000000 0.000000 0.058608
#
#
# Mechanical properties :
#
#
# Convention : Reuss Voigt Hill
#
# Bulk Modulus (GPa) = 30.89546 34.92621 32.91083
# Shear Modulus (GPa) = 25.88120 44.99096 35.43608
#
# Velocity S-wave (km/s) = 3.24843 4.28296 3.80106
# Velocity P-wave (km/s) = 5.16396 6.22081 5.71686
#
# Compressibility (1/GPa) = 0.03236721
#
# Stress axis : x y z
#
# Youngs Moduli (GPa) = 80.63423 127.06712 181.82624
#
# Poissons Ratio (x) = -0.16257 -0.24817
# Poissons Ratio (y) = -0.10316 -0.11887
# Poissons Ratio (z) = -0.11005 -0.08307
#
# Static dielectric constant tensor:
#      x y z
#    x 5.434770 0.000000 0.000000 
#    y 0.000000 1.886730 0.000000 
#    z 0.000000 0.000000 2.053210 
# 
# From -- ./inp_files/115.got.cif
#   From: 2010.05.17/outbox.cif.g08.bks.cpg/sg56_1_cif.got.tgz:115.got - 2010.06.03 13:42:01.
