data_PCOD9429553
_publ_section_title
;
Structure prediction by ZEFSAII (Michael W. Deem and Ramdas Pophale) SiO2 
 PCOD9429553
Probable space group: P C C N
;
_chemical_formula_sum "Si O2"
_cell_formula_units_Z 40
_cell_length_a 11.029134
_cell_length_b 31.804120
_cell_length_c 5.147733
_cell_angle_alpha 90.000000
_cell_angle_beta 90.000000
_cell_angle_gamma 90.000000
_cell_volume 1805.680091
_symmetry_space_group_name_H-M "P C C N"
_symmetry_group_IT_number 56
_symmetry_cell_setting 'orthorhombic'
loop_
_space_group_symop_operation_xyz
x,y,z
1/2-x,1/2-y,z
1/2+x,-y,1/2-z
-x,1/2+y,1/2-z
-x,-y,-z
1/2+x,1/2+y,-z
1/2-x,y,1/2+z
x,1/2-y,1/2+z
loop_
_atom_site_type_symbol
_atom_site_label
_atom_site_fract_x
_atom_site_fract_y
_atom_site_fract_z
Si Si1 0.185783 0.586931 0.068896
Si Si2 0.032104 0.068924 0.081067
Si Si3 0.112481 0.991206 0.308221
Si Si4 0.887914 0.767693 0.075478
Si Si5 0.172856 0.361599 0.279289
O O1 0.276535 0.604402 0.288494
O O2 0.052194 0.589373 0.194109
O O3 0.198048 0.536619 0.995203
O O4 0.084799 0.102782 0.885065
O O5 0.135951 0.037644 0.194129
O O6 0.943673 0.038846 0.914005
O O7 0.000000 0.000000 0.500000
O O8 0.750000 0.750000 0.033669
O O9 0.946014 0.761135 0.795991
O O10 0.880205 0.815329 0.167847
O O11 0.213243 0.364872 0.980591
#
# Coordination Sequence:
#
# PCOD9429553 Si02
#       5
#     8   8   8   8   8
#     4  11  21  37  60  76  97 147 192 234 290 328
#     4  10  23  39  54  82 115 139 195 247 277 336
#     4   9  20  39  53  73 111 143 183 251 283 327
#     4  10  16  34  54  76 113 154 179 215 263 341
#     4  12  24  35  56  86 118 158 184 225 279 337
#
# _framework density 22.152318000000001
#
# number of rings (size 3 to 8) (size 9 to 14) (size 15 to 20)
#    0.000    1.600    6.000    0.000    5.600    1.600 
#    0.000    0.000    0.000    0.000    0.000    0.000 
#    0.000    4.800    0.000    0.000    0.000    0.000 
#
# Total GULP energy -223046.871157 kJ/mol
# GULP energy per Si atom -5576.171779 kJ/mol
# Density = 2.210190 g / cm^3
# Si number density = 22.152318 Si / 1000 Ang^3
#
#
#
# Elastic Constant Matrix: (Units=GPa)
#
#
# Indices 1 2 3 4 5 6 
#
# 1 34.2865 10.1404 3.3678 0.0000 0.0000 0.0000
# 2 10.1404 55.7249 -18.9360 0.0000 0.0000 0.0000
# 3 3.3678 -18.9360 118.6683 0.0000 0.0000 0.0000
# 4 0.0000 0.0000 0.0000 18.2453 0.0000 0.0000
# 5 0.0000 0.0000 0.0000 0.0000 20.9783 0.0000
# 6 0.0000 0.0000 0.0000 0.0000 0.0000 12.7986
#
#
#
# Elastic Compliance Matrix: (Units=1/GPa)
#
#
# Indices 1 2 3 4 5 6 
#
# 1 0.031223 -0.006326 -0.001896 0.000000 0.000000 0.000000
# 2 -0.006326 0.020256 0.003412 0.000000 0.000000 0.000000
# 3 -0.001896 0.003412 0.009025 0.000000 0.000000 0.000000
# 4 0.000000 0.000000 0.000000 0.054809 0.000000 0.000000
# 5 0.000000 0.000000 0.000000 0.000000 0.047668 0.000000
# 6 0.000000 0.000000 0.000000 0.000000 0.000000 0.078133
#
#
# Mechanical properties :
#
#
# Convention : Reuss Voigt Hill
#
# Bulk Modulus (GPa) = 19.65227 21.98044 20.81635
# Shear Modulus (GPa) = 18.67796 24.67828 21.67812
#
# Velocity S-wave (km/s) = 2.90687 3.34133 3.13164
# Velocity P-wave (km/s) = 4.48968 4.98296 4.74274
#
# Compressibility (1/GPa) = 0.05088472
#
# Stress axis : x y z
#
# Youngs Moduli (GPa) = 32.02754 49.36863 110.80261
#
# Poissons Ratio (x) = 0.31230 0.21003
# Poissons Ratio (y) = 0.20260 -0.37803
# Poissons Ratio (z) = 0.06071 -0.16843
#
# Static dielectric constant tensor:
#      x y z
#    x 2.005580 0.000000 0.000000 
#    y 0.000000 1.840100 0.000000 
#    z 0.000000 0.000000 1.971760 
# 
# From -- ./inp_files/296.got.cif
#   From: 2010.05.17/outbox.cif.g08.bks.cpg/sg56_1_cif.got.tgz:296.got - 2010.06.03 13:42:01.
