data_PCOD9429981
_publ_section_title
;
Structure prediction by ZEFSAII (Michael W. Deem and Ramdas Pophale) SiO2 
 PCOD9429981
Probable space group: P C C N
;
_chemical_formula_sum "Si O2"
_cell_formula_units_Z 64
_cell_length_a 26.884031
_cell_length_b 17.819467
_cell_length_c 8.354699
_cell_angle_alpha 90.000000
_cell_angle_beta 90.000000
_cell_angle_gamma 90.000000
_cell_volume 4002.394611
_symmetry_space_group_name_H-M "P C C N"
_symmetry_group_IT_number 56
_symmetry_cell_setting 'orthorhombic'
loop_
_space_group_symop_operation_xyz
x,y,z
1/2-x,1/2-y,z
1/2+x,-y,1/2-z
-x,1/2+y,1/2-z
-x,-y,-z
1/2+x,1/2+y,-z
1/2-x,y,1/2+z
x,1/2-y,1/2+z
loop_
_atom_site_type_symbol
_atom_site_label
_atom_site_fract_x
_atom_site_fract_y
_atom_site_fract_z
Si Si1 0.075999 0.899556 0.999714
Si Si2 0.676345 0.024744 0.863637
Si Si3 0.069447 0.752335 0.353674
Si Si4 0.740435 0.062580 0.141153
Si Si5 0.141976 0.695014 0.092535
Si Si6 0.566273 0.489428 0.333385
Si Si7 0.311726 0.648978 0.078467
Si Si8 0.970985 0.408731 0.159566
O O1 0.135067 0.881947 0.015366
O O2 0.057155 0.928988 0.172376
O O3 0.053529 0.816721 0.965083
O O4 0.064427 0.948098 0.840870
O O5 0.715467 0.015281 0.721674
O O6 0.663244 0.114273 0.868809
O O7 0.623534 0.985320 0.850556
O O8 0.707149 0.012938 0.024593
O O9 0.093293 0.712049 0.200084
O O10 0.118515 0.796754 0.417455
O O11 0.029902 0.818204 0.340435
O O12 0.705009 0.101764 0.268865
O O13 0.768735 0.129217 0.047238
O O14 0.180676 0.762963 0.109683
O O15 0.525127 0.554136 0.334450
O O16 0.554061 0.439006 0.493175
#
# Coordination Sequence:
#
# PCOD9429981 Si02
#       8
#     8   8   8   8   8   8   8   8
#     4  11  20  36  54  72  99 137 174 211 258 310
#     4  11  19  33  43  66  92 133 166 213 244 289
#     4  11  17  31  49  72  92 132 176 201 254 307
#     4  10  21  29  44  62  94 128 178 208 256 277
#     4  11  19  28  48  61  97 132 169 213 246 287
#     4  11  22  37  52  73 104 128 177 217 259 302
#     4  10  19  30  43  66  90 131 173 216 246 286
#     4  11  22  34  54  78  94 134 176 213 257 312
#
# _framework density 15.990427
#
# number of rings (size 3 to 8) (size 9 to 14) (size 15 to 20)
#    0.000    1.250    6.250    2.625    0.000    3.000 
#    0.000    0.000    0.000    0.000    0.000    0.000 
#    0.000    0.000    0.000    3.375    1.250    0.000 
#
# Total GULP energy -356629.301034 kJ/mol
# GULP energy per Si atom -5572.332829 kJ/mol
# Density = 1.595403 g / cm^3
# Si number density = 15.990427 Si / 1000 Ang^3
#
#
#
# Elastic Constant Matrix: (Units=GPa)
#
#
# Indices 1 2 3 4 5 6 
#
# 1 94.1165 32.9963 36.6821 0.0000 0.0000 0.0000
# 2 32.9963 29.9846 18.6394 0.0000 0.0000 0.0000
# 3 36.6821 18.6394 94.4535 0.0000 0.0000 0.0000
# 4 0.0000 0.0000 0.0000 14.0882 0.0000 0.0000
# 5 0.0000 0.0000 0.0000 0.0000 30.3387 0.0000
# 6 0.0000 0.0000 0.0000 0.0000 0.0000 28.7567
#
#
#
# Elastic Compliance Matrix: (Units=1/GPa)
#
#
# Indices 1 2 3 4 5 6 
#
# 1 0.018298 -0.017916 -0.003571 0.000000 0.000000 0.000000
# 2 -0.017916 0.055556 -0.004005 0.000000 0.000000 0.000000
# 3 -0.003571 -0.004005 0.012764 0.000000 0.000000 0.000000
# 4 0.000000 0.000000 0.000000 0.070981 0.000000 0.000000
# 5 0.000000 0.000000 0.000000 0.000000 0.032961 0.000000
# 6 0.000000 0.000000 0.000000 0.000000 0.000000 0.034774
#
#
# Mechanical properties :
#
#
# Convention : Reuss Voigt Hill
#
# Bulk Modulus (GPa) = 28.06323 43.91002 35.98663
# Shear Modulus (GPa) = 17.34915 23.31918 20.33417
#
# Velocity S-wave (km/s) = 3.29746 3.82294 3.56988
# Velocity P-wave (km/s) = 5.66443 6.85611 6.28857
#
# Compressibility (1/GPa) = 0.03563382
#
# Stress axis : x y z
#
# Youngs Moduli (GPa) = 54.65057 17.99978 78.34313
#
# Poissons Ratio (x) = 0.32249 0.27974
# Poissons Ratio (y) = 0.97914 0.31380
# Poissons Ratio (z) = 0.19514 0.07210
#
# Static dielectric constant tensor:
#      x y z
#    x 1.552110 0.000000 0.000000 
#    y 0.000000 1.514290 0.000000 
#    z 0.000000 0.000000 1.663000 
# 
# From -- ./inp_files/3782.got.cif
#   From: 2010.05.17/outbox.cif.g08.bks.cpg/sg56_2_cif.got.tgz:3782.got - 2010.06.03 13:42:01.
