data_PCOD9429927
_publ_section_title
;
Structure prediction by ZEFSAII (Michael W. Deem and Ramdas Pophale) SiO2 
 PCOD9429927
Probable space group: P C C N
;
_chemical_formula_sum "Si O2"
_cell_formula_units_Z 48
_cell_length_a 8.411838
_cell_length_b 12.254986
_cell_length_c 20.141657
_cell_angle_alpha 90.000000
_cell_angle_beta 90.000000
_cell_angle_gamma 90.000000
_cell_volume 2076.342128
_symmetry_space_group_name_H-M "P C C N"
_symmetry_group_IT_number 56
_symmetry_cell_setting 'orthorhombic'
loop_
_space_group_symop_operation_xyz
x,y,z
1/2-x,1/2-y,z
1/2+x,-y,1/2-z
-x,1/2+y,1/2-z
-x,-y,-z
1/2+x,1/2+y,-z
1/2-x,y,1/2+z
x,1/2-y,1/2+z
loop_
_atom_site_type_symbol
_atom_site_label
_atom_site_fract_x
_atom_site_fract_y
_atom_site_fract_z
Si Si1 0.683484 0.122954 0.986023
Si Si2 0.656733 0.651510 0.293290
Si Si3 0.794635 0.367849 0.217126
Si Si4 0.795546 0.055848 0.851036
Si Si5 0.919817 0.738689 0.938929
Si Si6 0.896712 0.037438 0.097506
O O1 0.750000 0.250000 0.980147
O O2 0.681602 0.071655 0.913536
O O3 0.520898 0.150975 0.021751
O O4 0.780390 0.039886 0.034000
O O5 0.750000 0.750000 0.257496
O O6 0.483075 0.614833 0.269107
O O7 0.779983 0.556566 0.309767
O O8 0.608525 0.693689 0.365767
O O9 0.750000 0.250000 0.187354
O O10 0.732526 0.367260 0.292355
O O11 0.710765 0.446664 0.163855
O O12 0.971438 0.054307 0.884842
O O13 0.750000 0.750000 0.972871
O O14 0.001695 0.854791 0.923914
#
# Coordination Sequence:
#
# PCOD9429927 Si02
#       6
#     8   8   8   8   8   8
#     4  10  22  40  62  90 123 163 202 247 309 372
#     4  11  21  39  63  89 116 164 211 247 296 374
#     4  12  22  40  63  88 122 163 204 257 306 368
#     4  12  24  37  60  95 127 152 201 266 316 348
#     4  10  18  38  66  84 113 159 213 243 287 364
#     4  11  20  40  63  85 117 169 207 241 299 381
#
# _framework density 23.117577000000001
#
# number of rings (size 3 to 8) (size 9 to 14) (size 15 to 20)
#    0.000    1.000    6.667    2.500    0.000    0.667 
#    0.000    0.000    0.000    8.000    0.000    0.000 
#    0.000    0.000    0.000    0.000    0.000    0.000 
#
# Total GULP energy -267356.979415 kJ/mol
# GULP energy per Si atom -5569.937071 kJ/mol
# Density = 2.306496 g / cm^3
# Si number density = 23.117577 Si / 1000 Ang^3
#
#
#
# Elastic Constant Matrix: (Units=GPa)
#
#
# Indices 1 2 3 4 5 6 
#
# 1 66.5848 -9.3102 3.2390 0.0000 0.0000 0.0000
# 2 -9.3102 28.8849 -11.3988 0.0000 0.0000 0.0000
# 3 3.2390 -11.3988 102.4238 0.0000 0.0000 0.0000
# 4 0.0000 0.0000 0.0000 10.3615 0.0000 0.0000
# 5 0.0000 0.0000 0.0000 0.0000 6.5200 0.0000
# 6 0.0000 0.0000 0.0000 0.0000 0.0000 23.5862
#
#
#
# Elastic Compliance Matrix: (Units=1/GPa)
#
#
# Indices 1 2 3 4 5 6 
#
# 1 0.015728 0.005097 0.000070 0.000000 0.000000 0.000000
# 2 0.005097 0.037862 0.004053 0.000000 0.000000 0.000000
# 3 0.000070 0.004053 0.010212 0.000000 0.000000 0.000000
# 4 0.000000 0.000000 0.000000 0.096511 0.000000 0.000000
# 5 0.000000 0.000000 0.000000 0.000000 0.153374 0.000000
# 6 0.000000 0.000000 0.000000 0.000000 0.000000 0.042398
#
#
# Mechanical properties :
#
#
# Convention : Reuss Voigt Hill
#
# Bulk Modulus (GPa) = 12.15938 18.10591 15.13265
# Shear Modulus (GPa) = 13.69638 22.45112 18.07375
#
# Velocity S-wave (km/s) = 2.43670 3.11974 2.79914
# Velocity P-wave (km/s) = 3.63152 4.56357 4.12396
#
# Compressibility (1/GPa) = 0.08224104
#
# Stress axis : x y z
#
# Youngs Moduli (GPa) = 63.58199 26.41148 97.92246
#
# Poissons Ratio (x) = -0.13462 -0.00684
# Poissons Ratio (y) = -0.32408 -0.39684
# Poissons Ratio (z) = -0.00444 -0.10703
#
# Static dielectric constant tensor:
#      x y z
#    x 2.064930 0.000000 0.000000 
#    y 0.000000 2.067100 0.000000 
#    z 0.000000 0.000000 1.838700 
# 
# From -- ./inp_files/14835.got.cif
#   From: 2010.05.17/outbox.cif.g08.bks.cpg/sg56_8_cif.got.tgz:14835.got - 2010.06.03 13:42:01.
