data_PCOD9429902
_publ_section_title
;
Structure prediction by ZEFSAII (Michael W. Deem and Ramdas Pophale) SiO2 
 PCOD9429902
Probable space group: P C C N
;
_chemical_formula_sum "Si O2"
_cell_formula_units_Z 32
_cell_length_a 17.313820
_cell_length_b 4.977932
_cell_length_c 12.276000
_cell_angle_alpha 90.000000
_cell_angle_beta 90.000000
_cell_angle_gamma 90.000000
_cell_volume 1058.031841
_symmetry_space_group_name_H-M "P C C N"
_symmetry_group_IT_number 56
_symmetry_cell_setting 'orthorhombic'
loop_
_space_group_symop_operation_xyz
x,y,z
1/2-x,1/2-y,z
1/2+x,-y,1/2-z
-x,1/2+y,1/2-z
-x,-y,-z
1/2+x,1/2+y,-z
1/2-x,y,1/2+z
x,1/2-y,1/2+z
loop_
_atom_site_type_symbol
_atom_site_label
_atom_site_fract_x
_atom_site_fract_y
_atom_site_fract_z
Si Si1 0.087620 0.133213 0.794993
Si Si2 0.038675 0.751390 0.060478
Si Si3 0.178071 0.408624 0.616741
Si Si4 0.321001 0.888031 0.848218
O O1 0.114253 0.203693 0.671395
O O2 0.136543 0.335070 0.876425
O O3 0.000800 0.223418 0.820199
O O4 0.115906 0.840735 0.828113
O O5 0.128317 0.845222 0.066583
O O6 0.000000 0.500000 0.000000
O O7 0.000000 0.000000 0.000000
O O8 0.250000 0.250000 0.563600
O O9 0.212508 0.520647 0.730394
O O10 0.250000 0.750000 0.908768
#
# Coordination Sequence:
#
# PCOD9429902 Si02
#       4
#     8   8   8   8
#     4  10  22  40  72 105 139 195 261 333 377 471
#     4  12  29  46  67 110 168 211 252 323 426 504
#     4  10  24  44  79 107 145 200 284 326 396 469
#     4  10  18  37  70 108 134 174 258 331 383 435
#
# _framework density 30.244838999999999
#
# number of rings (size 3 to 8) (size 9 to 14) (size 15 to 20)
#    1.500    0.000    2.500    2.250    7.000    0.000 
#    0.000    6.250    0.000    1.500    0.000    0.000 
#    0.000    0.000    0.000    0.000    0.000    0.000 
#
# Total GULP energy -178911.863404 kJ/mol
# GULP energy per Si atom -5590.995731 kJ/mol
# Density = 3.017600 g / cm^3
# Si number density = 30.244839 Si / 1000 Ang^3
#
#
#
# Elastic Constant Matrix: (Units=GPa)
#
#
# Indices 1 2 3 4 5 6 
#
# 1 233.7601 68.3904 71.4916 0.0000 0.0000 0.0000
# 2 68.3904 244.0315 34.1001 0.0000 0.0000 0.0000
# 3 71.4916 34.1001 84.7412 0.0000 0.0000 0.0000
# 4 0.0000 0.0000 0.0000 40.9935 0.0000 0.0000
# 5 0.0000 0.0000 0.0000 0.0000 58.7632 0.0000
# 6 0.0000 0.0000 0.0000 0.0000 0.0000 56.3001
#
#
#
# Elastic Compliance Matrix: (Units=1/GPa)
#
#
# Indices 1 2 3 4 5 6 
#
# 1 0.006001 -0.001032 -0.004648 0.000000 0.000000 0.000000
# 2 -0.001032 0.004520 -0.000948 0.000000 0.000000 0.000000
# 3 -0.004648 -0.000948 0.016103 0.000000 0.000000 0.000000
# 4 0.000000 0.000000 0.000000 0.024394 0.000000 0.000000
# 5 0.000000 0.000000 0.000000 0.000000 0.017017 0.000000
# 6 0.000000 0.000000 0.000000 0.000000 0.000000 0.017762
#
#
# Mechanical properties :
#
#
# Convention : Reuss Voigt Hill
#
# Bulk Modulus (GPa) = 74.80293 101.16635 87.98464
# Shear Modulus (GPa) = 48.30507 57.11473 52.70990
#
# Velocity S-wave (km/s) = 4.00075 4.35030 4.17918
# Velocity P-wave (km/s) = 6.79172 7.66520 7.24164
#
# Compressibility (1/GPa) = 0.01336846
#
# Stress axis : x y z
#
# Youngs Moduli (GPa) = 166.62999 221.25835 62.10077
#
# Poissons Ratio (x) = 0.22844 0.28862
# Poissons Ratio (y) = 0.17204 0.05885
# Poissons Ratio (z) = 0.77442 0.20968
#
# Static dielectric constant tensor:
#      x y z
#    x 2.433080 0.000000 0.000000 
#    y 0.000000 2.469710 0.000000 
#    z 0.000000 0.000000 2.506710 
# 
# From -- ./inp_files/12483.got.cif
#   From: 2010.05.17/outbox.cif.g08.bks.cpg/sg56_7_cif.got.tgz:12483.got - 2010.06.03 13:42:01.
