data_PCOD9429156
_publ_section_title
;
Structure prediction by ZEFSAII (Michael W. Deem and Ramdas Pophale) SiO2 
 PCOD9429156
Probable space group: P B A M
;
_chemical_formula_sum "Si O2"
_cell_formula_units_Z 32
_cell_length_a 5.385700
_cell_length_b 16.502751
_cell_length_c 15.841303
_cell_angle_alpha 90.000000
_cell_angle_beta 90.000000
_cell_angle_gamma 90.000000
_cell_volume 1407.957048
_symmetry_space_group_name_H-M "P B A M"
_symmetry_group_IT_number 55
_symmetry_cell_setting 'orthorhombic'
loop_
_space_group_symop_operation_xyz
x,y,z
-x,-y,z
1/2+x,1/2-y,-z
1/2-x,1/2+y,-z
-x,-y,-z
x,y,-z
1/2-x,1/2+y,z
1/2+x,1/2-y,z
loop_
_atom_site_type_symbol
_atom_site_label
_atom_site_fract_x
_atom_site_fract_y
_atom_site_fract_z
Si Si1 0.500000 0.500000 0.221912
Si Si2 0.827013 0.805096 0.500000
Si Si3 0.160750 0.417099 0.096992
Si Si4 0.362622 0.077001 0.358808
Si Si5 0.034604 0.300341 0.234892
O O1 0.392067 0.433507 0.158107
O O2 0.300298 0.539845 0.283308
O O3 0.587719 0.743689 0.500000
O O4 0.793090 0.865844 0.420702
O O5 0.025896 0.344162 0.144049
O O6 0.000000 0.500000 0.099951
O O7 0.224704 0.401312 0.000000
O O8 0.555640 0.134212 0.309977
O O9 0.500000 0.000000 0.400054
O O10 0.273621 0.244469 0.243803
#
# Coordination Sequence:
#
# PCOD9429156 Si02
#       5
#     4   4   8   8   8
#     4  12  21  45  78 108 144 192 266 311 363 434
#     4  12  31  53  76 116 158 190 238 308 389 450
#     4  11  24  44  70 105 146 200 258 313 366 440
#     4  12  26  47  78 109 146 198 257 304 368 452
#     4  12  25  44  70 104 149 194 242 305 379 439
#
# _framework density 22.727964
#
# number of rings (size 3 to 8) (size 9 to 14) (size 15 to 20)
#    0.000    0.250    5.000    3.750    3.500    1.500 
#    0.000    0.000    0.000    0.000    0.000    0.000 
#    0.000    0.000    0.000    0.000    0.000    0.000 
#
# Total GULP energy -179139.398769 kJ/mol
# GULP energy per Si atom -5598.106212 kJ/mol
# Density = 2.267623 g / cm^3
# Si number density = 22.727964 Si / 1000 Ang^3
#
#
#
# Elastic Constant Matrix: (Units=GPa)
#
#
# Indices 1 2 3 4 5 6 
#
# 1 83.1041 26.8313 14.1462 0.0000 0.0000 0.0000
# 2 26.8313 93.5502 32.8189 0.0000 0.0000 0.0000
# 3 14.1462 32.8189 127.1042 0.0000 0.0000 0.0000
# 4 0.0000 0.0000 0.0000 15.8878 0.0000 0.0000
# 5 0.0000 0.0000 0.0000 0.0000 9.8651 0.0000
# 6 0.0000 0.0000 0.0000 0.0000 0.0000 26.9951
#
#
#
# Elastic Compliance Matrix: (Units=1/GPa)
#
#
# Indices 1 2 3 4 5 6 
#
# 1 0.013295 -0.003622 -0.000544 0.000000 0.000000 0.000000
# 2 -0.003622 0.012741 -0.002887 0.000000 0.000000 0.000000
# 3 -0.000544 -0.002887 0.008674 0.000000 0.000000 0.000000
# 4 0.000000 0.000000 0.000000 0.062941 0.000000 0.000000
# 5 0.000000 0.000000 0.000000 0.000000 0.101368 0.000000
# 6 0.000000 0.000000 0.000000 0.000000 0.000000 0.037044
#
#
# Mechanical properties :
#
#
# Convention : Reuss Voigt Hill
#
# Bulk Modulus (GPa) = 48.53628 50.15014 49.34321
# Shear Modulus (GPa) = 19.45244 25.88040 22.66642
#
# Velocity S-wave (km/s) = 2.92872 3.37813 3.16142
# Velocity P-wave (km/s) = 5.73046 6.10974 5.92314
#
# Compressibility (1/GPa) = 0.02060315
#
# Stress axis : x y z
#
# Youngs Moduli (GPa) = 75.21478 78.48663 115.29367
#
# Poissons Ratio (x) = 0.28430 0.06277
# Poissons Ratio (y) = 0.27245 0.33281
# Poissons Ratio (z) = 0.04095 0.22656
#
# Static dielectric constant tensor:
#      x y z
#    x 1.890120 0.000000 0.000000 
#    y 0.000000 1.915480 0.000000 
#    z 0.000000 0.000000 1.825030 
# 
# From -- ./inp_files/16455.got.cif
#   From: 2010.05.17/outbox.cif.g08.bks.cpg/sg55_9_cif.got.tgz:16455.got - 2010.06.03 13:27:54.
