data_PCOD9429357
_publ_section_title
;
Structure prediction by ZEFSAII (Michael W. Deem and Ramdas Pophale) SiO2 
 PCOD9429357
Probable space group: P B A M
;
_chemical_formula_sum "Si O2"
_cell_formula_units_Z 64
_cell_length_a 18.000000
_cell_length_b 21.000000
_cell_length_c 9.000000
_cell_angle_alpha 90.000000
_cell_angle_beta 90.000000
_cell_angle_gamma 90.000000
_cell_volume 3402.000000
_symmetry_space_group_name_H-M "P B A M"
_symmetry_group_IT_number 55
_symmetry_cell_setting 'orthorhombic'
loop_
_space_group_symop_operation_xyz
x,y,z
-x,-y,z
1/2+x,1/2-y,-z
1/2-x,1/2+y,-z
-x,-y,-z
x,y,-z
1/2-x,1/2+y,z
1/2+x,1/2-y,z
loop_
_atom_site_type_symbol
_atom_site_label
_atom_site_fract_x
_atom_site_fract_y
_atom_site_fract_z
Si Si1 0.966505 0.930036 0.322901
Si Si2 0.944121 0.183426 0.822763
Si Si3 0.787915 0.574419 0.321251
Si Si4 0.305596 0.156705 0.321107
Si Si5 0.783363 0.202515 0.320943
Si Si6 0.034412 0.675471 0.821852
Si Si7 0.801382 0.955532 0.319226
Si Si8 0.441581 0.945393 0.821438
O O1 0.968208 0.916747 0.500000
O O2 0.881938 0.933803 0.269229
O O3 0.011888 0.875932 0.240730
O O4 0.000000 0.000000 0.301256
O O5 0.862900 0.187050 0.749957
O O6 0.982811 0.251214 0.785029
O O7 0.937216 0.179455 0.000000
O O8 0.793086 0.573482 0.500000
O O9 0.772522 0.646879 0.273222
O O10 0.721331 0.526968 0.276454
O O11 0.862661 0.546595 0.253962
O O12 0.312228 0.154095 0.500000
O O13 0.266143 0.224109 0.283179
O O14 0.386963 0.158651 0.251348
O O15 0.259546 0.095695 0.270599
O O16 0.789972 0.198810 0.500000
O O17 0.974435 0.623233 0.776789
O O18 0.042824 0.671052 0.000000
O O19 0.802992 0.954829 0.500000
O O20 0.500000 0.000000 0.779002
O O21 0.433567 0.947302 0.000000
#
# Coordination Sequence:
#
# PCOD9429357 Si02
#       8
#     8   8   8   8   8   8   8   8
#     4  10  20  35  55  76 102 137 171 205 252 306
#     4  10  20  34  53  77 104 134 169 209 250 296
#     4  10  20  34  53  76 101 129 166 211 254 299
#     4   9  17  31  52  75  98 127 167 210 248 295
#     4   9  18  33  52  74 100 131 166 205 252 303
#     4   9  19  35  52  73 104 137 167 204 253 304
#     4   9  18  32  50  73 100 129 163 207 255 298
#     4  10  21  36  53  74 103 138 173 210 254 304
#
# _framework density 18.812463000000001
#
# number of rings (size 3 to 8) (size 9 to 14) (size 15 to 20)
#    0.000    2.500    0.000    1.875    0.000    5.000 
#    0.000    2.500    0.000    0.000    0.000    0.000 
#    0.000    0.000    0.000    0.000    0.000    0.000 
#
# Total GULP energy -356924.565947 kJ/mol
# GULP energy per Si atom -5576.946343 kJ/mol
# Density = 1.876965 g / cm^3
# Si number density = 18.812463 Si / 1000 Ang^3
#
#
#
# Elastic Constant Matrix: (Units=GPa)
#
#
# Indices 1 2 3 4 5 6 
#
# 1 27.8757 3.3256 2.3815 0.0000 0.0000 0.0000
# 2 3.3256 51.8239 14.7813 0.0000 0.0000 0.0000
# 3 2.3815 14.7813 -4.7396 0.0000 0.0000 0.0000
# 4 0.0000 0.0000 0.0000 3.0662 0.0000 0.0000
# 5 0.0000 0.0000 0.0000 0.0000 -400.0071 0.0000
# 6 0.0000 0.0000 0.0000 0.0000 0.0000 35.1492
#
#
#
# Elastic Compliance Matrix: (Units=1/GPa)
#
#
# Indices 1 2 3 4 5 6 
#
# 1 0.035853 -0.003937 0.005737 0.000000 0.000000 0.000000
# 2 -0.003937 0.010644 0.031219 0.000000 0.000000 0.000000
# 3 0.005737 0.031219 -0.110744 0.000000 0.000000 0.000000
# 4 0.000000 0.000000 0.000000 0.326136 0.000000 0.000000
# 5 0.000000 0.000000 0.000000 0.000000 -0.002500 0.000000
# 6 0.000000 0.000000 0.000000 0.000000 0.000000 0.028450
#
#
# Mechanical properties :
#
#
# Convention : Reuss Voigt Hill
#
# Bulk Modulus (GPa) = 558.60784 12.88188 285.74486
# Shear Modulus (GPa) = 22.48206 -68.72689 -23.12241
#
# Velocity S-wave (km/s) = 3.46072 -6.05078 -3.50966
# Velocity P-wave (km/s) = 17.70730 6.47716 11.65321
#
# Compressibility (1/GPa) = 0.00179016
#
# Stress axis : x y z
#
# Youngs Moduli (GPa) = 27.89157 93.94534 -9.02980
#
# Poissons Ratio (x) = 0.36986 0.05180
# Poissons Ratio (y) = 0.10981 0.28190
# Poissons Ratio (z) = -0.16001 -2.93285
#
# Static dielectric constant tensor:
#      x y z
#    x 1.626080 0.000000 0.000000 
#    y 0.000000 1.671630 0.000000 
#    z 0.000000 0.000000 1.622830 
# 
# From -- ./inp_files/8036.got.cif
#   From: 2010.05.17/outbox.ucp.g08.bks.cvg/sg55_5_cif.got.tgz:8036.got - 2010.06.11 16:36:00.
