data_PCOD9429206
_publ_section_title
;
Structure prediction by ZEFSAII (Michael W. Deem and Ramdas Pophale) SiO2 
 PCOD9429206
Probable space group: P B A M
;
_chemical_formula_sum "Si O2"
_cell_formula_units_Z 38
_cell_length_a 34.445558
_cell_length_b 4.986655
_cell_length_c 10.135498
_cell_angle_alpha 90.000000
_cell_angle_beta 90.000000
_cell_angle_gamma 90.000000
_cell_volume 1740.955376
_symmetry_space_group_name_H-M "P B A M"
_symmetry_group_IT_number 55
_symmetry_cell_setting 'orthorhombic'
loop_
_space_group_symop_operation_xyz
x,y,z
-x,-y,z
1/2+x,1/2-y,-z
1/2-x,1/2+y,-z
-x,-y,-z
x,y,-z
1/2-x,1/2+y,z
1/2+x,1/2-y,z
loop_
_atom_site_type_symbol
_atom_site_label
_atom_site_fract_x
_atom_site_fract_y
_atom_site_fract_z
Si Si1 0.859634 0.685817 0.000000
Si Si2 0.724187 0.423385 0.500000
Si Si3 0.000000 0.000000 0.500000
Si Si4 0.962524 0.322618 0.742710
Si Si5 0.336617 0.605667 0.725671
Si Si6 0.582510 0.670159 0.000000
Si Si7 0.117003 0.606327 0.646287
O O1 0.834107 0.760916 0.129026
O O2 0.883553 0.403705 0.000000
O O3 0.895121 0.892885 0.000000
O O4 0.760912 0.619697 0.500000
O O5 0.699794 0.473843 0.634354
O O6 0.026334 0.859896 0.618009
O O7 0.925100 0.488670 0.693898
O O8 0.000000 0.500000 0.772482
O O9 0.945653 0.186477 0.873160
O O10 0.364207 0.344557 0.731666
O O11 0.356687 0.846544 0.647401
O O12 0.114445 0.720243 0.500000
#
# Coordination Sequence:
#
# PCOD9429206 Si02
#       7
#     4   4   2   8   8   4   8
#     4  12  24  46  74 109 134 189 239 294 348 427
#     4  12  26  46  76 116 147 181 224 274 352 427
#     4  12  30  42  64  90 140 186 234 308 382 416
#     4  12  28  44  65 100 141 190 246 318 366 419
#     4  12  24  45  74 106 144 180 232 287 339 434
#     4  12  27  47  72  95 140 189 255 300 360 427
#     4  12  23  42  71 100 137 189 243 290 354 410
#
# _framework density 21.827096000000001
#
# number of rings (size 3 to 8) (size 9 to 14) (size 15 to 20)
#    0.000    0.000    7.368    1.895    5.895    0.421 
#    0.000    1.053    0.000    0.000    0.000    0.000 
#    0.000    0.000    0.000    0.000    0.000    0.000 
#
# Total GULP energy -211721.054178 kJ/mol
# GULP energy per Si atom -5571.606689 kJ/mol
# Density = 2.177742 g / cm^3
# Si number density = 21.827096 Si / 1000 Ang^3
#
#
#
# Elastic Constant Matrix: (Units=GPa)
#
#
# Indices 1 2 3 4 5 6 
#
# 1 73.0266 1.9886 29.5708 0.0000 0.0000 0.0000
# 2 1.9886 68.5502 -7.9567 0.0000 0.0000 0.0000
# 3 29.5708 -7.9567 159.6657 0.0000 0.0000 0.0000
# 4 0.0000 0.0000 0.0000 34.2519 0.0000 0.0000
# 5 0.0000 0.0000 0.0000 0.0000 14.3243 0.0000
# 6 0.0000 0.0000 0.0000 0.0000 0.0000 26.1287
#
#
#
# Elastic Compliance Matrix: (Units=1/GPa)
#
#
# Indices 1 2 3 4 5 6 
#
# 1 0.014843 -0.000754 -0.002786 0.000000 0.000000 0.000000
# 2 -0.000754 0.014711 0.000873 0.000000 0.000000 0.000000
# 3 -0.002786 0.000873 0.006823 0.000000 0.000000 0.000000
# 4 0.000000 0.000000 0.000000 0.029195 0.000000 0.000000
# 5 0.000000 0.000000 0.000000 0.000000 0.069812 0.000000
# 6 0.000000 0.000000 0.000000 0.000000 0.000000 0.038272
#
#
# Mechanical properties :
#
#
# Convention : Reuss Voigt Hill
#
# Bulk Modulus (GPa) = 32.21576 38.71645 35.46610
# Shear Modulus (GPa) = 26.40784 33.45028 29.92906
#
# Velocity S-wave (km/s) = 3.48209 3.91898 3.70697
# Velocity P-wave (km/s) = 5.56400 6.18499 5.88270
#
# Compressibility (1/GPa) = 0.03104071
#
# Stress axis : x y z
#
# Youngs Moduli (GPa) = 67.37402 67.97619 146.57070
#
# Poissons Ratio (x) = 0.05125 0.40842
# Poissons Ratio (y) = 0.05080 -0.12792
# Poissons Ratio (z) = 0.18774 -0.05933
#
# Static dielectric constant tensor:
#      x y z
#    x 1.807480 0.000000 0.000000 
#    y 0.000000 1.798270 0.000000 
#    z 0.000000 0.000000 1.876930 
# 
# From -- ./inp_files/16120.got.cif
#   From: 2010.05.17/outbox.cif.g08.bks.cpg/sg55_9_cif.got.tgz:16120.got - 2010.06.03 13:27:54.
