data_PCOD9429328
_publ_section_title
;
Structure prediction by ZEFSAII (Michael W. Deem and Ramdas Pophale) SiO2 
 PCOD9429328
Probable space group: P B A M
;
_chemical_formula_sum "Si O2"
_cell_formula_units_Z 64
_cell_length_a 24.000000
_cell_length_b 15.000000
_cell_length_c 9.000000
_cell_angle_alpha 90.000000
_cell_angle_beta 90.000000
_cell_angle_gamma 90.000000
_cell_volume 3240.000000
_symmetry_space_group_name_H-M "P B A M"
_symmetry_group_IT_number 55
_symmetry_cell_setting 'orthorhombic'
loop_
_space_group_symop_operation_xyz
x,y,z
-x,-y,z
1/2+x,1/2-y,-z
1/2-x,1/2+y,-z
-x,-y,-z
x,y,-z
1/2-x,1/2+y,z
1/2+x,1/2-y,z
loop_
_atom_site_type_symbol
_atom_site_label
_atom_site_fract_x
_atom_site_fract_y
_atom_site_fract_z
Si Si1 0.057017 0.650778 0.671574
Si Si2 0.646906 0.531999 0.324715
Si Si3 0.360632 0.279088 0.823341
Si Si4 0.737665 0.042394 0.829871
Si Si5 0.739527 0.255175 0.825968
Si Si6 0.570175 0.198208 0.327461
Si Si7 0.630979 0.015285 0.327793
Si Si8 0.370916 0.646427 0.822968
O O1 0.070071 0.676242 0.500000
O O2 0.090232 0.713827 0.781624
O O3 0.079680 0.551286 0.691801
O O4 0.991803 0.661802 0.692048
O O5 0.640381 0.535109 0.500000
O O6 0.629973 0.625393 0.251468
O O7 0.711483 0.520740 0.277149
O O8 0.616967 0.447063 0.254066
O O9 0.302037 0.237868 0.764057
O O10 0.354775 0.292030 0.000000
O O11 0.681881 0.993796 0.779761
O O12 0.727589 0.149082 0.818726
O O13 0.752856 0.021990 0.000000
O O14 0.688504 0.312915 0.765519
O O15 0.742585 0.279230 0.000000
O O16 0.576862 0.226001 0.500000
O O17 0.584445 0.279503 0.221725
O O18 0.610777 0.115344 0.300160
O O19 0.649360 0.009309 0.500000
O O20 0.368261 0.635808 0.000000
#
# Coordination Sequence:
#
# PCOD9429328 Si02
#       8
#     8   8   8   8   8   8   8   8
#     4  10  22  39  59  85 119 160 201 245 295 347
#     4  11  23  39  59  87 120 155 194 241 297 359
#     4  10  21  40  61  86 117 154 198 246 298 349
#     4  10  19  35  56  84 120 156 191 236 290 344
#     4   8  17  33  54  80 113 150 185 231 289 343
#     4  10  21  39  60  85 121 160 200 245 292 346
#     4  10  20  35  57  87 120 159 200 238 287 350
#     4  11  21  37  60  88 119 155 198 244 295 350
#
# _framework density 19.753086
#
# number of rings (size 3 to 8) (size 9 to 14) (size 15 to 20)
#    0.000    2.000    1.250    3.375    1.750    2.500 
#    0.000    1.875    0.000    6.000    0.000    0.000 
#    0.000    0.000    0.000    0.000    0.000    0.000 
#
# Total GULP energy -357206.381567 kJ/mol
# GULP energy per Si atom -5581.349712 kJ/mol
# Density = 1.970813 g / cm^3
# Si number density = 19.753086 Si / 1000 Ang^3
#
#
#
# Elastic Constant Matrix: (Units=GPa)
#
#
# Indices 1 2 3 4 5 6 
#
# 1 37.9238 -15.3750 13.4756 0.0000 0.0000 0.0000
# 2 -15.3750 60.6702 34.9210 0.0000 0.0000 0.0000
# 3 13.4756 34.9210 73.8649 0.0000 0.0000 0.0000
# 4 0.0000 0.0000 0.0000 22.5835 0.0000 0.0000
# 5 0.0000 0.0000 0.0000 0.0000 25.1082 0.0000
# 6 0.0000 0.0000 0.0000 0.0000 0.0000 19.8445
#
#
#
# Elastic Compliance Matrix: (Units=1/GPa)
#
#
# Indices 1 2 3 4 5 6 
#
# 1 0.040392 0.019890 -0.016772 0.000000 0.000000 0.000000
# 2 0.019890 0.032439 -0.018965 0.000000 0.000000 0.000000
# 3 -0.016772 -0.018965 0.025564 0.000000 0.000000 0.000000
# 4 0.000000 0.000000 0.000000 0.044280 0.000000 0.000000
# 5 0.000000 0.000000 0.000000 0.000000 0.039828 0.000000
# 6 0.000000 0.000000 0.000000 0.000000 0.000000 0.050392
#
#
# Mechanical properties :
#
#
# Convention : Reuss Voigt Hill
#
# Bulk Modulus (GPa) = 14.99222 26.50025 20.74624
# Shear Modulus (GPa) = 17.43236 22.80306 20.11771
#
# Velocity S-wave (km/s) = 2.97393 3.40134 3.19479
# Velocity P-wave (km/s) = 4.40439 5.37311 4.91269
#
# Compressibility (1/GPa) = 0.06670124
#
# Stress axis : x y z
#
# Youngs Moduli (GPa) = 24.75717 30.82707 39.11736
#
# Poissons Ratio (x) = -0.61316 0.65609
# Poissons Ratio (y) = -0.49242 0.74185
# Poissons Ratio (z) = 0.41524 0.58463
#
# Static dielectric constant tensor:
#      x y z
#    x 1.711120 0.000000 0.000000 
#    y 0.000000 1.709280 0.000000 
#    z 0.000000 0.000000 1.680170 
# 
# From -- ./inp_files/9738.got.cif
#   From: 2010.05.17/outbox.ucp.g08.bks.cvg/sg55_5_cif.got.tgz:9738.got - 2010.06.11 16:36:00.
