data_PCOD9429146
_publ_section_title
;
Structure prediction by ZEFSAII (Michael W. Deem and Ramdas Pophale) SiO2 
 PCOD9429146
Probable space group: P B A M
;
_chemical_formula_sum "Si O2"
_cell_formula_units_Z 42
_cell_length_a 21.198432
_cell_length_b 10.816446
_cell_length_c 7.716492
_cell_angle_alpha 90.000000
_cell_angle_beta 90.000000
_cell_angle_gamma 90.000000
_cell_volume 1769.327530
_symmetry_space_group_name_H-M "P B A M"
_symmetry_group_IT_number 55
_symmetry_cell_setting 'orthorhombic'
loop_
_space_group_symop_operation_xyz
x,y,z
-x,-y,z
1/2+x,1/2-y,-z
1/2-x,1/2+y,-z
-x,-y,-z
x,y,-z
1/2-x,1/2+y,z
1/2+x,1/2-y,z
loop_
_atom_site_type_symbol
_atom_site_label
_atom_site_fract_x
_atom_site_fract_y
_atom_site_fract_z
Si Si1 0.217834 0.970003 0.699580
Si Si2 0.500000 0.500000 0.000000
Si Si3 0.410018 0.595562 0.701291
Si Si4 0.705799 0.791942 0.798991
Si Si5 0.930054 0.647340 0.790355
Si Si6 0.073873 0.634040 0.210222
O O1 0.212462 0.936996 0.500000
O O2 0.237653 0.842066 0.787071
O O3 0.148690 0.012310 0.761152
O O4 0.260347 0.091577 0.714515
O O5 0.463200 0.577061 0.845428
O O6 0.425812 0.567154 0.500000
O O7 0.391579 0.740200 0.711537
O O8 0.633057 0.783906 0.734151
O O9 0.702576 0.826139 0.000000
O O10 0.911514 0.508063 0.741727
O O11 0.003220 0.663748 0.730324
O O12 0.927015 0.651733 0.000000
O O13 0.069304 0.641216 0.000000
#
# Coordination Sequence:
#
# PCOD9429146 Si02
#       6
#     8   2   8   8   8   8
#     4  11  27  48  66  97 142 186 232 292 358 420
#     4  12  26  44  72  92 140 176 214 290 344 408
#     4  11  26  43  68 102 136 180 233 284 353 429
#     4  11  24  42  71 100 131 179 243 292 342 418
#     4   9  17  37  65  96 137 177 216 276 350 414
#     4   8  18  35  63  99 131 174 226 276 341 417
#
# _framework density 23.737832999999998
#
# number of rings (size 3 to 8) (size 9 to 14) (size 15 to 20)
#    0.000    1.905    0.952    2.571    8.000    0.000 
#    0.000    3.810    0.000    0.000    0.000    0.000 
#    0.000    0.000    0.000    0.000    0.000    0.000 
#
# Total GULP energy -234103.425581 kJ/mol
# GULP energy per Si atom -5573.891085 kJ/mol
# Density = 2.368380 g / cm^3
# Si number density = 23.737833 Si / 1000 Ang^3
#
#
#
# Elastic Constant Matrix: (Units=GPa)
#
#
# Indices 1 2 3 4 5 6 
#
# 1 -16.6638 80.4536 -2.8336 0.0000 0.0000 0.0000
# 2 80.4536 78.3531 11.1722 0.0000 0.0000 0.0000
# 3 -2.8336 11.1722 73.7179 0.0000 0.0000 0.0000
# 4 0.0000 0.0000 0.0000 18.0032 0.0000 0.0000
# 5 0.0000 0.0000 0.0000 0.0000 5.3431 0.0000
# 6 0.0000 0.0000 0.0000 0.0000 0.0000 25.4553
#
#
#
# Elastic Compliance Matrix: (Units=1/GPa)
#
#
# Indices 1 2 3 4 5 6 
#
# 1 -0.009793 0.010333 -0.001942 0.000000 0.000000 0.000000
# 2 0.010333 0.002143 0.000072 0.000000 0.000000 0.000000
# 3 -0.001942 0.000072 0.013480 0.000000 0.000000 0.000000
# 4 0.000000 0.000000 0.000000 0.055546 0.000000 0.000000
# 5 0.000000 0.000000 0.000000 0.000000 0.187156 0.000000
# 6 0.000000 0.000000 0.000000 0.000000 0.000000 0.039285
#
#
# Mechanical properties :
#
#
# Convention : Reuss Voigt Hill
#
# Bulk Modulus (GPa) = 43.94716 34.77682 39.36199
# Shear Modulus (GPa) = 17.95497 12.86800 15.41149
#
# Velocity S-wave (km/s) = 2.75323 2.33080 2.55078
# Velocity P-wave (km/s) = 5.35358 4.68249 5.02924
#
# Compressibility (1/GPa) = 0.02275460
#
# Stress axis : x y z
#
# Youngs Moduli (GPa) = -102.11140 466.70197 74.18623
#
# Poissons Ratio (x) = -4.82230 0.14410
# Poissons Ratio (y) = 1.05509 -0.00537
# Poissons Ratio (z) = -0.19834 -0.03381
#
# Static dielectric constant tensor:
#      x y z
#    x 1.945950 0.000000 0.000000 
#    y 0.000000 1.949820 0.000000 
#    z 0.000000 0.000000 1.852200 
# 
# From -- ./inp_files/9400.got.cif
#   From: 2010.05.17/outbox.cif.g08.bks.cpg/sg55_5_cif.got.tgz:9400.got - 2010.06.03 13:27:54.
