data_PCOD9429220
_publ_section_title
;
Structure prediction by ZEFSAII (Michael W. Deem and Ramdas Pophale) SiO2 
 PCOD9429220
Probable space group: P B A M
;
_chemical_formula_sum "Si O2"
_cell_formula_units_Z 56
_cell_length_a 33.916799
_cell_length_b 8.028056
_cell_length_c 7.248913
_cell_angle_alpha 90.000000
_cell_angle_beta 90.000000
_cell_angle_gamma 90.000000
_cell_volume 1973.777248
_symmetry_space_group_name_H-M "P B A M"
_symmetry_group_IT_number 55
_symmetry_cell_setting 'orthorhombic'
loop_
_space_group_symop_operation_xyz
x,y,z
-x,-y,z
1/2+x,1/2-y,-z
1/2-x,1/2+y,-z
-x,-y,-z
x,y,-z
1/2-x,1/2+y,z
1/2+x,1/2-y,z
loop_
_atom_site_type_symbol
_atom_site_label
_atom_site_fract_x
_atom_site_fract_y
_atom_site_fract_z
Si Si1 0.116418 0.069347 0.787941
Si Si2 0.046131 0.868573 0.226012
Si Si3 0.257991 0.663258 0.712992
Si Si4 0.329671 0.872374 0.222275
Si Si5 0.974085 0.667643 0.778703
Si Si6 0.188096 0.861325 0.276121
Si Si7 0.403439 0.046160 0.775915
O O1 0.073651 0.021228 0.712332
O O2 0.144224 0.904278 0.786797
O O3 0.144378 0.212577 0.710599
O O4 0.109958 0.117324 0.000000
O O5 0.072758 0.708902 0.279684
O O6 0.002024 0.819019 0.285585
O O7 0.044947 0.877888 0.000000
O O8 0.252221 0.623026 0.500000
O O9 0.285538 0.829586 0.718200
O O10 0.285491 0.519279 0.791467
O O11 0.214888 0.706780 0.789217
O O12 0.358273 0.022307 0.284100
O O13 0.328362 0.873181 0.000000
O O14 0.930688 0.611458 0.717439
O O15 0.000000 0.500000 0.746783
O O16 0.971614 0.688502 0.000000
O O17 0.187248 0.860415 0.500000
O O18 0.403397 0.047175 0.000000
#
# Coordination Sequence:
#
# PCOD9429220 Si02
#       7
#     8   8   8   8   8   8   8
#     4   9  17  28  41  60  86 109 129 161 204 241
#     4   8  13  22  37  57  81 109 138 165 195 234
#     4   9  18  32  47  61  79 105 135 165 198 238
#     4   9  17  28  41  60  86 109 129 161 204 241
#     4   7  10  18  33  53  78 107 136 164 194 229
#     4   9  18  32  47  61  79 105 135 165 198 238
#     4   8  13  22  37  57  81 109 138 165 195 234
#
# _framework density 28.371994999999998
#
# number of rings (size 3 to 8) (size 9 to 14) (size 15 to 20)
#    0.000    3.571    0.000    1.714    0.000    1.714 
#    0.000    0.714    0.000    4.286    0.000    1.000 
#    0.000    8.000    0.000    0.000    0.000    0.000 
#
# Total GULP energy -313056.416147 kJ/mol
# GULP energy per Si atom -5590.293145 kJ/mol
# Density = 2.830742 g / cm^3
# Si number density = 28.371995 Si / 1000 Ang^3
#
#
#
# Elastic Constant Matrix: (Units=GPa)
#
#
# Indices 1 2 3 4 5 6 
#
# 1 233.8336 19.3187 -7.2826 0.0000 0.0000 0.0000
# 2 19.3187 71.0344 -4.4058 0.0000 0.0000 0.0000
# 3 -7.2826 -4.4058 137.5328 0.0000 0.0000 0.0000
# 4 0.0000 0.0000 0.0000 -435.7452 0.0000 0.0000
# 5 0.0000 0.0000 0.0000 0.0000 -207.8133 0.0000
# 6 0.0000 0.0000 0.0000 0.0000 0.0000 65.7424
#
#
#
# Elastic Compliance Matrix: (Units=1/GPa)
#
#
# Indices 1 2 3 4 5 6 
#
# 1 0.004380 -0.001179 0.000194 0.000000 0.000000 0.000000
# 2 -0.001179 0.014423 0.000400 0.000000 0.000000 0.000000
# 3 0.000194 0.000400 0.007294 0.000000 0.000000 0.000000
# 4 0.000000 0.000000 0.000000 -0.002295 0.000000 0.000000
# 5 0.000000 0.000000 0.000000 0.000000 -0.004812 0.000000
# 6 0.000000 0.000000 0.000000 0.000000 0.000000 0.015211
#
#
# Mechanical properties :
#
#
# Convention : Reuss Voigt Hill
#
# Bulk Modulus (GPa) = 40.11805 50.85127 45.48466
# Shear Modulus (GPa) = 114.46672 -86.57852 13.94410
#
# Velocity S-wave (km/s) = 6.35866 -5.53008 2.21933
# Velocity P-wave (km/s) = 8.25111 4.77637 4.75747
#
# Compressibility (1/GPa) = 0.02492644
#
# Stress axis : x y z
#
# Youngs Moduli (GPa) = 228.30985 69.33296 137.09757
#
# Poissons Ratio (x) = 0.08175 -0.02662
# Poissons Ratio (y) = 0.26921 -0.05478
# Poissons Ratio (z) = -0.04433 -0.02771
#
# Static dielectric constant tensor:
#      x y z
#    x 2.151400 0.000000 0.000000 
#    y 0.000000 2.348830 0.000000 
#    z 0.000000 0.000000 2.092770 
# 
# From -- ./inp_files/16034.got.cif
#   From: 2010.05.17/outbox.cif.g08.bks.cpg/sg55_9_cif.got.tgz:16034.got - 2010.06.03 13:27:54.
