data_PCOD9429752
_publ_section_title
;
Structure prediction by ZEFSAII (Michael W. Deem and Ramdas Pophale) SiO2 
 PCOD9429752
Probable space group: P C C N
;
_chemical_formula_sum "Si O2"
_cell_formula_units_Z 32
_cell_length_a 17.705754
_cell_length_b 7.507766
_cell_length_c 9.206447
_cell_angle_alpha 90.000000
_cell_angle_beta 90.000000
_cell_angle_gamma 90.000000
_cell_volume 1223.819056
_symmetry_space_group_name_H-M "P C C N"
_symmetry_group_IT_number 56
_symmetry_cell_setting 'orthorhombic'
loop_
_space_group_symop_operation_xyz
x,y,z
1/2-x,1/2-y,z
1/2+x,-y,1/2-z
-x,1/2+y,1/2-z
-x,-y,-z
1/2+x,1/2+y,-z
1/2-x,y,1/2+z
x,1/2-y,1/2+z
loop_
_atom_site_type_symbol
_atom_site_label
_atom_site_fract_x
_atom_site_fract_y
_atom_site_fract_z
Si Si1 0.301682 0.474472 0.011220
Si Si2 0.168572 0.388911 0.840354
Si Si3 0.944111 0.226964 0.970319
Si Si4 0.500103 0.562243 0.756959
O O1 0.298600 0.411333 0.177837
O O2 0.364516 0.627899 0.007174
O O3 0.219263 0.512897 0.945091
O O4 0.326946 0.307239 0.910858
O O5 0.081716 0.435391 0.818090
O O6 0.940426 0.404011 0.871922
O O7 0.996931 0.102398 0.867556
O O8 0.985812 0.220723 0.123971
#
# Coordination Sequence:
#
# PCOD9429752 Si02
#       4
#     8   8   8   8
#     4  10  20  35  58  91 124 158 205 267 315 371
#     4  10  18  32  58  86 118 156 202 252 309 371
#     4  10  22  38  61  93 129 162 212 266 320 376
#     4  10  20  38  61  90 123 163 209 262 314 378
#
# _framework density 26.147658
#
# number of rings (size 3 to 8) (size 9 to 14) (size 15 to 20)
#    0.000    2.000    0.000    7.500    0.000    1.000 
#    0.000   10.000    0.000   24.000    0.000    0.000 
#    0.000    0.000    0.000    0.000    0.000    0.000 
#
# Total GULP energy -178874.839480 kJ/mol
# GULP energy per Si atom -5589.838734 kJ/mol
# Density = 2.608814 g / cm^3
# Si number density = 26.147658 Si / 1000 Ang^3
#
#
#
# Elastic Constant Matrix: (Units=GPa)
#
#
# Indices 1 2 3 4 5 6 
#
# 1 174.9945 46.3818 74.2663 0.0000 0.0000 0.0000
# 2 46.3818 57.8315 36.5293 0.0000 0.0000 0.0000
# 3 74.2663 36.5293 240.9524 0.0000 0.0000 0.0000
# 4 0.0000 0.0000 0.0000 35.8264 0.0000 0.0000
# 5 0.0000 0.0000 0.0000 0.0000 48.5798 0.0000
# 6 0.0000 0.0000 0.0000 0.0000 0.0000 47.7630
#
#
#
# Elastic Compliance Matrix: (Units=1/GPa)
#
#
# Indices 1 2 3 4 5 6 
#
# 1 0.007781 -0.005226 -0.001606 0.000000 0.000000 0.000000
# 2 -0.005226 0.022633 -0.001820 0.000000 0.000000 0.000000
# 3 -0.001606 -0.001820 0.004921 0.000000 0.000000 0.000000
# 4 0.000000 0.000000 0.000000 0.027912 0.000000 0.000000
# 5 0.000000 0.000000 0.000000 0.000000 0.020585 0.000000
# 6 0.000000 0.000000 0.000000 0.000000 0.000000 0.020937
#
#
# Mechanical properties :
#
#
# Convention : Reuss Voigt Hill
#
# Bulk Modulus (GPa) = 55.46284 87.57037 71.51660
# Shear Modulus (GPa) = 39.03666 47.54055 43.28861
#
# Velocity S-wave (km/s) = 3.86804 4.26861 4.07325
# Velocity P-wave (km/s) = 6.41922 7.60645 7.03792
#
# Compressibility (1/GPa) = 0.01803009
#
# Stress axis : x y z
#
# Youngs Moduli (GPa) = 128.51398 44.18320 203.20302
#
# Poissons Ratio (x) = 0.23091 0.32635
# Poissons Ratio (y) = 0.67165 0.36991
# Poissons Ratio (z) = 0.20640 0.08043
#
# Static dielectric constant tensor:
#      x y z
#    x 2.034080 0.000000 0.000000 
#    y 0.000000 2.236200 0.000000 
#    z 0.000000 0.000000 1.992340 
# 
# From -- ./inp_files/4314.got.cif
#   From: 2010.05.17/outbox.cif.g08.bks.cpg/sg56_3_cif.got.tgz:4314.got - 2010.06.03 13:42:01.
