data_PCOD9429909
_publ_section_title
;
Structure prediction by ZEFSAII (Michael W. Deem and Ramdas Pophale) SiO2 
 PCOD9429909
Probable space group: P C C N
;
_chemical_formula_sum "Si O2"
_cell_formula_units_Z 44
_cell_length_a 9.701510
_cell_length_b 10.844425
_cell_length_c 18.534728
_cell_angle_alpha 90.000000
_cell_angle_beta 90.000000
_cell_angle_gamma 90.000000
_cell_volume 1949.988644
_symmetry_space_group_name_H-M "P C C N"
_symmetry_group_IT_number 56
_symmetry_cell_setting 'orthorhombic'
loop_
_space_group_symop_operation_xyz
x,y,z
1/2-x,1/2-y,z
1/2+x,-y,1/2-z
-x,1/2+y,1/2-z
-x,-y,-z
1/2+x,1/2+y,-z
1/2-x,y,1/2+z
x,1/2-y,1/2+z
loop_
_atom_site_type_symbol
_atom_site_label
_atom_site_fract_x
_atom_site_fract_y
_atom_site_fract_z
Si Si1 0.138032 0.608404 0.310973
Si Si2 0.113490 0.502574 0.097722
Si Si3 0.165817 0.499427 0.694182
Si Si4 0.805982 0.018734 0.565906
Si Si5 0.550600 0.250919 0.813141
Si Si6 0.250000 0.250000 0.866495
O O1 0.251517 0.526888 0.267629
O O2 0.192224 0.600567 0.392460
O O3 0.110161 0.734627 0.267674
O O4 0.985218 0.554344 0.298908
O O5 0.225759 0.429042 0.144182
O O6 0.085340 0.628660 0.142022
O O7 0.961301 0.446261 0.090972
O O8 0.179979 0.527287 0.019978
O O9 0.128830 0.630642 0.657006
O O10 0.773662 0.875099 0.586943
O O11 0.387286 0.267718 0.819148
#
# Coordination Sequence:
#
# PCOD9429909 Si02
#       6
#     8   8   8   8   8   4
#     4  11  21  35  61  90 119 153 200 248 292 356
#     4   9  20  37  61  83 118 153 203 242 300 352
#     4  11  21  38  61  87 118 161 194 243 299 366
#     4  10  20  38  62  87 116 159 198 250 295 359
#     4  10  21  38  61  87 118 160 200 239 299 366
#     4  10  18  38  60  86 114 160 198 236 304 364
#
# _framework density 22.564233999999999
#
# number of rings (size 3 to 8) (size 9 to 14) (size 15 to 20)
#    0.000    1.818    1.818    5.455    0.000    0.727 
#    0.000    3.636   24.000    0.000    0.000    0.000 
#    0.000    0.000    0.000    0.000    0.000    0.000 
#
# Total GULP energy -245419.123251 kJ/mol
# GULP energy per Si atom -5577.707347 kJ/mol
# Density = 2.251288 g / cm^3
# Si number density = 22.564234 Si / 1000 Ang^3
#
#
#
# Elastic Constant Matrix: (Units=GPa)
#
#
# Indices 1 2 3 4 5 6 
#
# 1 192.3582 12.5357 44.6653 0.0000 0.0000 0.0000
# 2 12.5357 38.5506 13.5801 0.0000 0.0000 0.0000
# 3 44.6653 13.5801 100.0913 0.0000 0.0000 0.0000
# 4 0.0000 0.0000 0.0000 14.9742 0.0000 0.0000
# 5 0.0000 0.0000 0.0000 0.0000 40.8638 0.0000
# 6 0.0000 0.0000 0.0000 0.0000 0.0000 21.3543
#
#
#
# Elastic Compliance Matrix: (Units=1/GPa)
#
#
# Indices 1 2 3 4 5 6 
#
# 1 0.005838 -0.001030 -0.002466 0.000000 0.000000 0.000000
# 2 -0.001030 0.027424 -0.003261 0.000000 0.000000 0.000000
# 3 -0.002466 -0.003261 0.011534 0.000000 0.000000 0.000000
# 4 0.000000 0.000000 0.000000 0.066782 0.000000 0.000000
# 5 0.000000 0.000000 0.000000 0.000000 0.024472 0.000000
# 6 0.000000 0.000000 0.000000 0.000000 0.000000 0.046829
#
#
# Mechanical properties :
#
#
# Convention : Reuss Voigt Hill
#
# Bulk Modulus (GPa) = 31.96706 52.50694 42.23700
# Shear Modulus (GPa) = 24.17582 32.78639 28.48111
#
# Velocity S-wave (km/s) = 3.27681 3.81599 3.55663
# Velocity P-wave (km/s) = 5.33990 6.53730 5.96870
#
# Compressibility (1/GPa) = 0.03128220
#
# Stress axis : x y z
#
# Youngs Moduli (GPa) = 171.28410 36.46488 86.70333
#
# Poissons Ratio (x) = 0.03756 0.21377
# Poissons Ratio (y) = 0.17641 0.28275
# Poissons Ratio (z) = 0.42231 0.11892
#
# Static dielectric constant tensor:
#      x y z
#    x 1.936890 0.000000 0.000000 
#    y 0.000000 1.963580 0.000000 
#    z 0.000000 0.000000 1.851150 
# 
# From -- ./inp_files/14684.got.cif
#   From: 2010.05.17/outbox.cif.g08.bks.cpg/sg56_8_cif.got.tgz:14684.got - 2010.06.03 13:42:01.
