data_PCOD9429417
_publ_section_title
;
Structure prediction by ZEFSAII (Michael W. Deem and Ramdas Pophale) SiO2 
 PCOD9429417
Probable space group: P B A M
;
_chemical_formula_sum "Si O2"
_cell_formula_units_Z 64
_cell_length_a 18.000000
_cell_length_b 24.000000
_cell_length_c 9.000000
_cell_angle_alpha 90.000000
_cell_angle_beta 90.000000
_cell_angle_gamma 90.000000
_cell_volume 3888.000000
_symmetry_space_group_name_H-M "P B A M"
_symmetry_group_IT_number 55
_symmetry_cell_setting 'orthorhombic'
loop_
_space_group_symop_operation_xyz
x,y,z
-x,-y,z
1/2+x,1/2-y,-z
1/2-x,1/2+y,-z
-x,-y,-z
x,y,-z
1/2-x,1/2+y,z
1/2+x,1/2-y,z
loop_
_atom_site_type_symbol
_atom_site_label
_atom_site_fract_x
_atom_site_fract_y
_atom_site_fract_z
Si Si1 0.206505 0.132014 0.673118
Si Si2 0.960852 0.269876 0.827047
Si Si3 0.174577 0.546341 0.320925
Si Si4 0.634022 0.067306 0.176695
Si Si5 0.030250 0.602312 0.821412
Si Si6 0.186334 0.739923 0.666554
Si Si7 0.319978 0.819640 0.673615
Si Si8 0.914822 0.789189 0.320976
O O1 0.191986 0.118557 0.500000
O O2 0.253142 0.080510 0.735054
O O3 0.261333 0.185518 0.674719
O O4 0.130091 0.157011 0.736764
O O5 0.004264 0.222081 0.740144
O O6 0.980719 0.332969 0.777739
O O7 0.874604 0.263578 0.792017
O O8 0.978197 0.265787 0.000000
O O9 0.173669 0.547748 0.500000
O O10 0.171232 0.483840 0.261237
O O11 0.101174 0.577267 0.260286
O O12 0.545682 0.069615 0.210870
O O13 0.666619 0.126175 0.229580
O O14 0.641706 0.060675 0.000000
O O15 0.042569 0.600596 0.000000
O O16 0.152404 0.739181 0.500000
O O17 0.237581 0.794131 0.680399
O O18 0.336790 0.831908 0.500000
O O19 0.370862 0.767401 0.721735
O O20 0.913939 0.791375 0.500000
#
# Coordination Sequence:
#
# PCOD9429417 Si02
#       8
#     8   8   8   8   8   8   8   8
#     4   8  16  31  49  70  93 120 157 203 244 279
#     4  11  20  30  46  73 102 130 161 193 235 290
#     4  11  21  33  51  71  93 125 171 210 237 278
#     4  11  22  35  48  65  99 136 166 199 241 286
#     4  10  21  34  44  63  99 137 166 195 233 279
#     4   9  17  32  51  71  95 124 159 201 245 285
#     4   9  18  32  51  72  93 121 164 207 240 281
#     4   9  17  31  51  70  93 124 157 197 244 286
#
# _framework density 16.460905
#
# number of rings (size 3 to 8) (size 9 to 14) (size 15 to 20)
#    0.000    2.250    2.500    3.000    0.000    3.500 
#    0.000    3.125    0.000    0.000    0.000    0.875 
#    0.000    7.000    0.000    0.000    0.000    0.000 
#
# Total GULP energy -356586.704465 kJ/mol
# GULP energy per Si atom -5571.667257 kJ/mol
# Density = 1.642344 g / cm^3
# Si number density = 16.460905 Si / 1000 Ang^3
#
#
#
# Elastic Constant Matrix: (Units=GPa)
#
#
# Indices 1 2 3 4 5 6 
#
# 1 2.2168 -3.2057 -3.7162 0.0000 0.0000 0.0000
# 2 -3.2057 26.2857 7.5095 0.0000 0.0000 0.0000
# 3 -3.7162 7.5095 9.4635 0.0000 0.0000 0.0000
# 4 0.0000 0.0000 0.0000 18.6697 0.0000 0.0000
# 5 0.0000 0.0000 0.0000 0.0000 -2.9845 0.0000
# 6 0.0000 0.0000 0.0000 0.0000 0.0000 22.1479
#
#
#
# Elastic Compliance Matrix: (Units=1/GPa)
#
#
# Indices 1 2 3 4 5 6 
#
# 1 1.325936 0.016747 0.507394 0.000000 0.000000 0.000000
# 2 0.016747 0.049408 -0.032630 0.000000 0.000000 0.000000
# 3 0.507394 -0.032630 0.330811 0.000000 0.000000 0.000000
# 4 0.000000 0.000000 0.000000 0.053563 0.000000 0.000000
# 5 0.000000 0.000000 0.000000 0.000000 -0.335068 0.000000
# 6 0.000000 0.000000 0.000000 0.000000 0.000000 0.045151
#
#
# Mechanical properties :
#
#
# Convention : Reuss Voigt Hill
#
# Bulk Modulus (GPa) = 0.37186 4.34903 2.36044
# Shear Modulus (GPa) = 3.61489 10.05851 6.83670
#
# Velocity S-wave (km/s) = 1.48351 2.47463 2.04017
# Velocity P-wave (km/s) = 1.77787 3.28829 2.64326
#
# Compressibility (1/GPa) = 2.68917711
#
# Stress axis : x y z
#
# Youngs Moduli (GPa) = 0.75418 20.23969 3.02288
#
# Poissons Ratio (x) = -0.33896 -1.53379
# Poissons Ratio (y) = -0.01263 0.09864
# Poissons Ratio (z) = -0.38267 0.66042
#
# Static dielectric constant tensor:
#      x y z
#    x 1.576590 0.000000 0.000000 
#    y 0.000000 1.550090 0.000000 
#    z 0.000000 0.000000 1.558610 
# 
# From -- ./inp_files/8137.got.cif
#   From: 2010.05.17/outbox.ucp.g08.bks.cvg/sg55_5_cif.got.tgz:8137.got - 2010.06.11 16:36:00.
