data_PCOD9429670
_publ_section_title
;
Structure prediction by ZEFSAII (Michael W. Deem and Ramdas Pophale) SiO2 
 PCOD9429670
Probable space group: P C C N
;
_chemical_formula_sum "Si O2"
_cell_formula_units_Z 64
_cell_length_a 14.182990
_cell_length_b 31.434936
_cell_length_c 8.686785
_cell_angle_alpha 90.000000
_cell_angle_beta 90.000000
_cell_angle_gamma 90.000000
_cell_volume 3872.928238
_symmetry_space_group_name_H-M "P C C N"
_symmetry_group_IT_number 56
_symmetry_cell_setting 'orthorhombic'
loop_
_space_group_symop_operation_xyz
x,y,z
1/2-x,1/2-y,z
1/2+x,-y,1/2-z
-x,1/2+y,1/2-z
-x,-y,-z
1/2+x,1/2+y,-z
1/2-x,y,1/2+z
x,1/2-y,1/2+z
loop_
_atom_site_type_symbol
_atom_site_label
_atom_site_fract_x
_atom_site_fract_y
_atom_site_fract_z
Si Si1 0.152997 0.388763 0.170728
Si Si2 0.626007 0.459546 0.902110
Si Si3 0.293116 0.521926 0.398322
Si Si4 0.022512 0.456054 0.641155
Si Si5 0.145358 0.204274 0.701955
Si Si6 0.141725 0.209727 0.334152
Si Si7 0.864080 0.616975 0.196910
Si Si8 0.127702 0.483030 0.195617
O O1 0.110641 0.343971 0.231260
O O2 0.262185 0.388788 0.223460
O O3 0.107894 0.433401 0.219807
O O4 0.149786 0.387709 0.985770
O O5 0.642635 0.452197 0.721745
O O6 0.602259 0.510502 0.913009
O O7 0.722303 0.451031 0.994801
O O8 0.539425 0.440295 0.996672
O O9 0.223020 0.494696 0.289508
O O10 0.352196 0.493319 0.516404
O O11 0.067197 0.418151 0.735039
O O12 0.952566 0.485311 0.743416
O O13 0.147402 0.210388 0.518477
O O14 0.251704 0.205979 0.768526
O O15 0.098236 0.246068 0.775103
O O16 0.097929 0.165091 0.279787
#
# Coordination Sequence:
#
# PCOD9429670 Si02
#       8
#     8   8   8   8   8   8   8   8
#     4  10  19  29  43  60  80 112 150 181 207 251
#     4   9  18  30  42  57  78 104 142 179 209 246
#     4   9  17  30  45  57  75 111 150 177 208 250
#     4  10  20  30  40  60  86 110 141 184 221 249
#     4   9  16  26  40  58  76 100 140 179 209 237
#     4   9  16  27  41  58  80 103 134 179 213 240
#     4  10  20  31  43  60  84 113 146 179 217 253
#     4  10  18  29  44  60  83 111 147 183 214 253
#
# _framework density 16.524964000000001
#
# number of rings (size 3 to 8) (size 9 to 14) (size 15 to 20)
#    0.000    2.500    0.000    4.500    0.000    5.000 
#    0.000    0.000    0.000    0.000    0.000    0.000 
#    0.000    0.000    0.000    0.000    0.000  460.000 
#
# Total GULP energy -356546.855346 kJ/mol
# GULP energy per Si atom -5571.044615 kJ/mol
# Density = 1.648735 g / cm^3
# Si number density = 16.524964 Si / 1000 Ang^3
#
#
#
# Elastic Constant Matrix: (Units=GPa)
#
#
# Indices 1 2 3 4 5 6 
#
# 1 41.8198 23.9901 20.3841 0.0000 0.0000 0.0000
# 2 23.9901 108.7381 28.5727 0.0000 0.0000 0.0000
# 3 20.3841 28.5727 73.9518 0.0000 0.0000 0.0000
# 4 0.0000 0.0000 0.0000 23.5438 0.0000 0.0000
# 5 0.0000 0.0000 0.0000 0.0000 15.6610 0.0000
# 6 0.0000 0.0000 0.0000 0.0000 0.0000 13.6981
#
#
#
# Elastic Compliance Matrix: (Units=1/GPa)
#
#
# Indices 1 2 3 4 5 6 
#
# 1 0.029812 -0.004917 -0.006318 0.000000 0.000000 0.000000
# 2 -0.004917 0.011047 -0.002913 0.000000 0.000000 0.000000
# 3 -0.006318 -0.002913 0.016389 0.000000 0.000000 0.000000
# 4 0.000000 0.000000 0.000000 0.042474 0.000000 0.000000
# 5 0.000000 0.000000 0.000000 0.000000 0.063853 0.000000
# 6 0.000000 0.000000 0.000000 0.000000 0.000000 0.073003
#
#
# Mechanical properties :
#
#
# Convention : Reuss Voigt Hill
#
# Bulk Modulus (GPa) = 34.53880 41.15597 37.84739
# Shear Modulus (GPa) = 18.21336 20.68476 19.44906
#
# Velocity S-wave (km/s) = 3.32350 3.54182 3.43439
# Velocity P-wave (km/s) = 5.97276 6.45642 6.21929
#
# Compressibility (1/GPa) = 0.02895295
#
# Stress axis : x y z
#
# Youngs Moduli (GPa) = 33.54321 90.52542 61.01626
#
# Poissons Ratio (x) = 0.44513 0.38548
# Poissons Ratio (y) = 0.16494 0.17772
# Poissons Ratio (z) = 0.21191 0.26367
#
# Static dielectric constant tensor:
#      x y z
#    x 1.574290 0.000000 0.000000 
#    y 0.000000 1.598750 0.000000 
#    z 0.000000 0.000000 1.617720 
# 
# From -- ./inp_files/3773.got.cif
#   From: 2010.05.17/outbox.cif.g08.bks.cpg/sg56_2_cif.got.tgz:3773.got - 2010.06.03 13:42:01.
