data_PCOD9429857
_publ_section_title
;
Structure prediction by ZEFSAII (Michael W. Deem and Ramdas Pophale) SiO2 
 PCOD9429857
Probable space group: P C C N
;
_chemical_formula_sum "Si O2"
_cell_formula_units_Z 64
_cell_length_a 15.496745
_cell_length_b 10.001720
_cell_length_c 22.203194
_cell_angle_alpha 90.000000
_cell_angle_beta 90.000000
_cell_angle_gamma 90.000000
_cell_volume 3441.364169
_symmetry_space_group_name_H-M "P C C N"
_symmetry_group_IT_number 56
_symmetry_cell_setting 'orthorhombic'
loop_
_space_group_symop_operation_xyz
x,y,z
1/2-x,1/2-y,z
1/2+x,-y,1/2-z
-x,1/2+y,1/2-z
-x,-y,-z
1/2+x,1/2+y,-z
1/2-x,y,1/2+z
x,1/2-y,1/2+z
loop_
_atom_site_type_symbol
_atom_site_label
_atom_site_fract_x
_atom_site_fract_y
_atom_site_fract_z
Si Si1 0.161864 0.280934 0.244554
Si Si2 0.429008 0.112762 0.009304
Si Si3 0.253043 0.091666 0.941220
Si Si4 0.775064 0.025336 0.184451
Si Si5 0.533968 0.046287 0.666950
Si Si6 0.094127 0.994026 0.274488
Si Si7 0.467053 0.158022 0.145497
Si Si8 0.940269 0.906190 0.040344
O O1 0.250000 0.250000 0.208992
O O2 0.196449 0.377048 0.295787
O O3 0.101135 0.357232 0.198974
O O4 0.114363 0.152887 0.272438
O O5 0.427179 0.131421 0.080921
O O6 0.336308 0.073615 0.982476
O O7 0.455479 0.251501 0.976368
O O8 0.500000 0.000000 0.000000
O O9 0.250000 0.250000 0.923596
O O10 0.256172 0.993365 0.883925
O O11 0.160944 0.066973 0.972546
O O12 0.869464 0.091715 0.188615
O O13 0.691855 0.067081 0.224043
O O14 0.492623 0.185791 0.646394
O O15 0.470521 0.980123 0.717054
O O16 0.545405 0.946971 0.610247
O O17 0.045431 0.937056 0.333056
O O18 0.000000 0.000000 0.000000
#
# Coordination Sequence:
#
# PCOD9429857 Si02
#       8
#     8   8   8   8   8   8   8   8
#     4   9  19  34  57  85 113 153 196 246 296 349
#     4  11  23  39  59  92 120 156 204 257 305 341
#     4   9  19  34  59  88 112 154 203 245 290 357
#     4  10  18  36  59  85 116 152 201 240 298 359
#     4  10  21  37  59  86 115 163 201 237 300 369
#     4  10  20  34  55  87 117 149 189 250 298 348
#     4  11  21  36  57  87 124 149 198 250 305 354
#     4  10  20  41  63  83 116 161 205 244 291 371
#
# _framework density 18.597276000000001
#
# number of rings (size 3 to 8) (size 9 to 14) (size 15 to 20)
#    0.000    2.000    2.500    1.875    0.000    4.000 
#    2.250    0.625    0.000    0.000    0.000    0.000 
#    0.000    0.000    0.000    0.000    0.000    0.000 
#
# Total GULP energy -356276.636264 kJ/mol
# GULP energy per Si atom -5566.822442 kJ/mol
# Density = 1.855495 g / cm^3
# Si number density = 18.597276 Si / 1000 Ang^3
#
#
#
# Elastic Constant Matrix: (Units=GPa)
#
#
# Indices 1 2 3 4 5 6 
#
# 1 144.8385 37.9801 57.1589 0.0000 0.0000 0.0000
# 2 37.9801 48.2362 31.9033 0.0000 0.0000 0.0000
# 3 57.1589 31.9033 85.8662 0.0000 0.0000 0.0000
# 4 0.0000 0.0000 0.0000 24.5526 0.0000 0.0000
# 5 0.0000 0.0000 0.0000 0.0000 34.3485 0.0000
# 6 0.0000 0.0000 0.0000 0.0000 0.0000 30.6282
#
#
#
# Elastic Compliance Matrix: (Units=1/GPa)
#
#
# Indices 1 2 3 4 5 6 
#
# 1 0.010092 -0.004644 -0.004993 0.000000 0.000000 0.000000
# 2 -0.004644 0.029623 -0.007915 0.000000 0.000000 0.000000
# 3 -0.004993 -0.007915 0.017910 0.000000 0.000000 0.000000
# 4 0.000000 0.000000 0.000000 0.040729 0.000000 0.000000
# 5 0.000000 0.000000 0.000000 0.000000 0.029113 0.000000
# 6 0.000000 0.000000 0.000000 0.000000 0.000000 0.032650
#
#
# Mechanical properties :
#
#
# Convention : Reuss Voigt Hill
#
# Bulk Modulus (GPa) = 44.40077 59.22507 51.81292
# Shear Modulus (GPa) = 24.66354 28.03241 26.34797
#
# Velocity S-wave (km/s) = 3.64564 3.88666 3.76808
# Velocity P-wave (km/s) = 6.45350 7.21503 6.84487
#
# Compressibility (1/GPa) = 0.02252213
#
# Stress axis : x y z
#
# Youngs Moduli (GPa) = 99.08430 33.75753 55.83420
#
# Poissons Ratio (x) = 0.15678 0.27876
# Poissons Ratio (y) = 0.46019 0.44191
# Poissons Ratio (z) = 0.49469 0.26718
#
# Static dielectric constant tensor:
#      x y z
#    x 1.725610 0.000000 0.000000 
#    y 0.000000 1.684430 0.000000 
#    z 0.000000 0.000000 1.664270 
# 
# From -- ./inp_files/21153.got.cif
#   From: 2010.05.17/outbox.cif.g08.bks.cpg/sg56_11_cif.got.tgz:21153.got - 2010.06.03 13:42:01.
