data_PCOD9429542
_publ_section_title
;
Structure prediction by ZEFSAII (Michael W. Deem and Ramdas Pophale) SiO2 
 PCOD9429542
Probable space group: P C C N
;
_chemical_formula_sum "Si O2"
_cell_formula_units_Z 48
_cell_length_a 16.013055
_cell_length_b 8.097428
_cell_length_c 13.639887
_cell_angle_alpha 90.000000
_cell_angle_beta 90.000000
_cell_angle_gamma 90.000000
_cell_volume 1768.609945
_symmetry_space_group_name_H-M "P C C N"
_symmetry_group_IT_number 56
_symmetry_cell_setting 'orthorhombic'
loop_
_space_group_symop_operation_xyz
x,y,z
1/2-x,1/2-y,z
1/2+x,-y,1/2-z
-x,1/2+y,1/2-z
-x,-y,-z
1/2+x,1/2+y,-z
1/2-x,y,1/2+z
x,1/2-y,1/2+z
loop_
_atom_site_type_symbol
_atom_site_label
_atom_site_fract_x
_atom_site_fract_y
_atom_site_fract_z
Si Si1 0.945999 0.878646 0.804912
Si Si2 0.385893 0.037891 0.252433
Si Si3 0.713946 0.427608 0.792330
Si Si4 0.179788 0.628416 0.479811
Si Si5 0.842324 0.720230 0.494691
Si Si6 0.591644 0.448565 0.477012
O O1 0.925199 0.719330 0.740261
O O2 0.910472 0.825365 0.911961
O O3 0.043254 0.923473 0.803658
O O4 0.881553 0.022605 0.769607
O O5 0.284521 0.044493 0.253627
O O6 0.393532 0.971043 0.138674
O O7 0.750000 0.250000 0.763673
O O8 0.712836 0.418050 0.911299
O O9 0.250000 0.750000 0.435976
O O10 0.158629 0.446317 0.439146
O O11 0.106725 0.759871 0.494309
O O12 0.750000 0.750000 0.451037
O O13 0.858476 0.905153 0.533417
O O14 0.500000 0.500000 0.500000
#
# Coordination Sequence:
#
# PCOD9429542 Si02
#       6
#     8   8   8   8   8   8
#     4  10  20  30  53  84 113 140 181 236 283 339
#     4  11  20  34  54  85 114 145 186 233 290 337
#     4  10  17  32  55  83 104 142 189 229 277 331
#     4  10  16  32  59  79 105 140 189 235 275 325
#     4  10  19  35  60  87 108 145 198 236 281 339
#     4  11  22  35  54  84 116 145 191 243 279 330
#
# _framework density 27.139959000000001
#
# number of rings (size 3 to 8) (size 9 to 14) (size 15 to 20)
#    0.000    1.667    5.000    4.500    2.333    0.667 
#    0.000    0.000    0.000    8.000    0.000    0.000 
#    0.000    0.000    0.000    0.000    0.000    0.000 
#
# Total GULP energy -267930.598578 kJ/mol
# GULP energy per Si atom -5581.887470 kJ/mol
# Density = 2.707819 g / cm^3
# Si number density = 27.139959 Si / 1000 Ang^3
#
#
#
# Elastic Constant Matrix: (Units=GPa)
#
#
# Indices 1 2 3 4 5 6 
#
# 1 143.6446 35.7746 13.5699 0.0000 0.0000 0.0000
# 2 35.7746 203.8171 6.1178 0.0000 0.0000 0.0000
# 3 13.5699 6.1178 65.4414 0.0000 0.0000 0.0000
# 4 0.0000 0.0000 0.0000 -63.4396 0.0000 0.0000
# 5 0.0000 0.0000 0.0000 0.0000 -3.9709 0.0000
# 6 0.0000 0.0000 0.0000 0.0000 0.0000 68.8166
#
#
#
# Elastic Compliance Matrix: (Units=1/GPa)
#
#
# Indices 1 2 3 4 5 6 
#
# 1 0.007409 -0.001258 -0.001419 0.000000 0.000000 0.000000
# 2 -0.001258 0.005134 -0.000219 0.000000 0.000000 0.000000
# 3 -0.001419 -0.000219 0.015596 0.000000 0.000000 0.000000
# 4 0.000000 0.000000 0.000000 -0.015763 0.000000 0.000000
# 5 0.000000 0.000000 0.000000 0.000000 -0.251830 0.000000
# 6 0.000000 0.000000 0.000000 0.000000 0.000000 0.014531
#
#
# Mechanical properties :
#
#
# Convention : Reuss Voigt Hill
#
# Bulk Modulus (GPa) = 44.74911 58.20308 51.47610
# Shear Modulus (GPa) = -23.62022 24.11058 0.24518
#
# Velocity S-wave (km/s) = -2.95331 2.98380 0.30089
# Velocity P-wave (km/s) = 2.21240 5.77606 4.37365
#
# Compressibility (1/GPa) = 0.02234681
#
# Stress axis : x y z
#
# Youngs Moduli (GPa) = 134.97242 194.79055 64.12098
#
# Poissons Ratio (x) = 0.24502 0.09097
# Poissons Ratio (y) = 0.16978 0.01405
# Poissons Ratio (z) = 0.19149 0.04268
#
# Static dielectric constant tensor:
#      x y z
#    x 0.000000 0.000000 0.000000 
#    y 0.000000 0.000000 0.000000 
#    z 0.000000 0.000000 0.000000 
# 
# From -- ./inp_files/16176.got.cif
#   From: 2010.05.17/outbox.cif.g08.bks.cpg/sg56_9_cif.got.tgz:16176.got - 2010.06.03 13:42:01.
