data_PCOD9429840
_publ_section_title
;
Structure prediction by ZEFSAII (Michael W. Deem and Ramdas Pophale) SiO2 
 PCOD9429840
Probable space group: P C C N
;
_chemical_formula_sum "Si O2"
_cell_formula_units_Z 40
_cell_length_a 7.856969
_cell_length_b 15.890228
_cell_length_c 15.281790
_cell_angle_alpha 90.000000
_cell_angle_beta 90.000000
_cell_angle_gamma 90.000000
_cell_volume 1907.916640
_symmetry_space_group_name_H-M "P C C N"
_symmetry_group_IT_number 56
_symmetry_cell_setting 'orthorhombic'
loop_
_space_group_symop_operation_xyz
x,y,z
1/2-x,1/2-y,z
1/2+x,-y,1/2-z
-x,1/2+y,1/2-z
-x,-y,-z
1/2+x,1/2+y,-z
1/2-x,y,1/2+z
x,1/2-y,1/2+z
loop_
_atom_site_type_symbol
_atom_site_label
_atom_site_fract_x
_atom_site_fract_y
_atom_site_fract_z
Si Si1 0.605112 0.008333 0.860718
Si Si2 0.839450 0.665847 0.940851
Si Si3 0.455623 0.086129 0.445295
Si Si4 0.774617 0.476384 0.678459
Si Si5 0.209862 0.871844 0.487230
O O1 0.211727 0.130867 0.984032
O O2 0.701978 0.047326 0.778568
O O3 0.408421 0.016408 0.838258
O O4 0.642323 0.050599 0.953563
O O5 0.750000 0.750000 0.907194
O O6 0.848872 0.589819 0.871372
O O7 0.035492 0.679355 0.971734
O O8 0.618023 0.147002 0.458305
O O9 0.500000 0.000000 0.500000
O O10 0.412352 0.046314 0.351332
O O11 0.775929 0.400136 0.608594
#
# Coordination Sequence:
#
# PCOD9429840 Si02
#       5
#     8   8   8   8   8
#     4  11  19  35  60  91 118 155 211 251 293 359
#     4  11  22  38  57  88 126 156 187 252 318 358
#     4  10  18  35  61  84 111 152 207 241 290 352
#     4  10  19  31  59  92 113 153 205 262 286 342
#     4  10  20  38  61  89 116 155 213 248 285 365
#
# _framework density 20.965277
#
# number of rings (size 3 to 8) (size 9 to 14) (size 15 to 20)
#    0.000    1.600    6.000    2.400    2.800    0.800 
#    0.000    1.000    0.000    0.000    0.000    0.000 
#    0.000    0.000    0.000    0.000    0.000    0.000 
#
# Total GULP energy -222690.516693 kJ/mol
# GULP energy per Si atom -5567.262917 kJ/mol
# Density = 2.091756 g / cm^3
# Si number density = 20.965277 Si / 1000 Ang^3
#
#
#
# Elastic Constant Matrix: (Units=GPa)
#
#
# Indices 1 2 3 4 5 6 
#
# 1 134.5528 13.9936 3.6222 0.0000 0.0000 0.0000
# 2 13.9936 67.5911 24.8515 0.0000 0.0000 0.0000
# 3 3.6222 24.8515 68.6080 0.0000 0.0000 0.0000
# 4 0.0000 0.0000 0.0000 10.5004 0.0000 0.0000
# 5 0.0000 0.0000 0.0000 0.0000 31.8095 0.0000
# 6 0.0000 0.0000 0.0000 0.0000 0.0000 10.7197
#
#
#
# Elastic Compliance Matrix: (Units=1/GPa)
#
#
# Indices 1 2 3 4 5 6 
#
# 1 0.007598 -0.001645 0.000195 0.000000 0.000000 0.000000
# 2 -0.001645 0.017424 -0.006225 0.000000 0.000000 0.000000
# 3 0.000195 -0.006225 0.016820 0.000000 0.000000 0.000000
# 4 0.000000 0.000000 0.000000 0.095234 0.000000 0.000000
# 5 0.000000 0.000000 0.000000 0.000000 0.031437 0.000000
# 6 0.000000 0.000000 0.000000 0.000000 0.000000 0.093287
#
#
# Mechanical properties :
#
#
# Convention : Reuss Voigt Hill
#
# Bulk Modulus (GPa) = 37.74627 39.52071 38.63349
# Shear Modulus (GPa) = 17.48377 25.82490 21.65433
#
# Velocity S-wave (km/s) = 2.89093 3.51350 3.21731
# Velocity P-wave (km/s) = 5.40246 5.94567 5.68057
#
# Compressibility (1/GPa) = 0.02649268
#
# Stress axis : x y z
#
# Youngs Moduli (GPa) = 131.61670 57.39240 59.45314
#
# Poissons Ratio (x) = 0.09438 -0.01157
# Poissons Ratio (y) = 0.21645 0.37007
# Poissons Ratio (z) = -0.02561 0.35724
#
# Static dielectric constant tensor:
#      x y z
#    x 1.857240 0.000000 0.000000 
#    y 0.000000 1.797670 0.000000 
#    z 0.000000 0.000000 1.735530 
# 
# From -- ./inp_files/10544.got.cif
#   From: 2010.05.17/outbox.cif.g08.bks.cpg/sg56_6_cif.got.tgz:10544.got - 2010.06.03 13:42:01.
