data_PCOD9429369
_publ_section_title
;
Structure prediction by ZEFSAII (Michael W. Deem and Ramdas Pophale) SiO2 
 PCOD9429369
Probable space group: P B A M
;
_chemical_formula_sum "Si O2"
_cell_formula_units_Z 64
_cell_length_a 21.000000
_cell_length_b 18.000000
_cell_length_c 9.000000
_cell_angle_alpha 90.000000
_cell_angle_beta 90.000000
_cell_angle_gamma 90.000000
_cell_volume 3402.000000
_symmetry_space_group_name_H-M "P B A M"
_symmetry_group_IT_number 55
_symmetry_cell_setting 'orthorhombic'
loop_
_space_group_symop_operation_xyz
x,y,z
-x,-y,z
1/2+x,1/2-y,-z
1/2-x,1/2+y,-z
-x,-y,-z
x,y,-z
1/2-x,1/2+y,z
1/2+x,1/2-y,z
loop_
_atom_site_type_symbol
_atom_site_label
_atom_site_fract_x
_atom_site_fract_y
_atom_site_fract_z
Si Si1 0.112467 0.721499 0.826859
Si Si2 0.564436 0.090965 0.320378
Si Si3 0.585040 0.927539 0.320968
Si Si4 0.530219 0.653169 0.322556
Si Si5 0.107350 0.128995 0.177799
Si Si6 0.628926 0.541253 0.176649
Si Si7 0.150692 0.275268 0.324089
Si Si8 0.229686 0.835585 0.170538
O O1 0.121084 0.639902 0.757858
O O2 0.060387 0.769891 0.737466
O O3 0.175891 0.771676 0.819375
O O4 0.094054 0.715938 0.000000
O O5 0.568960 0.090977 0.500000
O O6 0.489747 0.086415 0.285950
O O7 0.596208 0.167334 0.269199
O O8 0.597185 0.013031 0.272736
O O9 0.592971 0.922911 0.500000
O O10 0.526213 0.655427 0.500000
O O11 0.461782 0.639837 0.250491
O O12 0.575844 0.586161 0.268237
O O13 0.148631 0.196630 0.241528
O O14 0.131208 0.045670 0.213731
O O15 0.103265 0.134658 0.000000
O O16 0.694187 0.586503 0.199034
O O17 0.613236 0.548370 0.000000
O O18 0.142883 0.263271 0.500000
O O19 0.215769 0.317055 0.285922
O O20 0.253924 0.835654 0.000000
#
# Coordination Sequence:
#
# PCOD9429369 Si02
#       8
#     8   8   8   8   8   8   8   8
#     4  10  20  35  55  80 110 145 188 231 273 328
#     4   8  17  33  53  78 110 144 173 216 278 338
#     4   9  16  32  57  81 108 141 178 219 277 337
#     4  11  21  33  55  87 120 149 181 226 280 332
#     4  11  22  37  58  84 115 150 185 225 277 334
#     4   9  20  39  60  81 110 149 189 228 275 333
#     4  11  22  37  56  81 112 145 187 234 279 328
#     4   9  20  40  58  73 103 146 189 228 273 329
#
# _framework density 18.812463000000001
#
# number of rings (size 3 to 8) (size 9 to 14) (size 15 to 20)
#    0.000    2.250    0.000    4.875    0.000    6.000 
#    2.250    3.125    0.000    0.000    0.000    0.000 
#    0.000    0.000    0.000    0.000    0.000    0.000 
#
# Total GULP energy -357173.025530 kJ/mol
# GULP energy per Si atom -5580.828524 kJ/mol
# Density = 1.876965 g / cm^3
# Si number density = 18.812463 Si / 1000 Ang^3
#
#
#
# Elastic Constant Matrix: (Units=GPa)
#
#
# Indices 1 2 3 4 5 6 
#
# 1 21.7735 -2.4556 11.5506 0.0000 0.0000 0.0000
# 2 -2.4556 74.9505 23.2272 0.0000 0.0000 0.0000
# 3 11.5506 23.2272 61.1340 0.0000 0.0000 0.0000
# 4 0.0000 0.0000 0.0000 29.5922 0.0000 0.0000
# 5 0.0000 0.0000 0.0000 0.0000 20.9326 0.0000
# 6 0.0000 0.0000 0.0000 0.0000 0.0000 3.9980
#
#
#
# Elastic Compliance Matrix: (Units=1/GPa)
#
#
# Indices 1 2 3 4 5 6 
#
# 1 0.052958 0.005481 -0.012088 0.000000 0.000000 0.000000
# 2 0.005481 0.015690 -0.006997 0.000000 0.000000 0.000000
# 3 -0.012088 -0.006997 0.021300 0.000000 0.000000 0.000000
# 4 0.000000 0.000000 0.000000 0.033793 0.000000 0.000000
# 5 0.000000 0.000000 0.000000 0.000000 0.047772 0.000000
# 6 0.000000 0.000000 0.000000 0.000000 0.000000 0.250126
#
#
# Mechanical properties :
#
#
# Convention : Reuss Voigt Hill
#
# Bulk Modulus (GPa) = 15.93876 24.72249 20.33063
# Shear Modulus (GPa) = 10.64371 19.27360 14.95866
#
# Velocity S-wave (km/s) = 2.38119 3.20427 2.82289
# Velocity P-wave (km/s) = 4.00636 5.18265 4.63200
#
# Compressibility (1/GPa) = 0.06274015
#
# Stress axis : x y z
#
# Youngs Moduli (GPa) = 18.88278 63.73456 46.94859
#
# Poissons Ratio (x) = -0.34935 0.56754
# Poissons Ratio (y) = -0.10350 0.32850
# Poissons Ratio (z) = 0.22826 0.44595
#
# Static dielectric constant tensor:
#      x y z
#    x 1.662730 0.000000 0.000000 
#    y 0.000000 1.660970 0.000000 
#    z 0.000000 0.000000 1.630030 
# 
# From -- ./inp_files/9065.got.cif
#   From: 2010.05.17/outbox.ucp.g08.bks.cvg/sg55_5_cif.got.tgz:9065.got - 2010.06.11 16:36:00.
