data_PCOD9429288
_publ_section_title
;
Structure prediction by ZEFSAII (Michael W. Deem and Ramdas Pophale) SiO2 
 PCOD9429288
Probable space group: P B A M
;
_chemical_formula_sum "Si O2"
_cell_formula_units_Z 64
_cell_length_a 21.000000
_cell_length_b 18.000000
_cell_length_c 9.000000
_cell_angle_alpha 90.000000
_cell_angle_beta 90.000000
_cell_angle_gamma 90.000000
_cell_volume 3402.000000
_symmetry_space_group_name_H-M "P B A M"
_symmetry_group_IT_number 55
_symmetry_cell_setting 'orthorhombic'
loop_
_space_group_symop_operation_xyz
x,y,z
-x,-y,z
1/2+x,1/2-y,-z
1/2-x,1/2+y,-z
-x,-y,-z
x,y,-z
1/2-x,1/2+y,z
1/2+x,1/2-y,z
loop_
_atom_site_type_symbol
_atom_site_label
_atom_site_fract_x
_atom_site_fract_y
_atom_site_fract_z
Si Si1 0.700694 0.631942 0.832819
Si Si2 0.249422 0.089749 0.824409
Si Si3 0.764025 0.756438 0.670924
Si Si4 0.332835 0.959257 0.170644
Si Si5 0.398683 0.830287 0.327432
Si Si6 0.605468 0.438539 0.828811
Si Si7 0.921458 0.085020 0.326045
Si Si8 0.033793 0.191138 0.679347
O O1 0.720050 0.714746 0.789260
O O2 0.766796 0.587349 0.826021
O O3 0.650165 0.607563 0.711457
O O4 0.674604 0.624276 0.000000
O O5 0.308472 0.038980 0.773755
O O6 0.181300 0.047728 0.820455
O O7 0.238761 0.158866 0.718325
O O8 0.258134 0.109158 0.000000
O O9 0.743666 0.745550 0.500000
O O10 0.834061 0.719481 0.682515
O O11 0.384208 0.908487 0.251470
O O12 0.351868 0.967960 0.000000
O O13 0.411107 0.844672 0.500000
O O14 0.452666 0.774644 0.266509
O O15 0.569794 0.508524 0.760548
O O16 0.586895 0.365027 0.740070
O O17 0.588606 0.427870 0.000000
O O18 0.931209 0.071773 0.500000
O O19 0.968065 0.151387 0.278191
O O20 0.037653 0.193005 0.500000
#
# Coordination Sequence:
#
# PCOD9429288 Si02
#       8
#     8   8   8   8   8   8   8   8
#     4  10  19  34  51  70  98 129 163 206 248 289
#     4  10  19  32  48  71 100 132 162 196 244 292
#     4  10  19  31  50  74  97 126 164 202 243 294
#     4   9  18  32  49  69  96 126 159 199 246 292
#     4   9  18  32  48  69  95 124 161 202 244 287
#     4  11  21  33  48  69  99 135 173 207 241 287
#     4  11  22  34  50  69  97 135 172 207 246 289
#     4  10  21  36  49  68  99 134 169 209 248 286
#
# _framework density 18.812463000000001
#
# number of rings (size 3 to 8) (size 9 to 14) (size 15 to 20)
#    0.000    2.000    2.500    1.875    0.000    5.000 
#    0.000    0.000    0.000    0.000    0.000    0.875 
#    0.000    7.000    0.000    0.000    0.000    0.000 
#
# Total GULP energy -356474.187773 kJ/mol
# GULP energy per Si atom -5569.909184 kJ/mol
# Density = 1.876965 g / cm^3
# Si number density = 18.812463 Si / 1000 Ang^3
#
#
#
# Elastic Constant Matrix: (Units=GPa)
#
#
# Indices 1 2 3 4 5 6 
#
# 1 -1.4836 -6.4311 -10.0128 0.0000 0.0000 0.0000
# 2 -6.4311 19.9453 7.9292 0.0000 0.0000 0.0000
# 3 -10.0128 7.9292 -3.8713 0.0000 0.0000 0.0000
# 4 0.0000 0.0000 0.0000 21.6199 0.0000 0.0000
# 5 0.0000 0.0000 0.0000 0.0000 7.9619 0.0000
# 6 0.0000 0.0000 0.0000 0.0000 0.0000 25.2466
#
#
#
# Elastic Compliance Matrix: (Units=1/GPa)
#
#
# Indices 1 2 3 4 5 6 
#
# 1 0.229450 0.170819 -0.243584 0.000000 0.000000 0.000000
# 2 0.170819 0.154805 -0.124739 0.000000 0.000000 0.000000
# 3 -0.243584 -0.124739 0.116211 0.000000 0.000000 0.000000
# 4 0.000000 0.000000 0.000000 0.046254 0.000000 0.000000
# 5 0.000000 0.000000 0.000000 0.000000 0.125598 0.000000
# 6 0.000000 0.000000 0.000000 0.000000 0.000000 0.039609
#
#
# Mechanical properties :
#
#
# Convention : Reuss Voigt Hill
#
# Bulk Modulus (GPa) = 9.48267 -0.27102 4.60582
# Shear Modulus (GPa) = 4.37795 12.50604 8.44200
#
# Velocity S-wave (km/s) = 1.52716 2.58112 2.12066
# Velocity P-wave (km/s) = 2.85678 2.95610 2.90686
#
# Compressibility (1/GPa) = 0.10545554
#
# Stress axis : x y z
#
# Youngs Moduli (GPa) = 4.35825 6.45976 8.60507
#
# Poissons Ratio (x) = -1.10345 2.09606
# Poissons Ratio (y) = -0.74447 1.07339
# Poissons Ratio (z) = 1.06160 0.80579
#
# Static dielectric constant tensor:
#      x y z
#    x 1.683680 0.000000 0.000000 
#    y 0.000000 1.700770 0.000000 
#    z 0.000000 0.000000 1.629520 
# 
# From -- ./inp_files/7954.got.cif
#   From: 2010.05.17/outbox.ucp.g08.bks.cvg/sg55_4_cif.got.tgz:7954.got - 2010.06.11 16:36:00.
