data_PCOD9429301
_publ_section_title
;
Structure prediction by ZEFSAII (Michael W. Deem and Ramdas Pophale) SiO2 
 PCOD9429301
Probable space group: P B A M
;
_chemical_formula_sum "Si O2"
_cell_formula_units_Z 56
_cell_length_a 21.000000
_cell_length_b 9.000000
_cell_length_c 15.000000
_cell_angle_alpha 90.000000
_cell_angle_beta 90.000000
_cell_angle_gamma 90.000000
_cell_volume 2835.000000
_symmetry_space_group_name_H-M "P B A M"
_symmetry_group_IT_number 55
_symmetry_cell_setting 'orthorhombic'
loop_
_space_group_symop_operation_xyz
x,y,z
-x,-y,z
1/2+x,1/2-y,-z
1/2-x,1/2+y,-z
-x,-y,-z
x,y,-z
1/2-x,1/2+y,z
1/2+x,1/2-y,z
loop_
_atom_site_type_symbol
_atom_site_label
_atom_site_fract_x
_atom_site_fract_y
_atom_site_fract_z
Si Si1 0.008178 0.181762 0.213169
Si Si2 0.232110 0.568170 0.100363
Si Si3 0.371284 0.635760 0.899616
Si Si4 0.738538 0.609820 0.720903
Si Si5 0.812913 0.843343 0.604342
Si Si6 0.465280 0.660108 0.595942
Si Si7 0.870266 0.208402 0.844068
O O1 0.076017 0.204563 0.165249
O O2 0.010936 0.236288 0.314565
O O3 0.944164 0.245739 0.169970
O O4 0.000000 0.000000 0.213296
O O5 0.296424 0.667919 0.112453
O O6 0.233872 0.465624 0.188583
O O7 0.169864 0.670417 0.102825
O O8 0.237470 0.500633 0.000000
O O9 0.371358 0.456207 0.887255
O O10 0.389859 0.673425 0.000000
O O11 0.787806 0.714624 0.669791
O O12 0.717559 0.488204 0.648765
O O13 0.672953 0.688638 0.754585
O O14 0.794826 0.822526 0.500000
O O15 0.889382 0.858694 0.606425
O O16 0.500000 0.500000 0.593851
O O17 0.477672 0.733002 0.500000
#
# Coordination Sequence:
#
# PCOD9429301 Si02
#       7
#     8   8   8   8   8   8   8
#     4   9  17  29  50  79 112 145 186 240 295 342
#     4  10  20  35  56  84 121 163 204 247 307 369
#     4   9  18  30  48  79 113 147 191 245 295 348
#     4  11  21  38  56  87 126 157 204 252 302 365
#     4  11  22  37  61  90 123 162 202 253 309 364
#     4   9  17  32  55  84 113 146 195 247 296 355
#     4  10  19  32  55  83 118 153 191 246 304 357
#
# _framework density 19.753086
#
# number of rings (size 3 to 8) (size 9 to 14) (size 15 to 20)
#    0.000    2.143    1.429    4.286    0.000    3.714 
#    0.000    0.714    0.000    0.857    0.000    3.000 
#    0.000    0.000    0.000    0.000    0.000    0.000 
#
# Total GULP energy -312161.079655 kJ/mol
# GULP energy per Si atom -5574.304994 kJ/mol
# Density = 1.970813 g / cm^3
# Si number density = 19.753086 Si / 1000 Ang^3
#
#
#
# Elastic Constant Matrix: (Units=GPa)
#
#
# Indices 1 2 3 4 5 6 
#
# 1 108.4382 27.5389 52.3514 0.0000 0.0000 0.0000
# 2 27.5389 16.2538 23.1930 0.0000 0.0000 0.0000
# 3 52.3514 23.1930 149.9104 0.0000 0.0000 0.0000
# 4 0.0000 0.0000 0.0000 16.7562 0.0000 0.0000
# 5 0.0000 0.0000 0.0000 0.0000 26.0088 0.0000
# 6 0.0000 0.0000 0.0000 0.0000 0.0000 19.6022
#
#
#
# Elastic Compliance Matrix: (Units=1/GPa)
#
#
# Indices 1 2 3 4 5 6 
#
# 1 0.016578 -0.025445 -0.001853 0.000000 0.000000 0.000000
# 2 -0.025445 0.118007 -0.009371 0.000000 0.000000 0.000000
# 3 -0.001853 -0.009371 0.008768 0.000000 0.000000 0.000000
# 4 0.000000 0.000000 0.000000 0.059679 0.000000 0.000000
# 5 0.000000 0.000000 0.000000 0.000000 0.038449 0.000000
# 6 0.000000 0.000000 0.000000 0.000000 0.000000 0.051015
#
#
# Mechanical properties :
#
#
# Convention : Reuss Voigt Hill
#
# Bulk Modulus (GPa) = 14.28261 53.41877 33.85069
# Shear Modulus (GPa) = 12.84777 23.90804 18.37791
#
# Velocity S-wave (km/s) = 2.55310 3.48277 3.05352
# Velocity P-wave (km/s) = 3.99216 6.57837 5.44115
#
# Compressibility (1/GPa) = 0.07001522
#
# Stress axis : x y z
#
# Youngs Moduli (GPa) = 60.31995 8.47404 114.05667
#
# Poissons Ratio (x) = 0.21562 0.21132
# Poissons Ratio (y) = 1.53483 1.06888
# Poissons Ratio (z) = 0.11176 0.07941
#
# Static dielectric constant tensor:
#      x y z
#    x 1.692300 0.000000 0.000000 
#    y 0.000000 1.716540 0.000000 
#    z 0.000000 0.000000 1.725910 
# 
# From -- ./inp_files/19769.got.cif
#   From: 2010.05.17/outbox.ucp.g08.bks.cvg/sg55_10_cif.got.tgz:19769.got - 2010.06.11 16:36:00.
