data_PCOD9429595
_publ_section_title
;
Structure prediction by ZEFSAII (Michael W. Deem and Ramdas Pophale) SiO2 
 PCOD9429595
Probable space group: P C C N
;
_chemical_formula_sum "Si O2"
_cell_formula_units_Z 64
_cell_length_a 12.715477
_cell_length_b 17.079979
_cell_length_c 17.283445
_cell_angle_alpha 90.000000
_cell_angle_beta 90.000000
_cell_angle_gamma 90.000000
_cell_volume 3753.619970
_symmetry_space_group_name_H-M "P C C N"
_symmetry_group_IT_number 56
_symmetry_cell_setting 'orthorhombic'
loop_
_space_group_symop_operation_xyz
x,y,z
1/2-x,1/2-y,z
1/2+x,-y,1/2-z
-x,1/2+y,1/2-z
-x,-y,-z
1/2+x,1/2+y,-z
1/2-x,y,1/2+z
x,1/2-y,1/2+z
loop_
_atom_site_type_symbol
_atom_site_label
_atom_site_fract_x
_atom_site_fract_y
_atom_site_fract_z
Si Si1 0.419395 0.484793 0.570076
Si Si2 0.126511 0.767677 0.245733
Si Si3 0.967662 0.102808 0.290652
Si Si4 0.610603 0.081563 0.360875
Si Si5 0.612309 0.502424 0.150828
Si Si6 0.757954 0.435892 0.508345
Si Si7 0.410863 0.877709 0.880134
Si Si8 0.821458 0.522266 0.224774
O O1 0.500000 0.500000 0.500000
O O2 0.427736 0.552905 0.635158
O O3 0.306596 0.491636 0.529838
O O4 0.469335 0.405415 0.604529
O O5 0.250000 0.750000 0.248967
O O6 0.067977 0.691777 0.213379
O O7 0.108192 0.840497 0.189518
O O8 0.093644 0.798854 0.330696
O O9 0.921368 0.062363 0.213633
O O10 0.092516 0.089255 0.286399
O O11 0.672119 0.097897 0.439591
O O12 0.491486 0.050845 0.369999
O O13 0.671568 0.014897 0.310287
O O14 0.664864 0.464488 0.075670
O O15 0.706994 0.546500 0.195556
O O16 0.667390 0.380194 0.545788
O O17 0.362143 0.949289 0.828518
#
# Coordination Sequence:
#
# PCOD9429595 Si02
#       8
#     8   8   8   8   8   8   8   8
#     4   9  17  32  55  80 101 131 180 224 256 300
#     4  11  20  33  50  75 108 137 166 210 265 323
#     4  10  19  33  53  77 103 136 176 216 263 319
#     4  10  20  31  50  77 102 132 172 216 262 315
#     4  10  19  34  53  73 101 135 177 219 258 311
#     4  10  17  30  51  76 103 135 173 217 264 304
#     4   8  17  31  50  75 103 135 170 210 259 314
#     4   8  16  32  52  71  94 131 175 218 257 302
#
# _framework density 17.050208999999999
#
# number of rings (size 3 to 8) (size 9 to 14) (size 15 to 20)
#    0.000    2.500    0.000    5.625    0.000    0.000 
#    0.000    8.750    0.000    0.000    0.000   12.250 
#    0.000    0.000    0.000    0.000    0.000    0.000 
#
# Total GULP energy -356395.262126 kJ/mol
# GULP energy per Si atom -5568.675971 kJ/mol
# Density = 1.701140 g / cm^3
# Si number density = 17.050209 Si / 1000 Ang^3
#
#
#
# Elastic Constant Matrix: (Units=GPa)
#
#
# Indices 1 2 3 4 5 6 
#
# 1 60.3324 7.2278 24.7499 0.0000 0.0000 0.0000
# 2 7.2278 45.7495 13.8043 0.0000 0.0000 0.0000
# 3 24.7499 13.8043 89.9143 0.0000 0.0000 0.0000
# 4 0.0000 0.0000 0.0000 16.9596 0.0000 0.0000
# 5 0.0000 0.0000 0.0000 0.0000 31.6720 0.0000
# 6 0.0000 0.0000 0.0000 0.0000 0.0000 -1.6836
#
#
#
# Elastic Compliance Matrix: (Units=1/GPa)
#
#
# Indices 1 2 3 4 5 6 
#
# 1 0.018779 -0.001475 -0.004943 0.000000 0.000000 0.000000
# 2 -0.001475 0.023036 -0.003130 0.000000 0.000000 0.000000
# 3 -0.004943 -0.003130 0.012963 0.000000 0.000000 0.000000
# 4 0.000000 0.000000 0.000000 0.058964 0.000000 0.000000
# 5 0.000000 0.000000 0.000000 0.000000 0.031574 0.000000
# 6 0.000000 0.000000 0.000000 0.000000 0.000000 -0.593976
#
#
# Mechanical properties :
#
#
# Convention : Reuss Voigt Hill
#
# Bulk Modulus (GPa) = 28.02641 31.95114 29.98877
# Shear Modulus (GPa) = -11.97116 19.40390 3.71637
#
# Velocity S-wave (km/s) = -2.65261 3.37715 1.47797
# Velocity P-wave (km/s) = 2.66298 5.82984 4.53202
#
# Compressibility (1/GPa) = 0.03568063
#
# Stress axis : x y z
#
# Youngs Moduli (GPa) = 53.25037 43.41062 77.14356
#
# Poissons Ratio (x) = 0.06405 0.38129
# Poissons Ratio (y) = 0.07857 0.24150
# Poissons Ratio (z) = 0.26320 0.13590
#
# Static dielectric constant tensor:
#      x y z
#    x 1.618230 0.000000 0.000000 
#    y 0.000000 1.552210 0.000000 
#    z 0.000000 0.000000 1.627900 
# 
# From -- ./inp_files/15801.got.cif
#   From: 2010.05.17/outbox.cif.g08.bks.cpg/sg56_8_cif.got.tgz:15801.got - 2010.06.03 13:42:01.
