data_PCOD9429032
_publ_section_title
;
Structure prediction by ZEFSAII (Michael W. Deem and Ramdas Pophale) SiO2 
 PCOD9429032
Probable space group: P B A M
;
_chemical_formula_sum "Si O2"
_cell_formula_units_Z 64
_cell_length_a 14.710371
_cell_length_b 24.517690
_cell_length_c 8.932107
_cell_angle_alpha 90.000000
_cell_angle_beta 90.000000
_cell_angle_gamma 90.000000
_cell_volume 3221.492261
_symmetry_space_group_name_H-M "P B A M"
_symmetry_group_IT_number 55
_symmetry_cell_setting 'orthorhombic'
loop_
_space_group_symop_operation_xyz
x,y,z
-x,-y,z
1/2+x,1/2-y,-z
1/2-x,1/2+y,-z
-x,-y,-z
x,y,-z
1/2-x,1/2+y,z
1/2+x,1/2-y,z
loop_
_atom_site_type_symbol
_atom_site_label
_atom_site_fract_x
_atom_site_fract_y
_atom_site_fract_z
Si Si1 0.952420 0.442870 0.179216
Si Si2 0.449291 0.362951 0.326772
Si Si3 0.765659 0.470719 0.322400
Si Si4 0.825667 0.702553 0.175645
Si Si5 0.998562 0.331785 0.678088
Si Si6 0.252541 0.902791 0.671065
Si Si7 0.430666 0.549367 0.821364
Si Si8 0.150749 0.751764 0.679627
O O1 0.849732 0.442177 0.241137
O O2 0.000000 0.500000 0.222822
O O3 0.003419 0.391114 0.248702
O O4 0.953036 0.439222 0.000000
O O5 0.479971 0.360025 0.500000
O O6 0.356628 0.398516 0.322816
O O7 0.522626 0.394044 0.228099
O O8 0.414367 0.303119 0.279596
O O9 0.767569 0.459632 0.500000
O O10 0.780210 0.535616 0.300068
O O11 0.666896 0.456852 0.256724
O O12 0.921025 0.706161 0.260272
O O13 0.791110 0.641408 0.215419
O O14 0.746752 0.741014 0.240225
O O15 0.836720 0.709770 0.000000
O O16 0.005429 0.336081 0.500000
O O17 0.902999 0.303072 0.715067
O O18 0.279059 0.887231 0.500000
O O19 0.500000 0.500000 0.777932
O O20 0.419378 0.546924 0.000000
O O21 0.164416 0.755789 0.500000
#
# Coordination Sequence:
#
# PCOD9429032 Si02
#       8
#     8   8   8   8   8   8   8   8
#     4  11  25  44  65  93 128 161 198 255 320 378
#     4   9  17  34  57  82 113 153 203 253 297 351
#     4  11  22  37  59  86 118 163 209 249 300 364
#     4  11  22  36  61  93 123 157 195 247 309 364
#     4  11  23  43  69  93 122 163 210 257 305 368
#     4   9  18  33  56  84 116 155 204 252 290 350
#     4  11  22  34  52  84 126 166 203 251 310 369
#     4   9  21  42  65  90 118 155 204 256 302 355
#
# _framework density 19.866569999999999
#
# number of rings (size 3 to 8) (size 9 to 14) (size 15 to 20)
#    0.000    1.750    1.250    4.125    0.000    7.500 
#    2.250    0.000    0.000    0.000    0.000    0.000 
#    0.000    0.000    0.000    0.000    0.000    0.000 
#
# Total GULP energy -357591.247456 kJ/mol
# GULP energy per Si atom -5587.363241 kJ/mol
# Density = 1.982135 g / cm^3
# Si number density = 19.866570 Si / 1000 Ang^3
#
#
#
# Elastic Constant Matrix: (Units=GPa)
#
#
# Indices 1 2 3 4 5 6 
#
# 1 116.7083 27.9615 42.9630 0.0000 0.0000 0.0000
# 2 27.9615 58.8467 27.3570 0.0000 0.0000 0.0000
# 3 42.9630 27.3570 63.3621 0.0000 0.0000 0.0000
# 4 0.0000 0.0000 0.0000 13.9256 0.0000 0.0000
# 5 0.0000 0.0000 0.0000 0.0000 33.2143 0.0000
# 6 0.0000 0.0000 0.0000 0.0000 0.0000 30.3170
#
#
#
# Elastic Compliance Matrix: (Units=1/GPa)
#
#
# Indices 1 2 3 4 5 6 
#
# 1 0.011669 -0.002335 -0.006904 0.000000 0.000000 0.000000
# 2 -0.002335 0.021728 -0.007798 0.000000 0.000000 0.000000
# 3 -0.006904 -0.007798 0.023831 0.000000 0.000000 0.000000
# 4 0.000000 0.000000 0.000000 0.071810 0.000000 0.000000
# 5 0.000000 0.000000 0.000000 0.000000 0.030108 0.000000
# 6 0.000000 0.000000 0.000000 0.000000 0.000000 0.032985
#
#
# Mechanical properties :
#
#
# Convention : Reuss Voigt Hill
#
# Bulk Modulus (GPa) = 43.19018 48.38667 45.78842
# Shear Modulus (GPa) = 21.37453 24.86708 23.12081
#
# Velocity S-wave (km/s) = 3.28366 3.54178 3.41516
# Velocity P-wave (km/s) = 6.01364 6.41361 6.21684
#
# Compressibility (1/GPa) = 0.02315341
#
# Stress axis : x y z
#
# Youngs Moduli (GPa) = 85.69363 46.02362 41.96283
#
# Poissons Ratio (x) = 0.10747 0.28973
# Poissons Ratio (y) = 0.20010 0.32722
# Poissons Ratio (z) = 0.59166 0.35889
#
# Static dielectric constant tensor:
#      x y z
#    x 1.715370 0.000000 0.000000 
#    y 0.000000 1.703740 0.000000 
#    z 0.000000 0.000000 1.664950 
# 
# From -- ./inp_files/6532.got.cif
#   From: 2010.05.17/outbox.cif.g08.bks.cpg/sg55_4_cif.got.tgz:6532.got - 2010.06.03 13:27:54.
