data_PCOD9429865
_publ_section_title
;
Structure prediction by ZEFSAII (Michael W. Deem and Ramdas Pophale) SiO2 
 PCOD9429865
Probable space group: P C C N
;
_chemical_formula_sum "Si O2"
_cell_formula_units_Z 40
_cell_length_a 23.750421
_cell_length_b 4.984486
_cell_length_c 13.144577
_cell_angle_alpha 90.000000
_cell_angle_beta 90.000000
_cell_angle_gamma 90.000000
_cell_volume 1556.102884
_symmetry_space_group_name_H-M "P C C N"
_symmetry_group_IT_number 56
_symmetry_cell_setting 'orthorhombic'
loop_
_space_group_symop_operation_xyz
x,y,z
1/2-x,1/2-y,z
1/2+x,-y,1/2-z
-x,1/2+y,1/2-z
-x,-y,-z
1/2+x,1/2+y,-z
1/2-x,y,1/2+z
x,1/2-y,1/2+z
loop_
_atom_site_type_symbol
_atom_site_label
_atom_site_fract_x
_atom_site_fract_y
_atom_site_fract_z
Si Si1 0.413615 0.032152 0.004358
Si Si2 0.374644 0.820684 0.800163
Si Si3 0.032818 0.480453 0.212086
Si Si4 0.250000 0.750000 0.777782
Si Si5 0.250000 0.250000 0.629003
Si Si6 0.356858 0.529245 0.074731
O O1 0.460162 0.971193 0.090738
O O2 0.363102 0.837206 0.044987
O O3 0.401424 0.346741 0.015526
O O4 0.412770 0.949561 0.887586
O O5 0.407187 0.553007 0.764167
O O6 0.309367 0.792922 0.834544
O O7 0.369238 0.985477 0.695107
O O8 0.009814 0.190064 0.237197
O O9 0.264145 0.496592 0.704833
O O10 0.201963 0.382095 0.560302
#
# Coordination Sequence:
#
# PCOD9429865 Si02
#       6
#     8   8   8   4   4   8
#     4  11  24  41  66  95 125 170 214 263 330 382
#     4  10  24  44  67  96 136 170 216 273 326 389
#     4  11  24  43  67  96 131 171 221 272 322 387
#     4  10  22  38  66  96 128 176 214 260 328 390
#     4  10  18  36  60  86 130 176 208 260 316 364
#     4  10  22  39  61  92 129 167 214 261 312 385
#
# _framework density 25.705241000000001
#
# number of rings (size 3 to 8) (size 9 to 14) (size 15 to 20)
#    0.000    1.600    0.000    6.000    0.000   12.800 
#    0.000    2.000    0.000    0.000    0.000    0.000 
#    0.000    0.000    0.000    0.000    0.000    0.000 
#
# Total GULP energy -223626.625176 kJ/mol
# GULP energy per Si atom -5590.665629 kJ/mol
# Density = 2.564673 g / cm^3
# Si number density = 25.705241 Si / 1000 Ang^3
#
#
#
# Elastic Constant Matrix: (Units=GPa)
#
#
# Indices 1 2 3 4 5 6 
#
# 1 118.6597 4.2107 9.3567 0.0000 0.0000 0.0000
# 2 4.2107 67.3417 -3.9523 0.0000 0.0000 0.0000
# 3 9.3567 -3.9523 131.0061 0.0000 0.0000 0.0000
# 4 0.0000 0.0000 0.0000 19.4087 0.0000 0.0000
# 5 0.0000 0.0000 0.0000 0.0000 7.1974 0.0000
# 6 0.0000 0.0000 0.0000 0.0000 0.0000 35.3213
#
#
#
# Elastic Compliance Matrix: (Units=1/GPa)
#
#
# Indices 1 2 3 4 5 6 
#
# 1 0.008497 -0.000568 -0.000624 0.000000 0.000000 0.000000
# 2 -0.000568 0.014914 0.000490 0.000000 0.000000 0.000000
# 3 -0.000624 0.000490 0.007693 0.000000 0.000000 0.000000
# 4 0.000000 0.000000 0.000000 0.051523 0.000000 0.000000
# 5 0.000000 0.000000 0.000000 0.000000 0.138939 0.000000
# 6 0.000000 0.000000 0.000000 0.000000 0.000000 0.028312
#
#
# Mechanical properties :
#
#
# Convention : Reuss Voigt Hill
#
# Bulk Modulus (GPa) = 33.66940 37.35973 35.51457
# Shear Modulus (GPa) = 19.14385 32.87830 26.01107
#
# Velocity S-wave (km/s) = 2.73196 3.58026 3.18448
# Velocity P-wave (km/s) = 4.80398 5.62641 5.23138
#
# Compressibility (1/GPa) = 0.02970056
#
# Stress axis : x y z
#
# Youngs Moduli (GPa) = 117.69109 67.05138 129.99509
#
# Poissons Ratio (x) = 0.03808 0.08112
# Poissons Ratio (y) = 0.06684 -0.06376
# Poissons Ratio (z) = 0.07344 -0.03289
#
# Static dielectric constant tensor:
#      x y z
#    x 2.172680 0.000000 0.000000 
#    y 0.000000 1.934710 0.000000 
#    z 0.000000 0.000000 2.004140 
# 
# From -- ./inp_files/13180.got.cif
#   From: 2010.05.17/outbox.cif.g08.bks.cpg/sg56_7_cif.got.tgz:13180.got - 2010.06.03 13:42:01.
