data_PCOD9429260
_publ_section_title
;
Structure prediction by ZEFSAII (Michael W. Deem and Ramdas Pophale) SiO2 
 PCOD9429260
Probable space group: P B A M
;
_chemical_formula_sum "Si O2"
_cell_formula_units_Z 64
_cell_length_a 21.000000
_cell_length_b 21.000000
_cell_length_c 9.000000
_cell_angle_alpha 90.000000
_cell_angle_beta 90.000000
_cell_angle_gamma 90.000000
_cell_volume 3969.000000
_symmetry_space_group_name_H-M "P B A M"
_symmetry_group_IT_number 55
_symmetry_cell_setting 'orthorhombic'
loop_
_space_group_symop_operation_xyz
x,y,z
-x,-y,z
1/2+x,1/2-y,-z
1/2-x,1/2+y,-z
-x,-y,-z
x,y,-z
1/2-x,1/2+y,z
1/2+x,1/2-y,z
loop_
_atom_site_type_symbol
_atom_site_label
_atom_site_fract_x
_atom_site_fract_y
_atom_site_fract_z
Si Si1 0.876882 0.429997 0.176258
Si Si2 0.311538 0.705422 0.680434
Si Si3 0.926888 0.299985 0.320099
Si Si4 0.276117 0.570709 0.176878
Si Si5 0.688762 0.707725 0.680426
Si Si6 0.276111 0.434978 0.677029
Si Si7 0.072719 0.297911 0.319571
Si Si8 0.376813 0.936164 0.323343
O O1 0.908463 0.368809 0.253550
O O2 0.800440 0.424936 0.201278
O O3 0.897179 0.498589 0.242773
O O4 0.888558 0.428696 0.000000
O O5 0.311098 0.699642 0.500000
O O6 0.305613 0.634539 0.749207
O O7 0.250292 0.749316 0.722925
O O8 0.374719 0.745339 0.725780
O O9 0.924083 0.304594 0.500000
O O10 0.874767 0.246564 0.274461
O O11 0.999707 0.283671 0.277600
O O12 0.295944 0.501517 0.244355
O O13 0.287785 0.571035 0.000000
O O14 0.689491 0.705354 0.500000
O O15 0.694833 0.633407 0.728517
O O16 0.288235 0.441410 0.500000
O O17 0.199546 0.429032 0.696531
O O18 0.075683 0.299107 0.500000
O O19 0.091558 0.369861 0.271488
O O20 0.388869 0.943232 0.500000
#
# Coordination Sequence:
#
# PCOD9429260 Si02
#       8
#     8   8   8   8   8   8   8   8
#     4  10  20  32  45  67 100 133 164 198 235 283
#     4  10  17  31  53  75  97 126 161 200 244 288
#     4  10  19  32  50  73  99 129 162 199 243 289
#     4  10  20  32  47  73 102 126 158 202 245 287
#     4   9  16  28  51  76  95 120 161 203 239 283
#     4   9  16  29  50  73  94 122 160 200 241 287
#     4   9  18  31  50  75 100 125 161 205 243 284
#     4   9  16  29  48  68  93 127 163 197 235 284
#
# _framework density 16.124969
#
# number of rings (size 3 to 8) (size 9 to 14) (size 15 to 20)
#    0.000    2.500    2.500    0.750    0.000    1.500 
#    0.000    5.625    0.000    0.750    0.000    5.250 
#    0.000    0.000    0.000    0.000    0.000    0.000 
#
# Total GULP energy -356679.717711 kJ/mol
# GULP energy per Si atom -5573.120589 kJ/mol
# Density = 1.608827 g / cm^3
# Si number density = 16.124969 Si / 1000 Ang^3
#
#
#
# Elastic Constant Matrix: (Units=GPa)
#
#
# Indices 1 2 3 4 5 6 
#
# 1 101.2721 76.2737 29.0640 0.0000 0.0000 0.0000
# 2 76.2737 183.0613 41.9564 0.0000 0.0000 0.0000
# 3 29.0640 41.9564 31.0947 0.0000 0.0000 0.0000
# 4 0.0000 0.0000 0.0000 11.4467 0.0000 0.0000
# 5 0.0000 0.0000 0.0000 0.0000 11.4808 0.0000
# 6 0.0000 0.0000 0.0000 0.0000 0.0000 26.6982
#
#
#
# Elastic Compliance Matrix: (Units=1/GPa)
#
#
# Indices 1 2 3 4 5 6 
#
# 1 0.015811 -0.004634 -0.008526 0.000000 0.000000 0.000000
# 2 -0.004634 0.009266 -0.008172 0.000000 0.000000 0.000000
# 3 -0.008526 -0.008172 0.051156 0.000000 0.000000 0.000000
# 4 0.000000 0.000000 0.000000 0.087362 0.000000 0.000000
# 5 0.000000 0.000000 0.000000 0.000000 0.087102 0.000000
# 6 0.000000 0.000000 0.000000 0.000000 0.000000 0.037456
#
#
# Mechanical properties :
#
#
# Convention : Reuss Voigt Hill
#
# Bulk Modulus (GPa) = 29.78913 67.77960 48.78437
# Shear Modulus (GPa) = 14.61960 21.13407 17.87683
#
# Velocity S-wave (km/s) = 3.01432 3.62421 3.33324
# Velocity P-wave (km/s) = 5.53433 7.72259 6.71815
#
# Compressibility (1/GPa) = 0.03356929
#
# Stress axis : x y z
#
# Youngs Moduli (GPa) = 63.24607 107.91823 19.54807
#
# Poissons Ratio (x) = 0.50006 0.16667
# Poissons Ratio (y) = 0.29306 0.15975
# Poissons Ratio (z) = 0.53926 0.88191
#
# Static dielectric constant tensor:
#      x y z
#    x 1.545150 0.000000 0.000000 
#    y 0.000000 1.532570 0.000000 
#    z 0.000000 0.000000 1.536510 
# 
# From -- ./inp_files/7993.got.cif
#   From: 2010.05.17/outbox.ucp.g08.bks.cvg/sg55_4_cif.got.tgz:7993.got - 2010.06.11 16:36:00.
