data_PCOD9429384
_publ_section_title
;
Structure prediction by ZEFSAII (Michael W. Deem and Ramdas Pophale) SiO2 
 PCOD9429384
Probable space group: P B A M
;
_chemical_formula_sum "Si O2"
_cell_formula_units_Z 48
_cell_length_a 18.000000
_cell_length_b 15.000000
_cell_length_c 9.000000
_cell_angle_alpha 90.000000
_cell_angle_beta 90.000000
_cell_angle_gamma 90.000000
_cell_volume 2430.000000
_symmetry_space_group_name_H-M "P B A M"
_symmetry_group_IT_number 55
_symmetry_cell_setting 'orthorhombic'
loop_
_space_group_symop_operation_xyz
x,y,z
-x,-y,z
1/2+x,1/2-y,-z
1/2-x,1/2+y,-z
-x,-y,-z
x,y,-z
1/2-x,1/2+y,z
1/2+x,1/2-y,z
loop_
_atom_site_type_symbol
_atom_site_label
_atom_site_fract_x
_atom_site_fract_y
_atom_site_fract_z
Si Si1 0.897291 0.743001 0.675415
Si Si2 0.225620 0.020035 0.819682
Si Si3 0.932639 0.937245 0.320862
Si Si4 0.843193 0.330821 0.180161
Si Si5 0.997952 0.605561 0.175296
Si Si6 0.254367 0.820706 0.822075
O O1 0.887100 0.742849 0.500000
O O2 0.942044 0.832511 0.716453
O O3 0.818572 0.740025 0.755536
O O4 0.936031 0.653988 0.731165
O O5 0.255359 0.922713 0.774263
O O6 0.144799 0.034189 0.751657
O O7 0.282900 0.096334 0.770957
O O8 0.220693 0.022145 0.000000
O O9 0.926859 0.944426 0.500000
O O10 0.000000 0.000000 0.271225
O O11 0.924059 0.356910 0.230597
O O12 0.820593 0.230822 0.220059
O O13 0.844129 0.336350 0.000000
O O14 0.000000 0.500000 0.188400
O O15 0.986840 0.626570 0.000000
O O16 0.261879 0.819872 0.000000
#
# Coordination Sequence:
#
# PCOD9429384 Si02
#       6
#     8   8   8   8   8   8
#     4  11  23  39  59  86 118 156 197 237 287 346
#     4  10  20  36  61  88 111 142 189 240 290 342
#     4  10  23  41  57  79 118 161 196 235 288 345
#     4   9  18  34  55  83 114 143 182 233 286 341
#     4  10  21  38  61  87 118 155 191 236 295 348
#     4  10  20  36  59  85 113 146 189 243 293 343
#
# _framework density 19.753086
#
# number of rings (size 3 to 8) (size 9 to 14) (size 15 to 20)
#    0.000    2.000    1.667    1.500    2.333    4.667 
#    0.000    1.667    0.000    0.000    0.000    0.000 
#    0.000    0.000    0.000    0.000    0.000    0.000 
#
# Total GULP energy -267712.043290 kJ/mol
# GULP energy per Si atom -5577.334235 kJ/mol
# Density = 1.970813 g / cm^3
# Si number density = 19.753086 Si / 1000 Ang^3
#
#
#
# Elastic Constant Matrix: (Units=GPa)
#
#
# Indices 1 2 3 4 5 6 
#
# 1 32.6685 -14.4026 -8.0300 0.0000 0.0000 0.0000
# 2 -14.4026 57.9218 12.3913 0.0000 0.0000 0.0000
# 3 -8.0300 12.3913 -14.4347 0.0000 0.0000 0.0000
# 4 0.0000 0.0000 0.0000 42.2666 0.0000 0.0000
# 5 0.0000 0.0000 0.0000 0.0000 38.7609 0.0000
# 6 0.0000 0.0000 0.0000 0.0000 0.0000 28.6677
#
#
#
# Elastic Compliance Matrix: (Units=1/GPa)
#
#
# Indices 1 2 3 4 5 6 
#
# 1 0.032765 0.010177 -0.009490 0.000000 0.000000 0.000000
# 2 0.010177 0.017747 0.009573 0.000000 0.000000 0.000000
# 3 -0.009490 0.009573 -0.055780 0.000000 0.000000 0.000000
# 4 0.000000 0.000000 0.000000 0.023659 0.000000 0.000000
# 5 0.000000 0.000000 0.000000 0.000000 0.025799 0.000000
# 6 0.000000 0.000000 0.000000 0.000000 0.000000 0.034882
#
#
# Mechanical properties :
#
#
# Convention : Reuss Voigt Hill
#
# Bulk Modulus (GPa) = 65.56071 6.23034 35.89553
# Shear Modulus (GPa) = 78.57150 27.68550 53.12850
#
# Velocity S-wave (km/s) = 6.31373 3.74783 5.19179
# Velocity P-wave (km/s) = 9.29586 4.67859 7.35875
#
# Compressibility (1/GPa) = 0.01525304
#
# Stress axis : x y z
#
# Youngs Moduli (GPa) = 30.52059 56.34662 -17.92755
#
# Poissons Ratio (x) = -0.57346 -0.17014
# Poissons Ratio (y) = -0.31062 0.17163
# Poissons Ratio (z) = 0.28965 -0.53942
#
# Static dielectric constant tensor:
#      x y z
#    x 1.817600 0.000000 0.000000 
#    y 0.000000 1.710190 0.000000 
#    z 0.000000 0.000000 1.663040 
# 
# From -- ./inp_files/5555.got.cif
#   From: 2010.05.17/outbox.ucp.g08.bks.cvg/sg55_3_cif.got.tgz:5555.got - 2010.06.11 16:36:00.
