data_PCOD9429703
_publ_section_title
;
Structure prediction by ZEFSAII (Michael W. Deem and Ramdas Pophale) SiO2 
 PCOD9429703
Probable space group: P C C N
;
_chemical_formula_sum "Si O2"
_cell_formula_units_Z 48
_cell_length_a 21.079575
_cell_length_b 8.617728
_cell_length_c 10.367658
_cell_angle_alpha 90.000000
_cell_angle_beta 90.000000
_cell_angle_gamma 90.000000
_cell_volume 1883.368470
_symmetry_space_group_name_H-M "P C C N"
_symmetry_group_IT_number 56
_symmetry_cell_setting 'orthorhombic'
loop_
_space_group_symop_operation_xyz
x,y,z
1/2-x,1/2-y,z
1/2+x,-y,1/2-z
-x,1/2+y,1/2-z
-x,-y,-z
1/2+x,1/2+y,-z
1/2-x,y,1/2+z
x,1/2-y,1/2+z
loop_
_atom_site_type_symbol
_atom_site_label
_atom_site_fract_x
_atom_site_fract_y
_atom_site_fract_z
Si Si1 0.031765 0.041794 0.655866
Si Si2 0.342810 0.053523 0.656811
Si Si3 0.114667 0.710757 0.245707
Si Si4 0.894627 0.943009 0.589301
Si Si5 0.432774 0.015455 0.432543
Si Si6 0.282844 0.584902 0.577585
O O1 0.057338 0.862819 0.660879
O O2 0.068191 0.120297 0.537853
O O3 0.052479 0.098030 0.796520
O O4 0.956410 0.038578 0.643031
O O5 0.363784 0.879057 0.701427
O O6 0.363468 0.142245 0.786774
O O7 0.382835 0.086611 0.529784
O O8 0.270526 0.040452 0.612518
O O9 0.095120 0.652362 0.387441
O O10 0.176334 0.610360 0.206820
O O11 0.833827 0.031912 0.528638
O O12 0.500000 0.000000 0.500000
O O13 0.250000 0.750000 0.541880
#
# Coordination Sequence:
#
# PCOD9429703 Si02
#       6
#     8   8   8   8   8   8
#     4   8  18  32  46  63  92 136 179 216 249 291
#     4  11  20  28  50  70  99 141 167 210 263 307
#     4   8  19  31  44  67 100 132 171 213 246 307
#     4  10  18  31  48  65  96 141 173 210 249 304
#     4  10  19  34  47  69  96 139 175 226 255 308
#     4   9  20  29  42  70 103 135 168 201 244 313
#
# _framework density 25.486252
#
# number of rings (size 3 to 8) (size 9 to 14) (size 15 to 20)
#    1.000    1.667    1.667    0.000    9.333    0.667 
#    0.000    0.000    0.000    0.000    0.000    0.000 
#    0.000    1.333   12.000    0.167    0.000    0.000 
#
# Total GULP energy -267593.740474 kJ/mol
# GULP energy per Si atom -5574.869593 kJ/mol
# Density = 2.542824 g / cm^3
# Si number density = 25.486252 Si / 1000 Ang^3
#
#
#
# Elastic Constant Matrix: (Units=GPa)
#
#
# Indices 1 2 3 4 5 6 
#
# 1 196.4660 19.2809 69.6026 0.0000 0.0000 0.0000
# 2 19.2809 41.4237 -10.2103 0.0000 0.0000 0.0000
# 3 69.6026 -10.2103 190.0852 0.0000 0.0000 0.0000
# 4 0.0000 0.0000 0.0000 -2.4588 0.0000 0.0000
# 5 0.0000 0.0000 0.0000 0.0000 54.2362 0.0000
# 6 0.0000 0.0000 0.0000 0.0000 0.0000 27.7723
#
#
#
# Elastic Compliance Matrix: (Units=1/GPa)
#
#
# Indices 1 2 3 4 5 6 
#
# 1 0.006328 -0.003564 -0.002509 0.000000 0.000000 0.000000
# 2 -0.003564 0.026472 0.002727 0.000000 0.000000 0.000000
# 3 -0.002509 0.002727 0.006326 0.000000 0.000000 0.000000
# 4 0.000000 0.000000 0.000000 -0.406710 0.000000 0.000000
# 5 0.000000 0.000000 0.000000 0.000000 0.018438 0.000000
# 6 0.000000 0.000000 0.000000 0.000000 0.000000 0.036007
#
#
# Mechanical properties :
#
#
# Convention : Reuss Voigt Hill
#
# Bulk Modulus (GPa) = 30.83125 65.03569 47.93347
# Shear Modulus (GPa) = -16.91272 39.19672 11.14200
#
# Velocity S-wave (km/s) = -2.57884 3.92593 2.09315
# Velocity P-wave (km/s) = 1.80450 6.79146 4.96891
#
# Compressibility (1/GPa) = 0.03243462
#
# Stress axis : x y z
#
# Youngs Moduli (GPa) = 158.01616 37.77605 158.08095
#
# Poissons Ratio (x) = 0.13463 0.39658
# Poissons Ratio (y) = 0.56317 -0.43107
# Poissons Ratio (z) = 0.39642 -0.10301
#
# Static dielectric constant tensor:
#      x y z
#    x 1.928650 0.000000 0.000000 
#    y 0.000000 2.158390 0.000000 
#    z 0.000000 0.000000 2.091950 
# 
# From -- ./inp_files/8347.got.cif
#   From: 2010.05.17/outbox.cif.g08.bks.cpg/sg56_5_cif.got.tgz:8347.got - 2010.06.03 13:42:01.
