data_PCOD9429413
_publ_section_title
;
Structure prediction by ZEFSAII (Michael W. Deem and Ramdas Pophale) SiO2 
 PCOD9429413
Probable space group: P B A M
;
_chemical_formula_sum "Si O2"
_cell_formula_units_Z 64
_cell_length_a 24.000000
_cell_length_b 15.000000
_cell_length_c 9.000000
_cell_angle_alpha 90.000000
_cell_angle_beta 90.000000
_cell_angle_gamma 90.000000
_cell_volume 3240.000000
_symmetry_space_group_name_H-M "P B A M"
_symmetry_group_IT_number 55
_symmetry_cell_setting 'orthorhombic'
loop_
_space_group_symop_operation_xyz
x,y,z
-x,-y,z
1/2+x,1/2-y,-z
1/2-x,1/2+y,-z
-x,-y,-z
x,y,-z
1/2-x,1/2+y,z
1/2+x,1/2-y,z
loop_
_atom_site_type_symbol
_atom_site_label
_atom_site_fract_x
_atom_site_fract_y
_atom_site_fract_z
Si Si1 0.801455 0.693949 0.678118
Si Si2 0.579058 0.234573 0.821495
Si Si3 0.635724 0.855259 0.329825
Si Si4 0.714982 0.538460 0.321530
Si Si5 0.107291 0.848806 0.669713
Si Si6 0.995510 0.897363 0.821621
Si Si7 0.753277 0.364331 0.825588
Si Si8 0.009821 0.604880 0.325291
O O1 0.805922 0.697418 0.500000
O O2 0.862532 0.705551 0.748975
O O3 0.766523 0.604557 0.715712
O O4 0.765671 0.776894 0.737533
O O5 0.555600 0.332852 0.774054
O O6 0.532265 0.164109 0.769420
O O7 0.584586 0.234552 0.000000
O O8 0.646034 0.886871 0.500000
O O9 0.634501 0.748452 0.331099
O O10 0.683554 0.886285 0.220903
O O11 0.573923 0.881334 0.283448
O O12 0.716910 0.523447 0.500000
O O13 0.656370 0.584975 0.285672
O O14 0.718375 0.447541 0.232489
O O15 0.089886 0.868763 0.500000
O O16 0.052996 0.852196 0.770482
O O17 0.992987 0.900290 0.000000
O O18 0.000000 0.000000 0.767232
O O19 0.747257 0.350157 0.000000
O O20 0.004045 0.631089 0.500000
O O21 0.000000 0.500000 0.313116
#
# Coordination Sequence:
#
# PCOD9429413 Si02
#       8
#     8   8   8   8   8   8   8   8
#     4  11  24  45  68  89 123 168 213 258 307 369
#     4  11  24  41  61  91 130 165 203 256 317 373
#     4  10  20  40  65  89 123 161 210 261 303 364
#     4  10  23  43  65  90 121 162 209 256 308 364
#     4  10  20  39  66  92 116 152 208 263 301 350
#     4  10  23  41  60  87 126 166 200 244 307 370
#     4  12  26  41  63  95 129 163 203 254 318 377
#     4  10  22  40  64  92 121 164 213 255 306 367
#
# _framework density 19.753086
#
# number of rings (size 3 to 8) (size 9 to 14) (size 15 to 20)
#    0.000    1.500    2.500    1.875    3.500    3.500 
#    0.000    0.000    0.000    0.000    0.000    0.000 
#    0.000    0.000    0.000    0.000    0.000    0.000 
#
# Total GULP energy -357479.711111 kJ/mol
# GULP energy per Si atom -5585.620486 kJ/mol
# Density = 1.970813 g / cm^3
# Si number density = 19.753086 Si / 1000 Ang^3
#
#
#
# Elastic Constant Matrix: (Units=GPa)
#
#
# Indices 1 2 3 4 5 6 
#
# 1 41.9460 -18.1781 0.9799 0.0000 0.0000 0.0000
# 2 -18.1781 2.5047 -21.1126 0.0000 0.0000 0.0000
# 3 0.9799 -21.1126 3.3056 0.0000 0.0000 0.0000
# 4 0.0000 0.0000 0.0000 -98.5767 0.0000 0.0000
# 5 0.0000 0.0000 0.0000 0.0000 22.5440 0.0000
# 6 0.0000 0.0000 0.0000 0.0000 0.0000 24.3528
#
#
#
# Elastic Compliance Matrix: (Units=1/GPa)
#
#
# Indices 1 2 3 4 5 6 
#
# 1 0.023403 -0.002108 -0.020400 0.000000 0.000000 0.000000
# 2 -0.002108 -0.007367 -0.046424 0.000000 0.000000 0.000000
# 3 -0.020400 -0.046424 0.012057 0.000000 0.000000 0.000000
# 4 0.000000 0.000000 0.000000 -0.010144 0.000000 0.000000
# 5 0.000000 0.000000 0.000000 0.000000 0.044358 0.000000
# 6 0.000000 0.000000 0.000000 0.000000 0.000000 0.041063
#
#
# Mechanical properties :
#
#
# Convention : Reuss Voigt Hill
#
# Bulk Modulus (GPa) = -9.10990 -3.20724 -6.15857
# Shear Modulus (GPa) = 24.43255 -4.59818 9.91718
#
# Velocity S-wave (km/s) = 3.52077 -1.52738 2.24309
# Velocity P-wave (km/s) = 3.45049 2.17663 1.89317
#
# Compressibility (1/GPa) = -0.10977070
#
# Stress axis : x y z
#
# Youngs Moduli (GPa) = 42.72903 -135.74930 82.93728
#
# Poissons Ratio (x) = -0.28614 1.69196
# Poissons Ratio (y) = 0.09007 3.85029
# Poissons Ratio (z) = 0.87169 -6.30204
#
# Static dielectric constant tensor:
#      x y z
#    x 1.668300 0.000000 0.000000 
#    y 0.000000 1.715710 0.000000 
#    z 0.000000 0.000000 1.668650 
# 
# From -- ./inp_files/9709.got.cif
#   From: 2010.05.17/outbox.ucp.g08.bks.cvg/sg55_5_cif.got.tgz:9709.got - 2010.06.11 16:36:00.
