data_PCOD9429852
_publ_section_title
;
Structure prediction by ZEFSAII (Michael W. Deem and Ramdas Pophale) SiO2 
 PCOD9429852
Probable space group: P C C N
;
_chemical_formula_sum "Si O2"
_cell_formula_units_Z 60
_cell_length_a 18.131141
_cell_length_b 11.442433
_cell_length_c 15.884111
_cell_angle_alpha 90.000000
_cell_angle_beta 90.000000
_cell_angle_gamma 90.000000
_cell_volume 3295.387020
_symmetry_space_group_name_H-M "P C C N"
_symmetry_group_IT_number 56
_symmetry_cell_setting 'orthorhombic'
loop_
_space_group_symop_operation_xyz
x,y,z
1/2-x,1/2-y,z
1/2+x,-y,1/2-z
-x,1/2+y,1/2-z
-x,-y,-z
1/2+x,1/2+y,-z
1/2-x,y,1/2+z
x,1/2-y,1/2+z
loop_
_atom_site_type_symbol
_atom_site_label
_atom_site_fract_x
_atom_site_fract_y
_atom_site_fract_z
Si Si1 0.605894 0.004547 0.757154
Si Si2 0.906428 0.563983 0.371594
Si Si3 0.105961 0.256828 0.489149
Si Si4 0.244188 0.115409 0.215443
Si Si5 0.541371 0.223087 0.688134
Si Si6 0.494954 0.345248 0.853193
Si Si7 0.978665 0.926664 0.416549
Si Si8 0.750000 0.750000 0.620797
O O1 0.603170 0.123115 0.701639
O O2 0.684044 0.964884 0.795048
O O3 0.575074 0.905471 0.693452
O O4 0.547761 0.002452 0.835750
O O5 0.889180 0.623133 0.460089
O O6 0.831398 0.560777 0.318295
O O7 0.949624 0.444261 0.384867
O O8 0.966050 0.649704 0.327425
O O9 0.090196 0.153010 0.553810
O O10 0.178650 0.244349 0.435919
O O11 0.036129 0.265786 0.427005
O O12 0.250000 0.250000 0.179287
O O13 0.243572 0.141233 0.315246
O O14 0.536198 0.280104 0.779110
O O15 0.537655 0.329384 0.619852
O O16 0.000000 0.000000 0.500000
#
# Coordination Sequence:
#
# PCOD9429852 Si02
#       8
#     8   8   8   8   8   8   8   4
#     4  10  19  35  57  78 113 151 192 235 282 354
#     4  10  21  31  57  79 110 145 186 239 293 344
#     4  11  20  33  52  87 113 141 183 243 300 338
#     4  10  19  36  52  80 109 146 188 237 297 347
#     4   9  19  35  56  80 108 153 192 234 279 360
#     4  10  18  36  53  79 108 149 189 232 285 350
#     4  10  21  34  56  85 115 148 190 243 293 343
#     4  10  22  30  56  78 118 142 178 244 296 358
#
# _framework density 18.207270000000001
#
# number of rings (size 3 to 8) (size 9 to 14) (size 15 to 20)
#    0.400    1.600    1.333    4.400    2.800    2.133 
#    0.000    0.667    0.000    0.000    0.000    3.733 
#    0.000    0.000    0.000    0.000    0.000    0.000 
#
# Total GULP energy -334018.961397 kJ/mol
# GULP energy per Si atom -5566.982690 kJ/mol
# Density = 1.816583 g / cm^3
# Si number density = 18.207270 Si / 1000 Ang^3
#
#
#
# Elastic Constant Matrix: (Units=GPa)
#
#
# Indices 1 2 3 4 5 6 
#
# 1 71.2051 16.5404 5.3907 0.0000 0.0000 0.0000
# 2 16.5404 55.8089 14.5537 0.0000 0.0000 0.0000
# 3 5.3907 14.5537 70.6667 0.0000 0.0000 0.0000
# 4 0.0000 0.0000 0.0000 34.8307 0.0000 0.0000
# 5 0.0000 0.0000 0.0000 0.0000 7.5949 0.0000
# 6 0.0000 0.0000 0.0000 0.0000 0.0000 7.1455
#
#
#
# Elastic Compliance Matrix: (Units=1/GPa)
#
#
# Indices 1 2 3 4 5 6 
#
# 1 0.015086 -0.004408 -0.000243 0.000000 0.000000 0.000000
# 2 -0.004408 0.020223 -0.003829 0.000000 0.000000 0.000000
# 3 -0.000243 -0.003829 0.014958 0.000000 0.000000 0.000000
# 4 0.000000 0.000000 0.000000 0.028710 0.000000 0.000000
# 5 0.000000 0.000000 0.000000 0.000000 0.131668 0.000000
# 6 0.000000 0.000000 0.000000 0.000000 0.000000 0.139947
#
#
# Mechanical properties :
#
#
# Convention : Reuss Voigt Hill
#
# Bulk Modulus (GPa) = 30.02259 30.07226 30.04742
# Shear Modulus (GPa) = 13.20466 20.66062 16.93264
#
# Velocity S-wave (km/s) = 2.69595 3.37225 3.05289
# Velocity P-wave (km/s) = 5.12016 5.63163 5.38197
#
# Compressibility (1/GPa) = 0.03330825
#
# Stress axis : x y z
#
# Youngs Moduli (GPa) = 66.28561 49.44846 66.85391
#
# Poissons Ratio (x) = 0.21796 0.01625
# Poissons Ratio (y) = 0.29217 0.25596
# Poissons Ratio (z) = 0.01611 0.18932
#
# Static dielectric constant tensor:
#      x y z
#    x 1.691470 0.000000 0.000000 
#    y 0.000000 1.673360 0.000000 
#    z 0.000000 0.000000 1.635960 
# 
# From -- ./inp_files/12817.got.cif
#   From: 2010.05.17/outbox.cif.g08.bks.cpg/sg56_7_cif.got.tgz:12817.got - 2010.06.03 13:42:01.
