data_PCOD9429787
_publ_section_title
;
Structure prediction by ZEFSAII (Michael W. Deem and Ramdas Pophale) SiO2 
 PCOD9429787
Probable space group: P C C N
;
_chemical_formula_sum "Si O2"
_cell_formula_units_Z 48
_cell_length_a 6.767916
_cell_length_b 28.902763
_cell_length_c 8.669024
_cell_angle_alpha 90.000000
_cell_angle_beta 90.000000
_cell_angle_gamma 90.000000
_cell_volume 1695.760547
_symmetry_space_group_name_H-M "P C C N"
_symmetry_group_IT_number 56
_symmetry_cell_setting 'orthorhombic'
loop_
_space_group_symop_operation_xyz
x,y,z
1/2-x,1/2-y,z
1/2+x,-y,1/2-z
-x,1/2+y,1/2-z
-x,-y,-z
1/2+x,1/2+y,-z
1/2-x,y,1/2+z
x,1/2-y,1/2+z
loop_
_atom_site_type_symbol
_atom_site_label
_atom_site_fract_x
_atom_site_fract_y
_atom_site_fract_z
Si Si1 0.633100 0.566722 0.100055
Si Si2 0.453975 0.348140 0.061866
Si Si3 0.489533 0.679296 0.450399
Si Si4 0.316678 0.003120 0.116630
Si Si5 0.516668 0.761557 0.264932
Si Si6 0.086615 0.902853 0.638575
O O1 0.530757 0.616717 0.082237
O O2 0.605603 0.532839 0.241839
O O3 0.863933 0.580386 0.107082
O O4 0.637063 0.534024 0.948949
O O5 0.214601 0.339207 0.078088
O O6 0.525995 0.295993 0.090378
O O7 0.549981 0.375778 0.203543
O O8 0.426532 0.711378 0.306085
O O9 0.485264 0.711976 0.603886
O O10 0.370003 0.634113 0.503308
O O11 0.279154 0.948704 0.147242
O O12 0.500000 0.000000 0.000000
O O13 0.750000 0.750000 0.266375
#
# Coordination Sequence:
#
# PCOD9429787 Si02
#       6
#     8   8   8   8   8   8
#     4  10  18  34  51  70 104 135 174 217 258 299
#     4   9  16  27  46  68  99 141 163 203 250 315
#     4   9  17  27  44  65 103 132 171 199 245 308
#     4  10  21  35  52  73  99 139 179 216 258 310
#     4   9  15  25  39  66  94 136 168 191 244 314
#     4   9  18  32  48  72  98 140 176 208 251 305
#
# _framework density 28.305885
#
# number of rings (size 3 to 8) (size 9 to 14) (size 15 to 20)
#    0.000    2.667    1.667    1.500    0.000    2.000 
#    0.000    0.000    0.000    0.000    0.000    0.000 
#    0.000   16.000    0.000    0.000    0.000    0.000 
#
# Total GULP energy -268312.774208 kJ/mol
# GULP energy per Si atom -5589.849463 kJ/mol
# Density = 2.824146 g / cm^3
# Si number density = 28.305885 Si / 1000 Ang^3
#
#
#
# Elastic Constant Matrix: (Units=GPa)
#
#
# Indices 1 2 3 4 5 6 
#
# 1 81.1580 40.9738 13.6665 0.0000 0.0000 0.0000
# 2 40.9738 183.4500 58.6129 0.0000 0.0000 0.0000
# 3 13.6665 58.6129 105.3543 0.0000 0.0000 0.0000
# 4 0.0000 0.0000 0.0000 69.0452 0.0000 0.0000
# 5 0.0000 0.0000 0.0000 0.0000 28.2687 0.0000
# 6 0.0000 0.0000 0.0000 0.0000 0.0000 42.0858
#
#
#
# Elastic Compliance Matrix: (Units=1/GPa)
#
#
# Indices 1 2 3 4 5 6 
#
# 1 0.013888 -0.003073 -0.000092 0.000000 0.000000 0.000000
# 2 -0.003073 0.007309 -0.003668 0.000000 0.000000 0.000000
# 3 -0.000092 -0.003668 0.011544 0.000000 0.000000 0.000000
# 4 0.000000 0.000000 0.000000 0.014483 0.000000 0.000000
# 5 0.000000 0.000000 0.000000 0.000000 0.035375 0.000000
# 6 0.000000 0.000000 0.000000 0.000000 0.000000 0.023761
#
#
# Mechanical properties :
#
#
# Convention : Reuss Voigt Hill
#
# Bulk Modulus (GPa) = 52.41988 66.27429 59.34708
# Shear Modulus (GPa) = 39.56165 44.99389 42.27777
#
# Velocity S-wave (km/s) = 3.74257 3.99125 3.86891
# Velocity P-wave (km/s) = 6.10205 6.68615 6.40077
#
# Compressibility (1/GPa) = 0.01907673
#
# Stress axis : x y z
#
# Youngs Moduli (GPa) = 72.00260 136.81348 86.62266
#
# Poissons Ratio (x) = 0.42036 0.00799
# Poissons Ratio (y) = 0.22123 0.31772
# Poissons Ratio (z) = 0.00664 0.50181
#
# Static dielectric constant tensor:
#      x y z
#    x 2.292100 0.000000 0.000000 
#    y 0.000000 2.315830 0.000000 
#    z 0.000000 0.000000 2.285700 
# 
# From -- ./inp_files/2838.got.cif
#   From: 2010.05.17/outbox.cif.g08.bks.cpg/sg56_2_cif.got.tgz:2838.got - 2010.06.03 13:42:01.
