data_PCOD9429700
_publ_section_title
;
Structure prediction by ZEFSAII (Michael W. Deem and Ramdas Pophale) SiO2 
 PCOD9429700
Probable space group: P C C N
;
_chemical_formula_sum "Si O2"
_cell_formula_units_Z 44
_cell_length_a 13.092706
_cell_length_b 15.233969
_cell_length_c 8.734601
_cell_angle_alpha 90.000000
_cell_angle_beta 90.000000
_cell_angle_gamma 90.000000
_cell_volume 1742.150036
_symmetry_space_group_name_H-M "P C C N"
_symmetry_group_IT_number 56
_symmetry_cell_setting 'orthorhombic'
loop_
_space_group_symop_operation_xyz
x,y,z
1/2-x,1/2-y,z
1/2+x,-y,1/2-z
-x,1/2+y,1/2-z
-x,-y,-z
1/2+x,1/2+y,-z
1/2-x,y,1/2+z
x,1/2-y,1/2+z
loop_
_atom_site_type_symbol
_atom_site_label
_atom_site_fract_x
_atom_site_fract_y
_atom_site_fract_z
Si Si1 0.750000 0.250000 0.552953
Si Si2 0.279207 0.454201 0.078613
Si Si3 0.145378 0.198026 0.297045
Si Si4 0.173627 0.875923 0.687281
Si Si5 0.445319 0.479126 0.839886
Si Si6 0.567609 0.853415 0.907437
O O1 0.699834 0.178598 0.662174
O O2 0.828276 0.195664 0.447311
O O3 0.331533 0.390456 0.202102
O O4 0.261932 0.553838 0.135957
O O5 0.337515 0.447859 0.915928
O O6 0.166026 0.415686 0.062251
O O7 0.250000 0.250000 0.355669
O O8 0.057441 0.181449 0.421612
O O9 0.101092 0.267243 0.179710
O O10 0.079835 0.936644 0.737551
O O11 0.500000 0.500000 0.000000
O O12 0.493854 0.409743 0.719907
#
# Coordination Sequence:
#
# PCOD9429700 Si02
#       6
#     4   8   8   8   8   8
#     4  10  20  36  64  92 104 148 220 262 284 336
#     4  10  19  34  58  83 115 151 193 236 289 358
#     4  10  18  30  57  90 114 143 189 237 281 344
#     4  10  20  37  62  87 112 149 205 254 295 347
#     4  11  23  39  57  86 127 159 190 247 311 352
#     4  10  19  33  57  85 115 152 194 233 281 354
#
# _framework density 25.256149000000001
#
# number of rings (size 3 to 8) (size 9 to 14) (size 15 to 20)
#    0.000    1.818    1.818    6.000    2.545    0.000 
#    0.000    4.545    0.000    0.000    0.000    0.000 
#    0.000    0.000    0.000    0.000    0.000    0.000 
#
# Total GULP energy -245594.893686 kJ/mol
# GULP energy per Si atom -5581.702129 kJ/mol
# Density = 2.519866 g / cm^3
# Si number density = 25.256149 Si / 1000 Ang^3
#
#
#
# Elastic Constant Matrix: (Units=GPa)
#
#
# Indices 1 2 3 4 5 6 
#
# 1 28.9816 18.2094 5.2035 0.0000 0.0000 0.0000
# 2 18.2094 150.5849 56.1966 0.0000 0.0000 0.0000
# 3 5.2035 56.1966 121.2874 0.0000 0.0000 0.0000
# 4 0.0000 0.0000 0.0000 47.5369 0.0000 0.0000
# 5 0.0000 0.0000 0.0000 0.0000 6.3683 0.0000
# 6 0.0000 0.0000 0.0000 0.0000 0.0000 6.4538
#
#
#
# Elastic Compliance Matrix: (Units=1/GPa)
#
#
# Indices 1 2 3 4 5 6 
#
# 1 0.037377 -0.004741 0.000593 0.000000 0.000000 0.000000
# 2 -0.004741 0.008630 -0.003795 0.000000 0.000000 0.000000
# 3 0.000593 -0.003795 0.009978 0.000000 0.000000 0.000000
# 4 0.000000 0.000000 0.000000 0.021036 0.000000 0.000000
# 5 0.000000 0.000000 0.000000 0.000000 0.157029 0.000000
# 6 0.000000 0.000000 0.000000 0.000000 0.000000 0.154946
#
#
# Mechanical properties :
#
#
# Convention : Reuss Voigt Hill
#
# Bulk Modulus (GPa) = 24.93842 51.11920 38.02881
# Shear Modulus (GPa) = 11.95458 26.82142 19.38800
#
# Velocity S-wave (km/s) = 2.17798 3.26233 2.77366
# Velocity P-wave (km/s) = 4.02746 5.87151 5.03464
#
# Compressibility (1/GPa) = 0.04009878
#
# Stress axis : x y z
#
# Youngs Moduli (GPa) = 26.75437 115.86819 100.22084
#
# Poissons Ratio (x) = 0.54935 -0.05945
# Poissons Ratio (y) = 0.12685 0.38038
# Poissons Ratio (z) = -0.01587 0.43977
#
# Static dielectric constant tensor:
#      x y z
#    x 2.557830 0.000000 0.000000 
#    y 0.000000 2.013460 0.000000 
#    z 0.000000 0.000000 2.044220 
# 
# From -- ./inp_files/3315.got.cif
#   From: 2010.05.17/outbox.cif.g08.bks.cpg/sg56_2_cif.got.tgz:3315.got - 2010.06.03 13:42:01.
