data_PCOD9429860
_publ_section_title
;
Structure prediction by ZEFSAII (Michael W. Deem and Ramdas Pophale) SiO2 
 PCOD9429860
Probable space group: P C C N
;
_chemical_formula_sum "Si O2"
_cell_formula_units_Z 52
_cell_length_a 19.597427
_cell_length_b 6.990418
_cell_length_c 13.556227
_cell_angle_alpha 90.000000
_cell_angle_beta 90.000000
_cell_angle_gamma 90.000000
_cell_volume 1857.124560
_symmetry_space_group_name_H-M "P C C N"
_symmetry_group_IT_number 56
_symmetry_cell_setting 'orthorhombic'
loop_
_space_group_symop_operation_xyz
x,y,z
1/2-x,1/2-y,z
1/2+x,-y,1/2-z
-x,1/2+y,1/2-z
-x,-y,-z
1/2+x,1/2+y,-z
1/2-x,y,1/2+z
x,1/2-y,1/2+z
loop_
_atom_site_type_symbol
_atom_site_label
_atom_site_fract_x
_atom_site_fract_y
_atom_site_fract_z
Si Si1 0.458174 0.194886 0.886432
Si Si2 0.206840 0.980692 0.835208
Si Si3 0.162180 0.364234 0.770694
Si Si4 0.933737 0.148578 0.150587
Si Si5 0.250000 0.750000 0.522432
Si Si6 0.602232 0.264096 0.928055
Si Si7 0.578484 0.783251 0.392543
O O1 0.408633 0.066448 0.818589
O O2 0.450340 0.421596 0.862902
O O3 0.539331 0.154915 0.876252
O O4 0.433517 0.189314 0.001164
O O5 0.182813 0.198183 0.846319
O O6 0.274460 0.993667 0.767647
O O7 0.141114 0.858631 0.799981
O O8 0.229800 0.913635 0.943456
O O9 0.144135 0.239901 0.673766
O O10 0.008362 0.235838 0.169956
O O11 0.916513 0.236455 0.043424
O O12 0.180662 0.795091 0.580317
O O13 0.593549 0.488600 0.903295
#
# Coordination Sequence:
#
# PCOD9429860 Si02
#       7
#     8   8   8   8   4   8   8
#     4   8  15  31  54  79 106 142 191 240 288 344
#     4   9  19  35  54  80 117 155 190 231 292 359
#     4  10  19  34  56  85 117 152 194 243 298 351
#     4   7  13  30  54  75 102 145 187 229 286 341
#     4  10  18  36  60  80 114 160 188 236 308 354
#     4   8  15  30  54  80 107 144 191 236 286 347
#     4   9  16  31  56  82 109 148 197 241 281 338
#
# _framework density 28.000277000000001
#
# number of rings (size 3 to 8) (size 9 to 14) (size 15 to 20)
#    0.000    3.385    0.000    2.769    0.000    0.000 
#    0.000   29.231    0.000    0.000    0.000    0.000 
#    0.000    0.000    0.000    0.000    0.000    0.000 
#
# Total GULP energy -290368.006641 kJ/mol
# GULP energy per Si atom -5584.000128 kJ/mol
# Density = 2.793655 g / cm^3
# Si number density = 28.000277 Si / 1000 Ang^3
#
#
#
# Elastic Constant Matrix: (Units=GPa)
#
#
# Indices 1 2 3 4 5 6 
#
# 1 269.7980 15.0343 62.0517 0.0000 0.0000 0.0000
# 2 15.0343 83.0800 7.7859 0.0000 0.0000 0.0000
# 3 62.0517 7.7859 94.8336 0.0000 0.0000 0.0000
# 4 0.0000 0.0000 0.0000 20.8273 0.0000 0.0000
# 5 0.0000 0.0000 0.0000 0.0000 42.4633 0.0000
# 6 0.0000 0.0000 0.0000 0.0000 0.0000 41.7997
#
#
#
# Elastic Compliance Matrix: (Units=1/GPa)
#
#
# Indices 1 2 3 4 5 6 
#
# 1 0.004386 -0.000529 -0.002826 0.000000 0.000000 0.000000
# 2 -0.000529 0.012194 -0.000655 0.000000 0.000000 0.000000
# 3 -0.002826 -0.000655 0.012448 0.000000 0.000000 0.000000
# 4 0.000000 0.000000 0.000000 0.048014 0.000000 0.000000
# 5 0.000000 0.000000 0.000000 0.000000 0.023550 0.000000
# 6 0.000000 0.000000 0.000000 0.000000 0.000000 0.023924
#
#
# Mechanical properties :
#
#
# Convention : Reuss Voigt Hill
#
# Bulk Modulus (GPa) = 47.60329 68.60616 58.10472
# Shear Modulus (GPa) = 35.83255 45.20738 40.51996
#
# Velocity S-wave (km/s) = 3.58120 4.02248 3.80824
# Velocity P-wave (km/s) = 5.84277 6.79183 6.33510
#
# Compressibility (1/GPa) = 0.02100695
#
# Stress axis : x y z
#
# Youngs Moduli (GPa) = 227.99777 82.00969 80.33437
#
# Poissons Ratio (x) = 0.04337 0.22706
# Poissons Ratio (y) = 0.12057 0.05263
# Poissons Ratio (z) = 0.64442 0.05372
#
# Static dielectric constant tensor:
#      x y z
#    x 2.351070 0.000000 0.000000 
#    y 0.000000 2.219040 0.000000 
#    z 0.000000 0.000000 2.241430 
# 
# From -- ./inp_files/12797.got.cif
#   From: 2010.05.17/outbox.cif.g08.bks.cpg/sg56_7_cif.got.tgz:12797.got - 2010.06.03 13:42:01.
