data_PCOD9429264
_publ_section_title
;
Structure prediction by ZEFSAII (Michael W. Deem and Ramdas Pophale) SiO2 
 PCOD9429264
Probable space group: P B A M
;
_chemical_formula_sum "Si O2"
_cell_formula_units_Z 56
_cell_length_a 21.000000
_cell_length_b 18.000000
_cell_length_c 9.000000
_cell_angle_alpha 90.000000
_cell_angle_beta 90.000000
_cell_angle_gamma 90.000000
_cell_volume 3402.000000
_symmetry_space_group_name_H-M "P B A M"
_symmetry_group_IT_number 55
_symmetry_cell_setting 'orthorhombic'
loop_
_space_group_symop_operation_xyz
x,y,z
-x,-y,z
1/2+x,1/2-y,-z
1/2-x,1/2+y,-z
-x,-y,-z
x,y,-z
1/2-x,1/2+y,z
1/2+x,1/2-y,z
loop_
_atom_site_type_symbol
_atom_site_label
_atom_site_fract_x
_atom_site_fract_y
_atom_site_fract_z
Si Si1 0.731723 0.362158 0.322740
Si Si2 0.297527 0.845984 0.826287
Si Si3 0.952259 0.435146 0.819398
Si Si4 0.026204 0.735721 0.179698
Si Si5 0.689624 0.978935 0.175288
Si Si6 0.609096 0.270434 0.678158
Si Si7 0.826437 0.242165 0.821947
O O1 0.735682 0.357423 0.500000
O O2 0.752668 0.441843 0.263187
O O3 0.660224 0.335659 0.280369
O O4 0.786524 0.308916 0.253001
O O5 0.349407 0.800789 0.731557
O O6 0.223603 0.825053 0.792539
O O7 0.308843 0.932832 0.809788
O O8 0.307841 0.825540 0.000000
O O9 0.973877 0.352115 0.779725
O O10 0.879576 0.450007 0.772241
O O11 0.000000 0.500000 0.767728
O O12 0.951833 0.438174 0.000000
O O13 0.098557 0.763450 0.222650
O O14 0.961693 0.770816 0.249755
O O15 0.021618 0.742354 0.000000
O O16 0.695677 0.960293 0.000000
O O17 0.602023 0.269957 0.500000
O O18 0.828129 0.255019 0.000000
#
# Coordination Sequence:
#
# PCOD9429264 Si02
#       7
#     8   8   8   8   8   8   8
#     4  10  20  33  49  70  98 132 167 204 244 289
#     4   9  18  32  53  76  98 127 164 204 248 297
#     4   9  16  26  43  69 100 128 154 185 233 296
#     4  10  18  30  49  71  97 129 162 202 247 291
#     4  10  18  31  51  74  99 129 163 202 246 294
#     4  10  21  34  48  70 101 133 167 204 242 290
#     4   9  17  32  52  74  97 125 166 207 245 295
#
# _framework density 16.460905
#
# number of rings (size 3 to 8) (size 9 to 14) (size 15 to 20)
#    0.000    2.429    1.429    1.714    0.000    5.143 
#    0.000    0.000    0.000    2.571    0.000    6.000 
#    0.000    0.000    0.000    0.000    0.000    0.000 
#
# Total GULP energy -311844.462661 kJ/mol
# GULP energy per Si atom -5568.651119 kJ/mol
# Density = 1.642344 g / cm^3
# Si number density = 16.460905 Si / 1000 Ang^3
#
#
#
# Elastic Constant Matrix: (Units=GPa)
#
#
# Indices 1 2 3 4 5 6 
#
# 1 132.4691 10.8494 27.4460 0.0000 0.0000 0.0000
# 2 10.8494 18.5904 6.8628 0.0000 0.0000 0.0000
# 3 27.4460 6.8628 23.5651 0.0000 0.0000 0.0000
# 4 0.0000 0.0000 0.0000 12.8225 0.0000 0.0000
# 5 0.0000 0.0000 0.0000 0.0000 26.5219 0.0000
# 6 0.0000 0.0000 0.0000 0.0000 0.0000 29.1456
#
#
#
# Elastic Compliance Matrix: (Units=1/GPa)
#
#
# Indices 1 2 3 4 5 6 
#
# 1 0.009999 -0.001721 -0.011144 0.000000 0.000000 0.000000
# 2 -0.001721 0.060567 -0.015634 0.000000 0.000000 0.000000
# 3 -0.011144 -0.015634 0.059968 0.000000 0.000000 0.000000
# 4 0.000000 0.000000 0.000000 0.077988 0.000000 0.000000
# 5 0.000000 0.000000 0.000000 0.000000 0.037705 0.000000
# 6 0.000000 0.000000 0.000000 0.000000 0.000000 0.034310
#
#
# Mechanical properties :
#
#
# Convention : Reuss Voigt Hill
#
# Bulk Modulus (GPa) = 13.59895 29.43789 21.51842
# Shear Modulus (GPa) = 13.81031 22.32910 18.06970
#
# Velocity S-wave (km/s) = 2.89965 3.68705 3.31680
# Velocity P-wave (km/s) = 4.41474 6.00401 5.26964
#
# Compressibility (1/GPa) = 0.07353510
#
# Stress axis : x y z
#
# Youngs Moduli (GPa) = 100.01137 16.51054 16.67552
#
# Poissons Ratio (x) = 0.02842 0.18584
# Poissons Ratio (y) = 0.17216 0.26071
# Poissons Ratio (z) = 1.11455 0.25813
#
# Static dielectric constant tensor:
#      x y z
#    x 1.555950 0.000000 0.000000 
#    y 0.000000 1.578080 0.000000 
#    z 0.000000 0.000000 1.559230 
# 
# From -- ./inp_files/7801.got.cif
#   From: 2010.05.17/outbox.ucp.g08.bks.cvg/sg55_4_cif.got.tgz:7801.got - 2010.06.11 16:36:00.
