data_PCOD9429912
_publ_section_title
;
Structure prediction by ZEFSAII (Michael W. Deem and Ramdas Pophale) SiO2 
 PCOD9429912
Probable space group: P C C N
;
_chemical_formula_sum "Si O2"
_cell_formula_units_Z 48
_cell_length_a 8.442158
_cell_length_b 15.342811
_cell_length_c 19.006347
_cell_angle_alpha 90.000000
_cell_angle_beta 90.000000
_cell_angle_gamma 90.000000
_cell_volume 2461.824362
_symmetry_space_group_name_H-M "P C C N"
_symmetry_group_IT_number 56
_symmetry_cell_setting 'orthorhombic'
loop_
_space_group_symop_operation_xyz
x,y,z
1/2-x,1/2-y,z
1/2+x,-y,1/2-z
-x,1/2+y,1/2-z
-x,-y,-z
1/2+x,1/2+y,-z
1/2-x,y,1/2+z
x,1/2-y,1/2+z
loop_
_atom_site_type_symbol
_atom_site_label
_atom_site_fract_x
_atom_site_fract_y
_atom_site_fract_z
Si Si1 0.648696 0.661676 0.096993
Si Si2 0.818410 0.511994 0.186308
Si Si3 0.563400 0.774931 0.733257
Si Si4 0.157605 0.342689 0.562437
Si Si5 0.864894 0.330641 0.667319
Si Si6 0.852344 0.563197 0.824977
O O1 0.750000 0.750000 0.088087
O O2 0.744960 0.585803 0.136248
O O3 0.519569 0.688586 0.156218
O O4 0.610927 0.635054 0.017580
O O5 0.729102 0.420753 0.172270
O O6 0.778418 0.535539 0.267328
O O7 0.004284 0.504166 0.171579
O O8 0.750000 0.750000 0.731505
O O9 0.454497 0.697433 0.760581
O O10 0.563495 0.851553 0.790708
O O11 0.250000 0.250000 0.565284
O O12 0.271981 0.411520 0.601735
O O13 0.001602 0.336625 0.609492
O O14 0.750000 0.250000 0.650696
#
# Coordination Sequence:
#
# PCOD9429912 Si02
#       6
#     8   8   8   8   8   8
#     4   9  23  39  61  87 125 164 209 253 323 373
#     4  11  24  36  61  96 123 162 211 265 312 377
#     4  10  18  38  62  86 115 157 203 255 306 368
#     4  11  20  40  64  86 123 171 206 256 317 383
#     4  12  21  37  65  93 123 161 214 261 309 377
#     4  11  20  37  60  91 120 158 215 254 310 366
#
# _framework density 19.497736
#
# number of rings (size 3 to 8) (size 9 to 14) (size 15 to 20)
#    0.000    1.333    5.000    1.000    4.667    1.333 
#    0.000    0.833    0.000    0.000    0.000    0.000 
#    0.000    0.000    0.000    0.000    0.000    0.000 
#
# Total GULP energy -267840.433116 kJ/mol
# GULP energy per Si atom -5580.009023 kJ/mol
# Density = 1.945336 g / cm^3
# Si number density = 19.497736 Si / 1000 Ang^3
#
#
#
# Elastic Constant Matrix: (Units=GPa)
#
#
# Indices 1 2 3 4 5 6 
#
# 1 82.7132 21.5512 40.2864 0.0000 0.0000 0.0000
# 2 21.5512 90.4956 30.1052 0.0000 0.0000 0.0000
# 3 40.2864 30.1052 163.4131 0.0000 0.0000 0.0000
# 4 0.0000 0.0000 0.0000 -1.7441 0.0000 0.0000
# 5 0.0000 0.0000 0.0000 0.0000 -2.6297 0.0000
# 6 0.0000 0.0000 0.0000 0.0000 0.0000 30.3105
#
#
#
# Elastic Compliance Matrix: (Units=1/GPa)
#
#
# Indices 1 2 3 4 5 6 
#
# 1 0.014198 -0.002362 -0.003065 0.000000 0.000000 0.000000
# 2 -0.002362 0.012164 -0.001659 0.000000 0.000000 0.000000
# 3 -0.003065 -0.001659 0.007181 0.000000 0.000000 0.000000
# 4 0.000000 0.000000 0.000000 -0.573355 0.000000 0.000000
# 5 0.000000 0.000000 0.000000 0.000000 -0.380269 0.000000
# 6 0.000000 0.000000 0.000000 0.000000 0.000000 0.032992
#
#
# Mechanical properties :
#
#
# Convention : Reuss Voigt Hill
#
# Bulk Modulus (GPa) = 51.62032 57.83417 54.72725
# Shear Modulus (GPa) = -5.77061 21.49929 7.86434
#
# Velocity S-wave (km/s) = -1.72222 3.32423 2.01053
# Velocity P-wave (km/s) = 4.75161 6.66786 5.78957
#
# Compressibility (1/GPa) = 0.01937222
#
# Stress axis : x y z
#
# Youngs Moduli (GPa) = 70.43132 82.20645 139.26141
#
# Poissons Ratio (x) = 0.19413 0.42687
# Poissons Ratio (y) = 0.16633 0.23101
# Poissons Ratio (z) = 0.21589 0.13637
#
# Static dielectric constant tensor:
#      x y z
#    x 1.708410 0.000000 0.000000 
#    y 0.000000 1.738010 0.000000 
#    z 0.000000 0.000000 1.713470 
# 
# From -- ./inp_files/18288.got.cif
#   From: 2010.05.17/outbox.cif.g08.bks.cpg/sg56_10_cif.got.tgz:18288.got - 2010.06.03 13:42:01.
