data_PCOD9429443
_publ_section_title
;
Structure prediction by ZEFSAII (Michael W. Deem and Ramdas Pophale) SiO2 
 PCOD9429443
Probable space group: P B A M
;
_chemical_formula_sum "Si O2"
_cell_formula_units_Z 64
_cell_length_a 30.000000
_cell_length_b 12.000000
_cell_length_c 9.000000
_cell_angle_alpha 90.000000
_cell_angle_beta 90.000000
_cell_angle_gamma 90.000000
_cell_volume 3240.000000
_symmetry_space_group_name_H-M "P B A M"
_symmetry_group_IT_number 55
_symmetry_cell_setting 'orthorhombic'
loop_
_space_group_symop_operation_xyz
x,y,z
-x,-y,z
1/2+x,1/2-y,-z
1/2-x,1/2+y,-z
-x,-y,-z
x,y,-z
1/2-x,1/2+y,z
1/2+x,1/2-y,z
loop_
_atom_site_type_symbol
_atom_site_label
_atom_site_fract_x
_atom_site_fract_y
_atom_site_fract_z
Si Si1 0.049774 0.984534 0.680189
Si Si2 0.043523 0.431188 0.823119
Si Si3 0.195760 0.980569 0.172458
Si Si4 0.875861 0.180956 0.320437
Si Si5 0.078734 0.227444 0.324148
Si Si6 0.374299 0.058619 0.322320
Si Si7 0.330923 0.736726 0.170812
Si Si8 0.284846 0.922810 0.675744
O O1 0.047511 0.980176 0.500000
O O2 0.077409 0.876474 0.725392
O O3 0.074502 0.098760 0.720033
O O4 0.000000 0.000000 0.737652
O O5 0.043737 0.308168 0.753575
O O6 0.086168 0.496732 0.761715
O O7 0.000000 0.500000 0.779921
O O8 0.045805 0.422746 0.000000
O O9 0.161976 0.891569 0.241807
O O10 0.240251 0.979414 0.268547
O O11 0.176722 0.105339 0.178713
O O12 0.204801 0.954084 0.000000
O O13 0.871197 0.169892 0.500000
O O14 0.873521 0.310792 0.283881
O O15 0.073778 0.235943 0.500000
O O16 0.127156 0.266294 0.272842
O O17 0.381958 0.048828 0.500000
O O18 0.327171 0.000697 0.289403
O O19 0.290462 0.807590 0.235578
O O20 0.339770 0.767545 0.000000
O O21 0.283861 0.902321 0.500000
#
# Coordination Sequence:
#
# PCOD9429443 Si02
#       8
#     8   8   8   8   8   8   8   8
#     4   9  19  35  59  92 124 157 199 252 309 357
#     4  11  25  42  61  88 125 166 205 249 307 368
#     4  11  25  42  62  91 126 163 203 246 305 370
#     4  10  21  40  63  89 125 161 203 254 301 359
#     4  11  21  37  65  93 120 157 207 259 305 356
#     4  10  23  41  63  92 121 158 205 254 305 359
#     4  11  23  41  64  90 125 162 201 250 305 366
#     4  11  24  41  63  92 123 157 208 257 302 358
#
# _framework density 19.753086
#
# number of rings (size 3 to 8) (size 9 to 14) (size 15 to 20)
#    0.000    1.500    2.500    1.875    3.500    3.500 
#    0.000    0.000    0.000    1.875    0.000    0.000 
#    0.000    0.000    0.000    0.000    0.000    0.000 
#
# Total GULP energy -357417.558748 kJ/mol
# GULP energy per Si atom -5584.649355 kJ/mol
# Density = 1.970813 g / cm^3
# Si number density = 19.753086 Si / 1000 Ang^3
#
#
#
# Elastic Constant Matrix: (Units=GPa)
#
#
# Indices 1 2 3 4 5 6 
#
# 1 73.7430 8.1482 11.6513 0.0000 0.0000 0.0000
# 2 8.1482 77.3521 23.6052 0.0000 0.0000 0.0000
# 3 11.6513 23.6052 10.4801 0.0000 0.0000 0.0000
# 4 0.0000 0.0000 0.0000 14.6987 0.0000 0.0000
# 5 0.0000 0.0000 0.0000 0.0000 -19.2721 0.0000
# 6 0.0000 0.0000 0.0000 0.0000 0.0000 21.3856
#
#
#
# Elastic Compliance Matrix: (Units=1/GPa)
#
#
# Indices 1 2 3 4 5 6 
#
# 1 0.021164 0.015835 -0.059196 0.000000 0.000000 0.000000
# 2 0.015835 0.053198 -0.137427 0.000000 0.000000 0.000000
# 3 -0.059196 -0.137427 0.470769 0.000000 0.000000 0.000000
# 4 0.000000 0.000000 0.000000 0.068033 0.000000 0.000000
# 5 0.000000 0.000000 0.000000 0.000000 -0.051888 0.000000
# 6 0.000000 0.000000 0.000000 0.000000 0.000000 0.046760
#
#
# Mechanical properties :
#
#
# Convention : Reuss Voigt Hill
#
# Bulk Modulus (GPa) = 5.44795 27.59828 16.52312
# Shear Modulus (GPa) = 4.85062 11.24047 8.04554
#
# Velocity S-wave (km/s) = 1.56874 2.38806 2.02037
# Velocity P-wave (km/s) = 2.45872 4.64820 3.71827
#
# Compressibility (1/GPa) = 0.18355521
#
# Stress axis : x y z
#
# Youngs Moduli (GPa) = 47.25049 18.79773 2.12418
#
# Poissons Ratio (x) = -0.29767 0.12574
# Poissons Ratio (y) = -0.74822 0.29192
# Poissons Ratio (z) = 2.79704 2.58332
#
# Static dielectric constant tensor:
#      x y z
#    x 1.700530 0.000000 0.000000 
#    y 0.000000 1.686050 0.000000 
#    z 0.000000 0.000000 1.656620 
# 
# From -- ./inp_files/10726.got.cif
#   From: 2010.05.17/outbox.ucp.g08.bks.cvg/sg55_6_cif.got.tgz:10726.got - 2010.06.11 16:36:00.
