data_PCOD9429242
_publ_section_title
;
Structure prediction by ZEFSAII (Michael W. Deem and Ramdas Pophale) SiO2 
 PCOD9429242
Probable space group: P B A M
;
_chemical_formula_sum "Si O2"
_cell_formula_units_Z 58
_cell_length_a 7.544423
_cell_length_b 34.288813
_cell_length_c 9.944988
_cell_angle_alpha 90.000000
_cell_angle_beta 90.000000
_cell_angle_gamma 90.000000
_cell_volume 2572.662078
_symmetry_space_group_name_H-M "P B A M"
_symmetry_group_IT_number 55
_symmetry_cell_setting 'orthorhombic'
loop_
_space_group_symop_operation_xyz
x,y,z
-x,-y,z
1/2+x,1/2-y,-z
1/2-x,1/2+y,-z
-x,-y,-z
x,y,-z
1/2-x,1/2+y,z
1/2+x,1/2-y,z
loop_
_atom_site_type_symbol
_atom_site_label
_atom_site_fract_x
_atom_site_fract_y
_atom_site_fract_z
Si Si1 0.572316 0.309471 0.152028
Si Si2 0.825311 0.724939 0.152626
Si Si3 0.539632 0.625534 0.346781
Si Si4 0.818542 0.483558 0.778580
Si Si5 0.557489 0.903360 0.149737
Si Si6 0.843991 0.061306 0.848933
Si Si7 0.057388 0.339576 0.653050
Si Si8 0.500000 0.000000 0.500000
O O1 0.370293 0.293288 0.149680
O O2 0.682079 0.270671 0.185263
O O3 0.571751 0.343736 0.259568
O O4 0.613918 0.322621 0.000000
O O5 0.931558 0.699900 0.261078
O O6 0.899316 0.721538 0.000000
O O7 0.478928 0.620911 0.500000
O O8 0.555857 0.585221 0.265907
O O9 0.741028 0.643109 0.351548
O O10 0.675886 0.515646 0.818175
O O11 0.000000 0.500000 0.845012
O O12 0.809626 0.439102 0.824295
O O13 0.862229 0.486043 0.620159
O O14 0.357631 0.921427 0.155053
O O15 0.555471 0.871033 0.264500
O O16 0.581049 0.887216 0.000000
O O17 0.911749 0.068117 0.000000
O O18 0.998336 0.334030 0.500000
#
# Coordination Sequence:
#
# PCOD9429242 Si02
#       8
#     8   8   8   8   8   8   8   2
#     4   9  17  30  46  63  83 108 138 171 208 249
#     4   9  17  30  46  63  83 108 138 171 208 249
#     4   9  17  25  37  54  75 101 132 167 205 245
#     4   8  15  20  30  41  65  94 129 164 204 240
#     4   9  15  22  32  46  67  95 131 168 202 241
#     4   9  15  22  32  46  67  95 131 168 202 241
#     4   9  17  25  37  54  75 101 132 167 205 245
#     4   8  16  20  26  44  64  92 126 176 202 248
#
# _framework density 22.544741999999999
#
# number of rings (size 3 to 8) (size 9 to 14) (size 15 to 20)
#    0.414    2.759    0.000    1.241    1.931    5.517 
#    0.000    0.000    0.000    0.000    0.000    0.000 
#    0.000    0.000    0.000    1.241    0.000   24.000 
#
# Total GULP energy -323314.891645 kJ/mol
# GULP energy per Si atom -5574.394684 kJ/mol
# Density = 2.249343 g / cm^3
# Si number density = 22.544742 Si / 1000 Ang^3
#
#
#
# Elastic Constant Matrix: (Units=GPa)
#
#
# Indices 1 2 3 4 5 6 
#
# 1 1.8517 171.2602 116.0918 0.0000 0.0000 0.0000
# 2 171.2602 -158.4483 -82.9349 0.0000 0.0000 0.0000
# 3 116.0918 -82.9349 81.4359 0.0000 0.0000 0.0000
# 4 0.0000 0.0000 0.0000 6.9852 0.0000 0.0000
# 5 0.0000 0.0000 0.0000 0.0000 -10.3727 0.0000
# 6 0.0000 0.0000 0.0000 0.0000 0.0000 4.5078
#
#
#
# Elastic Compliance Matrix: (Units=1/GPa)
#
#
# Indices 1 2 3 4 5 6 
#
# 1 0.005514 0.006571 -0.001168 0.000000 0.000000 0.000000
# 2 0.006571 0.003715 -0.005585 0.000000 0.000000 0.000000
# 3 -0.001168 -0.005585 0.008257 0.000000 0.000000 0.000000
# 4 0.000000 0.000000 0.000000 0.143161 0.000000 0.000000
# 5 0.000000 0.000000 0.000000 0.000000 -0.096407 0.000000
# 6 0.000000 0.000000 0.000000 0.000000 0.000000 0.221838
#
#
# Mechanical properties :
#
#
# Convention : Reuss Voigt Hill
#
# Bulk Modulus (GPa) = 58.40175 37.07482 47.73829
# Shear Modulus (GPa) = 17.11457 -18.41447 -0.64995
#
# Velocity S-wave (km/s) = 2.75823 -2.86107 -0.53751
# Velocity P-wave (km/s) = 6.00873 2.35933 4.56461
#
# Compressibility (1/GPa) = 0.01712278
#
# Stress axis : x y z
#
# Youngs Moduli (GPa) = 181.35562 269.20041 121.10337
#
# Poissons Ratio (x) = -1.76902 0.14148
# Poissons Ratio (y) = -1.19175 0.67634
# Poissons Ratio (z) = 0.21187 1.50343
#
# Static dielectric constant tensor:
#      x y z
#    x 1.941370 0.000000 0.000000 
#    y 0.000000 1.825700 0.000000 
#    z 0.000000 0.000000 1.772770 
# 
# From -- ./inp_files/4437.got.cif
#   From: 2010.05.17/outbox.cif.g08.bks.cpg/sg55_3_cif.got.tgz:4437.got - 2010.06.03 13:27:54.
