data_PCOD9429834
_publ_section_title
;
Structure prediction by ZEFSAII (Michael W. Deem and Ramdas Pophale) SiO2 
 PCOD9429834
Probable space group: P C C N
;
_chemical_formula_sum "Si O2"
_cell_formula_units_Z 48
_cell_length_a 15.327111
_cell_length_b 10.324300
_cell_length_c 17.258684
_cell_angle_alpha 90.000000
_cell_angle_beta 90.000000
_cell_angle_gamma 90.000000
_cell_volume 2731.043360
_symmetry_space_group_name_H-M "P C C N"
_symmetry_group_IT_number 56
_symmetry_cell_setting 'orthorhombic'
loop_
_space_group_symop_operation_xyz
x,y,z
1/2-x,1/2-y,z
1/2+x,-y,1/2-z
-x,1/2+y,1/2-z
-x,-y,-z
1/2+x,1/2+y,-z
1/2-x,y,1/2+z
x,1/2-y,1/2+z
loop_
_atom_site_type_symbol
_atom_site_label
_atom_site_fract_x
_atom_site_fract_y
_atom_site_fract_z
Si Si1 0.187405 0.875614 0.199411
Si Si2 0.095901 0.545453 0.017891
Si Si3 0.131105 0.451960 0.460280
Si Si4 0.741087 0.890713 0.902396
Si Si5 0.050748 0.830659 0.074883
Si Si6 0.275885 0.898699 0.877491
O O1 0.250000 0.750000 0.186384
O O2 0.093475 0.857496 0.158783
O O3 0.187870 0.902747 0.290635
O O4 0.226859 0.997269 0.154304
O O5 0.146919 0.440466 0.069738
O O6 0.083468 0.686985 0.055068
O O7 0.153098 0.560736 0.940572
O O8 0.000000 0.500000 0.000000
O O9 0.195613 0.384977 0.522117
O O10 0.091516 0.571742 0.510454
O O11 0.190764 0.512430 0.392544
O O12 0.052527 0.360687 0.431075
O O13 0.750000 0.750000 0.865405
O O14 0.250000 0.750000 0.893565
#
# Coordination Sequence:
#
# PCOD9429834 Si02
#       6
#     8   8   8   8   8   8
#     4  10  20  37  61  84 117 157 196 234 301 358
#     4  11  21  35  60  85 119 151 205 250 290 341
#     4   9  19  33  61  81 114 149 201 237 291 344
#     4  10  20  36  57  84 116 157 195 244 297 349
#     4  10  18  35  57  89 108 155 198 247 278 356
#     4  10  20  38  59  86 117 159 195 240 296 365
#
# _framework density 17.575700999999999
#
# number of rings (size 3 to 8) (size 9 to 14) (size 15 to 20)
#    0.000    2.000    3.333    1.000    0.000    0.000 
#    3.000    5.000    0.000    0.000    0.000    0.000 
#    0.000    0.000    0.000    0.000    0.000    0.000 
#
# Total GULP energy -267559.316424 kJ/mol
# GULP energy per Si atom -5574.152425 kJ/mol
# Density = 1.753570 g / cm^3
# Si number density = 17.575701 Si / 1000 Ang^3
#
#
#
# Elastic Constant Matrix: (Units=GPa)
#
#
# Indices 1 2 3 4 5 6 
#
# 1 109.7289 27.1665 31.4150 0.0000 0.0000 0.0000
# 2 27.1665 90.2917 24.2149 0.0000 0.0000 0.0000
# 3 31.4150 24.2149 74.7184 0.0000 0.0000 0.0000
# 4 0.0000 0.0000 0.0000 14.0690 0.0000 0.0000
# 5 0.0000 0.0000 0.0000 0.0000 17.7185 0.0000
# 6 0.0000 0.0000 0.0000 0.0000 0.0000 29.3835
#
#
#
# Elastic Compliance Matrix: (Units=1/GPa)
#
#
# Indices 1 2 3 4 5 6 
#
# 1 0.010750 -0.002215 -0.003802 0.000000 0.000000 0.000000
# 2 -0.002215 0.012586 -0.003148 0.000000 0.000000 0.000000
# 3 -0.003802 -0.003148 0.016002 0.000000 0.000000 0.000000
# 4 0.000000 0.000000 0.000000 0.071078 0.000000 0.000000
# 5 0.000000 0.000000 0.000000 0.000000 0.056438 0.000000
# 6 0.000000 0.000000 0.000000 0.000000 0.000000 0.034033
#
#
# Mechanical properties :
#
#
# Convention : Reuss Voigt Hill
#
# Bulk Modulus (GPa) = 47.59824 48.92575 48.26199
# Shear Modulus (GPa) = 22.10245 25.03039 23.56642
#
# Velocity S-wave (km/s) = 3.55005 3.77788 3.66574
# Velocity P-wave (km/s) = 6.62906 6.85036 6.74062
#
# Compressibility (1/GPa) = 0.02100918
#
# Stress axis : x y z
#
# Youngs Moduli (GPa) = 93.02122 79.45503 62.49125
#
# Poissons Ratio (x) = 0.17598 0.23760
# Poissons Ratio (y) = 0.20602 0.19670
# Poissons Ratio (z) = 0.35368 0.25009
#
# Static dielectric constant tensor:
#      x y z
#    x 1.595010 0.000000 0.000000 
#    y 0.000000 1.636000 0.000000 
#    z 0.000000 0.000000 1.580720 
# 
# From -- ./inp_files/11600.got.cif
#   From: 2010.05.17/outbox.cif.g08.bks.cpg/sg56_6_cif.got.tgz:11600.got - 2010.06.03 13:42:01.
