data_PCOD9429729
_publ_section_title
;
Structure prediction by ZEFSAII (Michael W. Deem and Ramdas Pophale) SiO2 
 PCOD9429729
Probable space group: P C C N
;
_chemical_formula_sum "Si O2"
_cell_formula_units_Z 48
_cell_length_a 19.015783
_cell_length_b 14.996209
_cell_length_c 8.623129
_cell_angle_alpha 90.000000
_cell_angle_beta 90.000000
_cell_angle_gamma 90.000000
_cell_volume 2459.011616
_symmetry_space_group_name_H-M "P C C N"
_symmetry_group_IT_number 56
_symmetry_cell_setting 'orthorhombic'
loop_
_space_group_symop_operation_xyz
x,y,z
1/2-x,1/2-y,z
1/2+x,-y,1/2-z
-x,1/2+y,1/2-z
-x,-y,-z
1/2+x,1/2+y,-z
1/2-x,y,1/2+z
x,1/2-y,1/2+z
loop_
_atom_site_type_symbol
_atom_site_label
_atom_site_fract_x
_atom_site_fract_y
_atom_site_fract_z
Si Si1 0.080059 0.014523 0.440348
Si Si2 0.674027 0.206886 0.568629
Si Si3 0.096965 0.554782 0.587362
Si Si4 0.443551 0.193116 0.811301
Si Si5 0.606596 0.351363 0.381339
Si Si6 0.440136 0.373430 0.968915
O O1 0.091294 0.975841 0.266287
O O2 0.120110 0.951662 0.560940
O O3 0.092881 0.119892 0.423719
O O4 0.000000 0.000000 0.500000
O O5 0.750000 0.250000 0.554678
O O6 0.657315 0.125453 0.451982
O O7 0.620576 0.285714 0.524362
O O8 0.656935 0.173697 0.740321
O O9 0.100276 0.467663 0.476203
O O10 0.022349 0.600881 0.547597
O O11 0.526673 0.169767 0.830299
O O12 0.426648 0.170291 0.635416
O O13 0.426689 0.295157 0.847648
#
# Coordination Sequence:
#
# PCOD9429729 Si02
#       6
#     8   8   8   8   8   8
#     4   9  21  32  53  79 112 147 193 240 305 367
#     4  12  24  37  54  76 110 160 205 242 290 343
#     4  10  20  36  50  80 110 154 194 240 290 359
#     4  10  18  32  50  83 108 149 181 234 304 367
#     4  11  20  35  50  76 109 149 195 247 285 354
#     4  10  20  30  54  78 114 145 186 233 301 359
#
# _framework density 19.520038
#
# number of rings (size 3 to 8) (size 9 to 14) (size 15 to 20)
#    0.000    1.667    3.333    1.500    7.000    0.000 
#    0.000    0.833    0.000    0.000    0.000    1.167 
#    0.000    8.000    0.000    0.167    0.000    0.000 
#
# Total GULP energy -267754.679761 kJ/mol
# GULP energy per Si atom -5578.222495 kJ/mol
# Density = 1.947561 g / cm^3
# Si number density = 19.520038 Si / 1000 Ang^3
#
#
#
# Elastic Constant Matrix: (Units=GPa)
#
#
# Indices 1 2 3 4 5 6 
#
# 1 38.6247 28.7120 15.6742 0.0000 0.0000 0.0000
# 2 28.7120 119.7988 25.2697 0.0000 0.0000 0.0000
# 3 15.6742 25.2697 59.1370 0.0000 0.0000 0.0000
# 4 0.0000 0.0000 0.0000 33.2754 0.0000 0.0000
# 5 0.0000 0.0000 0.0000 0.0000 17.1096 0.0000
# 6 0.0000 0.0000 0.0000 0.0000 0.0000 24.1527
#
#
#
# Elastic Compliance Matrix: (Units=1/GPa)
#
#
# Indices 1 2 3 4 5 6 
#
# 1 0.033306 -0.006727 -0.005953 0.000000 0.000000 0.000000
# 2 -0.006727 0.010533 -0.002718 0.000000 0.000000 0.000000
# 3 -0.005953 -0.002718 0.019649 0.000000 0.000000 0.000000
# 4 0.000000 0.000000 0.000000 0.030052 0.000000 0.000000
# 5 0.000000 0.000000 0.000000 0.000000 0.058447 0.000000
# 6 0.000000 0.000000 0.000000 0.000000 0.000000 0.041403
#
#
# Mechanical properties :
#
#
# Convention : Reuss Voigt Hill
#
# Bulk Modulus (GPa) = 30.58809 39.65246 35.12028
# Shear Modulus (GPa) = 21.26899 24.76787 23.01843
#
# Velocity S-wave (km/s) = 3.30449 3.56595 3.43770
# Velocity P-wave (km/s) = 5.50124 6.10839 5.81275
#
# Compressibility (1/GPa) = 0.03269246
#
# Stress axis : x y z
#
# Youngs Moduli (GPa) = 30.02417 94.94153 50.89271
#
# Poissons Ratio (x) = 0.63865 0.30299
# Poissons Ratio (y) = 0.20196 0.13832
# Poissons Ratio (z) = 0.17875 0.25804
#
# Static dielectric constant tensor:
#      x y z
#    x 1.687130 0.000000 0.000000 
#    y 0.000000 1.748490 0.000000 
#    z 0.000000 0.000000 1.720370 
# 
# From -- ./inp_files/3469.got.cif
#   From: 2010.05.17/outbox.cif.g08.bks.cpg/sg56_2_cif.got.tgz:3469.got - 2010.06.03 13:42:01.
