data_PCOD9429330
_publ_section_title
;
Structure prediction by ZEFSAII (Michael W. Deem and Ramdas Pophale) SiO2 
 PCOD9429330
Probable space group: P B A M
;
_chemical_formula_sum "Si O2"
_cell_formula_units_Z 56
_cell_length_a 21.000000
_cell_length_b 15.000000
_cell_length_c 9.000000
_cell_angle_alpha 90.000000
_cell_angle_beta 90.000000
_cell_angle_gamma 90.000000
_cell_volume 2835.000000
_symmetry_space_group_name_H-M "P B A M"
_symmetry_group_IT_number 55
_symmetry_cell_setting 'orthorhombic'
loop_
_space_group_symop_operation_xyz
x,y,z
-x,-y,z
1/2+x,1/2-y,-z
1/2-x,1/2+y,-z
-x,-y,-z
x,y,-z
1/2-x,1/2+y,z
1/2+x,1/2-y,z
loop_
_atom_site_type_symbol
_atom_site_label
_atom_site_fract_x
_atom_site_fract_y
_atom_site_fract_z
Si Si1 0.717362 0.094438 0.678709
Si Si2 0.275876 0.105905 0.679663
Si Si3 0.987612 0.396682 0.327419
Si Si4 0.132577 0.906361 0.320689
Si Si5 0.616608 0.777608 0.176972
Si Si6 0.864666 0.906895 0.178350
Si Si7 0.610773 0.228806 0.674535
O O1 0.713643 0.099636 0.500000
O O2 0.791722 0.102265 0.717279
O O3 0.672089 0.173405 0.733626
O O4 0.696652 0.993193 0.716254
O O5 0.271741 0.114246 0.500000
O O6 0.319546 0.182273 0.748373
O O7 0.205881 0.107017 0.751211
O O8 0.964275 0.393663 0.500000
O O9 0.937400 0.348280 0.222356
O O10 0.000000 0.500000 0.291194
O O11 0.052523 0.340182 0.320284
O O12 0.126259 0.908852 0.500000
O O13 0.101689 0.818154 0.251188
O O14 0.111025 0.999935 0.248680
O O15 0.623208 0.769286 0.000000
O O16 0.901166 0.818610 0.233594
O O17 0.862395 0.912683 0.000000
O O18 0.621064 0.252801 0.500000
#
# Coordination Sequence:
#
# PCOD9429330 Si02
#       7
#     8   8   8   8   8   8   8
#     4   8  16  31  56  86 111 141 185 237 280 323
#     4  10  19  35  58  84 116 155 198 237 280 340
#     4  10  22  41  64  87 112 148 195 239 278 335
#     4  10  20  37  60  84 113 151 193 234 282 345
#     4  12  24  37  56  85 119 152 189 239 298 346
#     4  11  22  36  55  85 122 152 185 235 293 343
#     4  10  19  35  59  84 111 148 194 235 279 341
#
# _framework density 19.753086
#
# number of rings (size 3 to 8) (size 9 to 14) (size 15 to 20)
#    0.000    1.857    0.000    6.000    0.000    4.286 
#    0.000    5.714    0.000    4.286    0.000    0.000 
#    0.000    0.000    0.000    0.000    0.000    0.000 
#
# Total GULP energy -312890.855326 kJ/mol
# GULP energy per Si atom -5587.336702 kJ/mol
# Density = 1.970813 g / cm^3
# Si number density = 19.753086 Si / 1000 Ang^3
#
#
#
# Elastic Constant Matrix: (Units=GPa)
#
#
# Indices 1 2 3 4 5 6 
#
# 1 16.9394 19.5910 18.2792 0.0000 0.0000 0.0000
# 2 19.5910 171.9434 66.0590 0.0000 0.0000 0.0000
# 3 18.2792 66.0590 127.5645 0.0000 0.0000 0.0000
# 4 0.0000 0.0000 0.0000 21.4866 0.0000 0.0000
# 5 0.0000 0.0000 0.0000 0.0000 21.3902 0.0000
# 6 0.0000 0.0000 0.0000 0.0000 0.0000 25.8010
#
#
#
# Elastic Compliance Matrix: (Units=1/GPa)
#
#
# Indices 1 2 3 4 5 6 
#
# 1 0.073661 -0.005415 -0.007751 0.000000 0.000000 0.000000
# 2 -0.005415 0.007658 -0.003190 0.000000 0.000000 0.000000
# 3 -0.007751 -0.003190 0.010602 0.000000 0.000000 0.000000
# 4 0.000000 0.000000 0.000000 0.046541 0.000000 0.000000
# 5 0.000000 0.000000 0.000000 0.000000 0.046750 0.000000
# 6 0.000000 0.000000 0.000000 0.000000 0.000000 0.038758
#
#
# Mechanical properties :
#
#
# Convention : Reuss Voigt Hill
#
# Bulk Modulus (GPa) = 16.88930 58.25619 37.57275
# Shear Modulus (GPa) = 18.08853 27.90344 22.99599
#
# Velocity S-wave (km/s) = 3.02939 3.76255 3.41570
# Velocity P-wave (km/s) = 4.56125 6.95931 5.88375
#
# Compressibility (1/GPa) = 0.05920907
#
# Stress axis : x y z
#
# Youngs Moduli (GPa) = 13.57575 130.57575 94.32408
#
# Poissons Ratio (x) = 0.70706 0.73111
# Poissons Ratio (y) = 0.07351 0.30089
# Poissons Ratio (z) = 0.10523 0.41653
#
# Static dielectric constant tensor:
#      x y z
#    x 1.723120 0.000000 0.000000 
#    y 0.000000 1.718640 0.000000 
#    z 0.000000 0.000000 1.657810 
# 
# From -- ./inp_files/8777.got.cif
#   From: 2010.05.17/outbox.ucp.g08.bks.cvg/sg55_5_cif.got.tgz:8777.got - 2010.06.11 16:36:00.
