data_PCOD9429947
_publ_section_title
;
Structure prediction by ZEFSAII (Michael W. Deem and Ramdas Pophale) SiO2 
 PCOD9429947
Probable space group: P C C N
;
_chemical_formula_sum "Si O2"
_cell_formula_units_Z 56
_cell_length_a 8.526589
_cell_length_b 19.709935
_cell_length_c 15.625880
_cell_angle_alpha 90.000000
_cell_angle_beta 90.000000
_cell_angle_gamma 90.000000
_cell_volume 2626.062188
_symmetry_space_group_name_H-M "P C C N"
_symmetry_group_IT_number 56
_symmetry_cell_setting 'orthorhombic'
loop_
_space_group_symop_operation_xyz
x,y,z
1/2-x,1/2-y,z
1/2+x,-y,1/2-z
-x,1/2+y,1/2-z
-x,-y,-z
1/2+x,1/2+y,-z
1/2-x,y,1/2+z
x,1/2-y,1/2+z
loop_
_atom_site_type_symbol
_atom_site_label
_atom_site_fract_x
_atom_site_fract_y
_atom_site_fract_z
Si Si1 0.805451 0.393207 0.740038
Si Si2 0.792994 0.008438 0.086846
Si Si3 0.339296 0.523092 0.104074
Si Si4 0.250000 0.750000 0.191891
Si Si5 0.173664 0.383348 0.689385
Si Si6 0.951619 0.749666 0.576285
Si Si7 0.750000 0.750000 0.415617
Si Si8 0.769101 0.868773 0.131229
O O1 0.746782 0.438469 0.659793
O O2 0.744982 0.430726 0.825625
O O3 0.742509 0.316729 0.749023
O O4 0.994901 0.389940 0.725636
O O5 0.703043 0.936638 0.088208
O O6 0.793461 0.040094 0.992960
O O7 0.970353 0.980741 0.106895
O O8 0.295092 0.445561 0.126322
O O9 0.388801 0.759302 0.124563
O O10 0.201679 0.313355 0.641331
O O11 0.289791 0.386961 0.769954
O O12 0.897190 0.764791 0.479326
O O13 0.848127 0.805255 0.627010
O O14 0.914877 0.669102 0.587472
#
# Coordination Sequence:
#
# PCOD9429947 Si02
#       8
#     8   8   8   4   8   8   4   8
#     4  11  24  40  64  97 135 178 221 289 348 400
#     4  10  21  40  70  95 130 178 230 270 336 422
#     4  10  21  41  66  99 132 175 218 283 347 403
#     4  12  24  42  64  94 138 174 214 286 360 398
#     4  11  21  39  69  94 131 172 233 274 327 411
#     4  10  22  38  68  94 133 170 224 280 337 397
#     4  10  22  42  70 102 124 182 240 274 322 408
#     4  10  18  39  68  95 118 179 226 269 322 407
#
# _framework density 21.324705000000002
#
# number of rings (size 3 to 8) (size 9 to 14) (size 15 to 20)
#    0.000    1.714    2.857    3.429    0.000    2.286 
#    0.000    3.571    0.000    0.000    0.000    0.000 
#    0.000    0.000    0.000    0.000    0.000    0.000 
#
# Total GULP energy -312121.975846 kJ/mol
# GULP energy per Si atom -5573.606712 kJ/mol
# Density = 2.127617 g / cm^3
# Si number density = 21.324705 Si / 1000 Ang^3
#
#
#
# Elastic Constant Matrix: (Units=GPa)
#
#
# Indices 1 2 3 4 5 6 
#
# 1 19.0972 20.1241 22.8325 0.0000 0.0000 0.0000
# 2 20.1241 134.7399 43.7256 0.0000 0.0000 0.0000
# 3 22.8325 43.7256 137.1016 0.0000 0.0000 0.0000
# 4 0.0000 0.0000 0.0000 -0.4907 0.0000 0.0000
# 5 0.0000 0.0000 0.0000 0.0000 25.6886 0.0000
# 6 0.0000 0.0000 0.0000 0.0000 0.0000 13.6287
#
#
#
# Elastic Compliance Matrix: (Units=1/GPa)
#
#
# Indices 1 2 3 4 5 6 
#
# 1 0.071790 -0.007632 -0.009522 0.000000 0.000000 0.000000
# 2 -0.007632 0.009090 -0.001628 0.000000 0.000000 0.000000
# 3 -0.009522 -0.001628 0.009399 0.000000 0.000000 0.000000
# 4 0.000000 0.000000 0.000000 -2.037715 0.000000 0.000000
# 5 0.000000 0.000000 0.000000 0.000000 0.038928 0.000000
# 6 0.000000 0.000000 0.000000 0.000000 0.000000 0.073374
#
#
# Mechanical properties :
#
#
# Convention : Reuss Voigt Hill
#
# Bulk Modulus (GPa) = 18.96985 51.58924 35.27954
# Shear Modulus (GPa) = -2.80899 21.38243 9.28672
#
# Velocity S-wave (km/s) = -1.14896 3.16999 2.08911
# Velocity P-wave (km/s) = 2.67486 6.13541 4.73276
#
# Compressibility (1/GPa) = 0.05271524
#
# Stress axis : x y z
#
# Youngs Moduli (GPa) = 13.92947 110.01173 106.39703
#
# Poissons Ratio (x) = 0.83964 1.01306
# Poissons Ratio (y) = 0.10631 0.17321
# Poissons Ratio (z) = 0.13263 0.17910
#
# Static dielectric constant tensor:
#      x y z
#    x 1.873090 0.000000 0.000000 
#    y 0.000000 1.846190 0.000000 
#    z 0.000000 0.000000 1.829500 
# 
# From -- ./inp_files/10911.got.cif
#   From: 2010.05.17/outbox.cif.g08.bks.cpg/sg56_6_cif.got.tgz:10911.got - 2010.06.03 13:42:01.
