data_PCOD9429199
_publ_section_title
;
Structure prediction by ZEFSAII (Michael W. Deem and Ramdas Pophale) SiO2 
 PCOD9429199
Probable space group: P B A M
;
_chemical_formula_sum "Si O2"
_cell_formula_units_Z 64
_cell_length_a 31.736478
_cell_length_b 9.455114
_cell_length_c 9.142893
_cell_angle_alpha 90.000000
_cell_angle_beta 90.000000
_cell_angle_gamma 90.000000
_cell_volume 2743.526348
_symmetry_space_group_name_H-M "P B A M"
_symmetry_group_IT_number 55
_symmetry_cell_setting 'orthorhombic'
loop_
_space_group_symop_operation_xyz
x,y,z
-x,-y,z
1/2+x,1/2-y,-z
1/2-x,1/2+y,-z
-x,-y,-z
x,y,-z
1/2-x,1/2+y,z
1/2+x,1/2-y,z
loop_
_atom_site_type_symbol
_atom_site_label
_atom_site_fract_x
_atom_site_fract_y
_atom_site_fract_z
Si Si1 0.175527 0.178590 0.838543
Si Si2 0.171161 0.856310 0.169055
Si Si3 0.439550 0.578082 0.832005
Si Si4 0.838058 0.549743 0.669509
Si Si5 0.588439 0.701489 0.673163
Si Si6 0.753749 0.502885 0.831116
Si Si7 0.919511 0.603631 0.829780
Si Si8 0.491933 0.195358 0.826595
O O1 0.087522 0.224665 0.822120
O O2 0.168276 0.283581 0.706329
O O3 0.156114 0.021584 0.835200
O O4 0.166821 0.242305 0.000000
O O5 0.135556 0.779575 0.261924
O O6 0.218997 0.881512 0.225116
O O7 0.172423 0.806151 0.000000
O O8 0.426559 0.457193 0.720300
O O9 0.485759 0.649249 0.811024
O O10 0.436645 0.524768 0.000000
O O11 0.838345 0.518200 0.500000
O O12 0.797130 0.484496 0.747131
O O13 0.883771 0.526370 0.739857
O O14 0.589080 0.717059 0.500000
O O15 0.552087 0.798146 0.744845
O O16 0.725015 0.363306 0.833666
O O17 0.762778 0.537993 0.000000
O O18 0.968312 0.596908 0.781071
O O19 0.917396 0.564122 0.000000
O O20 0.485684 0.173980 0.000000
#
# Coordination Sequence:
#
# PCOD9429199 Si02
#       8
#     8   8   8   8   8   8   8   8
#     4   8  17  33  49  62  78 109 152 185 205 244
#     4   8  17  32  46  57  73 104 146 182 204 236
#     4   8  16  28  38  48  66  99 142 176 197 229
#     4  12  21  27  44  68  91 115 131 170 232 269
#     4  12  20  22  33  54  77 103 124 164 219 252
#     4   8  18  34  49  62  78 108 151 185 205 244
#     4   8  17  30  42  53  70 103 146 178 197 238
#     4   8  17  29  38  47  65  99 141 175 197 230
#
# _framework density 23.327641
#
# number of rings (size 3 to 8) (size 9 to 14) (size 15 to 20)
#    1.500    1.500    0.000    3.375    0.000    7.500 
#    0.000    0.000    0.000    0.000    0.000    0.000 
#    0.000    0.000    0.000    1.125    0.000   21.750 
#
# Total GULP energy -356897.917557 kJ/mol
# GULP energy per Si atom -5576.529962 kJ/mol
# Density = 2.327455 g / cm^3
# Si number density = 23.327641 Si / 1000 Ang^3
#
#
#
# Elastic Constant Matrix: (Units=GPa)
#
#
# Indices 1 2 3 4 5 6 
#
# 1 207.3371 36.5350 80.1675 0.0000 0.0000 0.0000
# 2 36.5350 65.1577 11.2038 0.0000 0.0000 0.0000
# 3 80.1675 11.2038 92.1959 0.0000 0.0000 0.0000
# 4 0.0000 0.0000 0.0000 3.9721 0.0000 0.0000
# 5 0.0000 0.0000 0.0000 0.0000 4.0551 0.0000
# 6 0.0000 0.0000 0.0000 0.0000 0.0000 46.4162
#
#
#
# Elastic Compliance Matrix: (Units=1/GPa)
#
#
# Indices 1 2 3 4 5 6 
#
# 1 0.007913 -0.003323 -0.006477 0.000000 0.000000 0.000000
# 2 -0.003323 0.017071 0.000815 0.000000 0.000000 0.000000
# 3 -0.006477 0.000815 0.016379 0.000000 0.000000 0.000000
# 4 0.000000 0.000000 0.000000 0.251757 0.000000 0.000000
# 5 0.000000 0.000000 0.000000 0.000000 0.246601 0.000000
# 6 0.000000 0.000000 0.000000 0.000000 0.000000 0.021544
#
#
# Mechanical properties :
#
#
# Convention : Reuss Voigt Hill
#
# Bulk Modulus (GPa) = 42.74751 68.94482 55.84616
# Shear Modulus (GPa) = 8.51743 26.67430 17.59587
#
# Velocity S-wave (km/s) = 1.91289 3.38518 2.74942
# Velocity P-wave (km/s) = 4.82115 6.70063 5.83703
#
# Compressibility (1/GPa) = 0.02339318
#
# Stress axis : x y z
#
# Youngs Moduli (GPa) = 126.37626 58.58029 61.05340
#
# Poissons Ratio (x) = 0.19468 0.39542
# Poissons Ratio (y) = 0.41998 -0.04977
# Poissons Ratio (z) = 0.81850 -0.04775
#
# Static dielectric constant tensor:
#      x y z
#    x 1.986230 0.000000 0.000000 
#    y 0.000000 2.056510 0.000000 
#    z 0.000000 0.000000 1.764210 
# 
# From -- ./inp_files/10308.got.cif
#   From: 2010.05.17/outbox.cif.g08.bks.cpg/sg55_6_cif.got.tgz:10308.got - 2010.06.03 13:27:54.
