data_PCOD9429602
_publ_section_title
;
Structure prediction by ZEFSAII (Michael W. Deem and Ramdas Pophale) SiO2 
 PCOD9429602
Probable space group: P C C N
;
_chemical_formula_sum "Si O2"
_cell_formula_units_Z 64
_cell_length_a 9.421039
_cell_length_b 21.981744
_cell_length_c 14.504293
_cell_angle_alpha 90.000000
_cell_angle_beta 90.000000
_cell_angle_gamma 90.000000
_cell_volume 3003.706620
_symmetry_space_group_name_H-M "P C C N"
_symmetry_group_IT_number 56
_symmetry_cell_setting 'orthorhombic'
loop_
_space_group_symop_operation_xyz
x,y,z
1/2-x,1/2-y,z
1/2+x,-y,1/2-z
-x,1/2+y,1/2-z
-x,-y,-z
1/2+x,1/2+y,-z
1/2-x,y,1/2+z
x,1/2-y,1/2+z
loop_
_atom_site_type_symbol
_atom_site_label
_atom_site_fract_x
_atom_site_fract_y
_atom_site_fract_z
Si Si1 0.914719 0.882389 0.197199
Si Si2 0.378017 0.572404 0.729850
Si Si3 0.434303 0.385422 0.597874
Si Si4 0.112610 0.922705 0.942048
Si Si5 0.305843 0.061316 0.469283
Si Si6 0.196196 0.815630 0.203462
Si Si7 0.813715 0.314598 0.070530
Si Si8 0.407607 0.979256 0.786803
O O1 0.797342 0.897569 0.122825
O O2 0.867998 0.867973 0.302035
O O3 0.037954 0.834235 0.172407
O O4 0.000330 0.946734 0.206267
O O5 0.419417 0.588236 0.834173
O O6 0.306713 0.630131 0.681980
O O7 0.249445 0.523617 0.746314
O O8 0.514168 0.540755 0.686580
O O9 0.318550 0.418878 0.537328
O O10 0.559342 0.432230 0.630624
O O11 0.521873 0.330959 0.550805
O O12 0.212891 0.867031 0.969918
O O13 0.187778 0.988537 0.954238
O O14 0.962159 0.923534 0.991984
O O15 0.250000 0.750000 0.173847
O O16 0.190318 0.815964 0.316377
O O17 0.750000 0.250000 0.042810
#
# Coordination Sequence:
#
# PCOD9429602 Si02
#       8
#     8   8   8   8   8   8   8   8
#     4   8  17  34  50  83 122 151 188 246 294 346
#     4  10  17  31  53  83 121 149 188 244 304 351
#     4   9  19  35  58  87 118 155 198 247 293 353
#     4  10  20  34  51  87 114 150 199 230 295 372
#     4  11  21  32  57  84 124 157 190 245 305 355
#     4   8  15  30  57  82 108 152 201 242 285 352
#     4   9  17  37  61  83 111 150 196 250 290 347
#     4   9  18  31  52  80 120 149 185 241 296 347
#
# _framework density 21.307009000000001
#
# number of rings (size 3 to 8) (size 9 to 14) (size 15 to 20)
#    0.750    2.000    3.750    0.000    1.750    1.500 
#    0.000    1.250    0.000    1.500    6.500    5.250 
#    0.000    1.000    0.000    0.000    0.000    0.000 
#
# Total GULP energy -356625.896148 kJ/mol
# GULP energy per Si atom -5572.279627 kJ/mol
# Density = 2.125851 g / cm^3
# Si number density = 21.307009 Si / 1000 Ang^3
#
#
#
# Elastic Constant Matrix: (Units=GPa)
#
#
# Indices 1 2 3 4 5 6 
#
# 1 84.7737 66.9976 30.0393 0.0000 0.0000 0.0000
# 2 66.9976 140.8691 24.6179 0.0000 0.0000 0.0000
# 3 30.0393 24.6179 58.0563 0.0000 0.0000 0.0000
# 4 0.0000 0.0000 0.0000 9.2160 0.0000 0.0000
# 5 0.0000 0.0000 0.0000 0.0000 24.8199 0.0000
# 6 0.0000 0.0000 0.0000 0.0000 0.0000 26.9395
#
#
#
# Elastic Compliance Matrix: (Units=1/GPa)
#
#
# Indices 1 2 3 4 5 6 
#
# 1 0.021432 -0.008916 -0.007309 0.000000 0.000000 0.000000
# 2 -0.008916 0.011376 -0.000211 0.000000 0.000000 0.000000
# 3 -0.007309 -0.000211 0.021096 0.000000 0.000000 0.000000
# 4 0.000000 0.000000 0.000000 0.108507 0.000000 0.000000
# 5 0.000000 0.000000 0.000000 0.000000 0.040290 0.000000
# 6 0.000000 0.000000 0.000000 0.000000 0.000000 0.037120
#
#
# Mechanical properties :
#
#
# Convention : Reuss Voigt Hill
#
# Bulk Modulus (GPa) = 47.54348 58.55652 53.05000
# Shear Modulus (GPa) = 17.87606 22.99803 20.43705
#
# Velocity S-wave (km/s) = 2.89965 3.28893 3.10041
# Velocity P-wave (km/s) = 5.79419 6.47802 6.14562
#
# Compressibility (1/GPa) = 0.02103338
#
# Stress axis : x y z
#
# Youngs Moduli (GPa) = 46.65840 87.90394 47.40321
#
# Poissons Ratio (x) = 0.78375 0.34646
# Poissons Ratio (y) = 0.41601 0.00998
# Poissons Ratio (z) = 0.34102 0.01851
#
# Static dielectric constant tensor:
#      x y z
#    x 1.773410 0.000000 0.000000 
#    y 0.000000 1.806830 0.000000 
#    z 0.000000 0.000000 1.848530 
# 
# From -- ./inp_files/15901.got.cif
#   From: 2010.05.17/outbox.cif.g08.bks.cpg/sg56_8_cif.got.tgz:15901.got - 2010.06.03 13:42:01.
