data_PCOD9429094
_publ_section_title
;
Structure prediction by ZEFSAII (Michael W. Deem and Ramdas Pophale) SiO2 
 PCOD9429094
Probable space group: P B A M
;
_chemical_formula_sum "Si O2"
_cell_formula_units_Z 64
_cell_length_a 28.566456
_cell_length_b 12.378317
_cell_length_c 9.021550
_cell_angle_alpha 90.000000
_cell_angle_beta 90.000000
_cell_angle_gamma 90.000000
_cell_volume 3190.062012
_symmetry_space_group_name_H-M "P B A M"
_symmetry_group_IT_number 55
_symmetry_cell_setting 'orthorhombic'
loop_
_space_group_symop_operation_xyz
x,y,z
-x,-y,z
1/2+x,1/2-y,-z
1/2-x,1/2+y,-z
-x,-y,-z
x,y,-z
1/2-x,1/2+y,z
1/2+x,1/2-y,z
loop_
_atom_site_type_symbol
_atom_site_label
_atom_site_fract_x
_atom_site_fract_y
_atom_site_fract_z
Si Si1 0.570259 0.537477 0.328368
Si Si2 0.377834 0.676263 0.679130
Si Si3 0.670812 0.655687 0.667001
Si Si4 0.066334 0.358375 0.174060
Si Si5 0.411302 0.075532 0.323656
Si Si6 0.316939 0.126429 0.826799
Si Si7 0.968626 0.234209 0.173711
Si Si8 0.221184 0.068269 0.673421
O O1 0.555394 0.530974 0.500000
O O2 0.585337 0.418307 0.275991
O O3 0.619690 0.602025 0.324923
O O4 0.535356 0.613155 0.237445
O O5 0.380597 0.684882 0.500000
O O6 0.392361 0.786864 0.755764
O O7 0.325422 0.636013 0.715059
O O8 0.675794 0.702296 0.500000
O O9 0.677695 0.747260 0.787114
O O10 0.706642 0.557086 0.683398
O O11 0.062298 0.471811 0.257768
O O12 0.019440 0.287620 0.191259
O O13 0.073866 0.378270 0.000000
O O14 0.413165 0.076755 0.500000
O O15 0.358143 0.069242 0.265337
O O16 0.433773 0.185231 0.259922
O O17 0.265901 0.092346 0.771619
O O18 0.323433 0.106471 0.000000
O O19 0.956394 0.233398 0.000000
O O20 0.231188 0.091915 0.500000
#
# Coordination Sequence:
#
# PCOD9429094 Si02
#       8
#     8   8   8   8   8   8   8   8
#     4   9  18  35  62  90 117 154 203 251 290 347
#     4   9  20  40  63  89 121 162 208 251 299 354
#     4   9  18  36  60  84 112 151 196 243 294 347
#     4  11  25  42  60  87 127 166 200 248 311 369
#     4  12  25  42  64  87 116 157 207 256 303 361
#     4  12  24  37  59  91 122 154 195 245 304 365
#     4  11  23  39  61  91 124 159 199 250 311 367
#     4   9  20  39  62  87 118 157 201 247 296 353
#
# _framework density 20.062304999999999
#
# number of rings (size 3 to 8) (size 9 to 14) (size 15 to 20)
#    0.000    1.750    1.250    4.875    0.000    6.500 
#    0.000    6.250    0.000    0.000    0.000    0.000 
#    0.000    0.000    0.000    0.000    0.000    0.000 
#
# Total GULP energy -357729.518237 kJ/mol
# GULP energy per Si atom -5589.523722 kJ/mol
# Density = 2.001664 g / cm^3
# Si number density = 20.062305 Si / 1000 Ang^3
#
#
#
# Elastic Constant Matrix: (Units=GPa)
#
#
# Indices 1 2 3 4 5 6 
#
# 1 61.6836 5.0574 33.3906 0.0000 0.0000 0.0000
# 2 5.0574 57.2668 20.6676 0.0000 0.0000 0.0000
# 3 33.3906 20.6676 80.9347 0.0000 0.0000 0.0000
# 4 0.0000 0.0000 0.0000 77.7104 0.0000 0.0000
# 5 0.0000 0.0000 0.0000 0.0000 21.6830 0.0000
# 6 0.0000 0.0000 0.0000 0.0000 0.0000 26.2965
#
#
#
# Elastic Compliance Matrix: (Units=1/GPa)
#
#
# Indices 1 2 3 4 5 6 
#
# 1 0.020975 0.001400 -0.009011 0.000000 0.000000 0.000000
# 2 0.001400 0.019328 -0.005513 0.000000 0.000000 0.000000
# 3 -0.009011 -0.005513 0.017481 0.000000 0.000000 0.000000
# 4 0.000000 0.000000 0.000000 0.012868 0.000000 0.000000
# 5 0.000000 0.000000 0.000000 0.000000 0.046119 0.000000
# 6 0.000000 0.000000 0.000000 0.000000 0.000000 0.038028
#
#
# Mechanical properties :
#
#
# Convention : Reuss Voigt Hill
#
# Bulk Modulus (GPa) = 31.71039 35.34625 33.52832
# Shear Modulus (GPa) = 26.10155 34.52262 30.31209
#
# Velocity S-wave (km/s) = 3.61088 4.15272 3.89124
# Velocity P-wave (km/s) = 5.76411 6.37573 6.07762
#
# Compressibility (1/GPa) = 0.03153541
#
# Stress axis : x y z
#
# Youngs Moduli (GPa) = 47.67636 51.73787 57.20500
#
# Poissons Ratio (x) = -0.07241 0.51546
# Poissons Ratio (y) = -0.06673 0.31538
# Poissons Ratio (z) = 0.42960 0.28524
#
# Static dielectric constant tensor:
#      x y z
#    x 1.720240 0.000000 0.000000 
#    y 0.000000 1.701010 0.000000 
#    z 0.000000 0.000000 1.674970 
# 
# From -- ./inp_files/10724.got.cif
#   From: 2010.05.17/outbox.cif.g08.bks.cpg/sg55_6_cif.got.tgz:10724.got - 2010.06.03 13:27:54.
