data_PCOD9429510
_publ_section_title
;
Structure prediction by ZEFSAII (Michael W. Deem and Ramdas Pophale) SiO2 
 PCOD9429510
Probable space group: P C C N
;
_chemical_formula_sum "Si O2"
_cell_formula_units_Z 48
_cell_length_a 19.648081
_cell_length_b 6.665785
_cell_length_c 13.932299
_cell_angle_alpha 90.000000
_cell_angle_beta 90.000000
_cell_angle_gamma 90.000000
_cell_volume 1824.711578
_symmetry_space_group_name_H-M "P C C N"
_symmetry_group_IT_number 56
_symmetry_cell_setting 'orthorhombic'
loop_
_space_group_symop_operation_xyz
x,y,z
1/2-x,1/2-y,z
1/2+x,-y,1/2-z
-x,1/2+y,1/2-z
-x,-y,-z
1/2+x,1/2+y,-z
1/2-x,y,1/2+z
x,1/2-y,1/2+z
loop_
_atom_site_type_symbol
_atom_site_label
_atom_site_fract_x
_atom_site_fract_y
_atom_site_fract_z
Si Si1 0.767662 0.511531 0.653177
Si Si2 0.304462 0.427968 0.055085
Si Si3 0.441966 0.274168 0.962918
Si Si4 0.637614 0.079689 0.259965
Si Si5 0.905054 0.888354 0.241924
Si Si6 0.525430 0.140987 0.123175
O O1 0.750000 0.750000 0.652592
O O2 0.780823 0.466471 0.542437
O O3 0.700526 0.403405 0.688312
O O4 0.832493 0.504741 0.724819
O O5 0.250000 0.250000 0.084380
O O6 0.327740 0.587642 0.135490
O O7 0.373437 0.322415 0.019053
O O8 0.442496 0.386883 0.861219
O O9 0.439077 0.041730 0.931326
O O10 0.503886 0.289453 0.037692
O O11 0.612261 0.847228 0.259981
O O12 0.573964 0.197341 0.212821
O O13 0.955991 0.939531 0.327680
#
# Coordination Sequence:
#
# PCOD9429510 Si02
#       6
#     8   8   8   8   8   8
#     4   8  16  28  43  71  98 124 148 195 253 297
#     4  10  16  28  50  72 105 127 145 199 261 297
#     4   9  19  30  46  72 102 132 157 194 245 296
#     4  10  18  28  46  73 100 127 158 194 243 297
#     4   9  16  30  48  68 102 128 156 197 245 294
#     4  10  18  30  46  70 103 128 166 191 240 306
#
# _framework density 26.305529
#
# number of rings (size 3 to 8) (size 9 to 14) (size 15 to 20)
#    0.000    2.667    1.667    4.500    0.000    0.000 
#    0.000    3.333    0.000    0.000    0.000    4.667 
#   15.000    0.000    0.000    0.000    0.000    0.000 
#
# Total GULP energy -268436.096203 kJ/mol
# GULP energy per Si atom -5592.418671 kJ/mol
# Density = 2.624566 g / cm^3
# Si number density = 26.305529 Si / 1000 Ang^3
#
#
#
# Elastic Constant Matrix: (Units=GPa)
#
#
# Indices 1 2 3 4 5 6 
#
# 1 81.6125 16.5115 64.3535 0.0000 0.0000 0.0000
# 2 16.5115 55.7402 7.6890 0.0000 0.0000 0.0000
# 3 64.3535 7.6890 183.1200 0.0000 0.0000 0.0000
# 4 0.0000 0.0000 0.0000 31.9348 0.0000 0.0000
# 5 0.0000 0.0000 0.0000 0.0000 56.0679 0.0000
# 6 0.0000 0.0000 0.0000 0.0000 0.0000 40.4345
#
#
#
# Elastic Compliance Matrix: (Units=1/GPa)
#
#
# Indices 1 2 3 4 5 6 
#
# 1 0.018000 -0.004485 -0.006137 0.000000 0.000000 0.000000
# 2 -0.004485 0.019163 0.000772 0.000000 0.000000 0.000000
# 3 -0.006137 0.000772 0.007585 0.000000 0.000000 0.000000
# 4 0.000000 0.000000 0.000000 0.031314 0.000000 0.000000
# 5 0.000000 0.000000 0.000000 0.000000 0.017836 0.000000
# 6 0.000000 0.000000 0.000000 0.000000 0.000000 0.024731
#
#
# Mechanical properties :
#
#
# Convention : Reuss Voigt Hill
#
# Bulk Modulus (GPa) = 39.92692 55.28675 47.60684
# Shear Modulus (GPa) = 34.08799 41.14869 37.61834
#
# Velocity S-wave (km/s) = 3.60370 3.95936 3.78571
# Velocity P-wave (km/s) = 5.70321 6.47803 6.10293
#
# Compressibility (1/GPa) = 0.02504576
#
# Stress axis : x y z
#
# Youngs Moduli (GPa) = 55.55575 52.18502 131.83330
#
# Poissons Ratio (x) = 0.23407 0.80911
# Poissons Ratio (y) = 0.24919 -0.10173
# Poissons Ratio (z) = 0.34097 -0.04027
#
# Static dielectric constant tensor:
#      x y z
#    x 2.024080 0.000000 0.000000 
#    y 0.000000 2.169320 0.000000 
#    z 0.000000 0.000000 2.066320 
# 
# From -- ./inp_files/11734.got.cif
#   From: 2010.05.17/outbox.cif.g08.bks.cpg/sg56_6_cif.got.tgz:11734.got - 2010.06.03 13:42:01.
