data_PCOD9429104
_publ_section_title
;
Structure prediction by ZEFSAII (Michael W. Deem and Ramdas Pophale) SiO2 
 PCOD9429104
Probable space group: P B A M
;
_chemical_formula_sum "Si O2"
_cell_formula_units_Z 32
_cell_length_a 12.844307
_cell_length_b 7.549395
_cell_length_c 11.982012
_cell_angle_alpha 90.000000
_cell_angle_beta 90.000000
_cell_angle_gamma 90.000000
_cell_volume 1161.856727
_symmetry_space_group_name_H-M "P B A M"
_symmetry_group_IT_number 55
_symmetry_cell_setting 'orthorhombic'
loop_
_space_group_symop_operation_xyz
x,y,z
-x,-y,z
1/2+x,1/2-y,-z
1/2-x,1/2+y,-z
-x,-y,-z
x,y,-z
1/2-x,1/2+y,z
1/2+x,1/2-y,z
loop_
_atom_site_type_symbol
_atom_site_label
_atom_site_fract_x
_atom_site_fract_y
_atom_site_fract_z
Si Si1 0.339792 0.020997 0.622949
Si Si2 0.369899 0.153266 0.873408
Si Si3 0.098185 0.121984 0.352339
Si Si4 0.127193 0.072404 0.884131
O O1 0.362437 0.109700 0.500000
O O2 0.380614 0.821101 0.609337
O O3 0.387037 0.091069 0.742065
O O4 0.211929 0.025916 0.634305
O O5 0.382003 0.363342 0.875762
O O6 0.247514 0.115650 0.880491
O O7 0.405264 0.088691 0.000000
O O8 0.078361 0.156917 0.222348
O O9 0.000000 0.000000 0.387626
O O10 0.084585 0.140271 0.000000
#
# Coordination Sequence:
#
# PCOD9429104 Si02
#       4
#     8   8   8   8
#     4  11  23  40  64  94 129 169 215 267 322 383
#     4   9  17  33  60  91 126 169 212 261 322 380
#     4  11  24  42  66  95 131 172 217 267 324 384
#     4   9  17  32  57  90 126 166 214 265 318 380
#
# _framework density 27.542121999999999
#
# number of rings (size 3 to 8) (size 9 to 14) (size 15 to 20)
#    0.000    2.000    0.000    6.750    0.000    5.500 
#    0.000    6.250    0.000   10.500    0.000    0.000 
#    0.000    0.000    0.000    0.000    0.000    0.000 
#
# Total GULP energy -178367.453623 kJ/mol
# GULP energy per Si atom -5573.982926 kJ/mol
# Density = 2.747944 g / cm^3
# Si number density = 27.542122 Si / 1000 Ang^3
#
#
#
# Elastic Constant Matrix: (Units=GPa)
#
#
# Indices 1 2 3 4 5 6 
#
# 1 135.5272 44.9984 37.6513 0.0000 0.0000 0.0000
# 2 44.9984 78.4711 57.0083 0.0000 0.0000 0.0000
# 3 37.6513 57.0083 339.6225 0.0000 0.0000 0.0000
# 4 0.0000 0.0000 0.0000 12.3010 0.0000 0.0000
# 5 0.0000 0.0000 0.0000 0.0000 -96.9758 0.0000
# 6 0.0000 0.0000 0.0000 0.0000 0.0000 41.6547
#
#
#
# Elastic Compliance Matrix: (Units=1/GPa)
#
#
# Indices 1 2 3 4 5 6 
#
# 1 0.009121 -0.005120 -0.000152 0.000000 0.000000 0.000000
# 2 -0.005120 0.017387 -0.002351 0.000000 0.000000 0.000000
# 3 -0.000152 -0.002351 0.003356 0.000000 0.000000 0.000000
# 4 0.000000 0.000000 0.000000 0.081294 0.000000 0.000000
# 5 0.000000 0.000000 0.000000 0.000000 -0.010312 0.000000
# 6 0.000000 0.000000 0.000000 0.000000 0.000000 0.024007
#
#
# Mechanical properties :
#
#
# Convention : Reuss Voigt Hill
#
# Bulk Modulus (GPa) = 68.40535 92.54853 80.47694
# Shear Modulus (GPa) = 34.48960 18.99353 26.74156
#
# Velocity S-wave (km/s) = 3.54255 2.62891 3.11936
# Velocity P-wave (km/s) = 6.45162 6.54907 6.50053
#
# Compressibility (1/GPa) = 0.01461874
#
# Stress axis : x y z
#
# Youngs Moduli (GPa) = 109.64090 57.51260 297.98241
#
# Poissons Ratio (x) = 0.29446 0.04521
# Poissons Ratio (y) = 0.56135 0.70056
# Poissons Ratio (z) = 0.01663 0.13521
#
# Static dielectric constant tensor:
#      x y z
#    x 2.148360 0.000000 0.000000 
#    y 0.000000 2.045160 0.000000 
#    z 0.000000 0.000000 2.264570 
# 
# From -- ./inp_files/13749.got.cif
#   From: 2010.05.17/outbox.cif.g08.bks.cpg/sg55_7_cif.got.tgz:13749.got - 2010.06.03 13:27:54.
