data_PCOD9429656
_publ_section_title
;
Structure prediction by ZEFSAII (Michael W. Deem and Ramdas Pophale) SiO2 
 PCOD9429656
Probable space group: P C C N
;
_chemical_formula_sum "Si O2"
_cell_formula_units_Z 52
_cell_length_a 20.634520
_cell_length_b 9.329819
_cell_length_c 9.705072
_cell_angle_alpha 90.000000
_cell_angle_beta 90.000000
_cell_angle_gamma 90.000000
_cell_volume 1868.384909
_symmetry_space_group_name_H-M "P C C N"
_symmetry_group_IT_number 56
_symmetry_cell_setting 'orthorhombic'
loop_
_space_group_symop_operation_xyz
x,y,z
1/2-x,1/2-y,z
1/2+x,-y,1/2-z
-x,1/2+y,1/2-z
-x,-y,-z
1/2+x,1/2+y,-z
1/2-x,y,1/2+z
x,1/2-y,1/2+z
loop_
_atom_site_type_symbol
_atom_site_label
_atom_site_fract_x
_atom_site_fract_y
_atom_site_fract_z
Si Si1 0.078593 0.764503 0.640044
Si Si2 0.990498 0.163854 0.111854
Si Si3 0.136744 0.435683 0.107838
Si Si4 0.645690 0.458721 0.676643
Si Si5 0.093057 0.125253 0.898729
Si Si6 0.785355 0.548830 0.419716
Si Si7 0.750000 0.250000 0.036238
O O1 0.127782 0.896669 0.659893
O O2 0.100143 0.616772 0.710637
O O3 0.062470 0.749307 0.480250
O O4 0.013785 0.797822 0.727924
O O5 0.958694 0.006758 0.110578
O O6 0.055427 0.196435 0.028574
O O7 0.108838 0.350979 0.238071
O O8 0.211714 0.398190 0.080350
O O9 0.112403 0.457709 0.949743
O O10 0.687575 0.568131 0.766829
O O11 0.695516 0.336480 0.621577
O O12 0.163966 0.098510 0.965480
O O13 0.780969 0.376255 0.446345
#
# Coordination Sequence:
#
# PCOD9429656 Si02
#       7
#     8   8   8   8   8   8   4
#     4  11  18  34  50  79  99 143 184 223 258 312
#     4  10  21  36  56  71 111 146 185 225 261 329
#     4  10  20  30  48  76 109 139 178 214 269 323
#     4  11  17  26  43  71 103 136 173 213 243 307
#     4  10  21  37  49  77 113 152 174 215 285 317
#     4  11  19  29  48  75 111 144 175 211 264 322
#     4  10  18  26  42  76 108 146 168 208 252 318
#
# _framework density 27.831524999999999
#
# number of rings (size 3 to 8) (size 9 to 14) (size 15 to 20)
#    0.000    1.538    3.077    6.923    0.000    0.000 
#    0.000    2.308    0.000    0.000    0.000    3.231 
#    0.000    0.000    0.000    0.000    0.000    0.000 
#
# Total GULP energy -290522.824495 kJ/mol
# GULP energy per Si atom -5586.977394 kJ/mol
# Density = 2.776818 g / cm^3
# Si number density = 27.831525 Si / 1000 Ang^3
#
#
#
# Elastic Constant Matrix: (Units=GPa)
#
#
# Indices 1 2 3 4 5 6 
#
# 1 107.8243 29.5849 29.9988 0.0000 0.0000 0.0000
# 2 29.5849 52.9253 21.1995 0.0000 0.0000 0.0000
# 3 29.9988 21.1995 182.5449 0.0000 0.0000 0.0000
# 4 0.0000 0.0000 0.0000 36.4452 0.0000 0.0000
# 5 0.0000 0.0000 0.0000 0.0000 50.7163 0.0000
# 6 0.0000 0.0000 0.0000 0.0000 0.0000 33.7375
#
#
#
# Elastic Compliance Matrix: (Units=1/GPa)
#
#
# Indices 1 2 3 4 5 6 
#
# 1 0.011186 -0.005786 -0.001166 0.000000 0.000000 0.000000
# 2 -0.005786 0.022809 -0.001698 0.000000 0.000000 0.000000
# 3 -0.001166 -0.001698 0.005867 0.000000 0.000000 0.000000
# 4 0.000000 0.000000 0.000000 0.027438 0.000000 0.000000
# 5 0.000000 0.000000 0.000000 0.000000 0.019718 0.000000
# 6 0.000000 0.000000 0.000000 0.000000 0.000000 0.029641
#
#
# Mechanical properties :
#
#
# Convention : Reuss Voigt Hill
#
# Bulk Modulus (GPa) = 44.32296 56.09566 50.20931
# Shear Modulus (GPa) = 35.34063 41.68055 38.51059
#
# Velocity S-wave (km/s) = 3.56730 3.87408 3.72385
# Velocity P-wave (km/s) = 5.73825 6.34118 6.04723
#
# Compressibility (1/GPa) = 0.02256167
#
# Stress axis : x y z
#
# Youngs Moduli (GPa) = 89.39428 43.84238 170.44527
#
# Poissons Ratio (x) = 0.25367 0.19881
# Poissons Ratio (y) = 0.51723 0.28942
# Poissons Ratio (z) = 0.10427 0.07445
#
# Static dielectric constant tensor:
#      x y z
#    x 2.218650 0.000000 0.000000 
#    y 0.000000 2.296450 0.000000 
#    z 0.000000 0.000000 2.180470 
# 
# From -- ./inp_files/3529.got.cif
#   From: 2010.05.17/outbox.cif.g08.bks.cpg/sg56_2_cif.got.tgz:3529.got - 2010.06.03 13:42:01.
