data_PCOD9429066
_publ_section_title
;
Structure prediction by ZEFSAII (Michael W. Deem and Ramdas Pophale) SiO2 
 PCOD9429066
Probable space group: P B A M
;
_chemical_formula_sum "Si O2"
_cell_formula_units_Z 48
_cell_length_a 14.514000
_cell_length_b 8.159080
_cell_length_c 19.447118
_cell_angle_alpha 90.000000
_cell_angle_beta 90.000000
_cell_angle_gamma 90.000000
_cell_volume 2302.944965
_symmetry_space_group_name_H-M "P B A M"
_symmetry_group_IT_number 55
_symmetry_cell_setting 'orthorhombic'
loop_
_space_group_symop_operation_xyz
x,y,z
-x,-y,z
1/2+x,1/2-y,-z
1/2-x,1/2+y,-z
-x,-y,-z
x,y,-z
1/2-x,1/2+y,z
1/2+x,1/2-y,z
loop_
_atom_site_type_symbol
_atom_site_label
_atom_site_fract_x
_atom_site_fract_y
_atom_site_fract_z
Si Si1 0.885468 0.650359 0.647841
Si Si2 0.818846 0.389596 0.000000
Si Si3 0.641406 0.632648 0.500000
Si Si4 0.533217 0.810248 0.108896
Si Si5 0.696564 0.788207 0.645134
Si Si6 0.073003 0.223634 0.500000
Si Si7 0.538838 0.682116 0.262468
Si Si8 0.115138 0.232907 0.000000
O O1 0.803226 0.776517 0.663097
O O2 0.842655 0.470580 0.651779
O O3 0.913441 0.675716 0.568992
O O4 0.970007 0.695375 0.696743
O O5 0.708734 0.371453 0.000000
O O6 0.871835 0.311000 0.934553
O O7 0.847555 0.580068 0.000000
O O8 0.683343 0.710861 0.568966
O O9 0.641207 0.434362 0.500000
O O10 0.532944 0.669988 0.500000
O O11 0.545743 0.738115 0.184046
O O12 0.500000 0.000000 0.113362
O O13 0.453105 0.718028 0.065465
O O14 0.635503 0.686293 0.698349
O O15 0.500000 0.500000 0.267223
#
# Coordination Sequence:
#
# PCOD9429066 Si02
#       8
#     8   4   4   8   8   4   8   4
#     4  12  25  42  64  89 120 160 206 255 309 366
#     4   9  19  37  64  92 122 157 199 243 291 350
#     4  11  22  39  64  90 121 157 201 255 308 366
#     4   9  20  40  61  87 123 164 199 239 296 358
#     4  12  25  42  64  89 120 160 206 255 309 366
#     4  11  22  39  64  90 121 157 201 255 308 366
#     4  12  25  42  62  90 125 162 204 252 305 364
#     4   9  19  37  64  92 122 157 199 243 291 350
#
# _framework density 20.842877999999999
#
# number of rings (size 3 to 8) (size 9 to 14) (size 15 to 20)
#    0.000    1.167    1.667    6.500    0.000    3.333 
#    0.000    5.000    0.000    0.000    0.000    0.000 
#    0.000    0.000    0.000    0.000    0.000    0.000 
#
# Total GULP energy -268553.885197 kJ/mol
# GULP energy per Si atom -5594.872608 kJ/mol
# Density = 2.079544 g / cm^3
# Si number density = 20.842878 Si / 1000 Ang^3
#
#
#
# Elastic Constant Matrix: (Units=GPa)
#
#
# Indices 1 2 3 4 5 6 
#
# 1 78.1337 -18.0859 29.1567 0.0000 0.0000 0.0000
# 2 -18.0859 51.0194 10.2003 0.0000 0.0000 0.0000
# 3 29.1567 10.2003 142.8184 0.0000 0.0000 0.0000
# 4 0.0000 0.0000 0.0000 8.0582 0.0000 0.0000
# 5 0.0000 0.0000 0.0000 0.0000 -0.0982 0.0000
# 6 0.0000 0.0000 0.0000 0.0000 0.0000 37.0192
#
#
#
# Elastic Compliance Matrix: (Units=1/GPa)
#
#
# Indices 1 2 3 4 5 6 
#
# 1 0.015602 0.006257 -0.003632 0.000000 0.000000 0.000000
# 2 0.006257 0.022394 -0.002877 0.000000 0.000000 0.000000
# 3 -0.003632 -0.002877 0.007949 0.000000 0.000000 0.000000
# 4 0.000000 0.000000 0.000000 0.124097 0.000000 0.000000
# 5 0.000000 0.000000 0.000000 0.000000-10.182007 0.000000
# 6 0.000000 0.000000 0.000000 0.000000 0.000000 0.027013
#
#
# Mechanical properties :
#
#
# Convention : Reuss Voigt Hill
#
# Bulk Modulus (GPa) = 22.00655 34.94596 28.47626
# Shear Modulus (GPa) = -0.50154 25.70921 12.60384
#
# Velocity S-wave (km/s) = -0.49107 3.51590 2.46175
# Velocity P-wave (km/s) = 3.20308 5.76930 4.66608
#
# Compressibility (1/GPa) = 0.04544102
#
# Stress axis : x y z
#
# Youngs Moduli (GPa) = 64.09317 44.65564 125.80406
#
# Poissons Ratio (x) = -0.27941 0.45694
# Poissons Ratio (y) = -0.40103 0.36191
# Poissons Ratio (z) = 0.23279 0.12846
#
# Static dielectric constant tensor:
#      x y z
#    x 1.732700 0.000000 0.000000 
#    y 0.000000 1.791120 0.000000 
#    z 0.000000 0.000000 1.699730 
# 
# From -- ./inp_files/21564.got.cif
#   From: 2010.05.17/outbox.cif.g08.bks.cpg/sg55_11_cif.got.tgz:21564.got - 2010.06.03 13:27:54.
