data_PCOD9429371
_publ_section_title
;
Structure prediction by ZEFSAII (Michael W. Deem and Ramdas Pophale) SiO2 
 PCOD9429371
Probable space group: P B A M
;
_chemical_formula_sum "Si O2"
_cell_formula_units_Z 64
_cell_length_a 24.000000
_cell_length_b 15.000000
_cell_length_c 9.000000
_cell_angle_alpha 90.000000
_cell_angle_beta 90.000000
_cell_angle_gamma 90.000000
_cell_volume 3240.000000
_symmetry_space_group_name_H-M "P B A M"
_symmetry_group_IT_number 55
_symmetry_cell_setting 'orthorhombic'
loop_
_space_group_symop_operation_xyz
x,y,z
-x,-y,z
1/2+x,1/2-y,-z
1/2-x,1/2+y,-z
-x,-y,-z
x,y,-z
1/2-x,1/2+y,z
1/2+x,1/2-y,z
loop_
_atom_site_type_symbol
_atom_site_label
_atom_site_fract_x
_atom_site_fract_y
_atom_site_fract_z
Si Si1 0.866528 0.078879 0.677481
Si Si2 0.997027 0.603265 0.678921
Si Si3 0.202889 0.605128 0.820857
Si Si4 0.604618 0.780167 0.679197
Si Si5 0.301606 0.728574 0.179641
Si Si6 0.945338 0.940546 0.169287
Si Si7 0.745706 0.081078 0.179644
Si Si8 0.572855 0.249090 0.822142
O O1 0.862581 0.079607 0.500000
O O2 0.891791 0.175958 0.724649
O O3 0.806073 0.069884 0.750113
O O4 0.902803 0.995338 0.730755
O O5 0.994416 0.602595 0.500000
O O6 0.050027 0.663824 0.724476
O O7 0.000000 0.500000 0.728427
O O8 0.945959 0.659102 0.744054
O O9 0.156018 0.664931 0.746077
O O10 0.261934 0.648295 0.775222
O O11 0.205386 0.501131 0.780352
O O12 0.197145 0.611865 0.000000
O O13 0.607265 0.781973 0.500000
O O14 0.277138 0.823309 0.228028
O O15 0.365109 0.723790 0.225161
O O16 0.301393 0.728898 0.000000
O O17 0.960389 0.839680 0.215828
O O18 0.922290 0.933733 0.000000
O O19 0.000000 0.000000 0.165180
O O20 0.750826 0.080518 0.000000
O O21 0.570262 0.234668 0.000000
#
# Coordination Sequence:
#
# PCOD9429371 Si02
#       8
#     8   8   8   8   8   8   8   8
#     4  11  22  36  57  86 117 151 189 236 290 345
#     4  10  23  42  60  81 114 159 200 237 292 348
#     4  10  20  35  59  86 111 148 191 231 286 345
#     4  10  22  39  57  81 117 152 191 242 287 339
#     4   9  18  34  54  81 115 144 176 230 287 334
#     4  10  21  37  59  86 117 153 191 237 293 348
#     4  10  20  35  56  81 111 147 187 233 287 349
#     4  10  21  38  60  87 116 147 193 247 291 340
#
# _framework density 19.753086
#
# number of rings (size 3 to 8) (size 9 to 14) (size 15 to 20)
#    0.000    2.000    1.250    1.875    1.750    4.500 
#    0.000    1.250    0.000    0.000    0.000    0.000 
#    0.000    0.000    0.000    0.000    0.000    0.000 
#
# Total GULP energy -357089.722927 kJ/mol
# GULP energy per Si atom -5579.526921 kJ/mol
# Density = 1.970813 g / cm^3
# Si number density = 19.753086 Si / 1000 Ang^3
#
#
#
# Elastic Constant Matrix: (Units=GPa)
#
#
# Indices 1 2 3 4 5 6 
#
# 1 37.5438 -9.0240 -0.0205 0.0000 0.0000 0.0000
# 2 -9.0240 93.1075 13.3116 0.0000 0.0000 0.0000
# 3 -0.0205 13.3116 0.3719 0.0000 0.0000 0.0000
# 4 0.0000 0.0000 0.0000 19.0525 0.0000 0.0000
# 5 0.0000 0.0000 0.0000 0.0000 44.3188 0.0000
# 6 0.0000 0.0000 0.0000 0.0000 0.0000 32.7006
#
#
#
# Elastic Compliance Matrix: (Units=1/GPa)
#
#
# Indices 1 2 3 4 5 6 
#
# 1 0.026510 -0.000573 0.021981 0.000000 0.000000 0.000000
# 2 -0.000573 -0.002596 0.092894 0.000000 0.000000 0.000000
# 3 0.021981 0.092894 -0.634842 0.000000 0.000000 0.000000
# 4 0.000000 0.000000 0.000000 0.052487 0.000000 0.000000
# 5 0.000000 0.000000 0.000000 0.000000 0.022564 0.000000
# 6 0.000000 0.000000 0.000000 0.000000 0.000000 0.030581
#
#
# Mechanical properties :
#
#
# Convention : Reuss Voigt Hill
#
# Bulk Modulus (GPa) = -2.61558 15.50639 6.44541
# Shear Modulus (GPa) = -5.80489 27.66478 10.92995
#
# Velocity S-wave (km/s) = -1.71613 3.74643 2.35485
# Velocity P-wave (km/s) = 2.29212 5.15572 3.26555
#
# Compressibility (1/GPa) = -0.38232434
#
# Stress axis : x y z
#
# Youngs Moduli (GPa) = 37.72197 -385.14449 -1.57520
#
# Poissons Ratio (x) = -0.22082 0.03462
# Poissons Ratio (y) = 0.02163 0.14633
# Poissons Ratio (z) = -0.82917 35.77767
#
# Static dielectric constant tensor:
#      x y z
#    x 1.744340 0.000000 0.000000 
#    y 0.000000 1.699470 0.000000 
#    z 0.000000 0.000000 1.671200 
# 
# From -- ./inp_files/9644.got.cif
#   From: 2010.05.17/outbox.ucp.g08.bks.cvg/sg55_5_cif.got.tgz:9644.got - 2010.06.11 16:36:00.
