data_PCOD9429584
_publ_section_title
;
Structure prediction by ZEFSAII (Michael W. Deem and Ramdas Pophale) SiO2 
 PCOD9429584
Probable space group: P C C N
;
_chemical_formula_sum "Si O2"
_cell_formula_units_Z 56
_cell_length_a 15.520961
_cell_length_b 26.687478
_cell_length_c 5.505665
_cell_angle_alpha 90.000000
_cell_angle_beta 90.000000
_cell_angle_gamma 90.000000
_cell_volume 2280.530708
_symmetry_space_group_name_H-M "P C C N"
_symmetry_group_IT_number 56
_symmetry_cell_setting 'orthorhombic'
loop_
_space_group_symop_operation_xyz
x,y,z
1/2-x,1/2-y,z
1/2+x,-y,1/2-z
-x,1/2+y,1/2-z
-x,-y,-z
1/2+x,1/2+y,-z
1/2-x,y,1/2+z
x,1/2-y,1/2+z
loop_
_atom_site_type_symbol
_atom_site_label
_atom_site_fract_x
_atom_site_fract_y
_atom_site_fract_z
Si Si1 0.430571 0.115098 0.643913
Si Si2 0.755697 0.647345 0.891032
Si Si3 0.303475 0.871913 0.192560
Si Si4 0.117016 0.730097 0.179833
Si Si5 0.079020 0.268364 0.781740
Si Si6 0.425308 0.079276 0.142860
Si Si7 0.195803 0.988342 0.687309
O O1 0.325521 0.108317 0.614574
O O2 0.430962 0.174315 0.696269
O O3 0.471449 0.098679 0.387388
O O4 0.465710 0.085538 0.876788
O O5 0.751560 0.676275 0.640734
O O6 0.843512 0.616726 0.885201
O O7 0.252750 0.864175 0.447082
O O8 0.376971 0.829881 0.183660
O O9 0.329319 0.929947 0.189127
O O10 0.156120 0.750577 0.428832
O O11 0.019296 0.750378 0.180908
O O12 0.116552 0.238678 0.551825
O O13 0.386043 0.024784 0.185062
O O14 0.248851 0.997260 0.434951
#
# Coordination Sequence:
#
# PCOD9429584 Si02
#       7
#     8   8   8   8   8   8   8
#     4  10  18  29  49  71  94 127 173 214 246 293
#     4   8  14  23  39  62  86 113 150 194 236 276
#     4  10  21  34  53  83 112 135 160 201 255 303
#     4  10  21  37  57  77 101 136 173 208 250 303
#     4  10  21  37  54  72  95 130 176 219 257 298
#     4  10  17  28  48  72  99 131 167 207 247 297
#     4  10  18  30  48  75 109 138 165 199 247 305
#
# _framework density 24.555686000000001
#
# number of rings (size 3 to 8) (size 9 to 14) (size 15 to 20)
#    0.000    2.286    0.000    5.143    0.000    1.714 
#    0.000    0.000    0.000   24.857    0.000    0.000 
#    0.000    0.000    0.000    0.000    0.000    0.000 
#
# Total GULP energy -312651.386122 kJ/mol
# GULP energy per Si atom -5583.060466 kJ/mol
# Density = 2.449980 g / cm^3
# Si number density = 24.555686 Si / 1000 Ang^3
#
#
#
# Elastic Constant Matrix: (Units=GPa)
#
#
# Indices 1 2 3 4 5 6 
#
# 1 40.8415 0.1669 15.1671 0.0000 0.0000 0.0000
# 2 0.1669 117.9870 40.8333 0.0000 0.0000 0.0000
# 3 15.1671 40.8333 278.5589 0.0000 0.0000 0.0000
# 4 0.0000 0.0000 0.0000 16.6655 0.0000 0.0000
# 5 0.0000 0.0000 0.0000 0.0000********** 0.0000
# 6 0.0000 0.0000 0.0000 0.0000 0.0000 11.2310
#
#
#
# Elastic Compliance Matrix: (Units=1/GPa)
#
#
# Indices 1 2 3 4 5 6 
#
# 1 0.025014 0.000459 -0.001429 0.000000 0.000000 0.000000
# 2 0.000459 0.008937 -0.001335 0.000000 0.000000 0.000000
# 3 -0.001429 -0.001335 0.003863 0.000000 0.000000 0.000000
# 4 0.000000 0.000000 0.000000 0.060004 0.000000 0.000000
# 5 0.000000 0.000000 0.000000 0.000000 -0.000057 0.000000
# 6 0.000000 0.000000 0.000000 0.000000 0.000000 0.089039
#
#
# Mechanical properties :
#
#
# Convention : Reuss Voigt Hill
#
# Bulk Modulus (GPa) = 30.11683 61.08022 45.59853
# Shear Modulus (GPa) = 24.69403 -3447.78411 -1711.54504
#
# Velocity S-wave (km/s) = 3.17461 -37.51154 -26.42951
# Velocity P-wave (km/s) = 5.07237 43.02588 30.21173
#
# Compressibility (1/GPa) = 0.03320403
#
# Stress axis : x y z
#
# Youngs Moduli (GPa) = 39.97788 111.89568 258.83738
#
# Poissons Ratio (x) = -0.05139 0.36995
# Poissons Ratio (y) = -0.01836 0.34556
# Poissons Ratio (z) = 0.05714 0.14939
#
# Static dielectric constant tensor:
#      x y z
#    x 1.978380 0.000000 0.000000 
#    y 0.000000 1.889620 0.000000 
#    z 0.000000 0.000000 2.036510 
# 
# From -- ./inp_files/910.got.cif
#   From: 2010.05.17/outbox.cif.g08.bks.cpg/sg56_1_cif.got.tgz:910.got - 2010.06.03 13:42:01.
