data_PCOD9429991
_publ_section_title
;
Structure prediction by ZEFSAII (Michael W. Deem and Ramdas Pophale) SiO2 
 PCOD9429991
Probable space group: P C C N
;
_chemical_formula_sum "Si O2"
_cell_formula_units_Z 56
_cell_length_a 26.842709
_cell_length_b 20.830644
_cell_length_c 5.038695
_cell_angle_alpha 90.000000
_cell_angle_beta 90.000000
_cell_angle_gamma 90.000000
_cell_volume 2817.390921
_symmetry_space_group_name_H-M "P C C N"
_symmetry_group_IT_number 56
_symmetry_cell_setting 'orthorhombic'
loop_
_space_group_symop_operation_xyz
x,y,z
1/2-x,1/2-y,z
1/2+x,-y,1/2-z
-x,1/2+y,1/2-z
-x,-y,-z
1/2+x,1/2+y,-z
1/2-x,y,1/2+z
x,1/2-y,1/2+z
loop_
_atom_site_type_symbol
_atom_site_label
_atom_site_fract_x
_atom_site_fract_y
_atom_site_fract_z
Si Si1 0.977379 0.289611 0.000060
Si Si2 0.111300 0.645533 0.764838
Si Si3 0.120454 0.002162 0.356073
Si Si4 0.559251 0.967079 0.665251
Si Si5 0.722710 0.498561 0.915901
Si Si6 0.719415 0.157385 0.427454
Si Si7 0.978856 0.397324 0.609755
O O1 0.990466 0.232680 0.795314
O O2 0.997042 0.350841 0.841231
O O3 0.918587 0.307402 0.038712
O O4 0.121538 0.575594 0.899682
O O5 0.163175 0.673367 0.657517
O O6 0.071924 0.628567 0.528497
O O7 0.102450 0.038331 0.618430
O O8 0.173039 0.020780 0.229116
O O9 0.081830 0.017800 0.123192
O O10 0.519713 0.911135 0.616769
O O11 0.531482 0.033291 0.738491
O O12 0.767291 0.517817 0.717377
O O13 0.719678 0.420846 0.925793
O O14 0.739005 0.177749 0.713878
#
# Coordination Sequence:
#
# PCOD9429991 Si02
#       7
#     8   8   8   8   8   8   8
#     4  12  24  37  54  74  95 128 173 214 256 310
#     4  10  21  35  55  71  99 124 169 214 261 308
#     4  10  19  31  49  76 102 133 166 210 253 297
#     4  10  21  32  53  76 107 130 165 209 262 308
#     4   9  16  27  43  66  99 131 167 201 236 294
#     4   9  19  30  48  72  90 118 158 210 266 308
#     4  10  22  36  54  77 102 133 166 211 262 307
#
# _framework density 19.876545
#
# number of rings (size 3 to 8) (size 9 to 14) (size 15 to 20)
#    0.000    2.000    2.857    0.857    4.000    5.143 
#    0.000    0.000    0.000    2.571    0.000    0.000 
#    0.000    0.000    0.000    0.000    0.000   50.000 
#
# Total GULP energy -312416.114451 kJ/mol
# GULP energy per Si atom -5578.859187 kJ/mol
# Density = 1.983131 g / cm^3
# Si number density = 19.876545 Si / 1000 Ang^3
#
#
#
# Elastic Constant Matrix: (Units=GPa)
#
#
# Indices 1 2 3 4 5 6 
#
# 1 44.4676 9.9873 -7.6379 0.0000 0.0000 0.0000
# 2 9.9873 39.9064 14.5668 0.0000 0.0000 0.0000
# 3 -7.6379 14.5668 61.7390 0.0000 0.0000 0.0000
# 4 0.0000 0.0000 0.0000 18.4230 0.0000 0.0000
# 5 0.0000 0.0000 0.0000 0.0000 27.8429 0.0000
# 6 0.0000 0.0000 0.0000 0.0000 0.0000 16.7849
#
#
#
# Elastic Compliance Matrix: (Units=1/GPa)
#
#
# Indices 1 2 3 4 5 6 
#
# 1 0.025182 -0.008140 0.005036 0.000000 0.000000 0.000000
# 2 -0.008140 0.030052 -0.008098 0.000000 0.000000 0.000000
# 3 0.005036 -0.008098 0.018731 0.000000 0.000000 0.000000
# 4 0.000000 0.000000 0.000000 0.054280 0.000000 0.000000
# 5 0.000000 0.000000 0.000000 0.000000 0.035916 0.000000
# 6 0.000000 0.000000 0.000000 0.000000 0.000000 0.059577
#
#
# Mechanical properties :
#
#
# Convention : Reuss Voigt Hill
#
# Bulk Modulus (GPa) = 19.39482 19.99392 19.69437
# Shear Modulus (GPa) = 18.98774 21.22328 20.10551
#
# Velocity S-wave (km/s) = 3.09412 3.27120 3.18389
# Velocity P-wave (km/s) = 4.74801 4.93442 4.84211
#
# Compressibility (1/GPa) = 0.05156016
#
# Stress axis : x y z
#
# Youngs Moduli (GPa) = 39.71152 33.27593 53.38806
#
# Poissons Ratio (x) = 0.27088 -0.26886
# Poissons Ratio (y) = 0.32327 0.43231
# Poissons Ratio (z) = -0.19999 0.26945
#
# Static dielectric constant tensor:
#      x y z
#    x 1.744560 0.000000 0.000000 
#    y 0.000000 1.756800 0.000000 
#    z 0.000000 0.000000 1.748480 
# 
# From -- ./inp_files/1252.got.cif
#   From: 2010.05.17/outbox.cif.g08.bks.cpg/sg56_1_cif.got.tgz:1252.got - 2010.06.03 13:42:01.
