data_PCOD9429717
_publ_section_title
;
Structure prediction by ZEFSAII (Michael W. Deem and Ramdas Pophale) SiO2 
 PCOD9429717
Probable space group: P C C N
;
_chemical_formula_sum "Si O2"
_cell_formula_units_Z 64
_cell_length_a 20.144469
_cell_length_b 18.355643
_cell_length_c 8.915717
_cell_angle_alpha 90.000000
_cell_angle_beta 90.000000
_cell_angle_gamma 90.000000
_cell_volume 3296.717256
_symmetry_space_group_name_H-M "P C C N"
_symmetry_group_IT_number 56
_symmetry_cell_setting 'orthorhombic'
loop_
_space_group_symop_operation_xyz
x,y,z
1/2-x,1/2-y,z
1/2+x,-y,1/2-z
-x,1/2+y,1/2-z
-x,-y,-z
1/2+x,1/2+y,-z
1/2-x,y,1/2+z
x,1/2-y,1/2+z
loop_
_atom_site_type_symbol
_atom_site_label
_atom_site_fract_x
_atom_site_fract_y
_atom_site_fract_z
Si Si1 0.578169 0.279070 0.401381
Si Si2 0.662692 0.509392 0.084068
Si Si3 0.366541 0.303887 0.508363
Si Si4 0.001254 0.674015 0.815650
Si Si5 0.809150 0.804107 0.781655
Si Si6 0.273988 0.066499 0.124039
Si Si7 0.526203 0.579530 0.039908
Si Si8 0.903491 0.147065 0.099868
O O1 0.552173 0.325253 0.543987
O O2 0.522422 0.237150 0.301192
O O3 0.610381 0.327681 0.270434
O O4 0.615475 0.211525 0.483431
O O5 0.682056 0.523284 0.256836
O O6 0.605989 0.569068 0.037093
O O7 0.632612 0.428849 0.065658
O O8 0.729564 0.519825 0.988557
O O9 0.432359 0.312697 0.602050
O O10 0.331686 0.229810 0.562407
O O11 0.370383 0.300709 0.331018
O O12 0.319491 0.372343 0.545788
O O13 0.994438 0.604088 0.707935
O O14 0.750000 0.750000 0.728593
O O15 0.779282 0.883638 0.788548
O O16 0.500000 0.500000 0.000000
O O17 0.483046 0.632253 0.930641
#
# Coordination Sequence:
#
# PCOD9429717 Si02
#       8
#     8   8   8   8   8   8   8   8
#     4   9  19  36  59  92 114 142 196 249 310 348
#     4  11  22  40  58  82 121 161 200 239 295 357
#     4  11  20  31  50  81 114 161 195 229 268 330
#     4  10  18  31  55  84 121 143 186 243 286 350
#     4  10  21  32  46  73 112 156 201 223 261 320
#     4  11  22  36  54  77 118 161 199 237 282 341
#     4   9  19  36  57  82 116 158 191 237 295 354
#     4   9  20  40  65  88 115 150 193 252 311 357
#
# _framework density 19.413250000000001
#
# number of rings (size 3 to 8) (size 9 to 14) (size 15 to 20)
#    0.000    2.000    2.500    1.875    1.750    4.000 
#    0.000    7.500    0.000    2.250    0.000    0.000 
#    0.000    0.000    0.000    0.000    0.000    0.000 
#
# Total GULP energy -356434.336596 kJ/mol
# GULP energy per Si atom -5569.286509 kJ/mol
# Density = 1.936906 g / cm^3
# Si number density = 19.413250 Si / 1000 Ang^3
#
#
#
# Elastic Constant Matrix: (Units=GPa)
#
#
# Indices 1 2 3 4 5 6 
#
# 1 34.3632 14.2654 2.6105 0.0000 0.0000 0.0000
# 2 14.2654 74.0932 26.1303 0.0000 0.0000 0.0000
# 3 2.6105 26.1303 71.3200 0.0000 0.0000 0.0000
# 4 0.0000 0.0000 0.0000 14.5746 0.0000 0.0000
# 5 0.0000 0.0000 0.0000 0.0000 8.4582 0.0000
# 6 0.0000 0.0000 0.0000 0.0000 0.0000 20.8586
#
#
#
# Elastic Compliance Matrix: (Units=1/GPa)
#
#
# Indices 1 2 3 4 5 6 
#
# 1 0.031724 -0.006544 0.001236 0.000000 0.000000 0.000000
# 2 -0.006544 0.016849 -0.005934 0.000000 0.000000 0.000000
# 3 0.001236 -0.005934 0.016150 0.000000 0.000000 0.000000
# 4 0.000000 0.000000 0.000000 0.068613 0.000000 0.000000
# 5 0.000000 0.000000 0.000000 0.000000 0.118228 0.000000
# 6 0.000000 0.000000 0.000000 0.000000 0.000000 0.047942
#
#
# Mechanical properties :
#
#
# Convention : Reuss Voigt Hill
#
# Bulk Modulus (GPa) = 23.67402 29.53207 26.60304
# Shear Modulus (GPa) = 14.87796 17.89629 16.38712
#
# Velocity S-wave (km/s) = 2.77136 3.03951 2.90853
# Velocity P-wave (km/s) = 4.73939 5.25009 5.00127
#
# Compressibility (1/GPa) = 0.04224040
#
# Stress axis : x y z
#
# Youngs Moduli (GPa) = 31.52228 59.35052 61.91935
#
# Poissons Ratio (x) = 0.38838 -0.07656
# Poissons Ratio (y) = 0.20628 0.36741
# Poissons Ratio (z) = -0.03897 0.35217
#
# Static dielectric constant tensor:
#      x y z
#    x 1.716820 0.000000 0.000000 
#    y 0.000000 1.677710 0.000000 
#    z 0.000000 0.000000 1.693180 
# 
# From -- ./inp_files/4576.got.cif
#   From: 2010.05.17/outbox.cif.g08.bks.cpg/sg56_3_cif.got.tgz:4576.got - 2010.06.03 13:42:01.
