data_PCOD9429157
_publ_section_title
;
Structure prediction by ZEFSAII (Michael W. Deem and Ramdas Pophale) SiO2 
 PCOD9429157
Probable space group: P B A M
;
_chemical_formula_sum "Si O2"
_cell_formula_units_Z 40
_cell_length_a 8.991162
_cell_length_b 14.672593
_cell_length_c 13.096176
_cell_angle_alpha 90.000000
_cell_angle_beta 90.000000
_cell_angle_gamma 90.000000
_cell_volume 1727.695478
_symmetry_space_group_name_H-M "P B A M"
_symmetry_group_IT_number 55
_symmetry_cell_setting 'orthorhombic'
loop_
_space_group_symop_operation_xyz
x,y,z
-x,-y,z
1/2+x,1/2-y,-z
1/2-x,1/2+y,-z
-x,-y,-z
x,y,-z
1/2-x,1/2+y,z
1/2+x,1/2-y,z
loop_
_atom_site_type_symbol
_atom_site_label
_atom_site_fract_x
_atom_site_fract_y
_atom_site_fract_z
Si Si1 0.372209 0.327473 0.709918
Si Si2 0.000000 0.500000 0.673808
Si Si3 0.875957 0.384402 0.500000
Si Si4 0.417608 0.220423 0.000000
Si Si5 0.206545 0.295556 0.500000
Si Si6 0.500000 0.500000 0.179420
Si Si7 0.423250 0.821839 0.208533
Si Si8 0.885449 0.886734 0.000000
O O1 0.291716 0.330389 0.601008
O O2 0.432408 0.422764 0.749157
O O3 0.248672 0.295806 0.791967
O O4 0.497980 0.250833 0.716628
O O5 0.116643 0.550508 0.598763
O O6 0.067038 0.421540 0.743396
O O7 0.740651 0.313288 0.500000
O O8 0.035900 0.330062 0.500000
O O9 0.499188 0.182295 0.899651
O O10 0.250008 0.183716 0.000000
O O11 0.460869 0.328001 0.000000
O O12 0.387478 0.550852 0.101063
#
# Coordination Sequence:
#
# PCOD9429157 Si02
#       8
#     8   4   4   4   4   4   8   4
#     4  12  26  48  74 106 149 192 243 307 363 430
#     4  11  24  45  68 112 142 189 234 311 352 424
#     4  11  24  46  76 100 149 189 248 298 366 429
#     4  12  26  46  79 105 139 199 246 287 367 442
#     4  12  22  49  72 106 135 202 240 291 364 437
#     4  11  28  47  72 106 154 187 238 307 376 412
#     4  12  27  46  77 106 148 191 248 301 367 426
#     4  11  26  49  76 103 148 195 241 300 365 440
#
# _framework density 23.152228000000001
#
# number of rings (size 3 to 8) (size 9 to 14) (size 15 to 20)
#    0.000    0.400    6.000    1.200    2.800    1.600 
#    3.600    0.000    0.000    0.000    0.000    0.000 
#    0.000    0.000    0.000    0.000    0.000    0.000 
#
# Total GULP energy -224016.282779 kJ/mol
# GULP energy per Si atom -5600.407069 kJ/mol
# Density = 2.309953 g / cm^3
# Si number density = 23.152228 Si / 1000 Ang^3
#
#
#
# Elastic Constant Matrix: (Units=GPa)
#
#
# Indices 1 2 3 4 5 6 
#
# 1 88.1150 46.2896 6.7000 0.0000 0.0000 0.0000
# 2 46.2896 153.9482 46.2516 0.0000 0.0000 0.0000
# 3 6.7000 46.2516 123.0636 0.0000 0.0000 0.0000
# 4 0.0000 0.0000 0.0000 47.2382 0.0000 0.0000
# 5 0.0000 0.0000 0.0000 0.0000 33.0407 0.0000
# 6 0.0000 0.0000 0.0000 0.0000 0.0000 33.4628
#
#
#
# Elastic Compliance Matrix: (Units=1/GPa)
#
#
# Indices 1 2 3 4 5 6 
#
# 1 0.013565 -0.004348 0.000896 0.000000 0.000000 0.000000
# 2 -0.004348 0.008716 -0.003039 0.000000 0.000000 0.000000
# 3 0.000896 -0.003039 0.009219 0.000000 0.000000 0.000000
# 4 0.000000 0.000000 0.000000 0.021169 0.000000 0.000000
# 5 0.000000 0.000000 0.000000 0.000000 0.030266 0.000000
# 6 0.000000 0.000000 0.000000 0.000000 0.000000 0.029884
#
#
# Mechanical properties :
#
#
# Convention : Reuss Voigt Hill
#
# Bulk Modulus (GPa) = 54.00302 62.62324 58.31313
# Shear Modulus (GPa) = 37.88623 40.47404 39.18013
#
# Velocity S-wave (km/s) = 4.04963 4.18565 4.11820
# Velocity P-wave (km/s) = 6.72620 7.10399 6.91768
#
# Compressibility (1/GPa) = 0.01851748
#
# Stress axis : x y z
#
# Youngs Moduli (GPa) = 73.72065 114.73110 108.46793
#
# Poissons Ratio (x) = 0.49882 -0.09714
# Poissons Ratio (y) = 0.32052 0.32964
# Poissons Ratio (z) = -0.06602 0.34868
#
# Static dielectric constant tensor:
#      x y z
#    x 1.881360 0.000000 0.000000 
#    y 0.000000 1.846320 0.000000 
#    z 0.000000 0.000000 1.884740 
# 
# From -- ./inp_files/17160.got.cif
#   From: 2010.05.17/outbox.cif.g08.bks.cpg/sg55_9_cif.got.tgz:17160.got - 2010.06.03 13:27:54.
