data_PCOD9429841
_publ_section_title
;
Structure prediction by ZEFSAII (Michael W. Deem and Ramdas Pophale) SiO2 
 PCOD9429841
Probable space group: P C C N
;
_chemical_formula_sum "Si O2"
_cell_formula_units_Z 36
_cell_length_a 14.339760
_cell_length_b 6.672692
_cell_length_c 17.860027
_cell_angle_alpha 90.000000
_cell_angle_beta 90.000000
_cell_angle_gamma 90.000000
_cell_volume 1708.933144
_symmetry_space_group_name_H-M "P C C N"
_symmetry_group_IT_number 56
_symmetry_cell_setting 'orthorhombic'
loop_
_space_group_symop_operation_xyz
x,y,z
1/2-x,1/2-y,z
1/2+x,-y,1/2-z
-x,1/2+y,1/2-z
-x,-y,-z
1/2+x,1/2+y,-z
1/2-x,y,1/2+z
x,1/2-y,1/2+z
loop_
_atom_site_type_symbol
_atom_site_label
_atom_site_fract_x
_atom_site_fract_y
_atom_site_fract_z
Si Si1 0.869333 0.055149 0.717968
Si Si2 0.418032 0.135947 0.084746
Si Si3 0.750000 0.750000 0.814466
Si Si4 0.455535 0.932977 0.317432
Si Si5 0.425238 0.322761 0.413943
O O1 0.799794 0.921713 0.765932
O O2 0.863486 0.979642 0.632701
O O3 0.972083 0.999023 0.752725
O O4 0.873244 0.295717 0.716398
O O5 0.326205 0.142315 0.133985
O O6 0.487687 0.293695 0.124363
O O7 0.471318 0.922929 0.083402
O O8 0.397530 0.201424 0.999769
O O9 0.423569 0.124734 0.363781
#
# Coordination Sequence:
#
# PCOD9429841 Si02
#       5
#     8   8   4   8   8
#     4  10  20  34  60  90 123 159 211 264 321 383
#     4   9  21  37  60  88 122 165 206 265 318 383
#     4  10  22  40  58  94 134 160 204 280 336 370
#     4  10  18  35  61  88 117 162 214 258 306 395
#     4  10  19  37  63  86 119 164 220 251 312 394
#
# _framework density 21.065773
#
# number of rings (size 3 to 8) (size 9 to 14) (size 15 to 20)
#    0.000    2.222    2.222    0.667    0.000    0.889 
#    0.000   10.000    0.000    2.667    0.000    0.000 
#    0.000    0.000    0.000    0.000    0.000    0.000 
#
# Total GULP energy -201073.506605 kJ/mol
# GULP energy per Si atom -5585.375183 kJ/mol
# Density = 2.101783 g / cm^3
# Si number density = 21.065773 Si / 1000 Ang^3
#
#
#
# Elastic Constant Matrix: (Units=GPa)
#
#
# Indices 1 2 3 4 5 6 
#
# 1 56.9935 22.8046 20.7071 0.0000 0.0000 0.0000
# 2 22.8046 110.4116 24.3994 0.0000 0.0000 0.0000
# 3 20.7071 24.3994 126.0492 0.0000 0.0000 0.0000
# 4 0.0000 0.0000 0.0000 32.0737 0.0000 0.0000
# 5 0.0000 0.0000 0.0000 0.0000 26.1721 0.0000
# 6 0.0000 0.0000 0.0000 0.0000 0.0000 19.4131
#
#
#
# Elastic Compliance Matrix: (Units=1/GPa)
#
#
# Indices 1 2 3 4 5 6 
#
# 1 0.019901 -0.003539 -0.002584 0.000000 0.000000 0.000000
# 2 -0.003539 0.010091 -0.001372 0.000000 0.000000 0.000000
# 3 -0.002584 -0.001372 0.008623 0.000000 0.000000 0.000000
# 4 0.000000 0.000000 0.000000 0.031178 0.000000 0.000000
# 5 0.000000 0.000000 0.000000 0.000000 0.038209 0.000000
# 6 0.000000 0.000000 0.000000 0.000000 0.000000 0.051512
#
#
# Mechanical properties :
#
#
# Convention : Reuss Voigt Hill
#
# Bulk Modulus (GPa) = 42.32837 47.69739 45.01288
# Shear Modulus (GPa) = 27.41530 30.56798 28.99164
#
# Velocity S-wave (km/s) = 3.61143 3.81343 3.71380
# Velocity P-wave (km/s) = 6.12592 6.48698 6.30903
#
# Compressibility (1/GPa) = 0.02362481
#
# Stress axis : x y z
#
# Youngs Moduli (GPa) = 50.24889 99.09613 115.96226
#
# Poissons Ratio (x) = 0.35073 0.29967
# Poissons Ratio (y) = 0.17785 0.15909
# Poissons Ratio (z) = 0.12985 0.13595
#
# Static dielectric constant tensor:
#      x y z
#    x 1.783160 0.000000 0.000000 
#    y 0.000000 1.781630 0.000000 
#    z 0.000000 0.000000 1.735010 
# 
# From -- ./inp_files/17356.got.cif
#   From: 2010.05.17/outbox.cif.g08.bks.cpg/sg56_9_cif.got.tgz:17356.got - 2010.06.03 13:42:01.
