data_PCOD9429317
_publ_section_title
;
Structure prediction by ZEFSAII (Michael W. Deem and Ramdas Pophale) SiO2 
 PCOD9429317
Probable space group: P B A M
;
_chemical_formula_sum "Si O2"
_cell_formula_units_Z 64
_cell_length_a 18.000000
_cell_length_b 21.000000
_cell_length_c 9.000000
_cell_angle_alpha 90.000000
_cell_angle_beta 90.000000
_cell_angle_gamma 90.000000
_cell_volume 3402.000000
_symmetry_space_group_name_H-M "P B A M"
_symmetry_group_IT_number 55
_symmetry_cell_setting 'orthorhombic'
loop_
_space_group_symop_operation_xyz
x,y,z
-x,-y,z
1/2+x,1/2-y,-z
1/2-x,1/2+y,-z
-x,-y,-z
x,y,-z
1/2-x,1/2+y,z
1/2+x,1/2-y,z
loop_
_atom_site_type_symbol
_atom_site_label
_atom_site_fract_x
_atom_site_fract_y
_atom_site_fract_z
Si Si1 0.335087 0.438223 0.675196
Si Si2 0.153442 0.061296 0.175297
Si Si3 0.413499 0.817736 0.323158
Si Si4 0.925432 0.317490 0.823639
Si Si5 0.908998 0.821082 0.331387
Si Si6 0.824920 0.431478 0.179851
Si Si7 0.824098 0.570390 0.176875
Si Si8 0.413643 0.305866 0.333194
O O1 0.317888 0.444146 0.500000
O O2 0.376066 0.501087 0.733338
O O3 0.261052 0.432507 0.772625
O O4 0.380715 0.374377 0.698744
O O5 0.111400 0.124906 0.217037
O O6 0.239026 0.071797 0.224696
O O7 0.151889 0.048168 0.000000
O O8 0.422054 0.820451 0.500000
O O9 0.493758 0.822704 0.248232
O O10 0.378919 0.748447 0.289014
O O11 0.363572 0.873646 0.262385
O O12 0.873532 0.373634 0.764567
O O13 0.892490 0.249237 0.779740
O O14 0.932592 0.322696 0.000000
O O15 0.885250 0.837694 0.500000
O O16 0.997590 0.812451 0.333459
O O17 0.856083 0.500921 0.218382
O O18 0.824351 0.428325 0.000000
O O19 0.829907 0.578701 0.000000
O O20 0.390534 0.286670 0.500000
#
# Coordination Sequence:
#
# PCOD9429317 Si02
#       8
#     8   8   8   8   8   8   8   8
#     4  10  20  36  56  77 105 141 177 215 265 319
#     4  10  20  35  54  78 107 136 173 219 262 310
#     4  10  21  37  54  77 109 140 174 216 263 316
#     4  10  19  34  56  78 102 136 177 218 262 312
#     4   9  19  36  54  73 102 139 174 211 258 313
#     4   8  18  35  52  74 105 137 168 210 263 312
#     4  10  20  36  56  78 106 139 177 220 263 310
#     4   9  20  37  54  75 106 140 174 215 263 316
#
# _framework density 18.812463000000001
#
# number of rings (size 3 to 8) (size 9 to 14) (size 15 to 20)
#    0.000    2.500    0.000    3.375    0.000    5.500 
#    0.000   15.000    0.000    0.000    0.000    0.000 
#    0.000    0.000    0.000    0.000    0.000    0.000 
#
# Total GULP energy -356646.216054 kJ/mol
# GULP energy per Si atom -5572.597126 kJ/mol
# Density = 1.876965 g / cm^3
# Si number density = 18.812463 Si / 1000 Ang^3
#
#
#
# Elastic Constant Matrix: (Units=GPa)
#
#
# Indices 1 2 3 4 5 6 
#
# 1 6.8285 27.1052 8.6018 0.0000 0.0000 0.0000
# 2 27.1052 87.5338 45.0132 0.0000 0.0000 0.0000
# 3 8.6018 45.0132 36.0300 0.0000 0.0000 0.0000
# 4 0.0000 0.0000 0.0000 35.5249 0.0000 0.0000
# 5 0.0000 0.0000 0.0000 0.0000 27.1189 0.0000
# 6 0.0000 0.0000 0.0000 0.0000 0.0000 20.8339
#
#
#
# Elastic Compliance Matrix: (Units=1/GPa)
#
#
# Indices 1 2 3 4 5 6 
#
# 1 -0.264856 0.138437 -0.109722 0.000000 0.000000 0.000000
# 2 0.138437 -0.040408 0.017432 0.000000 0.000000 0.000000
# 3 -0.109722 0.017432 0.032171 0.000000 0.000000 0.000000
# 4 0.000000 0.000000 0.000000 0.028149 0.000000 0.000000
# 5 0.000000 0.000000 0.000000 0.000000 0.036875 0.000000
# 6 0.000000 0.000000 0.000000 0.000000 0.000000 0.047999
#
#
# Mechanical properties :
#
#
# Convention : Reuss Voigt Hill
#
# Bulk Modulus (GPa) = -5.53105 32.42586 13.44741
# Shear Modulus (GPa) = -15.99326 20.00701 2.00687
#
# Velocity S-wave (km/s) = -2.91888 3.26467 1.03397
# Velocity P-wave (km/s) = 3.78237 5.61111 2.93072
#
# Compressibility (1/GPa) = -0.18079765
#
# Stress axis : x y z
#
# Youngs Moduli (GPa) = -3.77564 -24.74766 31.08401
#
# Poissons Ratio (x) = 3.42599 3.41059
# Poissons Ratio (y) = 0.52269 -0.54187
# Poissons Ratio (z) = -0.41427 0.43141
#
# Static dielectric constant tensor:
#      x y z
#    x 1.637450 0.000000 0.000000 
#    y 0.000000 1.708820 0.000000 
#    z 0.000000 0.000000 1.631360 
# 
# From -- ./inp_files/7982.got.cif
#   From: 2010.05.17/outbox.ucp.g08.bks.cvg/sg55_4_cif.got.tgz:7982.got - 2010.06.11 16:36:00.
