data_PCOD9429136
_publ_section_title
;
Structure prediction by ZEFSAII (Michael W. Deem and Ramdas Pophale) SiO2 
 PCOD9429136
Probable space group: P B A M
;
_chemical_formula_sum "Si O2"
_cell_formula_units_Z 48
_cell_length_a 9.287465
_cell_length_b 9.648628
_cell_length_c 26.990736
_cell_angle_alpha 90.000000
_cell_angle_beta 90.000000
_cell_angle_gamma 90.000000
_cell_volume 2418.674802
_symmetry_space_group_name_H-M "P B A M"
_symmetry_group_IT_number 55
_symmetry_cell_setting 'orthorhombic'
loop_
_space_group_symop_operation_xyz
x,y,z
-x,-y,z
1/2+x,1/2-y,-z
1/2-x,1/2+y,-z
-x,-y,-z
x,y,-z
1/2-x,1/2+y,z
1/2+x,1/2-y,z
loop_
_atom_site_type_symbol
_atom_site_label
_atom_site_fract_x
_atom_site_fract_y
_atom_site_fract_z
Si Si1 0.855191 0.589168 0.555784
Si Si2 0.907425 0.359920 0.111794
Si Si3 0.129389 0.107333 0.605360
Si Si4 0.091055 0.640431 0.225177
Si Si5 0.898644 0.865551 0.057670
Si Si6 0.101161 0.132399 0.721958
O O1 0.791762 0.598484 0.500000
O O2 0.874364 0.746367 0.575937
O O3 0.761725 0.490802 0.591001
O O4 0.000000 0.500000 0.552098
O O5 0.889610 0.309578 0.168515
O O6 0.750748 0.380300 0.087380
O O7 0.000000 0.500000 0.112685
O O8 0.003710 0.254488 0.080606
O O9 0.129468 0.144788 0.663368
O O10 0.000000 0.000000 0.595071
O O11 0.247212 0.621750 0.249796
O O12 0.000000 0.500000 0.223442
O O13 0.993291 0.742802 0.257096
O O14 0.864789 0.838243 0.000000
O O15 0.000000 0.000000 0.060616
O O16 0.000000 0.000000 0.729787
#
# Coordination Sequence:
#
# PCOD9429136 Si02
#       6
#     8   8   8   8   8   8
#     4  11  25  44  69  98 136 179 223 280 339 405
#     4  11  24  42  65  95 129 175 221 274 336 397
#     4  11  26  42  68 101 133 176 226 279 340 412
#     4  11  25  43  67  94 134 173 222 280 331 403
#     4  11  24  41  65  96 132 172 220 276 333 402
#     4  11  26  42  66 100 129 175 221 275 341 399
#
# _framework density 19.845576999999999
#
# number of rings (size 3 to 8) (size 9 to 14) (size 15 to 20)
#    0.000    1.000    0.000    5.000    9.333   10.667 
#    0.000    0.000    0.000    0.000    0.000    0.000 
#    0.000    0.000    0.000    0.000    0.000    0.000 
#
# Total GULP energy -268237.503964 kJ/mol
# GULP energy per Si atom -5588.281333 kJ/mol
# Density = 1.980041 g / cm^3
# Si number density = 19.845577 Si / 1000 Ang^3
#
#
#
# Elastic Constant Matrix: (Units=GPa)
#
#
# Indices 1 2 3 4 5 6 
#
# 1 143.7481 29.0595 76.1377 0.0000 0.0000 0.0000
# 2 29.0595 112.7789 81.6749 0.0000 0.0000 0.0000
# 3 76.1377 81.6749 144.8893 0.0000 0.0000 0.0000
# 4 0.0000 0.0000 0.0000 37.1110 0.0000 0.0000
# 5 0.0000 0.0000 0.0000 0.0000 36.8054 0.0000
# 6 0.0000 0.0000 0.0000 0.0000 0.0000 15.9523
#
#
#
# Elastic Compliance Matrix: (Units=1/GPa)
#
#
# Indices 1 2 3 4 5 6 
#
# 1 0.009915 0.002059 -0.006371 0.000000 0.000000 0.000000
# 2 0.002059 0.015412 -0.009770 0.000000 0.000000 0.000000
# 3 -0.006371 -0.009770 0.015757 0.000000 0.000000 0.000000
# 4 0.000000 0.000000 0.000000 0.026946 0.000000 0.000000
# 5 0.000000 0.000000 0.000000 0.000000 0.027170 0.000000
# 6 0.000000 0.000000 0.000000 0.000000 0.000000 0.062687
#
#
# Mechanical properties :
#
#
# Convention : Reuss Voigt Hill
#
# Bulk Modulus (GPa) = 77.39706 86.12897 81.76302
# Shear Modulus (GPa) = 26.26666 32.27668 29.27167
#
# Velocity S-wave (km/s) = 3.64201 4.03723 3.84470
# Velocity P-wave (km/s) = 7.53459 8.07627 7.81012
#
# Compressibility (1/GPa) = 0.01292039
#
# Stress axis : x y z
#
# Youngs Moduli (GPa) = 100.86023 64.88659 63.46493
#
# Poissons Ratio (x) = -0.13360 0.40432
# Poissons Ratio (y) = -0.20767 0.62002
# Poissons Ratio (z) = 0.64256 0.63391
#
# Static dielectric constant tensor:
#      x y z
#    x 2.158860 0.000000 0.000000 
#    y 0.000000 2.036220 0.000000 
#    z 0.000000 0.000000 1.698960 
# 
# From -- ./inp_files/24140.got.cif
#   From: 2010.05.17/outbox.cif.g08.bks.cpg/sg55_13_cif.got.tgz:24140.got - 2010.06.03 13:27:54.
