data_PCOD9429096
_publ_section_title
;
Structure prediction by ZEFSAII (Michael W. Deem and Ramdas Pophale) SiO2 
 PCOD9429096
Probable space group: P B A M
;
_chemical_formula_sum "Si O2"
_cell_formula_units_Z 56
_cell_length_a 13.829351
_cell_length_b 8.789400
_cell_length_c 21.648922
_cell_angle_alpha 90.000000
_cell_angle_beta 90.000000
_cell_angle_gamma 90.000000
_cell_volume 2631.463222
_symmetry_space_group_name_H-M "P B A M"
_symmetry_group_IT_number 55
_symmetry_cell_setting 'orthorhombic'
loop_
_space_group_symop_operation_xyz
x,y,z
-x,-y,z
1/2+x,1/2-y,-z
1/2-x,1/2+y,-z
-x,-y,-z
x,y,-z
1/2-x,1/2+y,z
1/2+x,1/2-y,z
loop_
_atom_site_type_symbol
_atom_site_label
_atom_site_fract_x
_atom_site_fract_y
_atom_site_fract_z
Si Si1 0.113570 0.527156 0.426850
Si Si2 0.369615 0.361239 0.255284
Si Si3 0.809497 0.312602 0.131243
Si Si4 0.911180 0.807091 0.731598
Si Si5 0.877034 0.653035 0.147515
Si Si6 0.260427 0.769920 0.366873
Si Si7 0.975894 0.172617 0.929134
O O1 0.107568 0.554750 0.500000
O O2 0.177362 0.663167 0.396308
O O3 0.182503 0.381832 0.412844
O O4 0.000000 0.500000 0.405471
O O5 0.337038 0.257884 0.198368
O O6 0.383708 0.535173 0.234483
O O7 0.474520 0.308134 0.279127
O O8 0.294219 0.354855 0.310924
O O9 0.838344 0.488056 0.130476
O O10 0.697297 0.280133 0.124106
O O11 0.864306 0.212212 0.080436
O O12 0.887580 0.671036 0.778604
O O13 0.848917 0.809604 0.669627
O O14 0.975447 0.702954 0.115404
O O15 0.006116 0.192257 0.000000
O O16 0.000000 0.000000 0.910373
#
# Coordination Sequence:
#
# PCOD9429096 Si02
#       7
#     8   8   8   8   8   8   8
#     4  11  26  48  73 103 141 189 241 294 353 427
#     4  11  23  39  63  96 138 175 221 281 349 419
#     4  12  25  41  65  97 134 179 224 281 347 412
#     4  11  23  39  63  96 138 175 221 281 349 419
#     4  12  25  41  65  97 134 179 224 281 347 412
#     4  12  23  44  68 102 139 182 232 292 352 420
#     4  11  25  47  71  95 131 177 228 285 348 419
#
# _framework density 21.280936000000001
#
# number of rings (size 3 to 8) (size 9 to 14) (size 15 to 20)
#    0.000    0.571    4.286    4.286    2.000    1.714 
#    0.000    0.000    0.000    3.429    0.000    0.000 
#    0.000    0.000    0.000    0.000    0.000    0.000 
#
# Total GULP energy -312755.970266 kJ/mol
# GULP energy per Si atom -5584.928040 kJ/mol
# Density = 2.123250 g / cm^3
# Si number density = 21.280936 Si / 1000 Ang^3
#
#
#
# Elastic Constant Matrix: (Units=GPa)
#
#
# Indices 1 2 3 4 5 6 
#
# 1 101.2188 4.8559 4.9521 0.0000 0.0000 0.0000
# 2 4.8559 65.0286 10.6430 0.0000 0.0000 0.0000
# 3 4.9521 10.6430 60.2932 0.0000 0.0000 0.0000
# 4 0.0000 0.0000 0.0000 16.4037 0.0000 0.0000
# 5 0.0000 0.0000 0.0000 0.0000 25.0652 0.0000
# 6 0.0000 0.0000 0.0000 0.0000 0.0000 29.8041
#
#
#
# Elastic Compliance Matrix: (Units=1/GPa)
#
#
# Indices 1 2 3 4 5 6 
#
# 1 0.009944 -0.000627 -0.000706 0.000000 0.000000 0.000000
# 2 -0.000627 0.015875 -0.002751 0.000000 0.000000 0.000000
# 3 -0.000706 -0.002751 0.017129 0.000000 0.000000 0.000000
# 4 0.000000 0.000000 0.000000 0.060962 0.000000 0.000000
# 5 0.000000 0.000000 0.000000 0.000000 0.039896 0.000000
# 6 0.000000 0.000000 0.000000 0.000000 0.000000 0.033552
#
#
# Mechanical properties :
#
#
# Convention : Reuss Voigt Hill
#
# Bulk Modulus (GPa) = 28.75165 29.71584 29.23374
# Shear Modulus (GPa) = 25.36531 27.99391 26.67961
#
# Velocity S-wave (km/s) = 3.45617 3.63084 3.54458
# Velocity P-wave (km/s) = 5.42832 5.61883 5.52440
#
# Compressibility (1/GPa) = 0.03478062
#
# Stress axis : x y z
#
# Youngs Moduli (GPa) = 100.56101 62.99265 58.37993
#
# Poissons Ratio (x) = 0.03950 0.04122
# Poissons Ratio (y) = 0.06305 0.16059
# Poissons Ratio (z) = 0.07100 0.17328
#
# Static dielectric constant tensor:
#      x y z
#    x 1.778400 0.000000 0.000000 
#    y 0.000000 1.781310 0.000000 
#    z 0.000000 0.000000 1.754140 
# 
# From -- ./inp_files/22982.got.cif
#   From: 2010.05.17/outbox.cif.g08.bks.cpg/sg55_12_cif.got.tgz:22982.got - 2010.06.03 13:27:54.
