data_PCOD9429203
_publ_section_title
;
Structure prediction by ZEFSAII (Michael W. Deem and Ramdas Pophale) SiO2 
 PCOD9429203
Probable space group: P B A M
;
_chemical_formula_sum "Si O2"
_cell_formula_units_Z 34
_cell_length_a 7.041038
_cell_length_b 24.341763
_cell_length_c 7.149490
_cell_angle_alpha 90.000000
_cell_angle_beta 90.000000
_cell_angle_gamma 90.000000
_cell_volume 1225.360230
_symmetry_space_group_name_H-M "P B A M"
_symmetry_group_IT_number 55
_symmetry_cell_setting 'orthorhombic'
loop_
_space_group_symop_operation_xyz
x,y,z
-x,-y,z
1/2+x,1/2-y,-z
1/2-x,1/2+y,-z
-x,-y,-z
x,y,-z
1/2-x,1/2+y,z
1/2+x,1/2-y,z
loop_
_atom_site_type_symbol
_atom_site_label
_atom_site_fract_x
_atom_site_fract_y
_atom_site_fract_z
Si Si1 0.000000 0.500000 0.000000
Si Si2 0.622080 0.205872 0.714938
Si Si3 0.516940 0.089734 0.724341
Si Si4 0.435135 0.675325 0.714627
Si Si5 0.044261 0.938856 0.727039
O O1 0.916622 0.457850 0.163076
O O2 0.559563 0.214297 0.500000
O O3 0.497768 0.154012 0.782280
O O4 0.630556 0.266745 0.798825
O O5 0.836823 0.184601 0.711482
O O6 0.491817 0.086020 0.500000
O O7 0.736748 0.074287 0.773798
O O8 0.364965 0.673090 0.500000
O O9 0.419974 0.613628 0.790147
O O10 0.030869 0.938532 0.500000
O O11 0.000000 0.000000 0.791446
#
# Coordination Sequence:
#
# PCOD9429203 Si02
#       5
#     2   8   8   8   8
#     4  12  22  36  54  74 104 148 180 210 270 328
#     4   8  14  27  46  72 103 135 174 218 265 318
#     4   9  19  35  54  77 108 142 178 222 268 318
#     4   8  13  23  43  72 104 137 173 216 266 317
#     4   8  14  28  50  78 109 140 179 221 265 320
#
# _framework density 27.746942000000001
#
# number of rings (size 3 to 8) (size 9 to 14) (size 15 to 20)
#    0.000    3.529    0.000    3.176    0.000    0.000 
#    4.235    0.588    0.000    5.647    0.000    0.000 
#    0.000    0.000    0.000    0.000    0.000    0.000 
#
# Total GULP energy -189468.064290 kJ/mol
# GULP energy per Si atom -5572.590126 kJ/mol
# Density = 2.768379 g / cm^3
# Si number density = 27.746942 Si / 1000 Ang^3
#
#
#
# Elastic Constant Matrix: (Units=GPa)
#
#
# Indices 1 2 3 4 5 6 
#
# 1 68.0080 50.8405 -6.6216 0.0000 0.0000 0.0000
# 2 50.8405 342.3672 44.1428 0.0000 0.0000 0.0000
# 3 -6.6216 44.1428 157.2588 0.0000 0.0000 0.0000
# 4 0.0000 0.0000 0.0000 -261.4094 0.0000 0.0000
# 5 0.0000 0.0000 0.0000 0.0000 13.9187 0.0000
# 6 0.0000 0.0000 0.0000 0.0000 0.0000 58.7821
#
#
#
# Elastic Compliance Matrix: (Units=1/GPa)
#
#
# Indices 1 2 3 4 5 6 
#
# 1 0.016860 -0.002693 0.001466 0.000000 0.000000 0.000000
# 2 -0.002693 0.003461 -0.001085 0.000000 0.000000 0.000000
# 3 0.001466 -0.001085 0.006725 0.000000 0.000000 0.000000
# 4 0.000000 0.000000 0.000000 -0.003825 0.000000 0.000000
# 5 0.000000 0.000000 0.000000 0.000000 0.071846 0.000000
# 6 0.000000 0.000000 0.000000 0.000000 0.000000 0.017012
#
#
# Mechanical properties :
#
#
# Convention : Reuss Voigt Hill
#
# Bulk Modulus (GPa) = 44.59868 82.70637 63.65253
# Shear Modulus (GPa) = 40.26575 -5.79023 17.23776
#
# Velocity S-wave (km/s) = 3.81357 -1.44614 2.49519
# Velocity P-wave (km/s) = 5.95813 5.20420 5.59388
#
# Compressibility (1/GPa) = 0.02242219
#
# Stress axis : x y z
#
# Youngs Moduli (GPa) = 59.31280 288.97171 148.69550
#
# Poissons Ratio (x) = 0.77809 -0.21795
# Poissons Ratio (y) = 0.15971 0.16130
# Poissons Ratio (z) = -0.08694 0.31346
#
# Static dielectric constant tensor:
#      x y z
#    x 2.281400 0.000000 0.000000 
#    y 0.000000 2.255010 0.000000 
#    z 0.000000 0.000000 2.076440 
# 
# From -- ./inp_files/2479.got.cif
#   From: 2010.05.17/outbox.cif.g08.bks.cpg/sg55_2_cif.got.tgz:2479.got - 2010.06.03 13:27:54.
