data_PCOD9429766
_publ_section_title
;
Structure prediction by ZEFSAII (Michael W. Deem and Ramdas Pophale) SiO2 
 PCOD9429766
Probable space group: P C C N
;
_chemical_formula_sum "Si O2"
_cell_formula_units_Z 48
_cell_length_a 21.453619
_cell_length_b 22.165966
_cell_length_c 5.247584
_cell_angle_alpha 90.000000
_cell_angle_beta 90.000000
_cell_angle_gamma 90.000000
_cell_volume 2495.437089
_symmetry_space_group_name_H-M "P C C N"
_symmetry_group_IT_number 56
_symmetry_cell_setting 'orthorhombic'
loop_
_space_group_symop_operation_xyz
x,y,z
1/2-x,1/2-y,z
1/2+x,-y,1/2-z
-x,1/2+y,1/2-z
-x,-y,-z
1/2+x,1/2+y,-z
1/2-x,y,1/2+z
x,1/2-y,1/2+z
loop_
_atom_site_type_symbol
_atom_site_label
_atom_site_fract_x
_atom_site_fract_y
_atom_site_fract_z
Si Si1 0.313745 0.419236 0.844868
Si Si2 0.610030 0.291378 0.699524
Si Si3 0.292593 0.601567 0.241977
Si Si4 0.325390 0.030761 0.844659
Si Si5 0.164518 0.209861 0.724312
Si Si6 0.024307 0.212248 0.800115
O O1 0.248600 0.454682 0.879879
O O2 0.351397 0.450916 0.618149
O O3 0.297669 0.351127 0.766570
O O4 0.346965 0.426205 0.116020
O O5 0.615169 0.257709 0.427866
O O6 0.662389 0.341525 0.730362
O O7 0.540569 0.319598 0.732895
O O8 0.242582 0.602529 0.471870
O O9 0.330019 0.538834 0.272371
O O10 0.174245 0.243397 0.456665
O O11 0.092648 0.186790 0.744524
O O12 0.022767 0.268053 0.596203
#
# Coordination Sequence:
#
# PCOD9429766 Si02
#       6
#     8   8   8   8   8   8
#     4  10  18  33  53  69  99 132 174 202 243 300
#     4  10  21  35  52  79 106 133 159 205 261 296
#     4  12  21  35  55  74 101 136 175 205 238 304
#     4  10  19  35  48  70  94 141 176 198 245 289
#     4  10  19  32  52  80 101 128 166 207 253 299
#     4   8  16  32  51  70 102 133 161 194 247 310
#
# _framework density 19.235105999999998
#
# number of rings (size 3 to 8) (size 9 to 14) (size 15 to 20)
#    0.000    2.000    3.333    2.000    0.000    2.000 
#    0.000   10.000    0.000    2.000    0.000    0.000 
#    0.000    0.000    0.000    0.000    0.000    0.000 
#
# Total GULP energy -267482.923047 kJ/mol
# GULP energy per Si atom -5572.560897 kJ/mol
# Density = 1.919133 g / cm^3
# Si number density = 19.235106 Si / 1000 Ang^3
#
#
#
# Elastic Constant Matrix: (Units=GPa)
#
#
# Indices 1 2 3 4 5 6 
#
# 1 32.5707 16.0855 -6.4674 0.0000 0.0000 0.0000
# 2 16.0855 54.4688 -14.1845 0.0000 0.0000 0.0000
# 3 -6.4674 -14.1845 88.0497 0.0000 0.0000 0.0000
# 4 0.0000 0.0000 0.0000 25.8264 0.0000 0.0000
# 5 0.0000 0.0000 0.0000 0.0000 11.2163 0.0000
# 6 0.0000 0.0000 0.0000 0.0000 0.0000 -0.9626
#
#
#
# Elastic Compliance Matrix: (Units=1/GPa)
#
#
# Indices 1 2 3 4 5 6 
#
# 1 0.036024 -0.010385 0.000973 0.000000 0.000000 0.000000
# 2 -0.010385 0.022157 0.002807 0.000000 0.000000 0.000000
# 3 0.000973 0.002807 0.011881 0.000000 0.000000 0.000000
# 4 0.000000 0.000000 0.000000 0.038720 0.000000 0.000000
# 5 0.000000 0.000000 0.000000 0.000000 0.089156 0.000000
# 6 0.000000 0.000000 0.000000 0.000000 0.000000 -1.038870
#
#
# Mechanical properties :
#
#
# Convention : Reuss Voigt Hill
#
# Bulk Modulus (GPa) = 17.58981 18.43961 18.01471
# Shear Modulus (GPa) = -6.18222 19.19307 6.50543
#
# Velocity S-wave (km/s) = -1.79472 3.16225 1.84103
# Velocity P-wave (km/s) = 2.20677 4.78961 3.72895
#
# Compressibility (1/GPa) = 0.05685109
#
# Stress axis : x y z
#
# Youngs Moduli (GPa) = 27.75889 45.13267 84.16922
#
# Poissons Ratio (x) = 0.46871 -0.08190
# Poissons Ratio (y) = 0.28828 -0.23623
# Poissons Ratio (z) = -0.02701 -0.12667
#
# Static dielectric constant tensor:
#      x y z
#    x 1.756080 0.000000 0.000000 
#    y 0.000000 1.640430 0.000000 
#    z 0.000000 0.000000 1.770330 
# 
# From -- ./inp_files/713.got.cif
#   From: 2010.05.17/outbox.cif.g08.bks.cpg/sg56_1_cif.got.tgz:713.got - 2010.06.03 13:42:01.
