data_PCOD9429029
_publ_section_title
;
Structure prediction by ZEFSAII (Michael W. Deem and Ramdas Pophale) SiO2 
 PCOD9429029
Probable space group: P B A M
;
_chemical_formula_sum "Si O2"
_cell_formula_units_Z 48
_cell_length_a 28.027605
_cell_length_b 9.110350
_cell_length_c 7.608592
_cell_angle_alpha 90.000000
_cell_angle_beta 90.000000
_cell_angle_gamma 90.000000
_cell_volume 1942.787706
_symmetry_space_group_name_H-M "P B A M"
_symmetry_group_IT_number 55
_symmetry_cell_setting 'orthorhombic'
loop_
_space_group_symop_operation_xyz
x,y,z
-x,-y,z
1/2+x,1/2-y,-z
1/2-x,1/2+y,-z
-x,-y,-z
x,y,-z
1/2-x,1/2+y,z
1/2+x,1/2-y,z
loop_
_atom_site_type_symbol
_atom_site_label
_atom_site_fract_x
_atom_site_fract_y
_atom_site_fract_z
Si Si1 0.186205 0.279346 0.284422
Si Si2 0.020354 0.228206 0.284992
Si Si3 0.845214 0.269690 0.197369
Si Si4 0.573360 0.567188 0.288733
Si Si5 0.906377 0.549839 0.287483
Si Si6 0.256775 0.056379 0.300037
O O1 0.187766 0.277000 0.500000
O O2 0.132803 0.325295 0.242473
O O3 0.210260 0.130733 0.220078
O O4 0.219270 0.413518 0.219375
O O5 0.019906 0.231226 0.500000
O O6 0.043601 0.381488 0.229164
O O7 0.967351 0.183158 0.228903
O O8 0.054387 0.091835 0.231759
O O9 0.874437 0.123296 0.240079
O O10 0.884384 0.399986 0.216816
O O11 0.799271 0.322158 0.305357
O O12 0.827694 0.263537 0.000000
O O13 0.572064 0.564992 0.500000
O O14 0.907611 0.531512 0.500000
O O15 0.244651 0.016307 0.500000
#
# Coordination Sequence:
#
# PCOD9429029 Si02
#       6
#     8   8   8   8   8   8
#     4   8  15  27  48  73  94 117 154 198 243 287
#     4   8  16  31  55  80  99 122 161 206 252 299
#     4  11  22  34  47  70 102 138 172 202 238 289
#     4   9  17  33  54  77 101 127 160 205 252 297
#     4   9  17  33  54  76  99 127 162 205 248 291
#     4   9  17  32  51  72  96 125 160 204 248 289
#
# _framework density 24.706765000000001
#
# number of rings (size 3 to 8) (size 9 to 14) (size 15 to 20)
#    0.000    3.000    0.000    3.500    0.000    2.000 
#    0.000   15.000    0.000    0.000    0.000    0.000 
#    0.000    0.000    0.000    0.000    0.000    0.000 
#
# Total GULP energy -268015.809332 kJ/mol
# GULP energy per Si atom -5583.662694 kJ/mol
# Density = 2.465053 g / cm^3
# Si number density = 24.706765 Si / 1000 Ang^3
#
#
#
# Elastic Constant Matrix: (Units=GPa)
#
#
# Indices 1 2 3 4 5 6 
#
# 1 62.0010 66.6340 -5.1504 0.0000 0.0000 0.0000
# 2 66.6340 24.0284 -2.6650 0.0000 0.0000 0.0000
# 3 -5.1504 -2.6650 56.7833 0.0000 0.0000 0.0000
# 4 0.0000 0.0000 0.0000 11.7614 0.0000 0.0000
# 5 0.0000 0.0000 0.0000 0.0000 -13.6409 0.0000
# 6 0.0000 0.0000 0.0000 0.0000 0.0000 60.8704
#
#
#
# Elastic Compliance Matrix: (Units=1/GPa)
#
#
# Indices 1 2 3 4 5 6 
#
# 1 -0.008139 0.022605 0.000323 0.000000 0.000000 0.000000
# 2 0.022605 -0.020951 0.001067 0.000000 0.000000 0.000000
# 3 0.000323 0.001067 0.017690 0.000000 0.000000 0.000000
# 4 0.000000 0.000000 0.000000 0.085024 0.000000 0.000000
# 5 0.000000 0.000000 0.000000 0.000000 -0.073309 0.000000
# 6 0.000000 0.000000 0.000000 0.000000 0.000000 0.016428
#
#
# Mechanical properties :
#
#
# Convention : Reuss Voigt Hill
#
# Bulk Modulus (GPa) = 27.32962 28.93888 28.13425
# Shear Modulus (GPa) = -262.48779 17.39778 -122.54500
#
# Velocity S-wave (km/s) = -10.31852 2.65650 -7.05035
# Velocity P-wave (km/s) = 11.44015 4.59866 7.40707
#
# Compressibility (1/GPa) = 0.03659034
#
# Stress axis : x y z
#
# Youngs Moduli (GPa) = -122.87236 -47.73081 56.52856
#
# Poissons Ratio (x) = 1.07895 -0.01824
# Poissons Ratio (y) = 2.77753 -0.06032
# Poissons Ratio (z) = 0.03965 0.05093
#
# Static dielectric constant tensor:
#      x y z
#    x 1.940580 0.000000 0.000000 
#    y 0.000000 1.970060 0.000000 
#    z 0.000000 0.000000 1.961030 
# 
# From -- ./inp_files/2849.got.cif
#   From: 2010.05.17/outbox.cif.g08.bks.cpg/sg55_2_cif.got.tgz:2849.got - 2010.06.03 13:27:54.
