data_PCOD9429064
_publ_section_title
;
Structure prediction by ZEFSAII (Michael W. Deem and Ramdas Pophale) SiO2 
 PCOD9429064
Probable space group: P B A M
;
_chemical_formula_sum "Si O2"
_cell_formula_units_Z 48
_cell_length_a 13.495296
_cell_length_b 8.425178
_cell_length_c 18.765845
_cell_angle_alpha 90.000000
_cell_angle_beta 90.000000
_cell_angle_gamma 90.000000
_cell_volume 2133.681661
_symmetry_space_group_name_H-M "P B A M"
_symmetry_group_IT_number 55
_symmetry_cell_setting 'orthorhombic'
loop_
_space_group_symop_operation_xyz
x,y,z
-x,-y,z
1/2+x,1/2-y,-z
1/2-x,1/2+y,-z
-x,-y,-z
x,y,-z
1/2-x,1/2+y,z
1/2+x,1/2-y,z
loop_
_atom_site_type_symbol
_atom_site_label
_atom_site_fract_x
_atom_site_fract_y
_atom_site_fract_z
Si Si1 0.939211 0.335000 0.888505
Si Si2 0.472305 0.246100 0.500000
Si Si3 0.119191 0.665293 0.272666
Si Si4 0.090382 0.205916 0.000000
Si Si5 0.710810 0.960115 0.000000
Si Si6 0.671710 0.030162 0.500000
Si Si7 0.782793 0.634229 0.345036
Si Si8 0.467738 0.663434 0.650380
O O1 0.902996 0.298687 0.809386
O O2 0.840426 0.370898 0.933601
O O3 0.000000 0.500000 0.884831
O O4 0.015398 0.220942 0.932104
O O5 0.569766 0.132433 0.500000
O O6 0.483883 0.339079 0.572532
O O7 0.370704 0.147790 0.500000
O O8 0.170196 0.500046 0.293799
O O9 0.184879 0.802011 0.308682
O O10 0.015394 0.684437 0.312059
O O11 0.162930 0.362590 0.000000
O O12 0.170310 0.062674 0.000000
O O13 0.725368 0.067575 0.574291
O O14 0.853419 0.790076 0.351488
O O15 0.500000 0.500000 0.686970
#
# Coordination Sequence:
#
# PCOD9429064 Si02
#       8
#     8   4   8   4   4   4   8   8
#     4   9  20  39  63  92 130 176 217 256 322 394
#     4   9  17  35  63  84 115 163 212 263 333 387
#     4  12  24  40  62  91 129 170 214 272 332 392
#     4   9  19  41  68 100 128 167 215 261 317 383
#     4   9  19  37  66  94 126 169 215 265 312 379
#     4   9  18  37  61  88 117 164 216 272 326 395
#     4  11  24  40  61  91 124 169 222 272 334 391
#     4  11  22  39  61  90 123 165 215 270 328 397
#
# _framework density 22.496327000000001
#
# number of rings (size 3 to 8) (size 9 to 14) (size 15 to 20)
#    0.000    1.833    1.667    3.750    0.000    5.333 
#    0.000    5.000    0.000    2.000    0.000    0.000 
#    0.000    0.000    0.000    0.000    0.000    0.000 
#
# Total GULP energy -268034.989499 kJ/mol
# GULP energy per Si atom -5584.062281 kJ/mol
# Density = 2.244512 g / cm^3
# Si number density = 22.496327 Si / 1000 Ang^3
#
#
#
# Elastic Constant Matrix: (Units=GPa)
#
#
# Indices 1 2 3 4 5 6 
#
# 1 109.9518 36.9262 57.3785 0.0000 0.0000 0.0000
# 2 36.9262 78.1435 21.8056 0.0000 0.0000 0.0000
# 3 57.3785 21.8056 168.3245 0.0000 0.0000 0.0000
# 4 0.0000 0.0000 0.0000 13.9686 0.0000 0.0000
# 5 0.0000 0.0000 0.0000 0.0000 24.2966 0.0000
# 6 0.0000 0.0000 0.0000 0.0000 0.0000 43.5398
#
#
#
# Elastic Compliance Matrix: (Units=1/GPa)
#
#
# Indices 1 2 3 4 5 6 
#
# 1 0.012683 -0.004966 -0.003680 0.000000 0.000000 0.000000
# 2 -0.004966 0.015222 -0.000279 0.000000 0.000000 0.000000
# 3 -0.003680 -0.000279 0.007232 0.000000 0.000000 0.000000
# 4 0.000000 0.000000 0.000000 0.071589 0.000000 0.000000
# 5 0.000000 0.000000 0.000000 0.000000 0.041158 0.000000
# 6 0.000000 0.000000 0.000000 0.000000 0.000000 0.022968
#
#
# Mechanical properties :
#
#
# Convention : Reuss Voigt Hill
#
# Bulk Modulus (GPa) = 57.85204 65.40449 61.62827
# Shear Modulus (GPa) = 25.71167 32.38161 29.04664
#
# Velocity S-wave (km/s) = 3.38439 3.79808 3.59719
# Velocity P-wave (km/s) = 6.40657 6.95489 6.68635
#
# Compressibility (1/GPa) = 0.01728548
#
# Stress axis : x y z
#
# Youngs Moduli (GPa) = 78.84372 65.69575 138.28357
#
# Poissons Ratio (x) = 0.32628 0.50890
# Poissons Ratio (y) = 0.39158 0.03857
# Poissons Ratio (z) = 0.29015 0.01832
#
# Static dielectric constant tensor:
#      x y z
#    x 1.875710 0.000000 0.000000 
#    y 0.000000 1.858500 0.000000 
#    z 0.000000 0.000000 1.829060 
# 
# From -- ./inp_files/21553.got.cif
#   From: 2010.05.17/outbox.cif.g08.bks.cpg/sg55_11_cif.got.tgz:21553.got - 2010.06.03 13:27:54.
