data_PCOD9429108
_publ_section_title
;
Structure prediction by ZEFSAII (Michael W. Deem and Ramdas Pophale) SiO2 
 PCOD9429108
Probable space group: P B A M
;
_chemical_formula_sum "Si O2"
_cell_formula_units_Z 48
_cell_length_a 27.660792
_cell_length_b 10.219534
_cell_length_c 8.852453
_cell_angle_alpha 90.000000
_cell_angle_beta 90.000000
_cell_angle_gamma 90.000000
_cell_volume 2502.414993
_symmetry_space_group_name_H-M "P B A M"
_symmetry_group_IT_number 55
_symmetry_cell_setting 'orthorhombic'
loop_
_space_group_symop_operation_xyz
x,y,z
-x,-y,z
1/2+x,1/2-y,-z
1/2-x,1/2+y,-z
-x,-y,-z
x,y,-z
1/2-x,1/2+y,z
1/2+x,1/2-y,z
loop_
_atom_site_type_symbol
_atom_site_label
_atom_site_fract_x
_atom_site_fract_y
_atom_site_fract_z
Si Si1 0.857376 0.032801 0.180592
Si Si2 0.713641 0.746088 0.680511
Si Si3 0.961515 0.386916 0.180500
Si Si4 0.039788 0.889669 0.680129
Si Si5 0.360458 0.020475 0.680309
Si Si6 0.820142 0.743452 0.180385
O O1 0.817256 0.124687 0.257063
O O2 0.909441 0.073011 0.244015
O O3 0.846028 0.881266 0.213613
O O4 0.855991 0.051740 0.000000
O O5 0.719362 0.734177 0.500000
O O6 0.765610 0.750499 0.758192
O O7 0.682785 0.877156 0.712577
O O8 0.976105 0.250068 0.255214
O O9 0.909178 0.427126 0.243349
O O10 0.000000 0.500000 0.215940
O O11 0.959019 0.371739 0.000000
O O12 0.046549 0.880228 0.500000
O O13 0.000000 0.000000 0.712063
O O14 0.367012 0.016316 0.500000
O O15 0.346614 0.878708 0.742941
O O16 0.819677 0.724905 0.000000
#
# Coordination Sequence:
#
# PCOD9429108 Si02
#       6
#     8   8   8   8   8   8
#     4  11  24  42  66  94 128 170 213 265 320 378
#     4  11  23  41  65  94 127 167 215 264 320 379
#     4  11  25  44  68  97 129 167 211 262 317 378
#     4  11  25  44  67  97 129 167 212 262 318 379
#     4  11  24  42  66  95 129 170 213 263 319 378
#     4  11  25  41  62  95 130 169 216 262 316 378
#
# _framework density 19.181470000000001
#
# number of rings (size 3 to 8) (size 9 to 14) (size 15 to 20)
#    0.000    1.000    1.667    4.000    2.333   10.000 
#    0.000    0.000    0.000    0.000    0.000    0.000 
#    0.000    0.000    0.000    0.000    0.000    0.000 
#
# Total GULP energy -268659.642645 kJ/mol
# GULP energy per Si atom -5597.075888 kJ/mol
# Density = 1.913781 g / cm^3
# Si number density = 19.181470 Si / 1000 Ang^3
#
#
#
# Elastic Constant Matrix: (Units=GPa)
#
#
# Indices 1 2 3 4 5 6 
#
# 1 53.0174 28.8401 14.1497 0.0000 0.0000 0.0000
# 2 28.8401 143.2082 45.6333 0.0000 0.0000 0.0000
# 3 14.1497 45.6333 32.0267 0.0000 0.0000 0.0000
# 4 0.0000 0.0000 0.0000 30.7716 0.0000 0.0000
# 5 0.0000 0.0000 0.0000 0.0000 16.6976 0.0000
# 6 0.0000 0.0000 0.0000 0.0000 0.0000 30.0851
#
#
#
# Elastic Compliance Matrix: (Units=1/GPa)
#
#
# Indices 1 2 3 4 5 6 
#
# 1 0.021833 -0.002423 -0.006193 0.000000 0.000000 0.000000
# 2 -0.002423 0.013059 -0.017536 0.000000 0.000000 0.000000
# 3 -0.006193 -0.017536 0.058946 0.000000 0.000000 0.000000
# 4 0.000000 0.000000 0.000000 0.032497 0.000000 0.000000
# 5 0.000000 0.000000 0.000000 0.000000 0.059889 0.000000
# 6 0.000000 0.000000 0.000000 0.000000 0.000000 0.033239
#
#
# Mechanical properties :
#
#
# Convention : Reuss Voigt Hill
#
# Bulk Modulus (GPa) = 24.07715 45.05539 34.56627
# Shear Modulus (GPa) = 17.50622 24.81948 21.16285
#
# Velocity S-wave (km/s) = 3.02431 3.60103 3.32519
# Velocity P-wave (km/s) = 4.97743 6.38982 5.72733
#
# Compressibility (1/GPa) = 0.04153315
#
# Stress axis : x y z
#
# Youngs Moduli (GPa) = 45.80258 76.57679 16.96455
#
# Poissons Ratio (x) = 0.18558 0.10506
# Poissons Ratio (y) = 0.11100 0.29749
# Poissons Ratio (z) = 0.28365 1.34286
#
# Static dielectric constant tensor:
#      x y z
#    x 1.626810 0.000000 0.000000 
#    y 0.000000 1.650060 0.000000 
#    z 0.000000 0.000000 1.638960 
# 
# From -- ./inp_files/10538.got.cif
#   From: 2010.05.17/outbox.cif.g08.bks.cpg/sg55_6_cif.got.tgz:10538.got - 2010.06.03 13:27:54.
