data_PCOD9429784
_publ_section_title
;
Structure prediction by ZEFSAII (Michael W. Deem and Ramdas Pophale) SiO2 
 PCOD9429784
Probable space group: P C C N
;
_chemical_formula_sum "Si O2"
_cell_formula_units_Z 64
_cell_length_a 7.282133
_cell_length_b 23.237760
_cell_length_c 15.540531
_cell_angle_alpha 90.000000
_cell_angle_beta 90.000000
_cell_angle_gamma 90.000000
_cell_volume 2629.775788
_symmetry_space_group_name_H-M "P C C N"
_symmetry_group_IT_number 56
_symmetry_cell_setting 'orthorhombic'
loop_
_space_group_symop_operation_xyz
x,y,z
1/2-x,1/2-y,z
1/2+x,-y,1/2-z
-x,1/2+y,1/2-z
-x,-y,-z
1/2+x,1/2+y,-z
1/2-x,y,1/2+z
x,1/2-y,1/2+z
loop_
_atom_site_type_symbol
_atom_site_label
_atom_site_fract_x
_atom_site_fract_y
_atom_site_fract_z
Si Si1 0.752266 0.950898 0.496711
Si Si2 0.821133 0.428969 0.057751
Si Si3 0.148968 0.118053 0.340334
Si Si4 0.875865 0.202542 0.585209
Si Si5 0.165219 0.051649 0.183918
Si Si6 0.516075 0.684134 0.236389
Si Si7 0.589695 0.064627 0.245433
Si Si8 0.039229 0.229244 0.409501
O O1 0.740126 0.919166 0.588649
O O2 0.642609 0.927073 0.413686
O O3 0.965959 0.939219 0.470511
O O4 0.720968 0.019519 0.506838
O O5 0.792366 0.359807 0.058648
O O6 0.799659 0.446098 0.157910
O O7 0.060957 0.080305 0.264739
O O8 0.284637 0.162723 0.293627
O O9 0.019885 0.161376 0.390907
O O10 0.750000 0.250000 0.630845
O O11 0.022716 0.191511 0.660784
O O12 0.946584 0.235847 0.501613
O O13 0.377020 0.059982 0.214160
O O14 0.128206 0.984229 0.186865
O O15 0.384331 0.629290 0.222733
O O16 0.467021 0.735347 0.172242
O O17 0.250000 0.250000 0.421972
#
# Coordination Sequence:
#
# PCOD9429784 Si02
#       8
#     8   8   8   8   8   8   8   8
#     4  10  18  33  63  92 123 160 211 261 318 381
#     4   9  18  35  60  89 123 163 206 258 320 381
#     4  10  19  37  63  91 123 157 216 260 325 377
#     4  11  23  41  66  92 127 170 214 262 328 395
#     4  10  20  33  57  92 121 162 197 259 312 387
#     4   9  22  41  59  87 126 168 201 266 316 376
#     4   9  18  36  59  81 125 157 201 249 316 373
#     4  10  22  40  64  89 118 164 215 271 311 374
#
# _framework density 24.336676000000001
#
# number of rings (size 3 to 8) (size 9 to 14) (size 15 to 20)
#    0.000    2.250    2.500    0.750    0.000    3.000 
#    2.250    6.250    0.000    0.000    0.000    0.000 
#    0.000    0.000    0.000    0.000    0.000    0.000 
#
# Total GULP energy -356996.219490 kJ/mol
# GULP energy per Si atom -5578.065930 kJ/mol
# Density = 2.428128 g / cm^3
# Si number density = 24.336676 Si / 1000 Ang^3
#
#
#
# Elastic Constant Matrix: (Units=GPa)
#
#
# Indices 1 2 3 4 5 6 
#
# 1 27.2092 2.2258 21.8121 0.0000 0.0000 0.0000
# 2 2.2258 112.8693 38.7586 0.0000 0.0000 0.0000
# 3 21.8121 38.7586 122.0571 0.0000 0.0000 0.0000
# 4 0.0000 0.0000 0.0000 38.0725 0.0000 0.0000
# 5 0.0000 0.0000 0.0000 0.0000 7.3083 0.0000
# 6 0.0000 0.0000 0.0000 0.0000 0.0000 23.7144
#
#
#
# Elastic Compliance Matrix: (Units=1/GPa)
#
#
# Indices 1 2 3 4 5 6 
#
# 1 0.043306 0.002024 -0.008382 0.000000 0.000000 0.000000
# 2 0.002024 0.010039 -0.003549 0.000000 0.000000 0.000000
# 3 -0.008382 -0.003549 0.010818 0.000000 0.000000 0.000000
# 4 0.000000 0.000000 0.000000 0.026266 0.000000 0.000000
# 5 0.000000 0.000000 0.000000 0.000000 0.136831 0.000000
# 6 0.000000 0.000000 0.000000 0.000000 0.000000 0.042168
#
#
# Mechanical properties :
#
#
# Convention : Reuss Voigt Hill
#
# Bulk Modulus (GPa) = 22.54869 43.08097 32.81483
# Shear Modulus (GPa) = 16.44607 27.10832 21.77719
#
# Velocity S-wave (km/s) = 2.60238 3.34112 2.99462
# Velocity P-wave (km/s) = 4.27964 5.71179 5.04677
#
# Compressibility (1/GPa) = 0.04434848
#
# Stress axis : x y z
#
# Youngs Moduli (GPa) = 23.09158 99.61390 92.43972
#
# Poissons Ratio (x) = -0.20164 0.77480
# Poissons Ratio (y) = -0.04674 0.32811
# Poissons Ratio (z) = 0.19355 0.35358
#
# Static dielectric constant tensor:
#      x y z
#    x 1.963790 0.000000 0.000000 
#    y 0.000000 1.971810 0.000000 
#    z 0.000000 0.000000 1.982730 
# 
# From -- ./inp_files/11027.got.cif
#   From: 2010.05.17/outbox.cif.g08.bks.cpg/sg56_6_cif.got.tgz:11027.got - 2010.06.03 13:42:01.
