data_PCOD9429759
_publ_section_title
;
Structure prediction by ZEFSAII (Michael W. Deem and Ramdas Pophale) SiO2 
 PCOD9429759
Probable space group: P C C N
;
_chemical_formula_sum "Si O2"
_cell_formula_units_Z 56
_cell_length_a 6.473607
_cell_length_b 13.193756
_cell_length_c 27.867142
_cell_angle_alpha 90.000000
_cell_angle_beta 90.000000
_cell_angle_gamma 90.000000
_cell_volume 2380.165794
_symmetry_space_group_name_H-M "P C C N"
_symmetry_group_IT_number 56
_symmetry_cell_setting 'orthorhombic'
loop_
_space_group_symop_operation_xyz
x,y,z
1/2-x,1/2-y,z
1/2+x,-y,1/2-z
-x,1/2+y,1/2-z
-x,-y,-z
1/2+x,1/2+y,-z
1/2-x,y,1/2+z
x,1/2-y,1/2+z
loop_
_atom_site_type_symbol
_atom_site_label
_atom_site_fract_x
_atom_site_fract_y
_atom_site_fract_z
Si Si1 0.225013 0.552614 0.133189
Si Si2 0.636933 0.642268 0.025738
Si Si3 0.110611 0.349517 0.370441
Si Si4 0.750000 0.750000 0.360065
Si Si5 0.006224 0.597326 0.310214
Si Si6 0.250000 0.750000 0.482699
Si Si7 0.143827 0.464662 0.793845
Si Si8 0.582570 0.905252 0.938782
O O1 0.362182 0.653438 0.129851
O O2 0.407931 0.474166 0.148362
O O3 0.095986 0.515271 0.086926
O O4 0.063395 0.550056 0.176244
O O5 0.750000 0.750000 0.027266
O O6 0.647870 0.593461 0.078313
O O7 0.407763 0.678258 0.011739
O O8 0.759105 0.585651 0.983537
O O9 0.250000 0.250000 0.375072
O O10 0.190716 0.393166 0.320079
O O11 0.932813 0.707255 0.326731
O O12 0.830458 0.835121 0.396097
O O13 0.897202 0.564217 0.260637
O O14 0.247600 0.573740 0.302156
O O15 0.386261 0.663701 0.454706
#
# Coordination Sequence:
#
# PCOD9429759 Si02
#       8
#     8   8   8   4   8   4   8   8
#     4  10  23  39  63  94 127 169 214 267 335 397
#     4   9  19  38  58  89 127 166 209 273 325 381
#     4  10  24  42  65  87 125 173 222 269 322 396
#     4  10  20  38  62  94 124 160 226 268 324 402
#     4  10  22  40  64  91 132 166 211 276 329 398
#     4  10  18  32  62  86 128 170 202 262 338 392
#     4  11  22  42  65  91 131 173 208 271 344 386
#     4  10  20  36  60  95 127 160 214 271 329 396
#
# _framework density 23.527774000000001
#
# number of rings (size 3 to 8) (size 9 to 14) (size 15 to 20)
#    0.000    2.000    3.571    0.000    3.000    5.714 
#    0.000    1.429    6.286    0.000    0.000    0.000 
#    0.000    0.000    0.000    0.000    0.000    0.000 
#
# Total GULP energy -311910.052179 kJ/mol
# GULP energy per Si atom -5569.822360 kJ/mol
# Density = 2.347422 g / cm^3
# Si number density = 23.527774 Si / 1000 Ang^3
#
#
#
# Elastic Constant Matrix: (Units=GPa)
#
#
# Indices 1 2 3 4 5 6 
#
# 1 144.9027 42.3135 51.6613 0.0000 0.0000 0.0000
# 2 42.3135 43.5181 29.5796 0.0000 0.0000 0.0000
# 3 51.6613 29.5796 125.1412 0.0000 0.0000 0.0000
# 4 0.0000 0.0000 0.0000 26.6149 0.0000 0.0000
# 5 0.0000 0.0000 0.0000 0.0000 643.2561 0.0000
# 6 0.0000 0.0000 0.0000 0.0000 0.0000 29.5035
#
#
#
# Elastic Compliance Matrix: (Units=1/GPa)
#
#
# Indices 1 2 3 4 5 6 
#
# 1 0.010125 -0.008344 -0.002207 0.000000 0.000000 0.000000
# 2 -0.008344 0.034254 -0.004652 0.000000 0.000000 0.000000
# 3 -0.002207 -0.004652 0.010002 0.000000 0.000000 0.000000
# 4 0.000000 0.000000 0.000000 0.037573 0.000000 0.000000
# 5 0.000000 0.000000 0.000000 0.000000 0.001555 0.000000
# 6 0.000000 0.000000 0.000000 0.000000 0.000000 0.033894
#
#
# Mechanical properties :
#
#
# Convention : Reuss Voigt Hill
#
# Bulk Modulus (GPa) = 41.71247 62.29676 52.00462
# Shear Modulus (GPa) = 30.15666 152.54207 91.34936
#
# Velocity S-wave (km/s) = 3.58403 8.06075 6.23783
# Velocity P-wave (km/s) = 5.90716 10.63812 8.60419
#
# Compressibility (1/GPa) = 0.02397364
#
# Stress axis : x y z
#
# Youngs Moduli (GPa) = 98.76751 29.19359 99.98145
#
# Poissons Ratio (x) = 0.24359 0.22071
# Poissons Ratio (y) = 0.82413 0.46511
# Poissons Ratio (z) = 0.21803 0.13581
#
# Static dielectric constant tensor:
#      x y z
#    x 1.948800 0.000000 0.000000 
#    y 0.000000 1.945070 0.000000 
#    z 0.000000 0.000000 1.892700 
# 
# From -- ./inp_files/22903.got.cif
#   From: 2010.05.17/outbox.cif.g08.bks.cpg/sg56_12_cif.got.tgz:22903.got - 2010.06.03 13:42:01.
