data_PCOD9429540
_publ_section_title
;
Structure prediction by ZEFSAII (Michael W. Deem and Ramdas Pophale) SiO2 
 PCOD9429540
Probable space group: P C C N
;
_chemical_formula_sum "Si O2"
_cell_formula_units_Z 36
_cell_length_a 20.190542
_cell_length_b 5.056872
_cell_length_c 13.536657
_cell_angle_alpha 90.000000
_cell_angle_beta 90.000000
_cell_angle_gamma 90.000000
_cell_volume 1382.106034
_symmetry_space_group_name_H-M "P C C N"
_symmetry_group_IT_number 56
_symmetry_cell_setting 'orthorhombic'
loop_
_space_group_symop_operation_xyz
x,y,z
1/2-x,1/2-y,z
1/2+x,-y,1/2-z
-x,1/2+y,1/2-z
-x,-y,-z
1/2+x,1/2+y,-z
1/2-x,y,1/2+z
x,1/2-y,1/2+z
loop_
_atom_site_type_symbol
_atom_site_label
_atom_site_fract_x
_atom_site_fract_y
_atom_site_fract_z
Si Si1 0.070426 0.874672 0.483034
Si Si2 0.819522 0.642999 0.211500
Si Si3 0.954376 0.486085 0.238879
Si Si4 0.642658 0.877673 0.510367
Si Si5 0.750000 0.250000 0.059171
O O1 0.083873 0.578744 0.515680
O O2 0.070082 0.873667 0.365271
O O3 0.124200 0.084453 0.524572
O O4 0.000000 0.000000 0.500000
O O5 0.750000 0.750000 0.256360
O O6 0.881290 0.566117 0.281460
O O7 0.794099 0.417168 0.135835
O O8 0.850309 0.847616 0.130922
O O9 0.000272 0.247477 0.278356
O O10 0.709612 0.041612 0.492239
#
# Coordination Sequence:
#
# PCOD9429540 Si02
#       5
#     8   8   8   8   4
#     4  11  22  37  55  82 118 152 183 223 288 356
#     4   9  19  32  56  83 115 146 191 244 288 328
#     4  11  22  36  56  88 118 146 189 241 284 334
#     4  10  18  32  53  84 110 136 187 237 283 314
#     4  10  16  32  56  82 112 136 192 256 282 310
#
# _framework density 26.047207
#
# number of rings (size 3 to 8) (size 9 to 14) (size 15 to 20)
#    0.000    1.778    4.444    3.333    3.111    0.000 
#    0.000    0.000    0.000    0.000   11.556    0.000 
#    0.000    0.000    0.000    0.000    0.000    0.000 
#
# Total GULP energy -200649.049753 kJ/mol
# GULP energy per Si atom -5573.584715 kJ/mol
# Density = 2.598792 g / cm^3
# Si number density = 26.047207 Si / 1000 Ang^3
#
#
#
# Elastic Constant Matrix: (Units=GPa)
#
#
# Indices 1 2 3 4 5 6 
#
# 1 177.1994 50.0089 -0.0693 0.0000 0.0000 0.0000
# 2 50.0089 164.1581 -0.3824 0.0000 0.0000 0.0000
# 3 -0.0693 -0.3824 26.3722 0.0000 0.0000 0.0000
# 4 0.0000 0.0000 0.0000 6.2124 0.0000 0.0000
# 5 0.0000 0.0000 0.0000 0.0000 19.1703 0.0000
# 6 0.0000 0.0000 0.0000 0.0000 0.0000 61.7046
#
#
#
# Elastic Compliance Matrix: (Units=1/GPa)
#
#
# Indices 1 2 3 4 5 6 
#
# 1 0.006174 -0.001881 -0.000011 0.000000 0.000000 0.000000
# 2 -0.001881 0.006665 0.000092 0.000000 0.000000 0.000000
# 3 -0.000011 0.000092 0.037920 0.000000 0.000000 0.000000
# 4 0.000000 0.000000 0.000000 0.160970 0.000000 0.000000
# 5 0.000000 0.000000 0.000000 0.000000 0.052164 0.000000
# 6 0.000000 0.000000 0.000000 0.000000 0.000000 0.016206
#
#
# Mechanical properties :
#
#
# Convention : Reuss Voigt Hill
#
# Bulk Modulus (GPa) = 21.20507 51.87157 36.53832
# Shear Modulus (GPa) = 16.69900 38.62894 27.66397
#
# Velocity S-wave (km/s) = 2.53475 3.85520 3.26248
# Velocity P-wave (km/s) = 4.08966 6.30670 5.31506
#
# Compressibility (1/GPa) = 0.04715853
#
# Stress axis : x y z
#
# Youngs Moduli (GPa) = 161.96468 150.03970 26.37133
#
# Poissons Ratio (x) = 0.28221 0.00029
# Poissons Ratio (y) = 0.30464 -0.00242
# Poissons Ratio (z) = 0.00179 -0.01376
#
# Static dielectric constant tensor:
#      x y z
#    x 2.292640 0.000000 0.000000 
#    y 0.000000 2.105230 0.000000 
#    z 0.000000 0.000000 2.163670 
# 
# From -- ./inp_files/16746.got.cif
#   From: 2010.05.17/outbox.cif.g08.bks.cpg/sg56_9_cif.got.tgz:16746.got - 2010.06.03 13:42:01.
