data_PCOD9429915
_publ_section_title
;
Structure prediction by ZEFSAII (Michael W. Deem and Ramdas Pophale) SiO2 
 PCOD9429915
Probable space group: P C C N
;
_chemical_formula_sum "Si O2"
_cell_formula_units_Z 48
_cell_length_a 29.147846
_cell_length_b 5.363641
_cell_length_c 13.226490
_cell_angle_alpha 90.000000
_cell_angle_beta 90.000000
_cell_angle_gamma 90.000000
_cell_volume 2067.810690
_symmetry_space_group_name_H-M "P C C N"
_symmetry_group_IT_number 56
_symmetry_cell_setting 'orthorhombic'
loop_
_space_group_symop_operation_xyz
x,y,z
1/2-x,1/2-y,z
1/2+x,-y,1/2-z
-x,1/2+y,1/2-z
-x,-y,-z
1/2+x,1/2+y,-z
1/2-x,y,1/2+z
x,1/2-y,1/2+z
loop_
_atom_site_type_symbol
_atom_site_label
_atom_site_fract_x
_atom_site_fract_y
_atom_site_fract_z
Si Si1 0.351278 0.648171 0.319446
Si Si2 0.250000 0.750000 0.848129
Si Si3 0.346233 0.358694 0.518450
Si Si4 0.582653 0.482134 0.040638
Si Si5 0.904568 0.202025 0.359908
Si Si6 0.027452 0.113552 0.770709
Si Si7 0.250000 0.250000 0.984190
O O1 0.299440 0.732822 0.292978
O O2 0.345347 0.423183 0.398419
O O3 0.379925 0.845669 0.387497
O O4 0.384317 0.610250 0.224165
O O5 0.252740 0.501757 0.917512
O O6 0.359618 0.593552 0.585136
O O7 0.296729 0.259178 0.547074
O O8 0.388351 0.174110 0.525017
O O9 0.546106 0.603252 0.114798
O O10 0.564790 0.297366 0.953599
O O11 0.932045 0.988885 0.300796
O O12 0.990302 0.888289 0.757788
#
# Coordination Sequence:
#
# PCOD9429915 Si02
#       7
#     8   4   8   8   8   8   4
#     4   9  20  39  60  92 133 179 224 264 333 384
#     4  10  18  38  62  92 130 180 224 268 312 384
#     4  10  21  40  68  95 135 184 219 278 331 396
#     4  10  22  42  69  93 133 176 215 276 348 390
#     4  10  24  42  66  99 132 176 224 280 335 408
#     4  11  28  47  71  98 132 172 225 282 343 414
#     4  10  20  38  66  94 134 178 226 260 324 384
#
# _framework density 23.212956999999999
#
# number of rings (size 3 to 8) (size 9 to 14) (size 15 to 20)
#    0.000    2.000    1.667    0.000    9.333    2.667 
#    3.000    0.000    0.000    0.000    0.000    0.000 
#    0.000    0.000    0.000    0.000    0.000    0.000 
#
# Total GULP energy -267811.193188 kJ/mol
# GULP energy per Si atom -5579.399858 kJ/mol
# Density = 2.316012 g / cm^3
# Si number density = 23.212957 Si / 1000 Ang^3
#
#
#
# Elastic Constant Matrix: (Units=GPa)
#
#
# Indices 1 2 3 4 5 6 
#
# 1 100.2970 5.2561 33.0503 0.0000 0.0000 0.0000
# 2 5.2561 45.8888 -0.9505 0.0000 0.0000 0.0000
# 3 33.0503 -0.9505 89.9159 0.0000 0.0000 0.0000
# 4 0.0000 0.0000 0.0000 1.6069 0.0000 0.0000
# 5 0.0000 0.0000 0.0000 0.0000 5.8353 0.0000
# 6 0.0000 0.0000 0.0000 0.0000 0.0000 16.2354
#
#
#
# Elastic Compliance Matrix: (Units=1/GPa)
#
#
# Indices 1 2 3 4 5 6 
#
# 1 0.011433 -0.001397 -0.004217 0.000000 0.000000 0.000000
# 2 -0.001397 0.021967 0.000746 0.000000 0.000000 0.000000
# 3 -0.004217 0.000746 0.012680 0.000000 0.000000 0.000000
# 4 0.000000 0.000000 0.000000 0.622303 0.000000 0.000000
# 5 0.000000 0.000000 0.000000 0.000000 0.171369 0.000000
# 6 0.000000 0.000000 0.000000 0.000000 0.000000 0.061594
#
#
# Mechanical properties :
#
#
# Convention : Reuss Voigt Hill
#
# Bulk Modulus (GPa) = 27.51560 34.53483 31.02522
# Shear Modulus (GPa) = 5.41596 17.98525 11.70060
#
# Velocity S-wave (km/s) = 1.52913 2.78653 2.24755
# Velocity P-wave (km/s) = 3.87259 5.02620 4.48663
#
# Compressibility (1/GPa) = 0.03634302
#
# Stress axis : x y z
#
# Youngs Moduli (GPa) = 87.46384 45.52228 78.86727
#
# Poissons Ratio (x) = 0.06359 0.33261
# Poissons Ratio (y) = 0.12218 -0.05881
# Poissons Ratio (z) = 0.36886 -0.03394
#
# Static dielectric constant tensor:
#      x y z
#    x 1.923590 0.000000 0.000000 
#    y 0.000000 1.967540 0.000000 
#    z 0.000000 0.000000 1.830770 
# 
# From -- ./inp_files/13378.got.cif
#   From: 2010.05.17/outbox.cif.g08.bks.cpg/sg56_7_cif.got.tgz:13378.got - 2010.06.03 13:42:01.
