data_PCOD9429247
_publ_section_title
;
Structure prediction by ZEFSAII (Michael W. Deem and Ramdas Pophale) SiO2 
 PCOD9429247
Probable space group: P B A M
;
_chemical_formula_sum "Si O2"
_cell_formula_units_Z 64
_cell_length_a 11.936354
_cell_length_b 17.905370
_cell_length_c 11.381217
_cell_angle_alpha 90.000000
_cell_angle_beta 90.000000
_cell_angle_gamma 90.000000
_cell_volume 2432.448723
_symmetry_space_group_name_H-M "P B A M"
_symmetry_group_IT_number 55
_symmetry_cell_setting 'orthorhombic'
loop_
_space_group_symop_operation_xyz
x,y,z
-x,-y,z
1/2+x,1/2-y,-z
1/2-x,1/2+y,-z
-x,-y,-z
x,y,-z
1/2-x,1/2+y,z
1/2+x,1/2-y,z
loop_
_atom_site_type_symbol
_atom_site_label
_atom_site_fract_x
_atom_site_fract_y
_atom_site_fract_z
Si Si1 0.358097 0.986393 0.872512
Si Si2 0.489716 0.155851 0.871752
Si Si3 0.789185 0.844705 0.629102
Si Si4 0.362666 0.383698 0.128681
Si Si5 0.781617 0.501369 0.372480
Si Si6 0.535816 0.789726 0.375352
Si Si7 0.747919 0.281082 0.131808
Si Si8 0.587858 0.613237 0.627692
O O1 0.456170 0.925131 0.874220
O O2 0.238805 0.942469 0.874426
O O3 0.357381 0.015022 0.739510
O O4 0.358530 0.025370 0.000000
O O5 0.524676 0.189295 0.745822
O O6 0.356704 0.165427 0.868676
O O7 0.522375 0.189043 0.000000
O O8 0.831229 0.818129 0.500000
O O9 0.655760 0.830968 0.623540
O O10 0.820168 0.806171 0.752450
O O11 0.808276 0.933428 0.633625
O O12 0.301015 0.302535 0.145188
O O13 0.443958 0.403476 0.236973
O O14 0.417156 0.381804 0.000000
O O15 0.837675 0.495867 0.500000
O O16 0.714786 0.579839 0.369843
O O17 0.479707 0.809705 0.500000
O O18 0.569137 0.702241 0.375812
O O19 0.700016 0.287779 0.000000
O O20 0.544829 0.585719 0.500000
#
# Coordination Sequence:
#
# PCOD9429247 Si02
#       8
#     8   8   8   8   8   8   8   8
#     4   9  18  29  41  58  84 112 136 167 205 241
#     4   9  16  27  41  59  81 106 137 171 201 234
#     4   9  16  27  41  59  81 106 137 171 201 234
#     4   9  15  25  41  60  78 102 133 165 203 240
#     4   9  18  29  41  58  84 112 136 167 205 241
#     4   9  16  26  42  59  77 104 138 170 200 236
#     4   9  16  26  42  59  77 104 138 170 200 236
#     4   9  15  25  41  60  78 102 133 165 203 240
#
# _framework density 26.310932999999999
#
# number of rings (size 3 to 8) (size 9 to 14) (size 15 to 20)
#    0.000    3.000    2.500    0.000    0.000    1.000 
#    0.000    2.500    0.000   13.500    0.000    0.000 
#    0.000    1.000    0.000   12.500    0.000    0.000 
#
# Total GULP energy -356571.207720 kJ/mol
# GULP energy per Si atom -5571.425121 kJ/mol
# Density = 2.625105 g / cm^3
# Si number density = 26.310933 Si / 1000 Ang^3
#
#
#
# Elastic Constant Matrix: (Units=GPa)
#
#
# Indices 1 2 3 4 5 6 
#
# 1 50.2135 18.9660 26.8186 0.0000 0.0000 0.0000
# 2 18.9660 64.3035 41.3927 0.0000 0.0000 0.0000
# 3 26.8186 41.3927 383.3439 0.0000 0.0000 0.0000
# 4 0.0000 0.0000 0.0000 64.2193 0.0000 0.0000
# 5 0.0000 0.0000 0.0000 0.0000 -20.5977 0.0000
# 6 0.0000 0.0000 0.0000 0.0000 0.0000 225.7843
#
#
#
# Elastic Compliance Matrix: (Units=1/GPa)
#
#
# Indices 1 2 3 4 5 6 
#
# 1 0.022716 -0.006101 -0.000930 0.000000 0.000000 0.000000
# 2 -0.006101 0.018352 -0.001555 0.000000 0.000000 0.000000
# 3 -0.000930 -0.001555 0.002842 0.000000 0.000000 0.000000
# 4 0.000000 0.000000 0.000000 0.015572 0.000000 0.000000
# 5 0.000000 0.000000 0.000000 0.000000 -0.048549 0.000000
# 6 0.000000 0.000000 0.000000 0.000000 0.000000 0.004429
#
#
# Mechanical properties :
#
#
# Convention : Reuss Voigt Hill
#
# Bulk Modulus (GPa) = 37.40156 74.69062 56.04609
# Shear Modulus (GPa) = 120.63909 81.26008 100.94959
#
# Velocity S-wave (km/s) = 6.77871 5.56341 6.20090
# Velocity P-wave (km/s) = 8.68987 8.34973 8.52150
#
# Compressibility (1/GPa) = 0.02673686
#
# Stress axis : x y z
#
# Youngs Moduli (GPa) = 44.02111 54.49132 351.91530
#
# Poissons Ratio (x) = 0.33246 0.32744
# Poissons Ratio (y) = 0.26858 0.54713
# Poissons Ratio (z) = 0.04096 0.08472
#
# Static dielectric constant tensor:
#      x y z
#    x 2.014900 0.000000 0.000000 
#    y 0.000000 2.059490 0.000000 
#    z 0.000000 0.000000 2.137760 
# 
# From -- ./inp_files/15031.got.cif
#   From: 2010.05.17/outbox.cif.g08.bks.cpg/sg55_8_cif.got.tgz:15031.got - 2010.06.03 13:27:54.
