data_PCOD9429732
_publ_section_title
;
Structure prediction by ZEFSAII (Michael W. Deem and Ramdas Pophale) SiO2 
 PCOD9429732
Probable space group: P C C N
;
_chemical_formula_sum "Si O2"
_cell_formula_units_Z 48
_cell_length_a 17.709473
_cell_length_b 5.086311
_cell_length_c 30.393260
_cell_angle_alpha 90.000000
_cell_angle_beta 90.000000
_cell_angle_gamma 90.000000
_cell_volume 2737.699863
_symmetry_space_group_name_H-M "P C C N"
_symmetry_group_IT_number 56
_symmetry_cell_setting 'orthorhombic'
loop_
_space_group_symop_operation_xyz
x,y,z
1/2-x,1/2-y,z
1/2+x,-y,1/2-z
-x,1/2+y,1/2-z
-x,-y,-z
1/2+x,1/2+y,-z
1/2-x,y,1/2+z
x,1/2-y,1/2+z
loop_
_atom_site_type_symbol
_atom_site_label
_atom_site_fract_x
_atom_site_fract_y
_atom_site_fract_z
Si Si1 0.750000 0.750000 0.387299
Si Si2 0.547870 0.743747 0.241662
Si Si3 0.400745 0.141013 0.167174
Si Si4 0.949449 0.764066 0.552361
Si Si5 0.503169 0.859421 0.649468
Si Si6 0.898649 0.236098 0.004417
Si Si7 0.750000 0.250000 0.448814
O O1 0.823027 0.814473 0.357953
O O2 0.765871 0.500084 0.418113
O O3 0.478601 0.545411 0.254090
O O4 0.607010 0.681282 0.280087
O O5 0.560041 0.676349 0.190729
O O6 0.462211 0.358746 0.151804
O O7 0.437473 0.858460 0.157046
O O8 0.900086 0.550286 0.526208
O O9 0.957823 0.694021 0.603185
O O10 0.032909 0.749079 0.530689
O O11 0.917591 0.050771 0.541764
O O12 0.822231 0.299249 0.979267
#
# Coordination Sequence:
#
# PCOD9429732 Si02
#       7
#     4   8   8   8   8   8   4
#     4  12  22  32  52  74 102 136 162 194 248 312
#     4   8  16  29  47  71  98 125 153 195 240 278
#     4  10  19  31  48  76 105 130 162 203 250 302
#     4  10  19  33  52  75  96 128 169 212 247 287
#     4  10  18  32  53  74  99 129 170 210 247 296
#     4  10  21  34  50  71 101 129 164 210 254 291
#     4  12  24  38  52  74 104 138 166 202 260 318
#
# _framework density 17.532965999999998
#
# number of rings (size 3 to 8) (size 9 to 14) (size 15 to 20)
#    0.000    2.000    0.000    5.000    0.000    2.667 
#    0.000    0.000    0.000    2.000    0.000    0.000 
#    0.000    0.000    0.000    0.000    0.000    0.000 
#
# Total GULP energy -267816.478161 kJ/mol
# GULP energy per Si atom -5579.509962 kJ/mol
# Density = 1.749306 g / cm^3
# Si number density = 17.532966 Si / 1000 Ang^3
#
#
#
# Elastic Constant Matrix: (Units=GPa)
#
#
# Indices 1 2 3 4 5 6 
#
# 1 37.1197 -11.7799 14.7835 0.0000 0.0000 0.0000
# 2 -11.7799 57.0650 -19.8765 0.0000 0.0000 0.0000
# 3 14.7835 -19.8765 96.2720 0.0000 0.0000 0.0000
# 4 0.0000 0.0000 0.0000 37.0578 0.0000 0.0000
# 5 0.0000 0.0000 0.0000 0.0000 3.2205 0.0000
# 6 0.0000 0.0000 0.0000 0.0000 0.0000 15.5828
#
#
#
# Elastic Compliance Matrix: (Units=1/GPa)
#
#
# Indices 1 2 3 4 5 6 
#
# 1 0.029930 0.004932 -0.003578 0.000000 0.000000 0.000000
# 2 0.004932 0.019695 0.003309 0.000000 0.000000 0.000000
# 3 -0.003578 0.003309 0.011620 0.000000 0.000000 0.000000
# 4 0.000000 0.000000 0.000000 0.026985 0.000000 0.000000
# 5 0.000000 0.000000 0.000000 0.000000 0.310508 0.000000
# 6 0.000000 0.000000 0.000000 0.000000 0.000000 0.064173
#
#
# Mechanical properties :
#
#
# Convention : Reuss Voigt Hill
#
# Bulk Modulus (GPa) = 14.17014 17.41232 15.79123
# Shear Modulus (GPa) = 10.47982 24.99419 17.73700
#
# Velocity S-wave (km/s) = 2.44749 3.77975 3.18408
# Velocity P-wave (km/s) = 4.01079 5.38529 4.74804
#
# Compressibility (1/GPa) = 0.07057093
#
# Stress axis : x y z
#
# Youngs Moduli (GPa) = 33.41130 50.77553 86.06026
#
# Poissons Ratio (x) = -0.25044 0.30790
# Poissons Ratio (y) = -0.16479 -0.28475
# Poissons Ratio (z) = 0.11954 -0.16801
#
# Static dielectric constant tensor:
#      x y z
#    x 1.556490 0.000000 0.000000 
#    y 0.000000 1.607470 0.000000 
#    z 0.000000 0.000000 1.617510 
# 
# From -- ./inp_files/21255.got.cif
#   From: 2010.05.17/outbox.cif.g08.bks.cpg/sg56_11_cif.got.tgz:21255.got - 2010.06.03 13:42:01.
