data_PCOD9429053
_publ_section_title
;
Structure prediction by ZEFSAII (Michael W. Deem and Ramdas Pophale) SiO2 
 PCOD9429053
Probable space group: P B A M
;
_chemical_formula_sum "Si O2"
_cell_formula_units_Z 32
_cell_length_a 13.051864
_cell_length_b 9.098485
_cell_length_c 12.306573
_cell_angle_alpha 90.000000
_cell_angle_beta 90.000000
_cell_angle_gamma 90.000000
_cell_volume 1461.432481
_symmetry_space_group_name_H-M "P B A M"
_symmetry_group_IT_number 55
_symmetry_cell_setting 'orthorhombic'
loop_
_space_group_symop_operation_xyz
x,y,z
-x,-y,z
1/2+x,1/2-y,-z
1/2-x,1/2+y,-z
-x,-y,-z
x,y,-z
1/2-x,1/2+y,z
1/2+x,1/2-y,z
loop_
_atom_site_type_symbol
_atom_site_label
_atom_site_fract_x
_atom_site_fract_y
_atom_site_fract_z
Si Si1 0.779632 0.003474 0.271117
Si Si2 0.117357 0.066925 0.500000
Si Si3 0.605360 0.800321 0.733939
Si Si4 0.990241 0.326778 0.500000
Si Si5 0.438650 0.654984 0.122653
O O1 0.820452 0.974761 0.392969
O O2 0.662061 0.956381 0.258955
O O3 0.841977 0.893122 0.193215
O O4 0.813472 0.168796 0.244939
O O5 0.097690 0.241613 0.500000
O O6 0.000000 0.000000 0.500000
O O7 0.567055 0.782763 0.610372
O O8 0.511274 0.769041 0.814195
O O9 0.000000 0.500000 0.500000
O O10 0.500000 0.500000 0.117180
O O11 0.414513 0.702172 0.000000
#
# Coordination Sequence:
#
# PCOD9429053 Si02
#       5
#     8   4   8   4   8
#     4  11  22  37  62  88 125 160 206 251 310 367
#     4  12  19  40  62  83 121 165 196 242 308 370
#     4  11  23  39  60  93 123 162 201 255 306 369
#     4  12  25  38  62  89 125 161 201 249 306 364
#     4   9  19  39  63  86 118 163 208 254 307 364
#
# _framework density 21.896322999999999
#
# number of rings (size 3 to 8) (size 9 to 14) (size 15 to 20)
#    0.000    1.250    5.000    1.500    3.500    1.000 
#    0.000    0.000    0.000    5.250    0.000    0.000 
#    0.000    0.000    0.000    0.000    0.000    0.000 
#
# Total GULP energy -178862.724536 kJ/mol
# GULP energy per Si atom -5589.460142 kJ/mol
# Density = 2.184649 g / cm^3
# Si number density = 21.896323 Si / 1000 Ang^3
#
#
#
# Elastic Constant Matrix: (Units=GPa)
#
#
# Indices 1 2 3 4 5 6 
#
# 1 32.5663 15.4427 36.1696 0.0000 0.0000 0.0000
# 2 15.4427 84.3320 8.6802 0.0000 0.0000 0.0000
# 3 36.1696 8.6802 157.5934 0.0000 0.0000 0.0000
# 4 0.0000 0.0000 0.0000 -15.0847 0.0000 0.0000
# 5 0.0000 0.0000 0.0000 0.0000 583.3247 0.0000
# 6 0.0000 0.0000 0.0000 0.0000 0.0000 54.1285
#
#
#
# Elastic Compliance Matrix: (Units=1/GPa)
#
#
# Indices 1 2 3 4 5 6 
#
# 1 0.045234 -0.007256 -0.009982 0.000000 0.000000 0.000000
# 2 -0.007256 0.013089 0.000944 0.000000 0.000000 0.000000
# 3 -0.009982 0.000944 0.008584 0.000000 0.000000 0.000000
# 4 0.000000 0.000000 0.000000 -0.066292 0.000000 0.000000
# 5 0.000000 0.000000 0.000000 0.000000 0.001714 0.000000
# 6 0.000000 0.000000 0.000000 0.000000 0.000000 0.018475
#
#
# Mechanical properties :
#
#
# Convention : Reuss Voigt Hill
#
# Bulk Modulus (GPa) = 29.13695 43.89740 36.51717
# Shear Modulus (GPa) = 77.12353 138.75364 107.93858
#
# Velocity S-wave (km/s) = 5.94126 7.96907 7.02868
# Velocity P-wave (km/s) = 7.77177 10.23553 9.08753
#
# Compressibility (1/GPa) = 0.03432068
#
# Stress axis : x y z
#
# Youngs Moduli (GPa) = 22.10743 76.39804 116.49007
#
# Poissons Ratio (x) = 0.55432 1.16281
# Poissons Ratio (y) = 0.16040 -0.11000
# Poissons Ratio (z) = 0.22068 -0.07214
#
# Static dielectric constant tensor:
#      x y z
#    x 1.786880 0.000000 0.000000 
#    y 0.000000 1.832190 0.000000 
#    z 0.000000 0.000000 1.771560 
# 
# From -- ./inp_files/11726.got.cif
#   From: 2010.05.17/outbox.cif.g08.bks.cpg/sg55_6_cif.got.tgz:11726.got - 2010.06.03 13:27:54.
