data_PCOD9429982
_publ_section_title
;
Structure prediction by ZEFSAII (Michael W. Deem and Ramdas Pophale) SiO2 
 PCOD9429982
Probable space group: P C C N
;
_chemical_formula_sum "Si O2"
_cell_formula_units_Z 48
_cell_length_a 5.036111
_cell_length_b 21.309657
_cell_length_c 25.866853
_cell_angle_alpha 90.000000
_cell_angle_beta 90.000000
_cell_angle_gamma 90.000000
_cell_volume 2775.973706
_symmetry_space_group_name_H-M "P C C N"
_symmetry_group_IT_number 56
_symmetry_cell_setting 'orthorhombic'
loop_
_space_group_symop_operation_xyz
x,y,z
1/2-x,1/2-y,z
1/2+x,-y,1/2-z
-x,1/2+y,1/2-z
-x,-y,-z
1/2+x,1/2+y,-z
1/2-x,y,1/2+z
x,1/2-y,1/2+z
loop_
_atom_site_type_symbol
_atom_site_label
_atom_site_fract_x
_atom_site_fract_y
_atom_site_fract_z
Si Si1 0.468847 0.000369 0.818922
Si Si2 0.231309 0.486174 0.930942
Si Si3 0.971420 0.425675 0.280791
Si Si4 0.992618 0.706380 0.551494
Si Si5 0.234860 0.923552 0.029310
Si Si6 0.008404 0.207208 0.829665
O O1 0.377553 0.987711 0.877109
O O2 0.756925 0.031404 0.811037
O O3 0.261489 0.051720 0.797815
O O4 0.442467 0.941993 0.779757
O O5 0.530330 0.460480 0.933214
O O6 0.027466 0.429514 0.945906
O O7 0.233015 0.538933 0.975630
O O8 0.948069 0.353884 0.296348
O O9 0.750000 0.750000 0.531725
O O10 0.250000 0.750000 0.553490
O O11 0.096494 0.643861 0.522968
O O12 0.924469 0.687856 0.610979
O O13 0.750000 0.250000 0.831423
O O14 0.250000 0.250000 0.810250
#
# Coordination Sequence:
#
# PCOD9429982 Si02
#       6
#     8   8   8   8   8   8
#     4  10  19  32  51  73  98 127 158 201 249 291
#     4  10  19  32  51  73  98 127 158 201 249 292
#     4  10  20  32  49  74  99 126 162 200 244 294
#     4  10  19  30  46  68  96 128 157 192 237 283
#     4  10  20  32  49  74  99 126 162 200 244 295
#     4  10  19  30  46  68  96 128 157 192 237 283
#
# _framework density 17.291232000000001
#
# number of rings (size 3 to 8) (size 9 to 14) (size 15 to 20)
#    0.000    2.000    0.000    5.000    0.000    2.667 
#    0.000    0.000    0.000    1.000    0.000    2.333 
#    0.000    0.000    0.000    0.000    0.000    0.000 
#
# Total GULP energy -267542.682396 kJ/mol
# GULP energy per Si atom -5573.805883 kJ/mol
# Density = 1.725188 g / cm^3
# Si number density = 17.291232 Si / 1000 Ang^3
#
#
#
# Elastic Constant Matrix: (Units=GPa)
#
#
# Indices 1 2 3 4 5 6 
#
# 1 76.2520 21.2594 19.1403 0.0000 0.0000 0.0000
# 2 21.2594 96.4516 30.1605 0.0000 0.0000 0.0000
# 3 19.1403 30.1605 67.7678 0.0000 0.0000 0.0000
# 4 0.0000 0.0000 0.0000 19.8314 0.0000 0.0000
# 5 0.0000 0.0000 0.0000 0.0000 18.9329 0.0000
# 6 0.0000 0.0000 0.0000 0.0000 0.0000 29.4307
#
#
#
# Elastic Compliance Matrix: (Units=1/GPa)
#
#
# Indices 1 2 3 4 5 6 
#
# 1 0.014516 -0.002227 -0.003108 0.000000 0.000000 0.000000
# 2 -0.002227 0.012386 -0.004883 0.000000 0.000000 0.000000
# 3 -0.003108 -0.004883 0.017808 0.000000 0.000000 0.000000
# 4 0.000000 0.000000 0.000000 0.050425 0.000000 0.000000
# 5 0.000000 0.000000 0.000000 0.000000 0.052818 0.000000
# 6 0.000000 0.000000 0.000000 0.000000 0.000000 0.033978
#
#
# Mechanical properties :
#
#
# Convention : Reuss Voigt Hill
#
# Bulk Modulus (GPa) = 41.20194 42.39910 41.80052
# Shear Modulus (GPa) = 23.75756 24.96639 24.36198
#
# Velocity S-wave (km/s) = 3.71073 3.80396 3.75763
# Velocity P-wave (km/s) = 6.49917 6.62324 6.56150
#
# Compressibility (1/GPa) = 0.02427070
#
# Stress axis : x y z
#
# Youngs Moduli (GPa) = 68.89094 80.73711 56.15593
#
# Poissons Ratio (x) = 0.17984 0.17456
# Poissons Ratio (y) = 0.15345 0.27423
# Poissons Ratio (z) = 0.21414 0.39426
#
# Static dielectric constant tensor:
#      x y z
#    x 1.596480 0.000000 0.000000 
#    y 0.000000 1.597410 0.000000 
#    z 0.000000 0.000000 1.599510 
# 
# From -- ./inp_files/20104.got.cif
#   From: 2010.05.17/outbox.cif.g08.bks.cpg/sg56_11_cif.got.tgz:20104.got - 2010.06.03 13:42:01.
