data_PCOD9429792
_publ_section_title
;
Structure prediction by ZEFSAII (Michael W. Deem and Ramdas Pophale) SiO2 
 PCOD9429792
Probable space group: P C C N
;
_chemical_formula_sum "Si O2"
_cell_formula_units_Z 60
_cell_length_a 9.500853
_cell_length_b 9.607590
_cell_length_c 29.160378
_cell_angle_alpha 90.000000
_cell_angle_beta 90.000000
_cell_angle_gamma 90.000000
_cell_volume 2661.768060
_symmetry_space_group_name_H-M "P C C N"
_symmetry_group_IT_number 56
_symmetry_cell_setting 'orthorhombic'
loop_
_space_group_symop_operation_xyz
x,y,z
1/2-x,1/2-y,z
1/2+x,-y,1/2-z
-x,1/2+y,1/2-z
-x,-y,-z
1/2+x,1/2+y,-z
1/2-x,y,1/2+z
x,1/2-y,1/2+z
loop_
_atom_site_type_symbol
_atom_site_label
_atom_site_fract_x
_atom_site_fract_y
_atom_site_fract_z
Si Si1 0.083555 0.978930 0.246011
Si Si2 0.349539 0.876491 0.215736
Si Si3 0.971542 0.114185 0.461294
Si Si4 0.250000 0.750000 0.981168
Si Si5 0.981168 0.000495 0.147445
Si Si6 0.722628 0.505545 0.588689
Si Si7 0.800106 0.498084 0.877728
Si Si8 0.032501 0.825632 0.341310
O O1 0.247913 0.999919 0.234915
O O2 0.056579 0.883497 0.290308
O O3 0.999679 0.115933 0.261502
O O4 0.012741 0.934999 0.197530
O O5 0.250000 0.750000 0.228480
O O6 0.353431 0.889903 0.161312
O O7 0.889750 0.237267 0.487211
O O8 0.860637 0.049804 0.425663
O O9 0.000000 0.000000 0.500000
O O10 0.119345 0.120060 0.434044
O O11 0.261248 0.612020 0.949454
O O12 0.858680 0.939765 0.115836
O O13 0.939847 0.162360 0.155542
O O14 0.132833 0.000505 0.123223
O O15 0.630927 0.417427 0.625517
O O16 0.876514 0.638258 0.860123
#
# Coordination Sequence:
#
# PCOD9429792 Si02
#       8
#     8   8   8   4   8   8   8   8
#     4  10  21  33  54  88 118 158 207 242 285 349
#     4  10  20  36  55  81 117 158 201 239 294 349
#     4   9  20  37  60  85 113 143 198 247 297 374
#     4  10  18  36  62  90 106 152 196 246 310 368
#     4  11  19  33  57  83 123 154 195 251 298 348
#     4  10  19  35  61  89 114 154 200 248 299 356
#     4   9  21  34  52  83 110 154 196 244 299 357
#     4  10  18  34  54  80 120 162 206 239 290 362
#
# _framework density 22.541407
#
# number of rings (size 3 to 8) (size 9 to 14) (size 15 to 20)
#    0.000    2.133    1.333    2.000    0.933    0.000 
#    0.000    4.667    0.000    2.400    0.000    0.000 
#    0.000    0.000    0.000    0.000    0.000    0.000 
#
# Total GULP energy -334845.741312 kJ/mol
# GULP energy per Si atom -5580.762355 kJ/mol
# Density = 2.249010 g / cm^3
# Si number density = 22.541407 Si / 1000 Ang^3
#
#
#
# Elastic Constant Matrix: (Units=GPa)
#
#
# Indices 1 2 3 4 5 6 
#
# 1 126.0014 8.8237 72.6481 0.0000 0.0000 0.0000
# 2 8.8237 36.0515 22.9042 0.0000 0.0000 0.0000
# 3 72.6481 22.9042 147.5089 0.0000 0.0000 0.0000
# 4 0.0000 0.0000 0.0000 17.5171 0.0000 0.0000
# 5 0.0000 0.0000 0.0000 0.0000 33.2849 0.0000
# 6 0.0000 0.0000 0.0000 0.0000 0.0000 26.8554
#
#
#
# Elastic Compliance Matrix: (Units=1/GPa)
#
#
# Indices 1 2 3 4 5 6 
#
# 1 0.011107 0.000840 -0.005600 0.000000 0.000000 0.000000
# 2 0.000840 0.030837 -0.005202 0.000000 0.000000 0.000000
# 3 -0.005600 -0.005202 0.010345 0.000000 0.000000 0.000000
# 4 0.000000 0.000000 0.000000 0.057087 0.000000 0.000000
# 5 0.000000 0.000000 0.000000 0.000000 0.030044 0.000000
# 6 0.000000 0.000000 0.000000 0.000000 0.000000 0.037236
#
#
# Mechanical properties :
#
#
# Convention : Reuss Voigt Hill
#
# Bulk Modulus (GPa) = 30.89837 57.59039 44.24438
# Shear Modulus (GPa) = 24.11156 29.21053 26.66105
#
# Velocity S-wave (km/s) = 3.27411 3.60371 3.44286
# Velocity P-wave (km/s) = 5.29435 6.55132 5.95609
#
# Compressibility (1/GPa) = 0.03236417
#
# Stress axis : x y z
#
# Youngs Moduli (GPa) = 90.03651 32.42819 96.66386
#
# Poissons Ratio (x) = -0.02723 0.54135
# Poissons Ratio (y) = -0.07560 0.50282
# Poissons Ratio (z) = 0.50424 0.16868
#
# Static dielectric constant tensor:
#      x y z
#    x 1.905790 0.000000 0.000000 
#    y 0.000000 1.997430 0.000000 
#    z 0.000000 0.000000 1.819210 
# 
# From -- ./inp_files/23357.got.cif
#   From: 2010.05.17/outbox.cif.g08.bks.cpg/sg56_12_cif.got.tgz:23357.got - 2010.06.03 13:42:01.
