data_PCOD9429864
_publ_section_title
;
Structure prediction by ZEFSAII (Michael W. Deem and Ramdas Pophale) SiO2 
 PCOD9429864
Probable space group: P C C N
;
_chemical_formula_sum "Si O2"
_cell_formula_units_Z 52
_cell_length_a 11.205759
_cell_length_b 30.667439
_cell_length_c 9.065460
_cell_angle_alpha 90.000000
_cell_angle_beta 90.000000
_cell_angle_gamma 90.000000
_cell_volume 3115.362831
_symmetry_space_group_name_H-M "P C C N"
_symmetry_group_IT_number 56
_symmetry_cell_setting 'orthorhombic'
loop_
_space_group_symop_operation_xyz
x,y,z
1/2-x,1/2-y,z
1/2+x,-y,1/2-z
-x,1/2+y,1/2-z
-x,-y,-z
1/2+x,1/2+y,-z
1/2-x,y,1/2+z
x,1/2-y,1/2+z
loop_
_atom_site_type_symbol
_atom_site_label
_atom_site_fract_x
_atom_site_fract_y
_atom_site_fract_z
Si Si1 0.614787 0.050800 0.913207
Si Si2 0.366778 0.306793 0.874368
Si Si3 0.414383 0.637607 0.092246
Si Si4 0.750000 0.750000 0.872742
Si Si5 0.649967 0.595244 0.162747
Si Si6 0.350329 0.049938 0.023753
Si Si7 0.258008 0.603854 0.838912
O O1 0.472417 0.055117 0.930967
O O2 0.676555 0.075951 0.049510
O O3 0.663664 0.072210 0.764134
O O4 0.651109 0.000260 0.925107
O O5 0.505418 0.319384 0.891567
O O6 0.317929 0.283377 0.019753
O O7 0.337537 0.276602 0.735207
O O8 0.306327 0.354444 0.850564
O O9 0.342483 0.633146 0.941477
O O10 0.514643 0.599052 0.101317
O O11 0.325634 0.630920 0.228496
O O12 0.644976 0.579878 0.330977
O O13 0.736333 0.564048 0.071279
#
# Coordination Sequence:
#
# PCOD9429864 Si02
#       7
#     8   8   8   4   8   8   8
#     4  10  21  34  51  76 107 154 187 230 282 307
#     4   9  20  34  57  87 108 145 169 216 282 330
#     4   9  21  36  59  79 105 143 195 220 273 328
#     4  10  18  36  60  86 124 128 162 228 280 342
#     4  10  21  36  53  83 108 139 187 227 269 338
#     4  11  21  34  51  78 115 141 187 239 275 316
#     4  10  19  39  54  73 108 151 195 229 260 323
#
# _framework density 16.691473999999999
#
# number of rings (size 3 to 8) (size 9 to 14) (size 15 to 20)
#    0.923    1.231    1.538    1.846    2.154    0.000 
#    0.000    6.923    0.000    2.769    0.000    0.000 
#    0.000    0.000    0.000    0.000    0.000    0.000 
#
# Total GULP energy -289685.026982 kJ/mol
# GULP energy per Si atom -5570.865903 kJ/mol
# Density = 1.665348 g / cm^3
# Si number density = 16.691474 Si / 1000 Ang^3
#
#
#
# Elastic Constant Matrix: (Units=GPa)
#
#
# Indices 1 2 3 4 5 6 
#
# 1 91.3237 35.5139 44.0537 0.0000 0.0000 0.0000
# 2 35.5139 74.3569 37.0988 0.0000 0.0000 0.0000
# 3 44.0537 37.0988 95.3418 0.0000 0.0000 0.0000
# 4 0.0000 0.0000 0.0000 11.8635 0.0000 0.0000
# 5 0.0000 0.0000 0.0000 0.0000 16.7870 0.0000
# 6 0.0000 0.0000 0.0000 0.0000 0.0000 11.9237
#
#
#
# Elastic Compliance Matrix: (Units=1/GPa)
#
#
# Indices 1 2 3 4 5 6 
#
# 1 0.015306 -0.004693 -0.005246 0.000000 0.000000 0.000000
# 2 -0.004693 0.018127 -0.004885 0.000000 0.000000 0.000000
# 3 -0.005246 -0.004885 0.014814 0.000000 0.000000 0.000000
# 4 0.000000 0.000000 0.000000 0.084292 0.000000 0.000000
# 5 0.000000 0.000000 0.000000 0.000000 0.059570 0.000000
# 6 0.000000 0.000000 0.000000 0.000000 0.000000 0.083866
#
#
# Mechanical properties :
#
#
# Convention : Reuss Voigt Hill
#
# Bulk Modulus (GPa) = 53.76847 54.92836 54.34842
# Shear Modulus (GPa) = 16.03473 17.73857 16.88665
#
# Velocity S-wave (km/s) = 3.10280 3.26349 3.18416
# Velocity P-wave (km/s) = 6.71711 6.86877 6.79336
#
# Compressibility (1/GPa) = 0.01859826
#
# Stress axis : x y z
#
# Youngs Moduli (GPa) = 65.33527 55.16513 67.50581
#
# Poissons Ratio (x) = 0.25888 0.35414
# Poissons Ratio (y) = 0.30660 0.32978
# Poissons Ratio (z) = 0.34276 0.26950
#
# Static dielectric constant tensor:
#      x y z
#    x 1.561390 0.000000 0.000000 
#    y 0.000000 1.549890 0.000000 
#    z 0.000000 0.000000 1.536330 
# 
# From -- ./inp_files/2928.got.cif
#   From: 2010.05.17/outbox.cif.g08.bks.cpg/sg56_2_cif.got.tgz:2928.got - 2010.06.03 13:42:01.
