data_PCOD9429144
_publ_section_title
;
Structure prediction by ZEFSAII (Michael W. Deem and Ramdas Pophale) SiO2 
 PCOD9429144
Probable space group: P B A M
;
_chemical_formula_sum "Si O2"
_cell_formula_units_Z 56
_cell_length_a 14.635286
_cell_length_b 21.123056
_cell_length_c 8.537441
_cell_angle_alpha 90.000000
_cell_angle_beta 90.000000
_cell_angle_gamma 90.000000
_cell_volume 2639.281293
_symmetry_space_group_name_H-M "P B A M"
_symmetry_group_IT_number 55
_symmetry_cell_setting 'orthorhombic'
loop_
_space_group_symop_operation_xyz
x,y,z
-x,-y,z
1/2+x,1/2-y,-z
1/2-x,1/2+y,-z
-x,-y,-z
x,y,-z
1/2-x,1/2+y,z
1/2+x,1/2-y,z
loop_
_atom_site_type_symbol
_atom_site_label
_atom_site_fract_x
_atom_site_fract_y
_atom_site_fract_z
Si Si1 0.112656 0.270797 0.815158
Si Si2 0.411995 0.176871 0.187110
Si Si3 0.111854 0.130944 0.682893
Si Si4 0.906943 0.464985 0.687464
Si Si5 0.305325 0.292741 0.683080
Si Si6 0.077504 0.905282 0.184267
Si Si7 0.718991 0.484143 0.812878
O O1 0.014220 0.299193 0.771234
O O2 0.111539 0.196181 0.777969
O O3 0.198872 0.299287 0.724275
O O4 0.126268 0.280926 0.000000
O O5 0.403262 0.104521 0.237635
O O6 0.339692 0.222629 0.271284
O O7 0.400189 0.183015 0.000000
O O8 0.122663 0.145184 0.500000
O O9 0.188497 0.082530 0.740430
O O10 0.014745 0.097885 0.717118
O O11 0.904903 0.459447 0.500000
O O12 0.817560 0.501913 0.745797
O O13 0.000000 0.500000 0.733994
O O14 0.321357 0.304077 0.500000
O O15 0.365516 0.341689 0.782593
O O16 0.142597 0.963785 0.225690
O O17 0.053685 0.909600 0.000000
O O18 0.723810 0.478746 0.000000
#
# Coordination Sequence:
#
# PCOD9429144 Si02
#       7
#     8   8   8   8   8   8   8
#     4  11  24  42  67  95 130 173 218 265 320 389
#     4  11  24  44  70  96 129 173 220 269 320 388
#     4  12  24  41  67 100 135 171 215 270 330 390
#     4  11  26  46  68  97 134 172 217 275 332 389
#     4  12  25  41  66  98 135 172 215 273 332 389
#     4  11  24  43  66  96 132 172 220 269 324 391
#     4  11  25  44  68  94 129 176 222 269 321 390
#
# _framework density 21.217897000000001
#
# number of rings (size 3 to 8) (size 9 to 14) (size 15 to 20)
#    0.000    0.714    1.429    6.000    2.000    6.857 
#    0.000    0.000    0.000    0.000    0.000    0.000 
#    0.000    0.000    0.000    0.000    0.000    0.000 
#
# Total GULP energy -313709.851586 kJ/mol
# GULP energy per Si atom -5601.961635 kJ/mol
# Density = 2.116960 g / cm^3
# Si number density = 21.217897 Si / 1000 Ang^3
#
#
#
# Elastic Constant Matrix: (Units=GPa)
#
#
# Indices 1 2 3 4 5 6 
#
# 1 90.8751 -9.7312 6.6581 0.0000 0.0000 0.0000
# 2 -9.7312 44.8557 -10.6472 0.0000 0.0000 0.0000
# 3 6.6581 -10.6472 27.9237 0.0000 0.0000 0.0000
# 4 0.0000 0.0000 0.0000 105.5291 0.0000 0.0000
# 5 0.0000 0.0000 0.0000 0.0000 36.3448 0.0000
# 6 0.0000 0.0000 0.0000 0.0000 0.0000 25.7982
#
#
#
# Elastic Compliance Matrix: (Units=1/GPa)
#
#
# Indices 1 2 3 4 5 6 
#
# 1 0.011361 0.002003 -0.001945 0.000000 0.000000 0.000000
# 2 0.002003 0.024865 0.009004 0.000000 0.000000 0.000000
# 3 -0.001945 0.009004 0.039709 0.000000 0.000000 0.000000
# 4 0.000000 0.000000 0.000000 0.009476 0.000000 0.000000
# 5 0.000000 0.000000 0.000000 0.000000 0.027514 0.000000
# 6 0.000000 0.000000 0.000000 0.000000 0.000000 0.038762
#
#
# Mechanical properties :
#
#
# Convention : Reuss Voigt Hill
#
# Bulk Modulus (GPa) = 10.63175 15.13488 12.88332
# Shear Modulus (GPa) = 30.31812 45.35942 37.83877
#
# Velocity S-wave (km/s) = 3.78417 4.62864 4.22754
# Velocity P-wave (km/s) = 4.91069 5.97615 5.46942
#
# Compressibility (1/GPa) = 0.09405787
#
# Stress axis : x y z
#
# Youngs Moduli (GPa) = 88.01952 40.21659 25.18336
#
# Poissons Ratio (x) = -0.08055 0.04899
# Poissons Ratio (y) = -0.17630 -0.22674
# Poissons Ratio (z) = 0.17122 -0.36209
#
# Static dielectric constant tensor:
#      x y z
#    x 1.771950 0.000000 0.000000 
#    y 0.000000 1.742830 0.000000 
#    z 0.000000 0.000000 1.706610 
# 
# From -- ./inp_files/6156.got.cif
#   From: 2010.05.17/outbox.cif.g08.bks.cpg/sg55_4_cif.got.tgz:6156.got - 2010.06.03 13:27:54.
