data_PCOD9429258
_publ_section_title
;
Structure prediction by ZEFSAII (Michael W. Deem and Ramdas Pophale) SiO2 
 PCOD9429258
Probable space group: P B A M
;
_chemical_formula_sum "Si O2"
_cell_formula_units_Z 48
_cell_length_a 9.000000
_cell_length_b 30.000000
_cell_length_c 9.000000
_cell_angle_alpha 90.000000
_cell_angle_beta 90.000000
_cell_angle_gamma 90.000000
_cell_volume 2430.000000
_symmetry_space_group_name_H-M "P B A M"
_symmetry_group_IT_number 55
_symmetry_cell_setting 'orthorhombic'
loop_
_space_group_symop_operation_xyz
x,y,z
-x,-y,z
1/2+x,1/2-y,-z
1/2-x,1/2+y,-z
-x,-y,-z
x,y,-z
1/2-x,1/2+y,z
1/2+x,1/2-y,z
loop_
_atom_site_type_symbol
_atom_site_label
_atom_site_fract_x
_atom_site_fract_y
_atom_site_fract_z
Si Si1 0.011526 0.854841 0.678147
Si Si2 0.153546 0.387689 0.677009
Si Si3 0.210721 0.977969 0.679608
Si Si4 0.154966 0.224423 0.820568
Si Si5 0.018605 0.688742 0.822205
Si Si6 0.903319 0.940239 0.178850
O O1 0.995205 0.858505 0.500000
O O2 0.963008 0.807256 0.739422
O O3 0.903111 0.890107 0.760463
O O4 0.183016 0.867065 0.714327
O O5 0.136479 0.384270 0.500000
O O6 0.165964 0.440428 0.713306
O O7 0.027562 0.358380 0.753422
O O8 0.194409 0.980775 0.500000
O O9 0.059617 0.958116 0.752258
O O10 0.220251 0.026826 0.751731
O O11 0.108861 0.274975 0.783750
O O12 0.320974 0.208856 0.777599
O O13 0.141171 0.219635 0.000000
O O14 0.021643 0.684262 0.000000
O O15 0.904339 0.942246 0.000000
#
# Coordination Sequence:
#
# PCOD9429258 Si02
#       6
#     8   8   8   8   8   8
#     4  10  20  34  52  76 105 140 175 214 260 307
#     4   9  19  33  51  76 106 138 175 212 253 303
#     4   9  16  28  45  70 105 140 174 215 256 302
#     4  10  21  37  55  78 103 133 171 212 258 311
#     4  10  21  36  56  78 104 135 170 212 260 309
#     4  10  17  26  45  74 104 136 173 215 258 304
#
# _framework density 19.753086
#
# number of rings (size 3 to 8) (size 9 to 14) (size 15 to 20)
#    0.000    2.333    0.000    5.500    0.000    6.667 
#    0.000    0.000    0.000    1.000    0.000    7.000 
#    0.000    0.000    0.000    0.000    0.000    0.000 
#
# Total GULP energy -267773.941968 kJ/mol
# GULP energy per Si atom -5578.623791 kJ/mol
# Density = 1.970813 g / cm^3
# Si number density = 19.753086 Si / 1000 Ang^3
#
#
#
# Elastic Constant Matrix: (Units=GPa)
#
#
# Indices 1 2 3 4 5 6 
#
# 1 16.1010 -35.8908 -5.3814 0.0000 0.0000 0.0000
# 2 -35.8908 26.8859 2.9924 0.0000 0.0000 0.0000
# 3 -5.3814 2.9924 55.3424 0.0000 0.0000 0.0000
# 4 0.0000 0.0000 0.0000 30.1947 0.0000 0.0000
# 5 0.0000 0.0000 0.0000 0.0000 21.1395 0.0000
# 6 0.0000 0.0000 0.0000 0.0000 0.0000 18.4209
#
#
#
# Elastic Compliance Matrix: (Units=1/GPa)
#
#
# Indices 1 2 3 4 5 6 
#
# 1 -0.031401 -0.041831 -0.000792 0.000000 0.000000 0.000000
# 2 -0.041831 -0.018304 -0.003078 0.000000 0.000000 0.000000
# 3 -0.000792 -0.003078 0.018159 0.000000 0.000000 0.000000
# 4 0.000000 0.000000 0.000000 0.033118 0.000000 0.000000
# 5 0.000000 0.000000 0.000000 0.000000 0.047305 0.000000
# 6 0.000000 0.000000 0.000000 0.000000 0.000000 0.054286
#
#
# Mechanical properties :
#
#
# Convention : Reuss Voigt Hill
#
# Bulk Modulus (GPa) = -8.13359 2.41886 -2.85737
# Shear Modulus (GPa) = 32.55628 23.05830 27.80729
#
# Velocity S-wave (km/s) = 4.06416 3.42032 3.75606
# Velocity P-wave (km/s) = 4.23044 4.10187 4.16665
#
# Compressibility (1/GPa) = -0.12294691
#
# Stress axis : x y z
#
# Youngs Moduli (GPa) = -31.84571 -54.63218 55.06979
#
# Poissons Ratio (x) = -2.28530 0.04359
# Poissons Ratio (y) = -1.33213 0.16949
# Poissons Ratio (z) = -0.02521 -0.16815
#
# Static dielectric constant tensor:
#      x y z
#    x 1.702990 0.000000 0.000000 
#    y 0.000000 1.753360 0.000000 
#    z 0.000000 0.000000 1.652780 
# 
# From -- ./inp_files/2834.got.cif
#   From: 2010.05.17/outbox.ucp.g08.bks.cvg/sg55_2_cif.got.tgz:2834.got - 2010.06.11 16:36:00.
