data_PCOD9429537
_publ_section_title
;
Structure prediction by ZEFSAII (Michael W. Deem and Ramdas Pophale) SiO2 
 PCOD9429537
Probable space group: P C C N
;
_chemical_formula_sum "Si O2"
_cell_formula_units_Z 32
_cell_length_a 16.240587
_cell_length_b 11.890442
_cell_length_c 5.556911
_cell_angle_alpha 90.000000
_cell_angle_beta 90.000000
_cell_angle_gamma 90.000000
_cell_volume 1073.082623
_symmetry_space_group_name_H-M "P C C N"
_symmetry_group_IT_number 56
_symmetry_cell_setting 'orthorhombic'
loop_
_space_group_symop_operation_xyz
x,y,z
1/2-x,1/2-y,z
1/2+x,-y,1/2-z
-x,1/2+y,1/2-z
-x,-y,-z
1/2+x,1/2+y,-z
1/2-x,y,1/2+z
x,1/2-y,1/2+z
loop_
_atom_site_type_symbol
_atom_site_label
_atom_site_fract_x
_atom_site_fract_y
_atom_site_fract_z
Si Si1 0.845942 0.711961 0.401202
Si Si2 0.053925 0.997166 0.247691
Si Si3 0.444004 0.748425 0.212273
Si Si4 0.280615 0.879799 0.226084
O O1 0.750000 0.750000 0.429860
O O2 0.870230 0.701333 0.684713
O O3 0.879867 0.597061 0.274003
O O4 0.095819 0.874591 0.230912
O O5 0.000000 0.000000 0.500000
O O6 0.000000 0.000000 0.000000
O O7 0.490549 0.748409 0.962322
O O8 0.377948 0.848912 0.221822
O O9 0.250000 0.750000 0.227759
O O10 0.250703 0.933191 0.476755
#
# Coordination Sequence:
#
# PCOD9429537 Si02
#       4
#     8   8   8   8
#     4  10  23  49  79 109 145 203 275 341 393 464
#     4  12  28  47  70 110 150 194 260 324 386 475
#     4  12  23  40  65 101 137 186 230 287 384 458
#     4  10  16  32  53  84 127 159 205 258 319 423
#
# _framework density 29.820629
#
# number of rings (size 3 to 8) (size 9 to 14) (size 15 to 20)
#    0.000    1.000    5.000    3.000    0.000    6.000 
#    9.000    0.000    0.000    0.000    0.000    0.000 
#    0.000    0.000    0.000    0.000    0.000    0.000 
#
# Total GULP energy -178507.456845 kJ/mol
# GULP energy per Si atom -5578.358026 kJ/mol
# Density = 2.975276 g / cm^3
# Si number density = 29.820629 Si / 1000 Ang^3
#
#
#
# Elastic Constant Matrix: (Units=GPa)
#
#
# Indices 1 2 3 4 5 6 
#
# 1 110.4633 24.3717 89.6067 0.0000 0.0000 0.0000
# 2 24.3717 114.3123 1.0268 0.0000 0.0000 0.0000
# 3 89.6067 1.0268 386.7440 0.0000 0.0000 0.0000
# 4 0.0000 0.0000 0.0000 35.1613 0.0000 0.0000
# 5 0.0000 0.0000 0.0000 0.0000 41.9246 0.0000
# 6 0.0000 0.0000 0.0000 0.0000 0.0000 55.2343
#
#
#
# Elastic Compliance Matrix: (Units=1/GPa)
#
#
# Indices 1 2 3 4 5 6 
#
# 1 0.011819 -0.002495 -0.002732 0.000000 0.000000 0.000000
# 2 -0.002495 0.009275 0.000554 0.000000 0.000000 0.000000
# 3 -0.002732 0.000554 0.003217 0.000000 0.000000 0.000000
# 4 0.000000 0.000000 0.000000 0.028440 0.000000 0.000000
# 5 0.000000 0.000000 0.000000 0.000000 0.023852 0.000000
# 6 0.000000 0.000000 0.000000 0.000000 0.000000 0.018105
#
#
# Mechanical properties :
#
#
# Convention : Reuss Voigt Hill
#
# Bulk Modulus (GPa) = 66.82629 93.50334 80.16481
# Shear Modulus (GPa) = 45.85285 59.56501 52.70893
#
# Velocity S-wave (km/s) = 3.92551 4.47412 4.20876
# Velocity P-wave (km/s) = 6.55776 7.62324 7.11048
#
# Compressibility (1/GPa) = 0.01496417
#
# Stress axis : x y z
#
# Youngs Moduli (GPa) = 84.60657 107.81649 310.83106
#
# Poissons Ratio (x) = 0.26904 0.84915
# Poissons Ratio (y) = 0.21113 -0.17206
# Poissons Ratio (z) = 0.23113 -0.05968
#
# Static dielectric constant tensor:
#      x y z
#    x 2.583350 0.000000 0.000000 
#    y 0.000000 2.310170 0.000000 
#    z 0.000000 0.000000 2.364730 
# 
# From -- ./inp_files/798.got.cif
#   From: 2010.05.17/outbox.cif.g08.bks.cpg/sg56_1_cif.got.tgz:798.got - 2010.06.03 13:42:01.
