data_PCOD9429707
_publ_section_title
;
Structure prediction by ZEFSAII (Michael W. Deem and Ramdas Pophale) SiO2 
 PCOD9429707
Probable space group: P C C N
;
_chemical_formula_sum "Si O2"
_cell_formula_units_Z 64
_cell_length_a 20.845190
_cell_length_b 19.796115
_cell_length_c 8.833474
_cell_angle_alpha 90.000000
_cell_angle_beta 90.000000
_cell_angle_gamma 90.000000
_cell_volume 3645.166423
_symmetry_space_group_name_H-M "P C C N"
_symmetry_group_IT_number 56
_symmetry_cell_setting 'orthorhombic'
loop_
_space_group_symop_operation_xyz
x,y,z
1/2-x,1/2-y,z
1/2+x,-y,1/2-z
-x,1/2+y,1/2-z
-x,-y,-z
1/2+x,1/2+y,-z
1/2-x,y,1/2+z
x,1/2-y,1/2+z
loop_
_atom_site_type_symbol
_atom_site_label
_atom_site_fract_x
_atom_site_fract_y
_atom_site_fract_z
Si Si1 0.684020 0.472490 0.469706
Si Si2 0.330040 0.698474 0.022859
Si Si3 0.548078 0.462502 0.108619
Si Si4 0.845827 0.333301 0.135150
Si Si5 0.499458 0.820073 0.815139
Si Si6 0.190927 0.940736 0.886966
Si Si7 0.482574 0.681798 0.965126
Si Si8 0.056138 0.457754 0.080423
O O1 0.664476 0.406541 0.565301
O O2 0.754894 0.486078 0.534271
O O3 0.689784 0.453216 0.292518
O O4 0.626805 0.526739 0.486388
O O5 0.318259 0.680738 0.197549
O O6 0.317768 0.775413 0.975042
O O7 0.299464 0.638876 0.922486
O O8 0.406951 0.695077 0.993602
O O9 0.620245 0.454900 0.045731
O O10 0.518942 0.387539 0.130235
O O11 0.556020 0.507424 0.255692
O O12 0.500000 0.500000 0.000000
O O13 0.923155 0.328562 0.155111
O O14 0.512955 0.744934 0.877545
O O15 0.510683 0.826371 0.634400
O O16 0.536805 0.879713 0.901327
O O17 0.000000 0.500000 0.000000
#
# Coordination Sequence:
#
# PCOD9429707 Si02
#       8
#     8   8   8   8   8   8   8   8
#     4  11  22  36  53  74 108 145 186 232 268 327
#     4   9  18  31  49  74 104 146 184 220 264 321
#     4  10  20  37  57  82 112 145 180 231 281 337
#     4  10  18  31  51  73 107 146 185 222 265 318
#     4  10  19  33  51  81 114 147 181 228 276 333
#     4  10  22  35  51  76 106 141 183 226 275 327
#     4   9  19  31  53  78 114 146 180 224 278 331
#     4  11  22  34  56  83 114 146 190 232 276 326
#
# _framework density 17.557497000000001
#
# number of rings (size 3 to 8) (size 9 to 14) (size 15 to 20)
#    0.000    2.000    2.500    1.500    1.750    4.500 
#    0.000    2.500    0.000    0.000    0.000    0.875 
#    0.000    0.000    0.000    0.000    0.000    0.000 
#
# Total GULP energy -356865.028382 kJ/mol
# GULP energy per Si atom -5576.016068 kJ/mol
# Density = 1.751754 g / cm^3
# Si number density = 17.557497 Si / 1000 Ang^3
#
#
#
# Elastic Constant Matrix: (Units=GPa)
#
#
# Indices 1 2 3 4 5 6 
#
# 1 75.7301 33.7693 16.2223 0.0000 0.0000 0.0000
# 2 33.7693 88.4391 7.8201 0.0000 0.0000 0.0000
# 3 16.2223 7.8201 44.1181 0.0000 0.0000 0.0000
# 4 0.0000 0.0000 0.0000 25.0428 0.0000 0.0000
# 5 0.0000 0.0000 0.0000 0.0000 18.1692 0.0000
# 6 0.0000 0.0000 0.0000 0.0000 0.0000 33.6543
#
#
#
# Elastic Compliance Matrix: (Units=1/GPa)
#
#
# Indices 1 2 3 4 5 6 
#
# 1 0.017006 -0.006035 -0.005184 0.000000 0.000000 0.000000
# 2 -0.006035 0.013629 -0.000197 0.000000 0.000000 0.000000
# 3 -0.005184 -0.000197 0.024607 0.000000 0.000000 0.000000
# 4 0.000000 0.000000 0.000000 0.039932 0.000000 0.000000
# 5 0.000000 0.000000 0.000000 0.000000 0.055038 0.000000
# 6 0.000000 0.000000 0.000000 0.000000 0.000000 0.029714
#
#
# Mechanical properties :
#
#
# Convention : Reuss Voigt Hill
#
# Bulk Modulus (GPa) = 30.85287 35.99008 33.42148
# Shear Modulus (GPa) = 23.41248 25.40497 24.40873
#
# Velocity S-wave (km/s) = 3.65564 3.80802 3.73261
# Velocity P-wave (km/s) = 5.95222 6.31487 6.13622
#
# Compressibility (1/GPa) = 0.03241190
#
# Stress axis : x y z
#
# Youngs Moduli (GPa) = 58.80130 73.37232 40.63842
#
# Poissons Ratio (x) = 0.44283 0.21065
# Poissons Ratio (y) = 0.35489 0.00799
# Poissons Ratio (z) = 0.30480 0.01443
#
# Static dielectric constant tensor:
#      x y z
#    x 1.659400 0.000000 0.000000 
#    y 0.000000 1.595800 0.000000 
#    z 0.000000 0.000000 1.594270 
# 
# From -- ./inp_files/4563.got.cif
#   From: 2010.05.17/outbox.cif.g08.bks.cpg/sg56_3_cif.got.tgz:4563.got - 2010.06.03 13:42:01.
