data_PCOD9429835
_publ_section_title
;
Structure prediction by ZEFSAII (Michael W. Deem and Ramdas Pophale) SiO2 
 PCOD9429835
Probable space group: P C C N
;
_chemical_formula_sum "Si O2"
_cell_formula_units_Z 48
_cell_length_a 9.658348
_cell_length_b 17.460130
_cell_length_c 12.040285
_cell_angle_alpha 90.000000
_cell_angle_beta 90.000000
_cell_angle_gamma 90.000000
_cell_volume 2030.425642
_symmetry_space_group_name_H-M "P C C N"
_symmetry_group_IT_number 56
_symmetry_cell_setting 'orthorhombic'
loop_
_space_group_symop_operation_xyz
x,y,z
1/2-x,1/2-y,z
1/2+x,-y,1/2-z
-x,1/2+y,1/2-z
-x,-y,-z
1/2+x,1/2+y,-z
1/2-x,y,1/2+z
x,1/2-y,1/2+z
loop_
_atom_site_type_symbol
_atom_site_label
_atom_site_fract_x
_atom_site_fract_y
_atom_site_fract_z
Si Si1 0.250000 0.250000 0.098615
Si Si2 0.904471 0.109767 0.845717
Si Si3 0.187405 0.005591 0.596657
Si Si4 0.483891 0.343370 0.636443
Si Si5 0.719661 0.885103 0.579930
Si Si6 0.013367 0.646996 0.122779
Si Si7 0.750000 0.250000 0.363769
O O1 0.119269 0.275765 0.169430
O O2 0.212369 0.178986 0.017689
O O3 0.828963 0.028654 0.854206
O O4 0.826575 0.175378 0.918010
O O5 0.892656 0.141691 0.720144
O O6 0.065995 0.107444 0.874118
O O7 0.080398 0.936928 0.615519
O O8 0.109183 0.079581 0.642192
O O9 0.229991 0.034403 0.473788
O O10 0.517910 0.328232 0.507894
O O11 0.851508 0.858720 0.653518
O O12 0.116589 0.704243 0.185653
#
# Coordination Sequence:
#
# PCOD9429835 Si02
#       7
#     4   8   8   8   8   8   4
#     4   8  18  34  52  76 104 140 178 208 252 320
#     4  11  22  35  55  83 109 136 178 229 270 308
#     4   9  20  37  55  79 109 141 177 216 265 325
#     4  10  20  34  54  79 107 137 175 221 266 309
#     4  10  18  35  58  78 103 144 182 210 260 329
#     4   9  19  37  58  77 106 146 178 211 262 324
#     4  10  22  38  54  78 110 142 180 220 264 320
#
# _framework density 23.640362
#
# number of rings (size 3 to 8) (size 9 to 14) (size 15 to 20)
#    0.000    2.667    0.000    4.500    0.000    5.333 
#    0.000    5.000    0.000    0.000    0.000    0.000 
#    0.000    0.000    0.000    0.000    0.000    0.000 
#
# Total GULP energy -267265.828745 kJ/mol
# GULP energy per Si atom -5568.038099 kJ/mol
# Density = 2.358656 g / cm^3
# Si number density = 23.640362 Si / 1000 Ang^3
#
#
#
# Elastic Constant Matrix: (Units=GPa)
#
#
# Indices 1 2 3 4 5 6 
#
# 1 169.7153 23.5786 15.2175 0.0000 0.0000 0.0000
# 2 23.5786 89.9282 -4.8216 0.0000 0.0000 0.0000
# 3 15.2175 -4.8216 29.8172 0.0000 0.0000 0.0000
# 4 0.0000 0.0000 0.0000 20.0745 0.0000 0.0000
# 5 0.0000 0.0000 0.0000 0.0000 24.9557 0.0000
# 6 0.0000 0.0000 0.0000 0.0000 0.0000 44.0412
#
#
#
# Elastic Compliance Matrix: (Units=1/GPa)
#
#
# Indices 1 2 3 4 5 6 
#
# 1 0.006479 -0.001892 -0.003613 0.000000 0.000000 0.000000
# 2 -0.001892 0.011770 0.002869 0.000000 0.000000 0.000000
# 3 -0.003613 0.002869 0.035845 0.000000 0.000000 0.000000
# 4 0.000000 0.000000 0.000000 0.049814 0.000000 0.000000
# 5 0.000000 0.000000 0.000000 0.000000 0.040071 0.000000
# 6 0.000000 0.000000 0.000000 0.000000 0.000000 0.022706
#
#
# Mechanical properties :
#
#
# Convention : Reuss Voigt Hill
#
# Bulk Modulus (GPa) = 20.48240 39.71220 30.09730
# Shear Modulus (GPa) = 26.56295 34.84669 30.70482
#
# Velocity S-wave (km/s) = 3.35569 3.84348 3.60784
# Velocity P-wave (km/s) = 4.86798 6.04412 5.48765
#
# Compressibility (1/GPa) = 0.04882241
#
# Stress axis : x y z
#
# Youngs Moduli (GPa) = 154.34307 84.96172 27.89759
#
# Poissons Ratio (x) = 0.16079 0.10079
# Poissons Ratio (y) = 0.29209 -0.08004
# Poissons Ratio (z) = 0.55759 -0.24377
#
# Static dielectric constant tensor:
#      x y z
#    x 1.947260 0.000000 0.000000 
#    y 0.000000 1.914150 0.000000 
#    z 0.000000 0.000000 1.995240 
# 
# From -- ./inp_files/10722.got.cif
#   From: 2010.05.17/outbox.cif.g08.bks.cpg/sg56_6_cif.got.tgz:10722.got - 2010.06.03 13:42:01.
