data_PCOD9429505
_publ_section_title
;
Structure prediction by ZEFSAII (Michael W. Deem and Ramdas Pophale) SiO2 
 PCOD9429505
Probable space group: P C C N
;
_chemical_formula_sum "Si O2"
_cell_formula_units_Z 32
_cell_length_a 21.073668
_cell_length_b 10.023624
_cell_length_c 5.307297
_cell_angle_alpha 90.000000
_cell_angle_beta 90.000000
_cell_angle_gamma 90.000000
_cell_volume 1121.084357
_symmetry_space_group_name_H-M "P C C N"
_symmetry_group_IT_number 56
_symmetry_cell_setting 'orthorhombic'
loop_
_space_group_symop_operation_xyz
x,y,z
1/2-x,1/2-y,z
1/2+x,-y,1/2-z
-x,1/2+y,1/2-z
-x,-y,-z
1/2+x,1/2+y,-z
1/2-x,y,1/2+z
x,1/2-y,1/2+z
loop_
_atom_site_type_symbol
_atom_site_label
_atom_site_fract_x
_atom_site_fract_y
_atom_site_fract_z
Si Si1 0.096812 0.833042 0.925505
Si Si2 0.366282 0.293676 0.036628
Si Si3 0.465274 0.094445 0.802106
Si Si4 0.774053 0.094439 0.310471
O O1 0.102220 0.791679 0.218627
O O2 0.024805 0.873942 0.874733
O O3 0.156334 0.909821 0.804252
O O4 0.332245 0.277072 0.771246
O O5 0.429189 0.201862 0.980457
O O6 0.402609 0.428560 0.125711
O O7 0.500000 0.000000 0.000000
O O8 0.750000 0.250000 0.346607
O O9 0.731316 0.034584 0.087570
#
# Coordination Sequence:
#
# PCOD9429505 Si02
#       4
#     8   8   8   8
#     4  12  18  30  44  63  90 116 157 179 217 272
#     4   8  16  32  42  58  81 110 149 180 220 256
#     4  10  20  32  46  63  89 122 157 193 222 262
#     4  10  16  26  42  62  84 114 144 173 218 267
#
# _framework density 28.543790999999999
#
# number of rings (size 3 to 8) (size 9 to 14) (size 15 to 20)
#    1.500    0.500    7.500    0.000    0.000    1.000 
#    0.000    0.000    0.000    0.000    0.000    0.000 
#    0.000    0.000    0.000    6.750    0.000    0.000 
#
# Total GULP energy -178253.506190 kJ/mol
# GULP energy per Si atom -5570.422068 kJ/mol
# Density = 2.847882 g / cm^3
# Si number density = 28.543791 Si / 1000 Ang^3
#
#
#
# Elastic Constant Matrix: (Units=GPa)
#
#
# Indices 1 2 3 4 5 6 
#
# 1 87.5789 17.9820 11.0340 0.0000 0.0000 0.0000
# 2 17.9820 33.6250 -21.3961 0.0000 0.0000 0.0000
# 3 11.0340 -21.3961 138.1054 0.0000 0.0000 0.0000
# 4 0.0000 0.0000 0.0000 34.0566 0.0000 0.0000
# 5 0.0000 0.0000 0.0000 0.0000 30.4939 0.0000
# 6 0.0000 0.0000 0.0000 0.0000 0.0000 26.1058
#
#
#
# Elastic Compliance Matrix: (Units=1/GPa)
#
#
# Indices 1 2 3 4 5 6 
#
# 1 0.013531 -0.008791 -0.002443 0.000000 0.000000 0.000000
# 2 -0.008791 0.038703 0.006698 0.000000 0.000000 0.000000
# 3 -0.002443 0.006698 0.008474 0.000000 0.000000 0.000000
# 4 0.000000 0.000000 0.000000 0.029363 0.000000 0.000000
# 5 0.000000 0.000000 0.000000 0.000000 0.032793 0.000000
# 6 0.000000 0.000000 0.000000 0.000000 0.000000 0.038306
#
#
# Mechanical properties :
#
#
# Convention : Reuss Voigt Hill
#
# Bulk Modulus (GPa) = 19.36570 30.50547 24.93558
# Shear Modulus (GPa) = 26.67338 34.91055 30.79196
#
# Velocity S-wave (km/s) = 3.06023 3.50101 3.28801
# Velocity P-wave (km/s) = 4.39158 5.20127 4.81348
#
# Compressibility (1/GPa) = 0.05163769
#
# Stress axis : x y z
#
# Youngs Moduli (GPa) = 73.90441 25.83767 118.01100
#
# Poissons Ratio (x) = 0.22713 0.28830
# Poissons Ratio (y) = 0.64967 -0.79049
# Poissons Ratio (z) = 0.18055 -0.17307
#
# Static dielectric constant tensor:
#      x y z
#    x 2.167440 0.000000 0.000000 
#    y 0.000000 2.952520 0.000000 
#    z 0.000000 0.000000 2.395190 
# 
# From -- ./inp_files/419.got.cif
#   From: 2010.05.17/outbox.cif.g08.bks.cpg/sg56_1_cif.got.tgz:419.got - 2010.06.03 13:42:01.
