data_PCOD9429681
_publ_section_title
;
Structure prediction by ZEFSAII (Michael W. Deem and Ramdas Pophale) SiO2 
 PCOD9429681
Probable space group: P C C N
;
_chemical_formula_sum "Si O2"
_cell_formula_units_Z 56
_cell_length_a 20.975523
_cell_length_b 22.532785
_cell_length_c 5.564541
_cell_angle_alpha 90.000000
_cell_angle_beta 90.000000
_cell_angle_gamma 90.000000
_cell_volume 2630.007687
_symmetry_space_group_name_H-M "P C C N"
_symmetry_group_IT_number 56
_symmetry_cell_setting 'orthorhombic'
loop_
_space_group_symop_operation_xyz
x,y,z
1/2-x,1/2-y,z
1/2+x,-y,1/2-z
-x,1/2+y,1/2-z
-x,-y,-z
1/2+x,1/2+y,-z
1/2-x,y,1/2+z
x,1/2-y,1/2+z
loop_
_atom_site_type_symbol
_atom_site_label
_atom_site_fract_x
_atom_site_fract_y
_atom_site_fract_z
Si Si1 0.675012 0.514063 0.499980
Si Si2 0.428223 0.782354 0.499999
Si Si3 0.287058 0.827816 0.499986
Si Si4 0.818772 0.032839 0.999980
Si Si5 0.866846 0.749656 0.500085
Si Si6 0.961353 0.634133 0.500074
Si Si7 0.587614 0.617118 0.500074
O O1 0.649800 0.484769 0.747025
O O2 0.750737 0.501986 0.499967
O O3 0.654630 0.582528 0.500021
O O4 0.649797 0.484781 0.252917
O O5 0.445967 0.750003 0.249994
O O6 0.352933 0.792523 0.499997
O O7 0.466672 0.843415 0.500021
O O8 0.249998 0.816331 0.749981
O O9 0.302929 0.897863 0.499988
O O10 0.830050 0.750000 0.750085
O O11 0.915305 0.693485 0.500085
O O12 0.905098 0.811707 0.500085
O O13 0.946362 0.601707 0.749575
O O14 0.946343 0.601700 0.250602
#
# Coordination Sequence:
#
# PCOD9429681 Si02
#       7
#     8   8   8   8   8   8   8
#     4  10  18  32  58  86 109 141 203 250 290 338
#     4  12  25  40  62  91 123 158 193 243 289 347
#     4  12  23  42  65  87 114 158 201 239 304 362
#     4  10  19  37  57  83 108 153 196 249 299 348
#     4   8  14  25  43  67 101 138 173 211 257 325
#     4  10  19  35  53  80 120 156 188 225 289 355
#     4  10  18  29  54  86 111 147 196 245 271 343
#
# _framework density 21.292714
#
# number of rings (size 3 to 8) (size 9 to 14) (size 15 to 20)
#    0.000    1.714    2.857    5.143    0.000    1.714 
#    0.000    0.000    0.000    5.143    0.000  108.000 
#    0.000    0.000    0.000    0.000    0.000    0.000 
#
# Total GULP energy -312121.931267 kJ/mol
# GULP energy per Si atom -5573.605915 kJ/mol
# Density = 2.124425 g / cm^3
# Si number density = 21.292714 Si / 1000 Ang^3
#
#
#
# Elastic Constant Matrix: (Units=GPa)
#
#
# Indices 1 2 3 4 5 6 
#
# 1 31.9857 9.8783 21.6149 0.0000 0.0000 0.0000
# 2 9.8783 28.8253 24.4760 0.0000 0.0000 0.0000
# 3 21.6149 24.4760 264.1446 0.0000 0.0000 0.0000
# 4 0.0000 0.0000 0.0000 3.1930 0.0000 0.0000
# 5 0.0000 0.0000 0.0000 0.0000 16.2952 0.0000
# 6 0.0000 0.0000 0.0000 0.0000 0.0000 50.2283
#
#
#
# Elastic Compliance Matrix: (Units=1/GPa)
#
#
# Indices 1 2 3 4 5 6 
#
# 1 0.035866 -0.010636 -0.001949 0.000000 0.000000 0.000000
# 2 -0.010636 0.040808 -0.002911 0.000000 0.000000 0.000000
# 3 -0.001949 -0.002911 0.004215 0.000000 0.000000 0.000000
# 4 0.000000 0.000000 0.000000 0.313186 0.000000 0.000000
# 5 0.000000 0.000000 0.000000 0.000000 0.061368 0.000000
# 6 0.000000 0.000000 0.000000 0.000000 0.000000 0.019909
#
#
# Mechanical properties :
#
#
# Convention : Reuss Voigt Hill
#
# Bulk Modulus (GPa) = 20.04133 48.54378 34.29255
# Shear Modulus (GPa) = 9.56066 31.87573 20.71819
#
# Velocity S-wave (km/s) = 2.12129 3.87334 3.12271
# Velocity P-wave (km/s) = 3.92843 6.54610 5.39833
#
# Compressibility (1/GPa) = 0.04989689
#
# Stress axis : x y z
#
# Youngs Moduli (GPa) = 27.88154 24.50478 237.24442
#
# Poissons Ratio (x) = 0.26063 0.46248
# Poissons Ratio (y) = 0.29654 0.69063
# Poissons Ratio (z) = 0.05435 0.07133
#
# Static dielectric constant tensor:
#      x y z
#    x 1.730940 0.000000 0.000000 
#    y 0.000000 1.761740 0.000000 
#    z 0.000000 0.000000 1.858150 
# 
# From -- ./inp_files/911.got.cif
#   From: 2010.05.17/outbox.cif.g08.bks.cpg/sg56_1_cif.got.tgz:911.got - 2010.06.03 13:42:01.
