data_PCOD9429277
_publ_section_title
;
Structure prediction by ZEFSAII (Michael W. Deem and Ramdas Pophale) SiO2 
 PCOD9429277
Probable space group: P B A M
;
_chemical_formula_sum "Si O2"
_cell_formula_units_Z 64
_cell_length_a 12.000000
_cell_length_b 30.000000
_cell_length_c 9.000000
_cell_angle_alpha 90.000000
_cell_angle_beta 90.000000
_cell_angle_gamma 90.000000
_cell_volume 3240.000000
_symmetry_space_group_name_H-M "P B A M"
_symmetry_group_IT_number 55
_symmetry_cell_setting 'orthorhombic'
loop_
_space_group_symop_operation_xyz
x,y,z
-x,-y,z
1/2+x,1/2-y,-z
1/2-x,1/2+y,-z
-x,-y,-z
x,y,-z
1/2-x,1/2+y,z
1/2+x,1/2-y,z
loop_
_atom_site_type_symbol
_atom_site_label
_atom_site_fract_x
_atom_site_fract_y
_atom_site_fract_z
Si Si1 0.065882 0.785000 0.176852
Si Si2 0.305164 0.109200 0.820928
Si Si3 0.778619 0.660110 0.828163
Si Si4 0.711313 0.072288 0.324889
Si Si5 0.916687 0.039108 0.178275
Si Si6 0.532019 0.812757 0.821565
Si Si7 0.971622 0.448250 0.669999
Si Si8 0.054232 0.126677 0.181268
O O1 0.193911 0.799418 0.188560
O O2 0.048904 0.736391 0.242157
O O3 0.992098 0.825932 0.235266
O O4 0.039403 0.782203 0.000000
O O5 0.383475 0.149724 0.766514
O O6 0.364137 0.065057 0.761547
O O7 0.179530 0.116667 0.770755
O O8 0.305567 0.108203 0.000000
O O9 0.746252 0.621104 0.717207
O O10 0.904465 0.674087 0.801384
O O11 0.766633 0.643947 0.000000
O O12 0.705691 0.064470 0.500000
O O13 0.795615 0.037797 0.251264
O O14 0.585287 0.072017 0.264141
O O15 0.975961 0.085391 0.220770
O O16 0.904405 0.037641 0.000000
O O17 0.000000 0.000000 0.223186
O O18 0.551738 0.810770 0.000000
O O19 0.956279 0.432833 0.500000
O O20 0.000000 0.500000 0.667047
O O21 0.053595 0.128216 0.000000
#
# Coordination Sequence:
#
# PCOD9429277 Si02
#       8
#     8   8   8   8   8   8   8   8
#     4   9  17  29  50  79 111 141 173 219 271 320
#     4  10  20  34  54  82 111 136 175 224 267 317
#     4  10  18  33  56  79 107 143 183 224 276 327
#     4  11  22  37  58  80 106 141 185 231 272 318
#     4  10  21  37  57  82 112 145 181 222 276 332
#     4   9  18  29  48  82 111 137 176 223 268 318
#     4  10  23  41  57  76 106 144 181 219 271 326
#     4   9  18  32  50  78 112 142 172 218 272 319
#
# _framework density 19.753086
#
# number of rings (size 3 to 8) (size 9 to 14) (size 15 to 20)
#    0.000    2.250    2.500    0.375    3.500    1.000 
#    0.000    0.625    0.000    1.500    0.000    0.000 
#    0.000    0.000    0.000    0.000    0.000    0.000 
#
# Total GULP energy -356699.008464 kJ/mol
# GULP energy per Si atom -5573.422007 kJ/mol
# Density = 1.970813 g / cm^3
# Si number density = 19.753086 Si / 1000 Ang^3
#
#
#
# Elastic Constant Matrix: (Units=GPa)
#
#
# Indices 1 2 3 4 5 6 
#
# 1 74.8584 9.8031 21.4772 0.0000 0.0000 0.0000
# 2 9.8031 58.6278 7.5032 0.0000 0.0000 0.0000
# 3 21.4772 7.5032 1.9837 0.0000 0.0000 0.0000
# 4 0.0000 0.0000 0.0000 8.1497 0.0000 0.0000
# 5 0.0000 0.0000 0.0000 0.0000 4.0269 0.0000
# 6 0.0000 0.0000 0.0000 0.0000 0.0000 -18.2986
#
#
#
# Elastic Compliance Matrix: (Units=1/GPa)
#
#
# Indices 1 2 3 4 5 6 
#
# 1 -0.003064 -0.007236 0.060544 0.000000 0.000000 0.000000
# 2 -0.007236 0.015972 0.017931 0.000000 0.000000 0.000000
# 3 0.060544 0.017931 -0.219210 0.000000 0.000000 0.000000
# 4 0.000000 0.000000 0.000000 0.122704 0.000000 0.000000
# 5 0.000000 0.000000 0.000000 0.000000 0.248331 0.000000
# 6 0.000000 0.000000 0.000000 0.000000 0.000000 -0.054649
#
#
# Mechanical properties :
#
#
# Convention : Reuss Voigt Hill
#
# Bulk Modulus (GPa) = -15.66807 23.67076 4.00135
# Shear Modulus (GPa) = -93.16421 5.22136 -43.97143
#
# Velocity S-wave (km/s) = -6.87508 1.62759 -4.72323
# Velocity P-wave (km/s) = 8.42446 3.94226 5.26451
#
# Compressibility (1/GPa) = -0.06382408
#
# Stress axis : x y z
#
# Youngs Moduli (GPa) = -326.35618 62.61017 -4.56184
#
# Poissons Ratio (x) = 0.45305 0.27619
# Poissons Ratio (y) = -2.36155 0.08180
# Poissons Ratio (z) = 19.75890 -1.12267
#
# Static dielectric constant tensor:
#      x y z
#    x 1.721670 0.000000 0.000000 
#    y 0.000000 1.739260 0.000000 
#    z 0.000000 0.000000 1.662000 
# 
# From -- ./inp_files/4649.got.cif
#   From: 2010.05.17/outbox.ucp.g08.bks.cvg/sg55_3_cif.got.tgz:4649.got - 2010.06.11 16:36:00.
