data_PCOD9429216
_publ_section_title
;
Structure prediction by ZEFSAII (Michael W. Deem and Ramdas Pophale) SiO2 
 PCOD9429216
Probable space group: P B A M
;
_chemical_formula_sum "Si O2"
_cell_formula_units_Z 32
_cell_length_a 7.987692
_cell_length_b 14.123054
_cell_length_c 11.748983
_cell_angle_alpha 90.000000
_cell_angle_beta 90.000000
_cell_angle_gamma 90.000000
_cell_volume 1325.409886
_symmetry_space_group_name_H-M "P B A M"
_symmetry_group_IT_number 55
_symmetry_cell_setting 'orthorhombic'
loop_
_space_group_symop_operation_xyz
x,y,z
-x,-y,z
1/2+x,1/2-y,-z
1/2-x,1/2+y,-z
-x,-y,-z
x,y,-z
1/2-x,1/2+y,z
1/2+x,1/2-y,z
loop_
_atom_site_type_symbol
_atom_site_label
_atom_site_fract_x
_atom_site_fract_y
_atom_site_fract_z
Si Si1 0.717368 0.723712 0.875109
Si Si2 0.233360 0.559448 0.625154
Si Si3 0.452270 0.103996 0.841420
Si Si4 0.402354 0.353059 0.368591
O O1 0.710347 0.837815 0.881407
O O2 0.639014 0.699499 0.750356
O O3 0.897241 0.674571 0.867882
O O4 0.646776 0.691105 0.000000
O O5 0.165178 0.568821 0.500000
O O6 0.090566 0.588565 0.710587
O O7 0.399930 0.623694 0.634558
O O8 0.302829 0.452867 0.641379
O O9 0.500000 0.000000 0.883980
O O10 0.367455 0.316663 0.500000
#
# Coordination Sequence:
#
# PCOD9429216 Si02
#       4
#     8   8   8   8
#     4  12  27  46  70 106 146 193 254 308 368 453
#     4   9  19  40  73 109 146 190 244 303 371 450
#     4  12  26  48  74 107 149 199 249 311 377 442
#     4   9  19  42  74 109 148 190 241 304 372 445
#
# _framework density 24.143474000000001
#
# number of rings (size 3 to 8) (size 9 to 14) (size 15 to 20)
#    0.000    1.500    2.500    3.750    0.000    4.500 
#    0.000    3.750    0.000    0.000    0.000    0.000 
#    0.000    0.000    0.000    0.000    0.000    0.000 
#
# Total GULP energy -178417.660936 kJ/mol
# GULP energy per Si atom -5575.551904 kJ/mol
# Density = 2.408852 g / cm^3
# Si number density = 24.143474 Si / 1000 Ang^3
#
#
#
# Elastic Constant Matrix: (Units=GPa)
#
#
# Indices 1 2 3 4 5 6 
#
# 1 81.6925 52.5619 50.5108 0.0000 0.0000 0.0000
# 2 52.5619 127.9941 51.8585 0.0000 0.0000 0.0000
# 3 50.5108 51.8585 277.3207 0.0000 0.0000 0.0000
# 4 0.0000 0.0000 0.0000 57.3335 0.0000 0.0000
# 5 0.0000 0.0000 0.0000 0.0000 204.7358 0.0000
# 6 0.0000 0.0000 0.0000 0.0000 0.0000 42.7626
#
#
#
# Elastic Compliance Matrix: (Units=1/GPa)
#
#
# Indices 1 2 3 4 5 6 
#
# 1 0.017613 -0.006419 -0.002008 0.000000 0.000000 0.000000
# 2 -0.006419 0.010793 -0.000849 0.000000 0.000000 0.000000
# 3 -0.002008 -0.000849 0.004130 0.000000 0.000000 0.000000
# 4 0.000000 0.000000 0.000000 0.017442 0.000000 0.000000
# 5 0.000000 0.000000 0.000000 0.000000 0.004884 0.000000
# 6 0.000000 0.000000 0.000000 0.000000 0.000000 0.023385
#
#
# Mechanical properties :
#
#
# Convention : Reuss Voigt Hill
#
# Bulk Modulus (GPa) = 71.51005 88.54109 80.02557
# Shear Modulus (GPa) = 49.28031 83.10479 66.19255
#
# Velocity S-wave (km/s) = 4.52280 5.87333 5.24174
# Velocity P-wave (km/s) = 7.54701 9.09654 8.35777
#
# Compressibility (1/GPa) = 0.01398405
#
# Stress axis : x y z
#
# Youngs Moduli (GPa) = 56.77749 92.65221 242.10997
#
# Poissons Ratio (x) = 0.59477 0.48604
# Poissons Ratio (y) = 0.36448 0.20557
# Poissons Ratio (z) = 0.11398 0.07867
#
# Static dielectric constant tensor:
#      x y z
#    x 1.973090 0.000000 0.000000 
#    y 0.000000 1.973440 0.000000 
#    z 0.000000 0.000000 1.980140 
# 
# From -- ./inp_files/11602.got.cif
#   From: 2010.05.17/outbox.cif.g08.bks.cpg/sg55_6_cif.got.tgz:11602.got - 2010.06.03 13:27:54.
