data_PCOD9429473
_publ_section_title
;
Structure prediction by ZEFSAII (Michael W. Deem and Ramdas Pophale) SiO2 
 PCOD9429473
Probable space group: P B A M
;
_chemical_formula_sum "Si O2"
_cell_formula_units_Z 58
_cell_length_a 24.000000
_cell_length_b 9.000000
_cell_length_c 15.000000
_cell_angle_alpha 90.000000
_cell_angle_beta 90.000000
_cell_angle_gamma 90.000000
_cell_volume 3240.000000
_symmetry_space_group_name_H-M "P B A M"
_symmetry_group_IT_number 55
_symmetry_cell_setting 'orthorhombic'
loop_
_space_group_symop_operation_xyz
x,y,z
-x,-y,z
1/2+x,1/2-y,-z
1/2-x,1/2+y,-z
-x,-y,-z
x,y,-z
1/2-x,1/2+y,z
1/2+x,1/2-y,z
loop_
_atom_site_type_symbol
_atom_site_label
_atom_site_fract_x
_atom_site_fract_y
_atom_site_fract_z
Si Si1 0.749600 0.768128 0.830284
Si Si2 0.500000 0.000000 0.500000
Si Si3 0.667623 0.023620 0.898839
Si Si4 0.667312 0.510883 0.763378
Si Si5 0.513977 0.251064 0.351121
Si Si6 0.449966 0.887837 0.837951
Si Si7 0.413550 0.457366 0.606287
Si Si8 0.937674 0.941634 0.897093
O O1 0.792849 0.668398 0.887327
O O2 0.706966 0.650508 0.786390
O O3 0.708685 0.885702 0.878299
O O4 0.791920 0.867877 0.770932
O O5 0.484726 0.877149 0.423208
O O6 0.611295 0.034987 0.839481
O O7 0.647683 0.012872 0.000000
O O8 0.641523 0.532542 0.665705
O O9 0.613881 0.490632 0.832024
O O10 0.532180 0.179496 0.257808
O O11 0.554215 0.387530 0.377415
O O12 0.452702 0.326354 0.354347
O O13 0.442119 0.737396 0.895025
O O14 0.500000 0.000000 0.865679
O O15 0.406430 0.434630 0.500000
O O16 0.927712 0.990572 0.000000
O O17 0.000000 0.000000 0.869294
#
# Coordination Sequence:
#
# PCOD9429473 Si02
#       8
#     8   2   8   8   8   8   8   8
#     4  10  24  42  64  88 116 172 217 274 315 361
#     4  12  20  34  56  92 134 158 200 252 296 386
#     4  11  23  41  62  89 122 165 221 267 313 376
#     4  11  23  43  67  90 127 163 218 269 315 378
#     4  11  21  37  60  94 133 162 201 249 313 384
#     4  12  25  38  60  93 135 168 196 263 327 377
#     4  11  21  39  67  93 121 168 209 249 313 389
#     4  11  24  41  62  91 128 172 212 256 322 395
#
# _framework density 17.901235
#
# number of rings (size 3 to 8) (size 9 to 14) (size 15 to 20)
#    0.000    0.966    4.828    2.069    3.862    3.862 
#    0.000    0.690    0.000    0.000    0.000    0.000 
#    0.000    0.000    0.000    0.000    0.000    0.000 
#
# Total GULP energy -323113.519552 kJ/mol
# GULP energy per Si atom -5570.922751 kJ/mol
# Density = 1.786049 g / cm^3
# Si number density = 17.901235 Si / 1000 Ang^3
#
#
#
# Elastic Constant Matrix: (Units=GPa)
#
#
# Indices 1 2 3 4 5 6 
#
# 1 133.9399 41.8650 46.7075 0.0000 0.0000 0.0000
# 2 41.8650 75.2702 30.4625 0.0000 0.0000 0.0000
# 3 46.7075 30.4625 104.0439 0.0000 0.0000 0.0000
# 4 0.0000 0.0000 0.0000 19.9460 0.0000 0.0000
# 5 0.0000 0.0000 0.0000 0.0000 9.7630 0.0000
# 6 0.0000 0.0000 0.0000 0.0000 0.0000 37.7442
#
#
#
# Elastic Compliance Matrix: (Units=1/GPa)
#
#
# Indices 1 2 3 4 5 6 
#
# 1 0.009901 -0.004207 -0.003213 0.000000 0.000000 0.000000
# 2 -0.004207 0.016859 -0.003047 0.000000 0.000000 0.000000
# 3 -0.003213 -0.003047 0.011946 0.000000 0.000000 0.000000
# 4 0.000000 0.000000 0.000000 0.050135 0.000000 0.000000
# 5 0.000000 0.000000 0.000000 0.000000 0.102428 0.000000
# 6 0.000000 0.000000 0.000000 0.000000 0.000000 0.026494
#
#
# Mechanical properties :
#
#
# Convention : Reuss Voigt Hill
#
# Bulk Modulus (GPa) = 56.27092 61.25824 58.76458
# Shear Modulus (GPa) = 20.43969 26.43857 23.43913
#
# Velocity S-wave (km/s) = 3.38272 3.84723 3.62243
# Velocity P-wave (km/s) = 6.83809 7.35046 7.09890
#
# Compressibility (1/GPa) = 0.01777117
#
# Stress axis : x y z
#
# Youngs Moduli (GPa) = 100.99537 59.31707 83.70934
#
# Poissons Ratio (x) = 0.24953 0.26898
# Poissons Ratio (y) = 0.42486 0.25510
# Poissons Ratio (z) = 0.32453 0.18077
#
# Static dielectric constant tensor:
#      x y z
#    x 1.604700 0.000000 0.000000 
#    y 0.000000 1.628500 0.000000 
#    z 0.000000 0.000000 1.618580 
# 
# From -- ./inp_files/19941.got.cif
#   From: 2010.05.17/outbox.ucp.g08.bks.cvg/sg55_10_cif.got.tgz:19941.got - 2010.06.11 16:36:00.
