data_PCOD9429704
_publ_section_title
;
Structure prediction by ZEFSAII (Michael W. Deem and Ramdas Pophale) SiO2 
 PCOD9429704
Probable space group: P C C N
;
_chemical_formula_sum "Si O2"
_cell_formula_units_Z 64
_cell_length_a 25.037033
_cell_length_b 21.261720
_cell_length_c 5.557278
_cell_angle_alpha 90.000000
_cell_angle_beta 90.000000
_cell_angle_gamma 90.000000
_cell_volume 2958.307939
_symmetry_space_group_name_H-M "P C C N"
_symmetry_group_IT_number 56
_symmetry_cell_setting 'orthorhombic'
loop_
_space_group_symop_operation_xyz
x,y,z
1/2-x,1/2-y,z
1/2+x,-y,1/2-z
-x,1/2+y,1/2-z
-x,-y,-z
1/2+x,1/2+y,-z
1/2-x,y,1/2+z
x,1/2-y,1/2+z
loop_
_atom_site_type_symbol
_atom_site_label
_atom_site_fract_x
_atom_site_fract_y
_atom_site_fract_z
Si Si1 0.932222 0.401989 0.742557
Si Si2 0.393971 0.288755 0.230276
Si Si3 0.221378 0.147081 0.260929
Si Si4 0.276028 0.993234 0.760231
Si Si5 0.512042 0.286965 0.297811
Si Si6 0.381235 0.462898 0.256329
Si Si7 0.477365 0.553541 0.256042
Si Si8 0.602808 0.964674 0.742842
O O1 0.960416 0.410923 0.484421
O O2 0.888842 0.459113 0.743216
O O3 0.933528 0.326951 0.762072
O O4 0.964018 0.415598 0.990225
O O5 0.393691 0.241380 0.461415
O O6 0.338921 0.326890 0.254932
O O7 0.453200 0.320935 0.260624
O O8 0.249163 0.167273 0.512739
O O9 0.224428 0.070202 0.260410
O O10 0.249630 0.972306 0.510984
O O11 0.338974 0.979752 0.757457
O O12 0.511321 0.261101 0.571152
O O13 0.440609 0.491341 0.253319
O O14 0.374812 0.433851 0.518246
O O15 0.374307 0.433619 0.994812
O O16 0.539533 0.541518 0.242567
#
# Coordination Sequence:
#
# PCOD9429704 Si02
#       8
#     8   8   8   8   8   8   8   8
#     4  10  18  31  48  66  95 126 150 190 231 262
#     4  10  21  34  47  63  80 103 143 193 241 288
#     4  10  21  34  47  63  80 103 143 193 241 288
#     4  10  21  36  49  66  91 122 161 193 227 281
#     4  10  21  36  49  66  91 122 161 193 227 281
#     4  10  18  31  48  66  95 126 150 190 231 262
#     4  10  19  30  47  76 101 120 156 189 232 300
#     4  10  19  30  47  76 101 120 156 189 232 300
#
# _framework density 21.633987000000001
#
# number of rings (size 3 to 8) (size 9 to 14) (size 15 to 20)
#    0.000    2.000    0.000    6.000    0.000    4.500 
#    0.000    0.000    0.000    0.000    0.000    0.000 
#    0.000    0.000    0.000    0.000    0.000  700.000 
#
# Total GULP energy -356326.379324 kJ/mol
# GULP energy per Si atom -5567.599677 kJ/mol
# Density = 2.158475 g / cm^3
# Si number density = 21.633987 Si / 1000 Ang^3
#
#
#
# Elastic Constant Matrix: (Units=GPa)
#
#
# Indices 1 2 3 4 5 6 
#
# 1 36.0657 4.2376 40.1723 0.0000 0.0000 0.0000
# 2 4.2376 21.4803 -2.6034 0.0000 0.0000 0.0000
# 3 40.1723 -2.6034 216.9400 0.0000 0.0000 0.0000
# 4 0.0000 0.0000 0.0000 19.9400 0.0000 0.0000
# 5 0.0000 0.0000 0.0000 0.0000 30.4692 0.0000
# 6 0.0000 0.0000 0.0000 0.0000 0.0000 14.7732
#
#
#
# Elastic Compliance Matrix: (Units=1/GPa)
#
#
# Indices 1 2 3 4 5 6 
#
# 1 0.036247 -0.007976 -0.006808 0.000000 0.000000 0.000000
# 2 -0.007976 0.048377 0.002058 0.000000 0.000000 0.000000
# 3 -0.006808 0.002058 0.005895 0.000000 0.000000 0.000000
# 4 0.000000 0.000000 0.000000 0.050150 0.000000 0.000000
# 5 0.000000 0.000000 0.000000 0.000000 0.032820 0.000000
# 6 0.000000 0.000000 0.000000 0.000000 0.000000 0.067690
#
#
# Mechanical properties :
#
#
# Convention : Reuss Voigt Hill
#
# Bulk Modulus (GPa) = 15.36881 39.78877 27.57879
# Shear Modulus (GPa) = 17.34175 28.54847 22.94511
#
# Velocity S-wave (km/s) = 2.83432 3.63659 3.26023
# Velocity P-wave (km/s) = 4.22263 6.00539 5.19111
#
# Compressibility (1/GPa) = 0.06506686
#
# Stress axis : x y z
#
# Youngs Moduli (GPa) = 27.58817 20.67088 169.63733
#
# Poissons Ratio (x) = 0.16487 1.15488
# Poissons Ratio (y) = 0.22004 -0.34903
# Poissons Ratio (z) = 0.18782 -0.04253
#
# Static dielectric constant tensor:
#      x y z
#    x 1.863540 0.000000 0.000000 
#    y 0.000000 1.887670 0.000000 
#    z 0.000000 0.000000 1.871260 
# 
# From -- ./inp_files/1123.got.cif
#   From: 2010.05.17/outbox.cif.g08.bks.cpg/sg56_1_cif.got.tgz:1123.got - 2010.06.03 13:42:01.
