data_PCOD9429956
_publ_section_title
;
Structure prediction by ZEFSAII (Michael W. Deem and Ramdas Pophale) SiO2 
 PCOD9429956
Probable space group: P C C N
;
_chemical_formula_sum "Si O2"
_cell_formula_units_Z 60
_cell_length_a 23.862949
_cell_length_b 8.134706
_cell_length_c 16.907712
_cell_angle_alpha 90.000000
_cell_angle_beta 90.000000
_cell_angle_gamma 90.000000
_cell_volume 3282.092496
_symmetry_space_group_name_H-M "P C C N"
_symmetry_group_IT_number 56
_symmetry_cell_setting 'orthorhombic'
loop_
_space_group_symop_operation_xyz
x,y,z
1/2-x,1/2-y,z
1/2+x,-y,1/2-z
-x,1/2+y,1/2-z
-x,-y,-z
1/2+x,1/2+y,-z
1/2-x,y,1/2+z
x,1/2-y,1/2+z
loop_
_atom_site_type_symbol
_atom_site_label
_atom_site_fract_x
_atom_site_fract_y
_atom_site_fract_z
Si Si1 0.463773 0.834667 0.163528
Si Si2 0.382121 0.395399 0.188263
Si Si3 0.057326 0.550938 0.542171
Si Si4 0.362836 0.474796 0.728383
Si Si5 0.750000 0.250000 0.640313
Si Si6 0.452178 0.885151 0.807747
Si Si7 0.760060 0.941113 0.757884
Si Si8 0.870114 0.142519 0.103746
O O1 0.458576 0.716629 0.089282
O O2 0.481712 0.732950 0.242468
O O3 0.401768 0.896074 0.184783
O O4 0.503962 0.990352 0.153576
O O5 0.416924 0.431916 0.109158
O O6 0.384852 0.205940 0.211525
O O7 0.409524 0.506242 0.256163
O O8 0.315788 0.439331 0.188964
O O9 0.104505 0.569974 0.475578
O O10 0.000000 0.500000 0.500000
O O11 0.298678 0.483374 0.700574
O O12 0.365913 0.516948 0.821825
O O13 0.735538 0.412622 0.693220
O O14 0.692744 0.211022 0.594219
O O15 0.415339 0.778046 0.867397
O O16 0.750000 0.750000 0.728253
#
# Coordination Sequence:
#
# PCOD9429956 Si02
#       8
#     8   8   8   8   4   8   8   8
#     4  10  22  37  58  88 113 158 202 255 297 362
#     4  10  20  39  62  87 115 163 199 258 302 354
#     4  11  27  41  53  87 132 163 198 254 319 368
#     4   9  20  37  68  87 114 151 211 252 296 366
#     4  10  18  40  66  92 126 156 202 260 304 370
#     4  10  20  34  63  85 109 151 216 241 293 357
#     4   9  18  35  64  97 116 146 212 263 299 358
#     4  10  22  40  60  93 121 159 198 249 316 371
#
# _framework density 18.281020000000002
#
# number of rings (size 3 to 8) (size 9 to 14) (size 15 to 20)
#    0.000    2.133    1.333    0.800   13.067    0.533 
#    2.400    0.000    0.000    4.000    0.000    0.000 
#    0.000    0.000    0.000    0.000    0.000    0.000 
#
# Total GULP energy -334503.369281 kJ/mol
# GULP energy per Si atom -5575.056155 kJ/mol
# Density = 1.823941 g / cm^3
# Si number density = 18.281020 Si / 1000 Ang^3
#
#
#
# Elastic Constant Matrix: (Units=GPa)
#
#
# Indices 1 2 3 4 5 6 
#
# 1 125.9041 38.2360 32.0810 0.0000 0.0000 0.0000
# 2 38.2360 74.6728 16.9671 0.0000 0.0000 0.0000
# 3 32.0810 16.9671 38.8370 0.0000 0.0000 0.0000
# 4 0.0000 0.0000 0.0000 13.5738 0.0000 0.0000
# 5 0.0000 0.0000 0.0000 0.0000 22.9873 0.0000
# 6 0.0000 0.0000 0.0000 0.0000 0.0000 38.1250
#
#
#
# Elastic Compliance Matrix: (Units=1/GPa)
#
#
# Indices 1 2 3 4 5 6 
#
# 1 0.011028 -0.003971 -0.007374 0.000000 0.000000 0.000000
# 2 -0.003971 0.016298 -0.003840 0.000000 0.000000 0.000000
# 3 -0.007374 -0.003840 0.033518 0.000000 0.000000 0.000000
# 4 0.000000 0.000000 0.000000 0.073671 0.000000 0.000000
# 5 0.000000 0.000000 0.000000 0.000000 0.043502 0.000000
# 6 0.000000 0.000000 0.000000 0.000000 0.000000 0.026230
#
#
# Mechanical properties :
#
#
# Convention : Reuss Voigt Hill
#
# Bulk Modulus (GPa) = 32.81659 45.99801 39.40730
# Shear Modulus (GPa) = 20.42702 25.07921 22.75312
#
# Velocity S-wave (km/s) = 3.34636 3.70790 3.53176
# Velocity P-wave (km/s) = 5.73768 6.59906 6.18339
#
# Compressibility (1/GPa) = 0.03047239
#
# Stress axis : x y z
#
# Youngs Moduli (GPa) = 90.68198 61.35873 29.83498
#
# Poissons Ratio (x) = 0.24366 0.22001
# Poissons Ratio (y) = 0.36010 0.11456
# Poissons Ratio (z) = 0.66872 0.23561
#
# Static dielectric constant tensor:
#      x y z
#    x 1.671780 0.000000 0.000000 
#    y 0.000000 1.677940 0.000000 
#    z 0.000000 0.000000 1.586990 
# 
# From -- ./inp_files/13253.got.cif
#   From: 2010.05.17/outbox.cif.g08.bks.cpg/sg56_7_cif.got.tgz:13253.got - 2010.06.03 13:42:01.
