data_PCOD9429208
_publ_section_title
;
Structure prediction by ZEFSAII (Michael W. Deem and Ramdas Pophale) SiO2 
 PCOD9429208
Probable space group: P B A M
;
_chemical_formula_sum "Si O2"
_cell_formula_units_Z 32
_cell_length_a 8.489682
_cell_length_b 14.717453
_cell_length_c 11.113148
_cell_angle_alpha 90.000000
_cell_angle_beta 90.000000
_cell_angle_gamma 90.000000
_cell_volume 1388.548900
_symmetry_space_group_name_H-M "P B A M"
_symmetry_group_IT_number 55
_symmetry_cell_setting 'orthorhombic'
loop_
_space_group_symop_operation_xyz
x,y,z
-x,-y,z
1/2+x,1/2-y,-z
1/2-x,1/2+y,-z
-x,-y,-z
x,y,-z
1/2-x,1/2+y,z
1/2+x,1/2-y,z
loop_
_atom_site_type_symbol
_atom_site_label
_atom_site_fract_x
_atom_site_fract_y
_atom_site_fract_z
Si Si1 0.657944 0.286263 0.138341
Si Si2 0.654756 0.879863 0.500000
Si Si3 0.013256 0.813317 0.500000
Si Si4 0.160925 0.543724 0.234369
Si Si5 0.654849 0.634370 0.753017
O O1 0.784440 0.364327 0.170503
O O2 0.697324 0.200467 0.222122
O O3 0.487729 0.328136 0.166328
O O4 0.669818 0.259260 0.000000
O O5 0.536704 0.794889 0.500000
O O6 0.639316 0.934605 0.623783
O O7 0.830721 0.838657 0.500000
O O8 0.095529 0.854244 0.382582
O O9 0.295785 0.468004 0.221145
O O10 0.000000 0.500000 0.187121
#
# Coordination Sequence:
#
# PCOD9429208 Si02
#       5
#     8   4   4   8   8
#     4  12  27  48  73 104 143 194 248 295 352 427
#     4  12  26  45  72 113 145 185 235 299 370 436
#     4  12  23  43  77 102 143 186 229 292 370 430
#     4  12  27  45  72 106 147 186 238 299 364 429
#     4  12  25  46  74 105 146 188 235 305 365 428
#
# _framework density 23.045641
#
# number of rings (size 3 to 8) (size 9 to 14) (size 15 to 20)
#    0.000    0.000    5.000    4.125    3.500    4.500 
#    0.000    0.000    0.000    0.000    0.000    0.000 
#    0.000    0.000    0.000    0.000    0.000    0.000 
#
# Total GULP energy -179530.748120 kJ/mol
# GULP energy per Si atom -5610.335879 kJ/mol
# Density = 2.299319 g / cm^3
# Si number density = 23.045641 Si / 1000 Ang^3
#
#
#
# Elastic Constant Matrix: (Units=GPa)
#
#
# Indices 1 2 3 4 5 6 
#
# 1 75.8845 6.4745 10.0060 0.0000 0.0000 0.0000
# 2 6.4745 77.0196 -8.4621 0.0000 0.0000 0.0000
# 3 10.0060 -8.4621 74.9486 0.0000 0.0000 0.0000
# 4 0.0000 0.0000 0.0000 -15.5528 0.0000 0.0000
# 5 0.0000 0.0000 0.0000 0.0000 0.5354 0.0000
# 6 0.0000 0.0000 0.0000 0.0000 0.0000 45.7143
#
#
#
# Elastic Compliance Matrix: (Units=1/GPa)
#
#
# Indices 1 2 3 4 5 6 
#
# 1 0.013552 -0.001355 -0.001962 0.000000 0.000000 0.000000
# 2 -0.001355 0.013282 0.001681 0.000000 0.000000 0.000000
# 3 -0.001962 0.001681 0.013794 0.000000 0.000000 0.000000
# 4 0.000000 0.000000 0.000000 -0.064297 0.000000 0.000000
# 5 0.000000 0.000000 0.000000 0.000000 1.867937 0.000000
# 6 0.000000 0.000000 0.000000 0.000000 0.000000 0.021875
#
#
# Mechanical properties :
#
#
# Convention : Reuss Voigt Hill
#
# Bulk Modulus (GPa) = 26.76979 27.09881 26.93430
# Shear Modulus (GPa) = 2.65693 20.79499 11.72596
#
# Velocity S-wave (km/s) = 1.07490 3.00716 2.25814
# Velocity P-wave (km/s) = 3.63067 4.88279 4.30252
#
# Compressibility (1/GPa) = 0.03735554
#
# Stress axis : x y z
#
# Youngs Moduli (GPa) = 73.78847 75.28852 72.49429
#
# Poissons Ratio (x) = 0.10200 0.14225
# Poissons Ratio (y) = 0.09997 -0.12183
# Poissons Ratio (z) = 0.14479 -0.12652
#
# Static dielectric constant tensor:
#      x y z
#    x 1.897160 0.000000 0.000000 
#    y 0.000000 1.821690 0.000000 
#    z 0.000000 0.000000 1.801090 
# 
# From -- ./inp_files/11651.got.cif
#   From: 2010.05.17/outbox.cif.g08.bks.cpg/sg55_6_cif.got.tgz:11651.got - 2010.06.03 13:27:54.
