data_PCOD9429674
_publ_section_title
;
Structure prediction by ZEFSAII (Michael W. Deem and Ramdas Pophale) SiO2 
 PCOD9429674
Probable space group: P C C N
;
_chemical_formula_sum "Si O2"
_cell_formula_units_Z 32
_cell_length_a 5.407362
_cell_length_b 7.274174
_cell_length_c 36.976183
_cell_angle_alpha 90.000000
_cell_angle_beta 90.000000
_cell_angle_gamma 90.000000
_cell_volume 1454.424586
_symmetry_space_group_name_H-M "P C C N"
_symmetry_group_IT_number 56
_symmetry_cell_setting 'orthorhombic'
loop_
_space_group_symop_operation_xyz
x,y,z
1/2-x,1/2-y,z
1/2+x,-y,1/2-z
-x,1/2+y,1/2-z
-x,-y,-z
1/2+x,1/2+y,-z
1/2-x,y,1/2+z
x,1/2-y,1/2+z
loop_
_atom_site_type_symbol
_atom_site_label
_atom_site_fract_x
_atom_site_fract_y
_atom_site_fract_z
Si Si1 0.863919 0.046540 0.768968
Si Si2 0.498905 0.130241 0.343910
Si Si3 0.005497 0.042730 0.926713
Si Si4 0.997899 0.034131 0.457410
O O1 0.750000 0.250000 0.770705
O O2 0.951117 0.998128 0.809690
O O3 0.619594 0.943814 0.753921
O O4 0.750000 0.250000 0.347183
O O5 0.469415 0.047369 0.383624
O O6 0.250000 0.250000 0.336276
O O7 0.750279 0.958159 0.939766
O O8 0.249185 0.954098 0.942519
O O9 0.001129 0.251215 0.943895
O O10 0.000000 0.000000 0.500000
#
# Coordination Sequence:
#
# PCOD9429674 Si02
#       4
#     8   8   8   8
#     4  11  23  39  62  98 127 164 209 263 319 378
#     4  11  18  34  58  84 116 145 197 257 292 361
#     4  10  18  32  49  79 106 138 193 234 281 345
#     4  10  18  29  48  77 108 135 172 235 296 327
#
# _framework density 22.001830999999999
#
# number of rings (size 3 to 8) (size 9 to 14) (size 15 to 20)
#    0.000    1.500    5.000    4.500    0.000    0.000 
#    0.000    0.000    0.000    0.000   65.000    0.000 
#    0.000    0.000    0.000    0.000    0.000    0.000 
#
# Total GULP energy -178391.951921 kJ/mol
# GULP energy per Si atom -5574.748498 kJ/mol
# Density = 2.195175 g / cm^3
# Si number density = 22.001831 Si / 1000 Ang^3
#
#
#
# Elastic Constant Matrix: (Units=GPa)
#
#
# Indices 1 2 3 4 5 6 
#
# 1 254.7398 10.2568 90.7399 0.0000 0.0000 0.0000
# 2 10.2568 59.7037 17.4626 0.0000 0.0000 0.0000
# 3 90.7399 17.4626 234.3669 0.0000 0.0000 0.0000
# 4 0.0000 0.0000 0.0000 46.7523 0.0000 0.0000
# 5 0.0000 0.0000 0.0000 0.0000 44.7123 0.0000
# 6 0.0000 0.0000 0.0000 0.0000 0.0000 4.3298
#
#
#
# Elastic Compliance Matrix: (Units=1/GPa)
#
#
# Indices 1 2 3 4 5 6 
#
# 1 0.004558 -0.000273 -0.001744 0.000000 0.000000 0.000000
# 2 -0.000273 0.017139 -0.001171 0.000000 0.000000 0.000000
# 3 -0.001744 -0.001171 0.005029 0.000000 0.000000 0.000000
# 4 0.000000 0.000000 0.000000 0.021389 0.000000 0.000000
# 5 0.000000 0.000000 0.000000 0.000000 0.022365 0.000000
# 6 0.000000 0.000000 0.000000 0.000000 0.000000 0.230955
#
#
# Mechanical properties :
#
#
# Convention : Reuss Voigt Hill
#
# Bulk Modulus (GPa) = 49.14219 87.30322 68.22271
# Shear Modulus (GPa) = 15.89340 47.84896 31.87118
#
# Velocity S-wave (km/s) = 2.69061 4.66850 3.81014
# Velocity P-wave (km/s) = 5.66008 8.29615 7.10150
#
# Compressibility (1/GPa) = 0.02034911
#
# Stress axis : x y z
#
# Youngs Moduli (GPa) = 219.39880 58.34687 198.82857
#
# Poissons Ratio (x) = 0.01592 0.34683
# Poissons Ratio (y) = 0.05986 0.23290
# Poissons Ratio (z) = 0.38271 0.06835
#
# Static dielectric constant tensor:
#      x y z
#    x 1.834400 0.000000 0.000000 
#    y 0.000000 1.789440 0.000000 
#    z 0.000000 0.000000 1.824470 
# 
# From -- ./inp_files/22654.got.cif
#   From: 2010.05.17/outbox.cif.g08.bks.cpg/sg56_12_cif.got.tgz:22654.got - 2010.06.03 13:42:01.
