data_PCOD9429934
_publ_section_title
;
Structure prediction by ZEFSAII (Michael W. Deem and Ramdas Pophale) SiO2 
 PCOD9429934
Probable space group: P C C N
;
_chemical_formula_sum "Si O2"
_cell_formula_units_Z 32
_cell_length_a 4.911914
_cell_length_b 23.988555
_cell_length_c 13.721808
_cell_angle_alpha 90.000000
_cell_angle_beta 90.000000
_cell_angle_gamma 90.000000
_cell_volume 1616.836783
_symmetry_space_group_name_H-M "P C C N"
_symmetry_group_IT_number 56
_symmetry_cell_setting 'orthorhombic'
loop_
_space_group_symop_operation_xyz
x,y,z
1/2-x,1/2-y,z
1/2+x,-y,1/2-z
-x,1/2+y,1/2-z
-x,-y,-z
1/2+x,1/2+y,-z
1/2-x,y,1/2+z
x,1/2-y,1/2+z
loop_
_atom_site_type_symbol
_atom_site_label
_atom_site_fract_x
_atom_site_fract_y
_atom_site_fract_z
Si Si1 0.343292 0.648522 0.705199
Si Si2 0.811337 0.858858 0.334800
Si Si3 0.913732 0.537585 0.256993
Si Si4 0.989959 0.212310 0.487429
O O1 0.551761 0.671924 0.787073
O O2 0.460256 0.585825 0.687983
O O3 0.364735 0.683601 0.608059
O O4 0.050088 0.643896 0.754467
O O5 0.711857 0.923170 0.341942
O O6 0.910253 0.832507 0.434064
O O7 0.664657 0.501876 0.215298
O O8 0.750000 0.250000 0.530938
O O9 0.250000 0.250000 0.461168
#
# Coordination Sequence:
#
# PCOD9429934 Si02
#       4
#     8   8   8   8
#     4  10  22  40  62  89 126 154 206 247 297 367
#     4  10  22  40  62  89 126 154 206 247 297 367
#     4  10  18  38  67  84 119 162 194 252 308 346
#     4  12  26  40  62  91 124 163 206 248 299 359
#
# _framework density 19.791730000000001
#
# number of rings (size 3 to 8) (size 9 to 14) (size 15 to 20)
#    1.500    0.000    2.500    3.000    0.000    6.000 
#    0.000    2.500    0.000    0.000    0.000    0.000 
#    0.000    0.000    0.000    0.000    0.000    0.000 
#
# Total GULP energy -178286.900736 kJ/mol
# GULP energy per Si atom -5571.465648 kJ/mol
# Density = 1.974668 g / cm^3
# Si number density = 19.791730 Si / 1000 Ang^3
#
#
#
# Elastic Constant Matrix: (Units=GPa)
#
#
# Indices 1 2 3 4 5 6 
#
# 1 97.6800 29.9810 -0.2466 0.0000 0.0000 0.0000
# 2 29.9810 81.5005 21.5864 0.0000 0.0000 0.0000
# 3 -0.2466 21.5864 40.8246 0.0000 0.0000 0.0000
# 4 0.0000 0.0000 0.0000 33.9696 0.0000 0.0000
# 5 0.0000 0.0000 0.0000 0.0000 23.3354 0.0000
# 6 0.0000 0.0000 0.0000 0.0000 0.0000 -22.0785
#
#
#
# Elastic Compliance Matrix: (Units=1/GPa)
#
#
# Indices 1 2 3 4 5 6 
#
# 1 0.011801 -0.005070 0.002752 0.000000 0.000000 0.000000
# 2 -0.005070 0.016446 -0.008727 0.000000 0.000000 0.000000
# 3 0.002752 -0.008727 0.029126 0.000000 0.000000 0.000000
# 4 0.000000 0.000000 0.000000 0.029438 0.000000 0.000000
# 5 0.000000 0.000000 0.000000 0.000000 0.042853 0.000000
# 6 0.000000 0.000000 0.000000 0.000000 0.000000 -0.045293
#
#
# Mechanical properties :
#
#
# Convention : Reuss Voigt Hill
#
# Bulk Modulus (GPa) = 28.34173 35.84962 32.09568
# Shear Modulus (GPa) = 42.29334 18.29091 30.29213
#
# Velocity S-wave (km/s) = 4.62770 3.04331 3.91646
# Velocity P-wave (km/s) = 6.55021 5.52284 6.05834
#
# Compressibility (1/GPa) = 0.03528366
#
# Stress axis : x y z
#
# Youngs Moduli (GPa) = 84.74169 60.80398 34.33353
#
# Poissons Ratio (x) = 0.30827 -0.09449
# Poissons Ratio (y) = 0.42963 0.29962
# Poissons Ratio (z) = -0.23321 0.53062
#
# Static dielectric constant tensor:
#      x y z
#    x 1.719400 0.000000 0.000000 
#    y 0.000000 1.749490 0.000000 
#    z 0.000000 0.000000 1.655000 
# 
# From -- ./inp_files/5491.got.cif
#   From: 2010.05.17/outbox.cif.g08.bks.cpg/sg56_3_cif.got.tgz:5491.got - 2010.06.03 13:42:01.
