data_PCOD9429470
_publ_section_title
;
Structure prediction by ZEFSAII (Michael W. Deem and Ramdas Pophale) SiO2 
 PCOD9429470
Probable space group: P B A M
;
_chemical_formula_sum "Si O2"
_cell_formula_units_Z 48
_cell_length_a 18.000000
_cell_length_b 15.000000
_cell_length_c 9.000000
_cell_angle_alpha 90.000000
_cell_angle_beta 90.000000
_cell_angle_gamma 90.000000
_cell_volume 2430.000000
_symmetry_space_group_name_H-M "P B A M"
_symmetry_group_IT_number 55
_symmetry_cell_setting 'orthorhombic'
loop_
_space_group_symop_operation_xyz
x,y,z
-x,-y,z
1/2+x,1/2-y,-z
1/2-x,1/2+y,-z
-x,-y,-z
x,y,-z
1/2-x,1/2+y,z
1/2+x,1/2-y,z
loop_
_atom_site_type_symbol
_atom_site_label
_atom_site_fract_x
_atom_site_fract_y
_atom_site_fract_z
Si Si1 0.098316 0.260379 0.674709
Si Si2 0.426644 0.556616 0.325480
Si Si3 0.666224 0.839966 0.676730
Si Si4 0.750422 0.688467 0.175714
Si Si5 0.986847 0.394820 0.174890
Si Si6 0.225926 0.018873 0.824792
O O1 0.116243 0.270393 0.500000
O O2 0.062846 0.162641 0.695034
O O3 0.172449 0.269043 0.771161
O O4 0.044521 0.337543 0.730530
O O5 0.500000 0.500000 0.295378
O O6 0.406485 0.543151 0.500000
O O7 0.359628 0.526128 0.221613
O O8 0.656487 0.841872 0.500000
O O9 0.688774 0.741591 0.731798
O O10 0.593496 0.870657 0.763337
O O11 0.729693 0.909517 0.727282
O O12 0.751746 0.582583 0.203546
O O13 0.738964 0.702210 0.000000
O O14 0.000000 0.500000 0.191903
O O15 0.993900 0.373176 0.000000
O O16 0.236697 0.038011 0.000000
#
# Coordination Sequence:
#
# PCOD9429470 Si02
#       6
#     8   8   8   8   8   8
#     4  11  23  41  66  98 130 170 213 260 324 382
#     4  10  23  42  63  92 130 169 211 262 319 380
#     4  12  25  42  66  96 129 168 213 265 321 380
#     4  11  24  42  65  95 129 168 212 263 320 382
#     4  11  25  44  66  93 129 172 214 264 322 380
#     4  11  24  42  66  95 127 166 213 263 321 383
#
# _framework density 19.753086
#
# number of rings (size 3 to 8) (size 9 to 14) (size 15 to 20)
#    0.000    1.000    1.667    4.500    2.333    9.000 
#    0.000    0.000    0.000    0.000    0.000    0.000 
#    0.000    0.000    0.000    0.000    0.000    0.000 
#
# Total GULP energy -268485.706146 kJ/mol
# GULP energy per Si atom -5593.452211 kJ/mol
# Density = 1.970813 g / cm^3
# Si number density = 19.753086 Si / 1000 Ang^3
#
#
#
# Elastic Constant Matrix: (Units=GPa)
#
#
# Indices 1 2 3 4 5 6 
#
# 1 23.8393 -19.4162 -38.0968 0.0000 0.0000 0.0000
# 2 -19.4162 55.6953 2.7502 0.0000 0.0000 0.0000
# 3 -38.0968 2.7502 3.3846 0.0000 0.0000 0.0000
# 4 0.0000 0.0000 0.0000 31.3972 0.0000 0.0000
# 5 0.0000 0.0000 0.0000 0.0000 33.5815 0.0000
# 6 0.0000 0.0000 0.0000 0.0000 0.0000 35.5516
#
#
#
# Elastic Compliance Matrix: (Units=1/GPa)
#
#
# Indices 1 2 3 4 5 6 
#
# 1 -0.002454 0.000530 -0.028055 0.000000 0.000000 0.000000
# 2 0.000530 0.018591 -0.009143 0.000000 0.000000 0.000000
# 3 -0.028055 -0.009143 -0.012895 0.000000 0.000000 0.000000
# 4 0.000000 0.000000 0.000000 0.031850 0.000000 0.000000
# 5 0.000000 0.000000 0.000000 0.000000 0.029778 0.000000
# 6 0.000000 0.000000 0.000000 0.000000 0.000000 0.028128
#
#
# Mechanical properties :
#
#
# Convention : Reuss Voigt Hill
#
# Bulk Modulus (GPa) = -14.26632 -2.95627 -8.61129
# Shear Modulus (GPa) = 34.97250 29.28486 32.12868
#
# Velocity S-wave (km/s) = 4.21228 3.85456 4.03738
# Velocity P-wave (km/s) = 4.05212 4.27906 4.16713
#
# Compressibility (1/GPa) = -0.07009518
#
# Stress axis : x y z
#
# Youngs Moduli (GPa) = -407.46679 53.78946 -77.54737
#
# Poissons Ratio (x) = -0.02849 -2.17556
# Poissons Ratio (y) = 0.21585 -0.70905
# Poissons Ratio (z) = -11.43132 0.49182
#
# Static dielectric constant tensor:
#      x y z
#    x 1.792960 0.000000 0.000000 
#    y 0.000000 1.680670 0.000000 
#    z 0.000000 0.000000 1.650550 
# 
# From -- ./inp_files/7421.got.cif
#   From: 2010.05.17/outbox.ucp.g08.bks.cvg/sg55_4_cif.got.tgz:7421.got - 2010.06.11 16:36:00.
