data_PCOD9429226
_publ_section_title
;
Structure prediction by ZEFSAII (Michael W. Deem and Ramdas Pophale) SiO2 
 PCOD9429226
Probable space group: P B A M
;
_chemical_formula_sum "Si O2"
_cell_formula_units_Z 32
_cell_length_a 17.570677
_cell_length_b 12.772052
_cell_length_c 5.735808
_cell_angle_alpha 90.000000
_cell_angle_beta 90.000000
_cell_angle_gamma 90.000000
_cell_volume 1287.193324
_symmetry_space_group_name_H-M "P B A M"
_symmetry_group_IT_number 55
_symmetry_cell_setting 'orthorhombic'
loop_
_space_group_symop_operation_xyz
x,y,z
-x,-y,z
1/2+x,1/2-y,-z
1/2-x,1/2+y,-z
-x,-y,-z
x,y,-z
1/2-x,1/2+y,z
1/2+x,1/2-y,z
loop_
_atom_site_type_symbol
_atom_site_label
_atom_site_fract_x
_atom_site_fract_y
_atom_site_fract_z
Si Si1 0.657873 0.368384 0.250315
Si Si2 0.122443 0.445970 0.000000
Si Si3 0.474658 0.364566 0.249598
Si Si4 0.541809 0.837030 0.000000
Si Si5 0.231350 0.900093 0.248811
O O1 0.680203 0.320298 0.500000
O O2 0.566140 0.370866 0.251380
O O3 0.693584 0.484327 0.249001
O O4 0.679477 0.319061 0.000000
O O5 0.178089 0.418208 0.214750
O O6 0.043718 0.383574 0.000000
O O7 0.100144 0.568057 0.000000
O O8 0.447935 0.405360 0.500000
O O9 0.452626 0.243000 0.216752
O O10 0.449967 0.412604 0.000000
O O11 0.213601 0.852318 0.500000
O O12 0.206817 0.849902 0.000000
#
# Coordination Sequence:
#
# PCOD9429226 Si02
#       5
#     8   4   8   4   8
#     4   8  12  22  38  52  60  70  98 142 184 212
#     4   9  18  27  34  46  68  99 128 145 158 184
#     4   8  15  25  37  49  61  79 108 145 178 202
#     4   9  18  27  34  46  68  99 128 145 158 184
#     4   8  15  25  37  49  61  79 108 145 178 202
#
# _framework density 24.860292000000001
#
# number of rings (size 3 to 8) (size 9 to 14) (size 15 to 20)
#    1.500    2.250    0.000    0.000    0.000    2.000 
#    0.000    2.500    0.000    0.000    0.000    0.000 
#    0.000    0.000    0.000    0.000    0.000   20.000 
#
# Total GULP energy -178232.008629 kJ/mol
# GULP energy per Si atom -5569.750270 kJ/mol
# Density = 2.480371 g / cm^3
# Si number density = 24.860292 Si / 1000 Ang^3
#
#
#
# Elastic Constant Matrix: (Units=GPa)
#
#
# Indices 1 2 3 4 5 6 
#
# 1 86.9734 21.5813 13.5280 0.0000 0.0000 0.0000
# 2 21.5813 87.5620 30.8894 0.0000 0.0000 0.0000
# 3 13.5280 30.8894 303.5783 0.0000 0.0000 0.0000
# 4 0.0000 0.0000 0.0000 -19.4168 0.0000 0.0000
# 5 0.0000 0.0000 0.0000 0.0000 -5.9371 0.0000
# 6 0.0000 0.0000 0.0000 0.0000 0.0000 23.7949
#
#
#
# Elastic Compliance Matrix: (Units=1/GPa)
#
#
# Indices 1 2 3 4 5 6 
#
# 1 0.012265 -0.002935 -0.000248 0.000000 0.000000 0.000000
# 2 -0.002935 0.012548 -0.001146 0.000000 0.000000 0.000000
# 3 -0.000248 -0.001146 0.003422 0.000000 0.000000 0.000000
# 4 0.000000 0.000000 0.000000 -0.051502 0.000000 0.000000
# 5 0.000000 0.000000 0.000000 0.000000 -0.168432 0.000000
# 6 0.000000 0.000000 0.000000 0.000000 0.000000 0.042026
#
#
# Mechanical properties :
#
#
# Convention : Reuss Voigt Hill
#
# Bulk Modulus (GPa) = 51.08270 67.79012 59.43641
# Shear Modulus (GPa) = -37.17771 27.16253 -5.00759
#
# Velocity S-wave (km/s) = -3.87132 3.30905 -1.42080
# Velocity P-wave (km/s) = 0.78082 6.47513 4.61178
#
# Compressibility (1/GPa) = 0.01957610
#
# Stress axis : x y z
#
# Youngs Moduli (GPa) = 81.53482 79.69242 292.25298
#
# Poissons Ratio (x) = 0.23393 0.07244
# Poissons Ratio (y) = 0.23934 0.33492
# Poissons Ratio (z) = 0.02021 0.09133
#
# Static dielectric constant tensor:
#      x y z
#    x 1.919770 0.000000 0.000000 
#    y 0.000000 1.897550 0.000000 
#    z 0.000000 0.000000 2.033940 
# 
# From -- ./inp_files/692.got.cif
#   From: 2010.05.17/outbox.cif.g08.bks.cpg/sg55_1_cif.got.tgz:692.got - 2010.06.03 13:27:54.
