data_PCOD9429169
_publ_section_title
;
Structure prediction by ZEFSAII (Michael W. Deem and Ramdas Pophale) SiO2 
 PCOD9429169
Probable space group: P B A M
;
_chemical_formula_sum "Si O2"
_cell_formula_units_Z 40
_cell_length_a 18.077529
_cell_length_b 9.387411
_cell_length_c 11.524775
_cell_angle_alpha 90.000000
_cell_angle_beta 90.000000
_cell_angle_gamma 90.000000
_cell_volume 1955.768085
_symmetry_space_group_name_H-M "P B A M"
_symmetry_group_IT_number 55
_symmetry_cell_setting 'orthorhombic'
loop_
_space_group_symop_operation_xyz
x,y,z
-x,-y,z
1/2+x,1/2-y,-z
1/2-x,1/2+y,-z
-x,-y,-z
x,y,-z
1/2-x,1/2+y,z
1/2+x,1/2-y,z
loop_
_atom_site_type_symbol
_atom_site_label
_atom_site_fract_x
_atom_site_fract_y
_atom_site_fract_z
Si Si1 0.521048 0.164456 0.134687
Si Si2 0.752418 0.303616 0.000000
Si Si3 0.818958 0.701297 0.239246
Si Si4 0.711065 0.495988 0.363627
Si Si5 0.150710 0.939886 0.000000
Si Si6 0.571634 0.589786 0.765990
O O1 0.595673 0.181655 0.208409
O O2 0.458085 0.256893 0.196739
O O3 0.500000 0.000000 0.131458
O O4 0.531280 0.212929 0.000000
O O5 0.718613 0.241316 0.882529
O O6 0.833234 0.230558 0.000000
O O7 0.727082 0.468597 0.000000
O O8 0.779251 0.563610 0.293049
O O9 0.804565 0.834461 0.324115
O O10 0.723731 0.505016 0.500000
O O11 0.637889 0.583862 0.325157
O O12 0.105712 0.977083 0.884522
O O13 0.500000 0.500000 0.728736
#
# Coordination Sequence:
#
# PCOD9429169 Si02
#       6
#     8   4   8   8   4   8
#     4  11  25  42  68 107 148 175 213 282 364 427
#     4  12  20  38  65 107 132 175 218 285 351 409
#     4  12  24  46  69 101 138 177 232 284 347 414
#     4  12  28  47  70  95 135 190 240 284 329 404
#     4  12  23  36  67 101 142 173 217 281 355 410
#     4  12  23  43  69  99 138 178 225 282 345 410
#
# _framework density 20.452323
#
# number of rings (size 3 to 8) (size 9 to 14) (size 15 to 20)
#    0.000    0.200    8.000    0.900    2.800    2.000 
#    0.000    0.000    0.000    3.000    0.000    0.000 
#    0.000    0.000    0.000    0.000    0.000    0.000 
#
# Total GULP energy -223704.981690 kJ/mol
# GULP energy per Si atom -5592.624542 kJ/mol
# Density = 2.040577 g / cm^3
# Si number density = 20.452323 Si / 1000 Ang^3
#
#
#
# Elastic Constant Matrix: (Units=GPa)
#
#
# Indices 1 2 3 4 5 6 
#
# 1 64.0495 8.3579 5.9579 0.0000 0.0000 0.0000
# 2 8.3579 82.5933 7.5451 0.0000 0.0000 0.0000
# 3 5.9579 7.5451 90.5016 0.0000 0.0000 0.0000
# 4 0.0000 0.0000 0.0000 17.4592 0.0000 0.0000
# 5 0.0000 0.0000 0.0000 0.0000 13.1548 0.0000
# 6 0.0000 0.0000 0.0000 0.0000 0.0000 40.4405
#
#
#
# Elastic Compliance Matrix: (Units=1/GPa)
#
#
# Indices 1 2 3 4 5 6 
#
# 1 0.015897 -0.001525 -0.000919 0.000000 0.000000 0.000000
# 2 -0.001525 0.012347 -0.000929 0.000000 0.000000 0.000000
# 3 -0.000919 -0.000929 0.011188 0.000000 0.000000 0.000000
# 4 0.000000 0.000000 0.000000 0.057276 0.000000 0.000000
# 5 0.000000 0.000000 0.000000 0.000000 0.076018 0.000000
# 6 0.000000 0.000000 0.000000 0.000000 0.000000 0.024728
#
#
# Mechanical properties :
#
#
# Convention : Reuss Voigt Hill
#
# Bulk Modulus (GPa) = 30.59474 31.20733 30.90103
# Shear Modulus (GPa) = 23.24560 28.56316 25.90438
#
# Velocity S-wave (km/s) = 3.37497 3.74113 3.56276
# Velocity P-wave (km/s) = 5.49352 5.82693 5.66268
#
# Compressibility (1/GPa) = 0.03268536
#
# Stress axis : x y z
#
# Youngs Moduli (GPa) = 62.90335 80.99344 89.38543
#
# Poissons Ratio (x) = 0.12349 0.08218
# Poissons Ratio (y) = 0.09591 0.08304
# Poissons Ratio (z) = 0.05784 0.07524
#
# Static dielectric constant tensor:
#      x y z
#    x 1.743850 0.000000 0.000000 
#    y 0.000000 1.776830 0.000000 
#    z 0.000000 0.000000 1.681790 
# 
# From -- ./inp_files/14682.got.cif
#   From: 2010.05.17/outbox.cif.g08.bks.cpg/sg55_8_cif.got.tgz:14682.got - 2010.06.03 13:27:54.
