data_PCOD9429305
_publ_section_title
;
Structure prediction by ZEFSAII (Michael W. Deem and Ramdas Pophale) SiO2 
 PCOD9429305
Probable space group: P B A M
;
_chemical_formula_sum "Si O2"
_cell_formula_units_Z 48
_cell_length_a 18.000000
_cell_length_b 18.000000
_cell_length_c 9.000000
_cell_angle_alpha 90.000000
_cell_angle_beta 90.000000
_cell_angle_gamma 90.000000
_cell_volume 2916.000000
_symmetry_space_group_name_H-M "P B A M"
_symmetry_group_IT_number 55
_symmetry_cell_setting 'orthorhombic'
loop_
_space_group_symop_operation_xyz
x,y,z
-x,-y,z
1/2+x,1/2-y,-z
1/2-x,1/2+y,-z
-x,-y,-z
x,y,-z
1/2-x,1/2+y,z
1/2+x,1/2-y,z
loop_
_atom_site_type_symbol
_atom_site_label
_atom_site_fract_x
_atom_site_fract_y
_atom_site_fract_z
Si Si1 0.328672 0.831647 0.178424
Si Si2 0.816605 0.102505 0.677448
Si Si3 0.265342 0.054816 0.323026
Si Si4 0.912125 0.513771 0.820738
Si Si5 0.012665 0.914555 0.680659
Si Si6 0.138560 0.172869 0.680440
O O1 0.245514 0.849034 0.238710
O O2 0.382218 0.902533 0.216408
O O3 0.355798 0.754836 0.250753
O O4 0.327395 0.825826 0.000000
O O5 0.813154 0.118026 0.500000
O O6 0.903235 0.109664 0.725435
O O7 0.786771 0.018109 0.698799
O O8 0.278904 0.061861 0.500000
O O9 0.211592 0.123457 0.276492
O O10 0.345992 0.039227 0.246484
O O11 0.000000 0.500000 0.776473
O O12 0.909976 0.505903 0.000000
O O13 0.013642 0.914227 0.500000
O O14 0.940009 0.866438 0.724482
O O15 0.000000 0.000000 0.727705
O O16 0.138998 0.176712 0.500000
#
# Coordination Sequence:
#
# PCOD9429305 Si02
#       6
#     8   8   8   8   8   8
#     4  10  21  36  52  72 103 140 175 212 259 306
#     4   9  16  31  55  78 101 131 168 207 250 302
#     4   9  17  30  53  80 102 128 165 210 254 303
#     4   9  19  37  57  73  96 136 180 217 256 303
#     4   9  15  28  54  83 106 132 166 206 254 308
#     4  10  19  33  53  79 109 136 167 209 259 310
#
# _framework density 16.460905
#
# number of rings (size 3 to 8) (size 9 to 14) (size 15 to 20)
#    0.000    2.667    1.667    0.500    0.000    1.667 
#    3.000    0.833    0.000    1.000    0.000    0.000 
#    0.000    0.000    0.000    0.000    0.000    0.000 
#
# Total GULP energy -267264.900253 kJ/mol
# GULP energy per Si atom -5568.018755 kJ/mol
# Density = 1.642344 g / cm^3
# Si number density = 16.460905 Si / 1000 Ang^3
#
#
#
# Elastic Constant Matrix: (Units=GPa)
#
#
# Indices 1 2 3 4 5 6 
#
# 1 196.9243 75.0993 37.4289 0.0000 0.0000 0.0000
# 2 75.0993 109.9519 29.4269 0.0000 0.0000 0.0000
# 3 37.4289 29.4269 28.0672 0.0000 0.0000 0.0000
# 4 0.0000 0.0000 0.0000 22.4375 0.0000 0.0000
# 5 0.0000 0.0000 0.0000 0.0000 24.3492 0.0000
# 6 0.0000 0.0000 0.0000 0.0000 0.0000 32.4300
#
#
#
# Elastic Compliance Matrix: (Units=1/GPa)
#
#
# Indices 1 2 3 4 5 6 
#
# 1 0.007648 -0.003467 -0.006564 0.000000 0.000000 0.000000
# 2 -0.003467 0.014214 -0.010279 0.000000 0.000000 0.000000
# 3 -0.006564 -0.010279 0.055159 0.000000 0.000000 0.000000
# 4 0.000000 0.000000 0.000000 0.044568 0.000000 0.000000
# 5 0.000000 0.000000 0.000000 0.000000 0.041069 0.000000
# 6 0.000000 0.000000 0.000000 0.000000 0.000000 0.030836
#
#
# Mechanical properties :
#
#
# Convention : Reuss Voigt Hill
#
# Bulk Modulus (GPa) = 27.47185 68.76151 48.11668
# Shear Modulus (GPa) = 20.30478 28.70923 24.50700
#
# Velocity S-wave (km/s) = 3.51595 4.18076 3.86268
# Velocity P-wave (km/s) = 5.76263 8.07269 7.01342
#
# Compressibility (1/GPa) = 0.03640090
#
# Stress axis : x y z
#
# Youngs Moduli (GPa) = 130.75646 70.35356 18.12935
#
# Poissons Ratio (x) = 0.24391 0.11900
# Poissons Ratio (y) = 0.45332 0.18636
# Poissons Ratio (z) = 0.85827 0.72318
#
# Static dielectric constant tensor:
#      x y z
#    x 1.556860 0.000000 0.000000 
#    y 0.000000 1.559080 0.000000 
#    z 0.000000 0.000000 1.553520 
# 
# From -- ./inp_files/7536.got.cif
#   From: 2010.05.17/outbox.ucp.g08.bks.cvg/sg55_4_cif.got.tgz:7536.got - 2010.06.11 16:36:00.
