data_PCOD9429887
_publ_section_title
;
Structure prediction by ZEFSAII (Michael W. Deem and Ramdas Pophale) SiO2 
 PCOD9429887
Probable space group: P C C N
;
_chemical_formula_sum "Si O2"
_cell_formula_units_Z 48
_cell_length_a 5.445571
_cell_length_b 18.469076
_cell_length_c 24.804559
_cell_angle_alpha 90.000000
_cell_angle_beta 90.000000
_cell_angle_gamma 90.000000
_cell_volume 2494.710204
_symmetry_space_group_name_H-M "P C C N"
_symmetry_group_IT_number 56
_symmetry_cell_setting 'orthorhombic'
loop_
_space_group_symop_operation_xyz
x,y,z
1/2-x,1/2-y,z
1/2+x,-y,1/2-z
-x,1/2+y,1/2-z
-x,-y,-z
1/2+x,1/2+y,-z
1/2-x,y,1/2+z
x,1/2-y,1/2+z
loop_
_atom_site_type_symbol
_atom_site_label
_atom_site_fract_x
_atom_site_fract_y
_atom_site_fract_z
Si Si1 0.250000 0.250000 0.972728
Si Si2 0.577789 0.546702 0.748788
Si Si3 0.654699 0.402788 0.357883
Si Si4 0.479188 0.045991 0.637444
Si Si5 0.250000 0.750000 0.598110
Si Si6 0.349543 0.008570 0.934632
Si Si7 0.251717 0.404493 0.525705
O O1 0.499803 0.250200 0.937298
O O2 0.246102 0.321857 0.009176
O O3 0.347244 0.489896 0.753465
O O4 0.515170 0.591736 0.695272
O O5 0.560158 0.586932 0.806666
O O6 0.851964 0.467631 0.354091
O O7 0.754838 0.322918 0.366514
O O8 0.514598 0.426130 0.412465
O O9 0.377210 0.081968 0.582887
O O10 0.754596 0.027822 0.620349
O O11 0.484909 0.943541 0.965416
O O12 0.157988 0.049401 0.973640
#
# Coordination Sequence:
#
# PCOD9429887 Si02
#       7
#     4   8   8   8   4   8   8
#     4  12  26  42  60  90 126 170 198 254 316 382
#     4  10  20  36  62  90 117 153 199 254 302 355
#     4  10  21  37  60  90 124 159 208 257 309 360
#     4  10  20  35  62  88 120 159 208 255 301 361
#     4  12  26  40  62  88 128 164 204 252 320 370
#     4  10  18  37  58  92 116 155 204 255 297 359
#     4  10  22  34  60  87 123 158 203 249 308 366
#
# _framework density 19.240711999999998
#
# number of rings (size 3 to 8) (size 9 to 14) (size 15 to 20)
#    0.000    1.667    3.333    1.500    2.333    0.000 
#    0.000    0.000    3.667    0.000    0.000    0.000 
#    0.000    0.000    0.000    0.000    0.000    0.000 
#
# Total GULP energy -267251.007143 kJ/mol
# GULP energy per Si atom -5567.729315 kJ/mol
# Density = 1.919692 g / cm^3
# Si number density = 19.240712 Si / 1000 Ang^3
#
#
#
# Elastic Constant Matrix: (Units=GPa)
#
#
# Indices 1 2 3 4 5 6 
#
# 1 56.9398 14.2067 11.6754 0.0000 0.0000 0.0000
# 2 14.2067 111.8540 37.2996 0.0000 0.0000 0.0000
# 3 11.6754 37.2996 121.6742 0.0000 0.0000 0.0000
# 4 0.0000 0.0000 0.0000 17.7738 0.0000 0.0000
# 5 0.0000 0.0000 0.0000 0.0000 37.8483 0.0000
# 6 0.0000 0.0000 0.0000 0.0000 0.0000 9.9237
#
#
#
# Elastic Compliance Matrix: (Units=1/GPa)
#
#
# Indices 1 2 3 4 5 6 
#
# 1 0.018283 -0.001935 -0.001161 0.000000 0.000000 0.000000
# 2 -0.001935 0.010163 -0.002930 0.000000 0.000000 0.000000
# 3 -0.001161 -0.002930 0.009228 0.000000 0.000000 0.000000
# 4 0.000000 0.000000 0.000000 0.056262 0.000000 0.000000
# 5 0.000000 0.000000 0.000000 0.000000 0.026421 0.000000
# 6 0.000000 0.000000 0.000000 0.000000 0.000000 0.100769
#
#
# Mechanical properties :
#
#
# Convention : Reuss Voigt Hill
#
# Bulk Modulus (GPa) = 39.02819 46.31461 42.67140
# Shear Modulus (GPa) = 20.68508 28.26158 24.47333
#
# Velocity S-wave (km/s) = 3.28238 3.83671 3.57032
# Velocity P-wave (km/s) = 5.89012 6.61442 6.26275
#
# Compressibility (1/GPa) = 0.02562251
#
# Stress axis : x y z
#
# Youngs Moduli (GPa) = 54.69474 98.39626 108.36293
#
# Poissons Ratio (x) = 0.19039 0.12583
# Poissons Ratio (y) = 0.10583 0.31748
# Poissons Ratio (z) = 0.06351 0.28828
#
# Static dielectric constant tensor:
#      x y z
#    x 1.790350 0.000000 0.000000 
#    y 0.000000 1.644660 0.000000 
#    z 0.000000 0.000000 1.789210 
# 
# From -- ./inp_files/20075.got.cif
#   From: 2010.05.17/outbox.cif.g08.bks.cpg/sg56_11_cif.got.tgz:20075.got - 2010.06.03 13:42:01.
