data_PCOD9429428
_publ_section_title
;
Structure prediction by ZEFSAII (Michael W. Deem and Ramdas Pophale) SiO2 
 PCOD9429428
Probable space group: P B A M
;
_chemical_formula_sum "Si O2"
_cell_formula_units_Z 64
_cell_length_a 12.000000
_cell_length_b 30.000000
_cell_length_c 9.000000
_cell_angle_alpha 90.000000
_cell_angle_beta 90.000000
_cell_angle_gamma 90.000000
_cell_volume 3240.000000
_symmetry_space_group_name_H-M "P B A M"
_symmetry_group_IT_number 55
_symmetry_cell_setting 'orthorhombic'
loop_
_space_group_symop_operation_xyz
x,y,z
-x,-y,z
1/2+x,1/2-y,-z
1/2-x,1/2+y,-z
-x,-y,-z
x,y,-z
1/2-x,1/2+y,z
1/2+x,1/2-y,z
loop_
_atom_site_type_symbol
_atom_site_label
_atom_site_fract_x
_atom_site_fract_y
_atom_site_fract_z
Si Si1 0.805056 0.944504 0.177116
Si Si2 0.768643 0.688780 0.679222
Si Si3 0.037000 0.831292 0.829528
Si Si4 0.276504 0.970751 0.322610
Si Si5 0.554205 0.562080 0.828440
Si Si6 0.825324 0.787509 0.678009
Si Si7 0.430070 0.890813 0.319047
Si Si8 0.322718 0.133784 0.321661
O O1 0.767731 0.898361 0.248500
O O2 0.933065 0.956573 0.216954
O O3 0.724007 0.982073 0.241471
O O4 0.800351 0.941680 0.000000
O O5 0.764424 0.687527 0.500000
O O6 0.645876 0.683612 0.741878
O O7 0.816482 0.736489 0.724626
O O8 0.846639 0.648250 0.729857
O O9 0.035970 0.884866 0.827747
O O10 0.927789 0.811587 0.754836
O O11 0.043570 0.816757 0.000000
O O12 0.280060 0.976581 0.500000
O O13 0.158988 0.948801 0.274115
O O14 0.376073 0.937876 0.276061
O O15 0.578819 0.548323 0.000000
O O16 0.841373 0.788825 0.500000
O O17 0.713246 0.815597 0.710473
O O18 0.431572 0.890201 0.500000
O O19 0.554818 0.880253 0.268791
O O20 0.319001 0.127953 0.500000
#
# Coordination Sequence:
#
# PCOD9429428 Si02
#       8
#     8   8   8   8   8   8   8   8
#     4  11  23  40  59  83 117 156 192 239 295 352
#     4  10  21  39  63  91 120 154 199 247 293 345
#     4  11  22  38  61  88 124 160 193 237 293 355
#     4  11  22  37  60  89 116 150 194 245 293 348
#     4  10  21  38  58  83 119 157 190 234 293 349
#     4  10  22  37  63  92 118 152 198 248 290 342
#     4   9  20  38  59  84 118 152 189 241 297 344
#     4  10  21  39  60  85 114 152 197 242 290 345
#
# _framework density 19.753086
#
# number of rings (size 3 to 8) (size 9 to 14) (size 15 to 20)
#    0.000    1.750    2.500    1.500    1.750    4.000 
#    0.000    4.375    0.000    0.000    0.000    0.000 
#    0.000    0.000    0.000    0.000    0.000    0.000 
#
# Total GULP energy -357409.222154 kJ/mol
# GULP energy per Si atom -5584.519096 kJ/mol
# Density = 1.970813 g / cm^3
# Si number density = 19.753086 Si / 1000 Ang^3
#
#
#
# Elastic Constant Matrix: (Units=GPa)
#
#
# Indices 1 2 3 4 5 6 
#
# 1 59.5645 -12.2409 5.1715 0.0000 0.0000 0.0000
# 2 -12.2409 52.6559 3.6716 0.0000 0.0000 0.0000
# 3 5.1715 3.6716 5.0455 0.0000 0.0000 0.0000
# 4 0.0000 0.0000 0.0000 10.2354 0.0000 0.0000
# 5 0.0000 0.0000 0.0000 0.0000 -19.5191 0.0000
# 6 0.0000 0.0000 0.0000 0.0000 0.0000 13.7729
#
#
#
# Elastic Compliance Matrix: (Units=1/GPa)
#
#
# Indices 1 2 3 4 5 6 
#
# 1 0.020350 0.006516 -0.025600 0.000000 0.000000 0.000000
# 2 0.006516 0.022093 -0.022756 0.000000 0.000000 0.000000
# 3 -0.025600 -0.022756 0.240994 0.000000 0.000000 0.000000
# 4 0.000000 0.000000 0.000000 0.097700 0.000000 0.000000
# 5 0.000000 0.000000 0.000000 0.000000 -0.051232 0.000000
# 6 0.000000 0.000000 0.000000 0.000000 0.000000 0.072606
#
#
# Mechanical properties :
#
#
# Convention : Reuss Voigt Hill
#
# Bulk Modulus (GPa) = 5.00607 12.27449 8.64028
# Shear Modulus (GPa) = 9.04525 8.94209 8.99367
#
# Velocity S-wave (km/s) = 2.14222 2.12997 2.13610
# Velocity P-wave (km/s) = 2.94255 3.50378 3.23536
#
# Compressibility (1/GPa) = 0.19975765
#
# Stress axis : x y z
#
# Youngs Moduli (GPa) = 49.13951 45.26383 4.14948
#
# Poissons Ratio (x) = -0.29493 0.10623
# Poissons Ratio (y) = -0.32019 0.09442
# Poissons Ratio (z) = 1.25797 1.03000
#
# Static dielectric constant tensor:
#      x y z
#    x 1.670760 0.000000 0.000000 
#    y 0.000000 1.725210 0.000000 
#    z 0.000000 0.000000 1.662990 
# 
# From -- ./inp_files/4477.got.cif
#   From: 2010.05.17/outbox.ucp.g08.bks.cvg/sg55_3_cif.got.tgz:4477.got - 2010.06.11 16:36:00.
