data_PCOD9429609
_publ_section_title
;
Structure prediction by ZEFSAII (Michael W. Deem and Ramdas Pophale) SiO2 
 PCOD9429609
Probable space group: P C C N
;
_chemical_formula_sum "Si O2"
_cell_formula_units_Z 64
_cell_length_a 16.469369
_cell_length_b 10.657217
_cell_length_c 19.745628
_cell_angle_alpha 90.000000
_cell_angle_beta 90.000000
_cell_angle_gamma 90.000000
_cell_volume 3465.706013
_symmetry_space_group_name_H-M "P C C N"
_symmetry_group_IT_number 56
_symmetry_cell_setting 'orthorhombic'
loop_
_space_group_symop_operation_xyz
x,y,z
1/2-x,1/2-y,z
1/2+x,-y,1/2-z
-x,1/2+y,1/2-z
-x,-y,-z
1/2+x,1/2+y,-z
1/2-x,y,1/2+z
x,1/2-y,1/2+z
loop_
_atom_site_type_symbol
_atom_site_label
_atom_site_fract_x
_atom_site_fract_y
_atom_site_fract_z
Si Si1 0.837306 0.793920 0.821310
Si Si2 0.713381 0.021353 0.410674
Si Si3 0.974448 0.595618 0.860045
Si Si4 0.634971 0.290639 0.812867
Si Si5 0.029144 0.022299 0.224849
Si Si6 0.661830 0.191600 0.521755
Si Si7 0.394466 0.805217 0.333537
Si Si8 0.107703 0.901299 0.565045
O O1 0.750000 0.750000 0.792687
O O2 0.893927 0.678360 0.844085
O O3 0.895092 0.880798 0.774436
O O4 0.814135 0.887081 0.883172
O O5 0.703416 0.121285 0.348205
O O6 0.656750 0.073839 0.471063
O O7 0.805505 0.027121 0.436123
O O8 0.959072 0.507469 0.924053
O O9 0.992145 0.503710 0.797571
O O10 0.050313 0.688599 0.857805
O O11 0.561478 0.390265 0.803533
O O12 0.647871 0.233592 0.737577
O O13 0.612977 0.185548 0.867514
O O14 0.958396 0.084613 0.181162
O O15 0.750000 0.250000 0.506989
O O16 0.657821 0.161698 0.600824
O O17 0.602045 0.301274 0.495490
#
# Coordination Sequence:
#
# PCOD9429609 Si02
#       8
#     8   8   8   8   8   8   8   8
#     4  10  18  32  56  83 103 140 193 227 266 330
#     4   9  18  33  51  79 103 135 182 237 258 313
#     4  10  19  32  52  80 110 139 174 230 277 318
#     4   9  17  30  51  74 101 138 176 215 264 315
#     4   9  19  33  48  79 114 135 175 234 273 317
#     4   9  20  34  51  76 109 140 180 229 276 324
#     4  10  19  33  51  76 108 143 175 216 281 332
#     4  10  17  32  52  74 104 136 175 224 269 308
#
# _framework density 18.466656
#
# number of rings (size 3 to 8) (size 9 to 14) (size 15 to 20)
#    0.000    2.500    2.500    1.125    0.000    1.500 
#    0.000   10.000    0.000    0.000    0.000    0.000 
#    0.000    0.000    0.000    0.000    0.000    0.000 
#
# Total GULP energy -356302.421063 kJ/mol
# GULP energy per Si atom -5567.225329 kJ/mol
# Density = 1.842463 g / cm^3
# Si number density = 18.466656 Si / 1000 Ang^3
#
#
#
# Elastic Constant Matrix: (Units=GPa)
#
#
# Indices 1 2 3 4 5 6 
#
# 1 23.6734 10.1477 8.4449 0.0000 0.0000 0.0000
# 2 10.1477 57.6266 20.2997 0.0000 0.0000 0.0000
# 3 8.4449 20.2997 98.5584 0.0000 0.0000 0.0000
# 4 0.0000 0.0000 0.0000 13.5885 0.0000 0.0000
# 5 0.0000 0.0000 0.0000 0.0000 18.5133 0.0000
# 6 0.0000 0.0000 0.0000 0.0000 0.0000 18.8874
#
#
#
# Elastic Compliance Matrix: (Units=1/GPa)
#
#
# Indices 1 2 3 4 5 6 
#
# 1 0.046238 -0.007274 -0.002464 0.000000 0.000000 0.000000
# 2 -0.007274 0.019855 -0.003466 0.000000 0.000000 0.000000
# 3 -0.002464 -0.003466 0.011071 0.000000 0.000000 0.000000
# 4 0.000000 0.000000 0.000000 0.073592 0.000000 0.000000
# 5 0.000000 0.000000 0.000000 0.000000 0.054015 0.000000
# 6 0.000000 0.000000 0.000000 0.000000 0.000000 0.052945
#
#
# Mechanical properties :
#
#
# Convention : Reuss Voigt Hill
#
# Bulk Modulus (GPa) = 19.70197 28.62701 24.16449
# Shear Modulus (GPa) = 16.60884 19.59557 18.10221
#
# Velocity S-wave (km/s) = 3.00225 3.26104 3.13431
# Velocity P-wave (km/s) = 4.76551 5.45113 5.11981
#
# Compressibility (1/GPa) = 0.05075634
#
# Stress axis : x y z
#
# Youngs Moduli (GPa) = 21.62700 50.36487 90.32383
#
# Poissons Ratio (x) = 0.36638 0.22252
# Poissons Ratio (y) = 0.15733 0.31308
# Poissons Ratio (z) = 0.05328 0.17457
#
# Static dielectric constant tensor:
#      x y z
#    x 1.661170 0.000000 0.000000 
#    y 0.000000 1.658700 0.000000 
#    z 0.000000 0.000000 1.635870 
# 
# From -- ./inp_files/16714.got.cif
#   From: 2010.05.17/outbox.cif.g08.bks.cpg/sg56_9_cif.got.tgz:16714.got - 2010.06.03 13:42:01.
