data_PCOD9429583
_publ_section_title
;
Structure prediction by ZEFSAII (Michael W. Deem and Ramdas Pophale) SiO2 
 PCOD9429583
Probable space group: P C C N
;
_chemical_formula_sum "Si O2"
_cell_formula_units_Z 52
_cell_length_a 20.390478
_cell_length_b 13.809551
_cell_length_c 8.132008
_cell_angle_alpha 90.000000
_cell_angle_beta 90.000000
_cell_angle_gamma 90.000000
_cell_volume 2289.838021
_symmetry_space_group_name_H-M "P C C N"
_symmetry_group_IT_number 56
_symmetry_cell_setting 'orthorhombic'
loop_
_space_group_symop_operation_xyz
x,y,z
1/2-x,1/2-y,z
1/2+x,-y,1/2-z
-x,1/2+y,1/2-z
-x,-y,-z
1/2+x,1/2+y,-z
1/2-x,y,1/2+z
x,1/2-y,1/2+z
loop_
_atom_site_type_symbol
_atom_site_label
_atom_site_fract_x
_atom_site_fract_y
_atom_site_fract_z
Si Si1 0.824580 0.614203 0.690977
Si Si2 0.750000 0.250000 0.249984
Si Si3 0.914529 0.620768 0.999961
Si Si4 0.637824 0.111978 0.328057
Si Si5 0.436896 0.885451 0.000032
Si Si6 0.324576 0.385779 0.191076
Si Si7 0.637803 0.111994 0.671832
O O1 0.873998 0.648029 0.835645
O O2 0.833698 0.646343 0.499954
O O3 0.750004 0.632950 0.749956
O O4 0.837432 0.498269 0.689361
O O5 0.701303 0.177891 0.339053
O O6 0.798736 0.177949 0.160917
O O7 0.927255 0.503300 0.999980
O O8 0.873992 0.648053 0.164256
O O9 0.989509 0.654556 0.999970
O O10 0.599209 0.118377 0.499928
O O11 0.662567 0.001710 0.310521
O O12 0.598700 0.143476 0.167425
O O13 0.401346 0.856539 0.167556
#
# Coordination Sequence:
#
# PCOD9429583 Si02
#       7
#     8   4   8   8   8   8   8
#     4  10  17  28  46  70  96 123 158 204 244 288
#     4  12  22  32  50  74 100 138 172 212 234 264
#     4   9  18  32  48  64  90 125 162 203 252 291
#     4  10  22  31  45  67  95 128 171 206 236 276
#     4   9  20  35  46  62  90 129 167 204 243 296
#     4  10  17  28  46  70  96 123 158 204 244 288
#     4  10  22  31  45  67  95 128 171 206 236 276
#
# _framework density 22.709029000000001
#
# number of rings (size 3 to 8) (size 9 to 14) (size 15 to 20)
#    0.000    2.154    3.077    0.462    4.308    1.231 
#    0.000    6.154    0.000    0.000    0.000    0.000 
#    0.000    0.000    0.000    4.154    0.000    0.000 
#
# Total GULP energy -290185.651416 kJ/mol
# GULP energy per Si atom -5580.493296 kJ/mol
# Density = 2.265734 g / cm^3
# Si number density = 22.709029 Si / 1000 Ang^3
#
#
#
# Elastic Constant Matrix: (Units=GPa)
#
#
# Indices 1 2 3 4 5 6 
#
# 1 173.6073 10.3125 132.4128 0.0000 0.0000 0.0000
# 2 10.3125 71.2678 38.7407 0.0000 0.0000 0.0000
# 3 132.4128 38.7407 269.4871 0.0000 0.0000 0.0000
# 4 0.0000 0.0000 0.0000 12.2009 0.0000 0.0000
# 5 0.0000 0.0000 0.0000 0.0000 236.5836 0.0000
# 6 0.0000 0.0000 0.0000 0.0000 0.0000 9.8859
#
#
#
# Elastic Compliance Matrix: (Units=1/GPa)
#
#
# Indices 1 2 3 4 5 6 
#
# 1 0.009312 0.001236 -0.004753 0.000000 0.000000 0.000000
# 2 0.001236 0.015385 -0.002819 0.000000 0.000000 0.000000
# 3 -0.004753 -0.002819 0.006452 0.000000 0.000000 0.000000
# 4 0.000000 0.000000 0.000000 0.081961 0.000000 0.000000
# 5 0.000000 0.000000 0.000000 0.000000 0.004227 0.000000
# 6 0.000000 0.000000 0.000000 0.000000 0.000000 0.101155
#
#
# Mechanical properties :
#
#
# Convention : Reuss Voigt Hill
#
# Bulk Modulus (GPa) = 54.12247 97.47713 75.79980
# Shear Modulus (GPa) = 21.06837 73.92715 47.49776
#
# Velocity S-wave (km/s) = 3.04921 5.71181 4.57834
# Velocity P-wave (km/s) = 6.02343 9.30146 7.83578
#
# Compressibility (1/GPa) = 0.01847661
#
# Stress axis : x y z
#
# Youngs Moduli (GPa) = 107.38806 64.99753 155.00202
#
# Poissons Ratio (x) = -0.08036 0.73676
# Poissons Ratio (y) = -0.13277 0.43698
# Poissons Ratio (z) = 0.51044 0.18324
#
# Static dielectric constant tensor:
#      x y z
#    x 1.774720 0.000000 0.000000 
#    y 0.000000 1.871310 0.000000 
#    z 0.000000 0.000000 1.950530 
# 
# From -- ./inp_files/4081.got.cif
#   From: 2010.05.17/outbox.cif.g08.bks.cpg/sg56_3_cif.got.tgz:4081.got - 2010.06.03 13:42:01.
