data_PCOD9429031
_publ_section_title
;
Structure prediction by ZEFSAII (Michael W. Deem and Ramdas Pophale) SiO2 
 PCOD9429031
Probable space group: P B A M
;
_chemical_formula_sum "Si O2"
_cell_formula_units_Z 36
_cell_length_a 12.156035
_cell_length_b 14.715239
_cell_length_c 7.360119
_cell_angle_alpha 90.000000
_cell_angle_beta 90.000000
_cell_angle_gamma 90.000000
_cell_volume 1316.570435
_symmetry_space_group_name_H-M "P B A M"
_symmetry_group_IT_number 55
_symmetry_cell_setting 'orthorhombic'
loop_
_space_group_symop_operation_xyz
x,y,z
-x,-y,z
1/2+x,1/2-y,-z
1/2-x,1/2+y,-z
-x,-y,-z
x,y,-z
1/2-x,1/2+y,z
1/2+x,1/2-y,z
loop_
_atom_site_type_symbol
_atom_site_label
_atom_site_fract_x
_atom_site_fract_y
_atom_site_fract_z
Si Si1 0.240314 0.757179 0.000000
Si Si2 0.133580 0.612605 0.711961
Si Si3 0.320763 0.484556 0.782504
Si Si4 0.600821 0.162622 0.703234
Si Si5 0.506126 0.356512 0.777770
O O1 0.189921 0.687678 0.157950
O O2 0.302352 0.820421 0.155706
O O3 0.140501 0.639593 0.500000
O O4 0.200992 0.518282 0.729043
O O5 0.005169 0.603823 0.759446
O O6 0.391545 0.399143 0.715630
O O7 0.399934 0.570369 0.737480
O O8 0.324866 0.478965 0.000000
O O9 0.637735 0.140887 0.500000
O O10 0.541611 0.261947 0.699938
O O11 0.500259 0.343952 0.000000
#
# Coordination Sequence:
#
# PCOD9429031 Si02
#       5
#     4   8   8   8   8
#     4  12  20  36  53  70 109 142 172 212 264 300
#     4  11  22  34  52  79 106 138 178 212 254 311
#     4   9  16  29  50  75 104 136 167 204 259 317
#     4  11  22  34  52  79 106 138 178 212 254 311
#     4   9  16  29  50  75 104 136 167 204 259 317
#
# _framework density 27.343772000000001
#
# number of rings (size 3 to 8) (size 9 to 14) (size 15 to 20)
#    0.000    1.778    4.444    2.667    0.000    0.889 
#    0.000    2.222    0.000    0.000    0.000    3.111 
#    0.000    7.111    0.000    0.000    0.000    0.000 
#
# Total GULP energy -200787.311732 kJ/mol
# GULP energy per Si atom -5577.425326 kJ/mol
# Density = 2.728154 g / cm^3
# Si number density = 27.343772 Si / 1000 Ang^3
#
#
#
# Elastic Constant Matrix: (Units=GPa)
#
#
# Indices 1 2 3 4 5 6 
#
# 1 160.2563 47.7238 35.8126 0.0000 0.0000 0.0000
# 2 47.7238 89.5201 2.3227 0.0000 0.0000 0.0000
# 3 35.8126 2.3227 149.6777 0.0000 0.0000 0.0000
# 4 0.0000 0.0000 0.0000 35.8459 0.0000 0.0000
# 5 0.0000 0.0000 0.0000 0.0000 28.9032 0.0000
# 6 0.0000 0.0000 0.0000 0.0000 0.0000 47.8059
#
#
#
# Elastic Compliance Matrix: (Units=1/GPa)
#
#
# Indices 1 2 3 4 5 6 
#
# 1 0.007885 -0.004156 -0.001822 0.000000 0.000000 0.000000
# 2 -0.004156 0.013366 0.000787 0.000000 0.000000 0.000000
# 3 -0.001822 0.000787 0.007105 0.000000 0.000000 0.000000
# 4 0.000000 0.000000 0.000000 0.027897 0.000000 0.000000
# 5 0.000000 0.000000 0.000000 0.000000 0.034598 0.000000
# 6 0.000000 0.000000 0.000000 0.000000 0.000000 0.020918
#
#
# Mechanical properties :
#
#
# Convention : Reuss Voigt Hill
#
# Bulk Modulus (GPa) = 55.63877 63.46358 59.55117
# Shear Modulus (GPa) = 39.01904 43.41734 41.21819
#
# Velocity S-wave (km/s) = 3.78164 3.98908 3.88675
# Velocity P-wave (km/s) = 6.28170 6.66911 6.47830
#
# Compressibility (1/GPa) = 0.01797308
#
# Stress axis : x y z
#
# Youngs Moduli (GPa) = 126.82471 74.81688 140.75056
#
# Poissons Ratio (x) = 0.31096 0.25646
# Poissons Ratio (y) = 0.52711 -0.11077
# Poissons Ratio (z) = 0.23108 -0.05888
#
# Static dielectric constant tensor:
#      x y z
#    x 2.229230 0.000000 0.000000 
#    y 0.000000 2.186160 0.000000 
#    z 0.000000 0.000000 2.008200 
# 
# From -- ./inp_files/5304.got.cif
#   From: 2010.05.17/outbox.cif.g08.bks.cpg/sg55_3_cif.got.tgz:5304.got - 2010.06.03 13:27:54.
