data_PCOD9429320
_publ_section_title
;
Structure prediction by ZEFSAII (Michael W. Deem and Ramdas Pophale) SiO2 
 PCOD9429320
Probable space group: P B A M
;
_chemical_formula_sum "Si O2"
_cell_formula_units_Z 48
_cell_length_a 15.000000
_cell_length_b 18.000000
_cell_length_c 9.000000
_cell_angle_alpha 90.000000
_cell_angle_beta 90.000000
_cell_angle_gamma 90.000000
_cell_volume 2430.000000
_symmetry_space_group_name_H-M "P B A M"
_symmetry_group_IT_number 55
_symmetry_cell_setting 'orthorhombic'
loop_
_space_group_symop_operation_xyz
x,y,z
-x,-y,z
1/2+x,1/2-y,-z
1/2-x,1/2+y,-z
-x,-y,-z
x,y,-z
1/2-x,1/2+y,z
1/2+x,1/2-y,z
loop_
_atom_site_type_symbol
_atom_site_label
_atom_site_fract_x
_atom_site_fract_y
_atom_site_fract_z
Si Si1 0.282078 0.325031 0.676063
Si Si2 0.060030 0.070939 0.176404
Si Si3 0.901325 0.509492 0.169175
Si Si4 0.523759 0.715413 0.323342
Si Si5 0.274474 0.502939 0.673801
Si Si6 0.606593 0.186385 0.165285
O O1 0.268187 0.315361 0.500000
O O2 0.373961 0.288560 0.723940
O O3 0.289466 0.414318 0.700571
O O4 0.199567 0.290721 0.762463
O O5 0.025609 0.144348 0.255483
O O6 0.158206 0.049835 0.228277
O O7 0.054114 0.079573 0.000000
O O8 0.000000 0.000000 0.220872
O O9 0.825154 0.479224 0.274598
O O10 0.888522 0.597821 0.158381
O O11 0.000000 0.500000 0.228887
O O12 0.896570 0.479009 0.000000
O O13 0.520879 0.710476 0.500000
O O14 0.474096 0.787530 0.265692
O O15 0.288722 0.516653 0.500000
O O16 0.595571 0.216771 0.000000
#
# Coordination Sequence:
#
# PCOD9429320 Si02
#       6
#     8   8   8   8   8   8
#     4   9  19  36  58  80 107 149 189 227 280 338
#     4  11  22  35  56  86 117 148 186 231 283 339
#     4   9  19  38  61  83 112 150 190 234 284 338
#     4  11  22  38  59  82 114 151 190 235 283 338
#     4  10  19  34  57  84 113 145 187 234 280 334
#     4  10  21  37  58  84 112 147 190 235 285 339
#
# _framework density 19.753086
#
# number of rings (size 3 to 8) (size 9 to 14) (size 15 to 20)
#    0.000    2.000    1.667    2.000    0.000    3.667 
#    3.000    0.000    0.000    0.000    0.000    0.000 
#    0.000    0.000    0.000    0.000    0.000    0.000 
#
# Total GULP energy -267823.513924 kJ/mol
# GULP energy per Si atom -5579.656540 kJ/mol
# Density = 1.970813 g / cm^3
# Si number density = 19.753086 Si / 1000 Ang^3
#
#
#
# Elastic Constant Matrix: (Units=GPa)
#
#
# Indices 1 2 3 4 5 6 
#
# 1 117.4709 0.8056 27.4225 0.0000 0.0000 0.0000
# 2 0.8056 -13.8657 3.1245 0.0000 0.0000 0.0000
# 3 27.4225 3.1245 17.1067 0.0000 0.0000 0.0000
# 4 0.0000 0.0000 0.0000 19.6171 0.0000 0.0000
# 5 0.0000 0.0000 0.0000 0.0000 20.9323 0.0000
# 6 0.0000 0.0000 0.0000 0.0000 0.0000 16.4718
#
#
#
# Elastic Compliance Matrix: (Units=1/GPa)
#
#
# Indices 1 2 3 4 5 6 
#
# 1 0.013381 -0.003896 -0.020738 0.000000 0.000000 0.000000
# 2 -0.003896 -0.068135 0.018690 0.000000 0.000000 0.000000
# 3 -0.020738 0.018690 0.088286 0.000000 0.000000 0.000000
# 4 0.000000 0.000000 0.000000 0.050976 0.000000 0.000000
# 5 0.000000 0.000000 0.000000 0.000000 0.047773 0.000000
# 6 0.000000 0.000000 0.000000 0.000000 0.000000 0.060710
#
#
# Mechanical properties :
#
#
# Convention : Reuss Voigt Hill
#
# Bulk Modulus (GPa) = 46.20196 20.37969 33.29082
# Shear Modulus (GPa) = 23.57460 17.36151 20.46806
#
# Velocity S-wave (km/s) = 3.45840 2.96789 3.22249
# Velocity P-wave (km/s) = 6.27598 4.69937 5.54401
#
# Compressibility (1/GPa) = 0.02164411
#
# Stress axis : x y z
#
# Youngs Moduli (GPa) = 74.73552 -14.67670 11.32679
#
# Poissons Ratio (x) = -0.05718 0.23489
# Poissons Ratio (y) = 0.29115 -0.21170
# Poissons Ratio (z) = 1.54985 0.27430
#
# Static dielectric constant tensor:
#      x y z
#    x 1.700160 0.000000 0.000000 
#    y 0.000000 1.692050 0.000000 
#    z 0.000000 0.000000 1.674210 
# 
# From -- ./inp_files/5657.got.cif
#   From: 2010.05.17/outbox.ucp.g08.bks.cvg/sg55_3_cif.got.tgz:5657.got - 2010.06.11 16:36:00.
