data_PCOD9429442
_publ_section_title
;
Structure prediction by ZEFSAII (Michael W. Deem and Ramdas Pophale) SiO2 
 PCOD9429442
Probable space group: P B A M
;
_chemical_formula_sum "Si O2"
_cell_formula_units_Z 64
_cell_length_a 12.000000
_cell_length_b 30.000000
_cell_length_c 9.000000
_cell_angle_alpha 90.000000
_cell_angle_beta 90.000000
_cell_angle_gamma 90.000000
_cell_volume 3240.000000
_symmetry_space_group_name_H-M "P B A M"
_symmetry_group_IT_number 55
_symmetry_cell_setting 'orthorhombic'
loop_
_space_group_symop_operation_xyz
x,y,z
-x,-y,z
1/2+x,1/2-y,-z
1/2-x,1/2+y,-z
-x,-y,-z
x,y,-z
1/2-x,1/2+y,z
1/2+x,1/2-y,z
loop_
_atom_site_type_symbol
_atom_site_label
_atom_site_fract_x
_atom_site_fract_y
_atom_site_fract_z
Si Si1 0.620626 0.123228 0.173964
Si Si2 0.425218 0.176288 0.323416
Si Si3 0.353090 0.352586 0.320999
Si Si4 0.127661 0.483720 0.174053
Si Si5 0.012676 0.770097 0.179277
Si Si6 0.867740 0.986197 0.677730
Si Si7 0.699653 0.318844 0.833252
Si Si8 0.042684 0.095722 0.169457
O O1 0.508547 0.140884 0.250252
O O2 0.728623 0.142418 0.258629
O O3 0.623738 0.069786 0.181649
O O4 0.623904 0.136466 0.000000
O O5 0.438996 0.177328 0.500000
O O6 0.454223 0.223405 0.248482
O O7 0.297165 0.168952 0.277915
O O8 0.355726 0.353076 0.500000
O O9 0.411698 0.308117 0.256442
O O10 0.427835 0.393215 0.254493
O O11 0.247829 0.496475 0.253605
O O12 0.000000 0.500000 0.223145
O O13 0.137616 0.497833 0.000000
O O14 0.880929 0.778173 0.210217
O O15 0.026818 0.772079 0.000000
O O16 0.860330 0.991624 0.500000
O O17 0.878158 0.936090 0.736519
O O18 0.000000 0.000000 0.718338
O O19 0.610690 0.358544 0.842369
O O20 0.745929 0.311409 0.000000
O O21 0.021615 0.079579 0.000000
#
# Coordination Sequence:
#
# PCOD9429442 Si02
#       8
#     8   8   8   8   8   8   8   8
#     4  11  24  43  66  90 125 170 215 257 312 383
#     4  12  26  40  61  92 128 163 205 258 312 369
#     4  11  22  39  64  96 133 165 207 264 320 374
#     4  10  24  45  68  95 127 170 221 272 324 390
#     4  10  22  42  66  91 122 166 213 254 309 372
#     4  11  24  40  63  97 133 168 210 268 330 388
#     4   9  21  41  63  87 118 159 206 253 301 366
#     4  10  21  39  65  93 124 165 212 257 310 374
#
# _framework density 19.753086
#
# number of rings (size 3 to 8) (size 9 to 14) (size 15 to 20)
#    0.000    1.500    0.000    5.250    3.500    7.250 
#    0.000    0.000    0.000    0.000    0.000    0.000 
#    0.000    0.000    0.000    0.000    0.000    0.000 
#
# Total GULP energy -356949.476041 kJ/mol
# GULP energy per Si atom -5577.335563 kJ/mol
# Density = 1.970813 g / cm^3
# Si number density = 19.753086 Si / 1000 Ang^3
#
#
#
# Elastic Constant Matrix: (Units=GPa)
#
#
# Indices 1 2 3 4 5 6 
#
# 1 126.5088 9.6142 63.2387 0.0000 0.0000 0.0000
# 2 9.6142 30.8344 12.7585 0.0000 0.0000 0.0000
# 3 63.2387 12.7585 126.1107 0.0000 0.0000 0.0000
# 4 0.0000 0.0000 0.0000 20.0413 0.0000 0.0000
# 5 0.0000 0.0000 0.0000 0.0000 37.5307 0.0000
# 6 0.0000 0.0000 0.0000 0.0000 0.0000 21.7152
#
#
#
# Elastic Compliance Matrix: (Units=1/GPa)
#
#
# Indices 1 2 3 4 5 6 
#
# 1 0.010588 -0.001153 -0.005193 0.000000 0.000000 0.000000
# 2 -0.001153 0.033974 -0.002859 0.000000 0.000000 0.000000
# 3 -0.005193 -0.002859 0.010823 0.000000 0.000000 0.000000
# 4 0.000000 0.000000 0.000000 0.049897 0.000000 0.000000
# 5 0.000000 0.000000 0.000000 0.000000 0.026645 0.000000
# 6 0.000000 0.000000 0.000000 0.000000 0.000000 0.046051
#
#
# Mechanical properties :
#
#
# Convention : Reuss Voigt Hill
#
# Bulk Modulus (GPa) = 27.04503 50.51962 38.78233
# Shear Modulus (GPa) = 23.95657 29.04693 26.50175
#
# Velocity S-wave (km/s) = 3.48631 3.83887 3.66683
# Velocity P-wave (km/s) = 5.47056 6.72907 6.13218
#
# Compressibility (1/GPa) = 0.03697537
#
# Stress axis : x y z
#
# Youngs Moduli (GPa) = 94.44738 29.43451 92.39832
#
# Poissons Ratio (x) = 0.03393 0.47980
# Poissons Ratio (y) = 0.10887 0.26417
# Poissons Ratio (z) = 0.49044 0.08416
#
# Static dielectric constant tensor:
#      x y z
#    x 1.702930 0.000000 0.000000 
#    y 0.000000 1.771460 0.000000 
#    z 0.000000 0.000000 1.676210 
# 
# From -- ./inp_files/4687.got.cif
#   From: 2010.05.17/outbox.ucp.g08.bks.cvg/sg55_3_cif.got.tgz:4687.got - 2010.06.11 16:36:00.
