data_PCOD9429773
_publ_section_title
;
Structure prediction by ZEFSAII (Michael W. Deem and Ramdas Pophale) SiO2 
 PCOD9429773
Probable space group: P C C N
;
_chemical_formula_sum "Si O2"
_cell_formula_units_Z 64
_cell_length_a 15.483965
_cell_length_b 8.190103
_cell_length_c 25.703481
_cell_angle_alpha 90.000000
_cell_angle_beta 90.000000
_cell_angle_gamma 90.000000
_cell_volume 3259.593837
_symmetry_space_group_name_H-M "P C C N"
_symmetry_group_IT_number 56
_symmetry_cell_setting 'orthorhombic'
loop_
_space_group_symop_operation_xyz
x,y,z
1/2-x,1/2-y,z
1/2+x,-y,1/2-z
-x,1/2+y,1/2-z
-x,-y,-z
1/2+x,1/2+y,-z
1/2-x,y,1/2+z
x,1/2-y,1/2+z
loop_
_atom_site_type_symbol
_atom_site_label
_atom_site_fract_x
_atom_site_fract_y
_atom_site_fract_z
Si Si1 0.072567 0.383243 0.977622
Si Si2 0.765167 0.429587 0.005673
Si Si3 0.995770 0.808501 0.319490
Si Si4 0.914435 0.560054 0.471080
Si Si5 0.639239 0.575671 0.856008
Si Si6 0.505739 0.862311 0.133049
Si Si7 0.804254 0.088620 0.383412
Si Si8 0.505108 0.557258 0.204317
O O1 0.034814 0.312248 0.924491
O O2 0.162839 0.468922 0.965020
O O3 0.086794 0.253473 0.023032
O O4 0.000000 0.500000 0.000000
O O5 0.750000 0.250000 0.026901
O O6 0.670915 0.504745 0.001064
O O7 0.802233 0.418900 0.946467
O O8 0.905417 0.750343 0.345615
O O9 0.039152 0.627004 0.310473
O O10 0.981468 0.893787 0.263774
O O11 0.038893 0.953766 0.352977
O O12 0.902210 0.513555 0.410888
O O13 0.000000 0.500000 0.500000
O O14 0.741009 0.554094 0.862425
O O15 0.596513 0.468976 0.809952
O O16 0.401987 0.888178 0.134558
O O17 0.533326 0.714875 0.170917
O O18 0.750000 0.250000 0.369252
#
# Coordination Sequence:
#
# PCOD9429773 Si02
#       8
#     8   8   8   8   8   8   8   8
#     4  12  23  37  57  93 129 168 212 244 319 392
#     4  10  22  38  56  83 129 167 210 262 304 371
#     4  10  21  37  60  89 116 152 209 258 322 373
#     4  11  22  37  59  90 124 166 212 257 309 373
#     4   9  20  34  54  91 121 155 202 251 309 371
#     4  12  21  37  63  93 123 165 204 259 312 382
#     4  10  18  33  56  87 128 156 198 255 323 367
#     4  10  20  37  58  90 114 153 206 258 316 380
#
# _framework density 19.634347000000002
#
# number of rings (size 3 to 8) (size 9 to 14) (size 15 to 20)
#    0.750    0.750    3.750    2.625    1.750    0.500 
#    0.000    0.000    0.000    0.000   39.000    0.000 
#    0.000    0.000    0.000    0.000    0.000    0.000 
#
# Total GULP energy -356385.960383 kJ/mol
# GULP energy per Si atom -5568.530631 kJ/mol
# Density = 1.958966 g / cm^3
# Si number density = 19.634347 Si / 1000 Ang^3
#
#
#
# Elastic Constant Matrix: (Units=GPa)
#
#
# Indices 1 2 3 4 5 6 
#
# 1 87.9839 17.2213 15.4920 0.0000 0.0000 0.0000
# 2 17.2213 103.7535 -3.0298 0.0000 0.0000 0.0000
# 3 15.4920 -3.0298 55.4855 0.0000 0.0000 0.0000
# 4 0.0000 0.0000 0.0000 32.4881 0.0000 0.0000
# 5 0.0000 0.0000 0.0000 0.0000 8.8272 0.0000
# 6 0.0000 0.0000 0.0000 0.0000 0.0000 24.5781
#
#
#
# Elastic Compliance Matrix: (Units=1/GPa)
#
#
# Indices 1 2 3 4 5 6 
#
# 1 0.012421 -0.002166 -0.003586 0.000000 0.000000 0.000000
# 2 -0.002166 0.010031 0.001153 0.000000 0.000000 0.000000
# 3 -0.003586 0.001153 0.019087 0.000000 0.000000 0.000000
# 4 0.000000 0.000000 0.000000 0.030780 0.000000 0.000000
# 5 0.000000 0.000000 0.000000 0.000000 0.113286 0.000000
# 6 0.000000 0.000000 0.000000 0.000000 0.000000 0.040687
#
#
# Mechanical properties :
#
#
# Convention : Reuss Voigt Hill
#
# Bulk Modulus (GPa) = 30.92210 34.06557 32.49383
# Shear Modulus (GPa) = 20.30266 27.68130 23.99198
#
# Velocity S-wave (km/s) = 3.21913 3.75886 3.49942
# Velocity P-wave (km/s) = 5.44061 6.01883 5.73701
#
# Compressibility (1/GPa) = 0.03233933
#
# Stress axis : x y z
#
# Youngs Moduli (GPa) = 80.50716 99.68619 52.39165
#
# Poissons Ratio (x) = 0.21596 0.18790
# Poissons Ratio (y) = 0.17441 -0.06039
# Poissons Ratio (z) = 0.28873 -0.11490
#
# Static dielectric constant tensor:
#      x y z
#    x 1.682030 0.000000 0.000000 
#    y 0.000000 1.784690 0.000000 
#    z 0.000000 0.000000 1.700400 
# 
# From -- ./inp_files/23653.got.cif
#   From: 2010.05.17/outbox.cif.g08.bks.cpg/sg56_12_cif.got.tgz:23653.got - 2010.06.03 13:42:01.
