data_PCOD9429698
_publ_section_title
;
Structure prediction by ZEFSAII (Michael W. Deem and Ramdas Pophale) SiO2 
 PCOD9429698
Probable space group: P C C N
;
_chemical_formula_sum "Si O2"
_cell_formula_units_Z 60
_cell_length_a 15.101173
_cell_length_b 13.171710
_cell_length_c 18.211580
_cell_angle_alpha 90.000000
_cell_angle_beta 90.000000
_cell_angle_gamma 90.000000
_cell_volume 3622.433898
_symmetry_space_group_name_H-M "P C C N"
_symmetry_group_IT_number 56
_symmetry_cell_setting 'orthorhombic'
loop_
_space_group_symop_operation_xyz
x,y,z
1/2-x,1/2-y,z
1/2+x,-y,1/2-z
-x,1/2+y,1/2-z
-x,-y,-z
1/2+x,1/2+y,-z
1/2-x,y,1/2+z
x,1/2-y,1/2+z
loop_
_atom_site_type_symbol
_atom_site_label
_atom_site_fract_x
_atom_site_fract_y
_atom_site_fract_z
Si Si1 0.715714 0.865604 0.579162
Si Si2 0.635702 0.530671 0.305555
Si Si3 0.039278 0.369082 0.325679
Si Si4 0.427343 0.056877 0.694539
Si Si5 0.066736 0.821645 0.717424
Si Si6 0.730053 0.631507 0.908744
Si Si7 0.750000 0.250000 0.709162
Si Si8 0.290919 0.523923 0.310973
O O1 0.750000 0.750000 0.586749
O O2 0.621225 0.867547 0.619362
O O3 0.711819 0.892454 0.493478
O O4 0.776228 0.947181 0.621933
O O5 0.575475 0.606750 0.257202
O O6 0.585869 0.426695 0.324587
O O7 0.684083 0.576605 0.375236
O O8 0.712173 0.499669 0.247152
O O9 0.976717 0.463682 0.343939
O O10 0.985209 0.265266 0.325228
O O11 0.501133 0.138966 0.718004
O O12 0.352456 0.103174 0.642811
O O13 0.378992 0.007890 0.766311
O O14 0.161090 0.777867 0.744966
O O15 0.750000 0.750000 0.902881
O O16 0.721701 0.356514 0.670096
#
# Coordination Sequence:
#
# PCOD9429698 Si02
#       8
#     8   8   8   8   8   8   4   8
#     4  10  21  35  56  78 108 145 181 220 264 317
#     4   8  18  31  52  80 102 136 174 215 261 313
#     4  10  18  32  53  84 105 134 175 223 265 308
#     4  10  19  32  56  85 102 136 177 228 261 309
#     4  10  18  30  54  79 109 130 173 222 269 313
#     4  10  20  36  55  75 109 145 178 217 264 316
#     4  10  18  32  52  78 110 142 164 218 278 324
#     4   9  17  33  54  79 108 136 176 216 265 318
#
# _framework density 16.56345
#
# number of rings (size 3 to 8) (size 9 to 14) (size 15 to 20)
#    0.000    2.400    1.333    2.400    0.000    4.267 
#    0.000    0.000    5.867    4.800    0.000    0.000 
#    0.000    0.000    0.000    0.000    0.000    0.000 
#
# Total GULP energy -334079.983989 kJ/mol
# GULP energy per Si atom -5567.999733 kJ/mol
# Density = 1.652575 g / cm^3
# Si number density = 16.563450 Si / 1000 Ang^3
#
#
#
# Elastic Constant Matrix: (Units=GPa)
#
#
# Indices 1 2 3 4 5 6 
#
# 1 93.5727 35.1380 41.8096 0.0000 0.0000 0.0000
# 2 35.1380 92.0418 55.0974 0.0000 0.0000 0.0000
# 3 41.8096 55.0974 81.1774 0.0000 0.0000 0.0000
# 4 0.0000 0.0000 0.0000 21.3452 0.0000 0.0000
# 5 0.0000 0.0000 0.0000 0.0000 1.7926 0.0000
# 6 0.0000 0.0000 0.0000 0.0000 0.0000 35.3994
#
#
#
# Elastic Compliance Matrix: (Units=1/GPa)
#
#
# Indices 1 2 3 4 5 6 
#
# 1 0.014044 -0.001738 -0.006054 0.000000 0.000000 0.000000
# 2 -0.001738 0.018515 -0.011672 0.000000 0.000000 0.000000
# 3 -0.006054 -0.011672 0.023359 0.000000 0.000000 0.000000
# 4 0.000000 0.000000 0.000000 0.046849 0.000000 0.000000
# 5 0.000000 0.000000 0.000000 0.000000 0.557864 0.000000
# 6 0.000000 0.000000 0.000000 0.000000 0.000000 0.028249
#
#
# Mechanical properties :
#
#
# Convention : Reuss Voigt Hill
#
# Bulk Modulus (GPa) = 58.85356 58.98687 58.92021
# Shear Modulus (GPa) = 6.81692 20.69054 13.75373
#
# Velocity S-wave (km/s) = 2.03090 3.53819 2.88473
# Velocity P-wave (km/s) = 6.41161 7.23752 6.83705
#
# Compressibility (1/GPa) = 0.01699133
#
# Stress axis : x y z
#
# Youngs Moduli (GPa) = 71.20269 54.01112 42.81074
#
# Poissons Ratio (x) = 0.09385 0.25918
# Poissons Ratio (y) = 0.12372 0.49967
# Poissons Ratio (z) = 0.43107 0.63039
#
# Static dielectric constant tensor:
#      x y z
#    x 1.579860 0.000000 0.000000 
#    y 0.000000 1.576700 0.000000 
#    z 0.000000 0.000000 1.529470 
# 
# From -- ./inp_files/16303.got.cif
#   From: 2010.05.17/outbox.cif.g08.bks.cpg/sg56_9_cif.got.tgz:16303.got - 2010.06.03 13:42:01.
