data_PCOD9429596
_publ_section_title
;
Structure prediction by ZEFSAII (Michael W. Deem and Ramdas Pophale) SiO2 
 PCOD9429596
Probable space group: P C C N
;
_chemical_formula_sum "Si O2"
_cell_formula_units_Z 48
_cell_length_a 4.968796
_cell_length_b 17.950860
_cell_length_c 28.793834
_cell_angle_alpha 90.000000
_cell_angle_beta 90.000000
_cell_angle_gamma 90.000000
_cell_volume 2568.241876
_symmetry_space_group_name_H-M "P C C N"
_symmetry_group_IT_number 56
_symmetry_cell_setting 'orthorhombic'
loop_
_space_group_symop_operation_xyz
x,y,z
1/2-x,1/2-y,z
1/2+x,-y,1/2-z
-x,1/2+y,1/2-z
-x,-y,-z
1/2+x,1/2+y,-z
1/2-x,y,1/2+z
x,1/2-y,1/2+z
loop_
_atom_site_type_symbol
_atom_site_label
_atom_site_fract_x
_atom_site_fract_y
_atom_site_fract_z
Si Si1 0.421370 0.928319 0.654624
Si Si2 0.490640 0.201405 0.416746
Si Si3 0.422432 0.533761 0.352957
Si Si4 0.234961 0.933733 0.951399
Si Si5 0.770144 0.598853 0.007025
Si Si6 0.697208 0.449367 0.746159
O O1 0.407272 0.862820 0.617780
O O2 0.715826 0.964558 0.652454
O O3 0.355662 0.903030 0.707272
O O4 0.213369 0.995333 0.643104
O O5 0.750000 0.250000 0.429349
O O6 0.346719 0.162549 0.460514
O O7 0.250000 0.250000 0.394304
O O8 0.332297 0.576421 0.399009
O O9 0.387015 0.578522 0.304691
O O10 0.432161 0.891615 0.987118
O O11 0.931258 0.913094 0.963779
O O12 0.266461 0.021721 0.963654
O O13 0.502961 0.521715 0.753626
#
# Coordination Sequence:
#
# PCOD9429596 Si02
#       6
#     8   8   8   8   8   8
#     4  10  19  32  48  72 105 131 167 204 244 311
#     4  12  24  36  51  71 101 144 179 207 246 301
#     4  10  17  30  52  77 102 131 155 202 268 317
#     4  10  19  31  53  73 104 129 162 212 269 312
#     4  10  21  33  47  75  99 134 171 210 255 302
#     4   8  16  28  46  72 101 128 152 190 250 302
#
# _framework density 18.689829
#
# number of rings (size 3 to 8) (size 9 to 14) (size 15 to 20)
#    0.000    2.000    1.667    3.000    4.667    0.000 
#    0.000    0.000    0.000    0.000    0.000    7.000 
#    0.000    0.000    0.000    0.000    0.000    0.000 
#
# Total GULP energy -267728.533514 kJ/mol
# GULP energy per Si atom -5577.677782 kJ/mol
# Density = 1.864729 g / cm^3
# Si number density = 18.689829 Si / 1000 Ang^3
#
#
#
# Elastic Constant Matrix: (Units=GPa)
#
#
# Indices 1 2 3 4 5 6 
#
# 1 76.6951 5.9539 -5.0233 0.0000 0.0000 0.0000
# 2 5.9539 27.6398 18.2264 0.0000 0.0000 0.0000
# 3 -5.0233 18.2264 106.6506 0.0000 0.0000 0.0000
# 4 0.0000 0.0000 0.0000 6.6266 0.0000 0.0000
# 5 0.0000 0.0000 0.0000 0.0000 23.3915 0.0000
# 6 0.0000 0.0000 0.0000 0.0000 0.0000 25.0923
#
#
#
# Elastic Compliance Matrix: (Units=1/GPa)
#
#
# Indices 1 2 3 4 5 6 
#
# 1 0.013411 -0.003725 0.001268 0.000000 0.000000 0.000000
# 2 -0.003725 0.041810 -0.007321 0.000000 0.000000 0.000000
# 3 0.001268 -0.007321 0.010687 0.000000 0.000000 0.000000
# 4 0.000000 0.000000 0.000000 0.150906 0.000000 0.000000
# 5 0.000000 0.000000 0.000000 0.000000 0.042751 0.000000
# 6 0.000000 0.000000 0.000000 0.000000 0.000000 0.039853
#
#
# Mechanical properties :
#
#
# Convention : Reuss Voigt Hill
#
# Bulk Modulus (GPa) = 21.57373 27.69993 24.63683
# Shear Modulus (GPa) = 14.95110 23.81065 19.38088
#
# Velocity S-wave (km/s) = 2.83142 3.57317 3.22370
# Velocity P-wave (km/s) = 4.71777 5.64592 5.20259
#
# Compressibility (1/GPa) = 0.04635266
#
# Stress axis : x y z
#
# Youngs Moduli (GPa) = 74.56617 23.91795 93.56961
#
# Poissons Ratio (x) = 0.08910 -0.11867
# Poissons Ratio (y) = 0.27777 0.68499
# Poissons Ratio (z) = -0.09457 0.17509
#
# Static dielectric constant tensor:
#      x y z
#    x 1.645180 0.000000 0.000000 
#    y 0.000000 1.616580 0.000000 
#    z 0.000000 0.000000 1.716470 
# 
# From -- ./inp_files/21658.got.cif
#   From: 2010.05.17/outbox.cif.g08.bks.cpg/sg56_11_cif.got.tgz:21658.got - 2010.06.03 13:42:01.
