data_PCOD9429899
_publ_section_title
;
Structure prediction by ZEFSAII (Michael W. Deem and Ramdas Pophale) SiO2 
 PCOD9429899
Probable space group: P C C N
;
_chemical_formula_sum "Si O2"
_cell_formula_units_Z 56
_cell_length_a 14.821104
_cell_length_b 11.374609
_cell_length_c 15.443681
_cell_angle_alpha 90.000000
_cell_angle_beta 90.000000
_cell_angle_gamma 90.000000
_cell_volume 2603.561579
_symmetry_space_group_name_H-M "P C C N"
_symmetry_group_IT_number 56
_symmetry_cell_setting 'orthorhombic'
loop_
_space_group_symop_operation_xyz
x,y,z
1/2-x,1/2-y,z
1/2+x,-y,1/2-z
-x,1/2+y,1/2-z
-x,-y,-z
1/2+x,1/2+y,-z
1/2-x,y,1/2+z
x,1/2-y,1/2+z
loop_
_atom_site_type_symbol
_atom_site_label
_atom_site_fract_x
_atom_site_fract_y
_atom_site_fract_z
Si Si1 0.310596 0.629868 0.894538
Si Si2 0.175444 0.647150 0.583567
Si Si3 0.079265 0.026446 0.431529
Si Si4 0.024982 0.784752 0.357584
Si Si5 0.167856 0.338349 0.076557
Si Si6 0.296028 0.969029 0.215288
Si Si7 0.536109 0.293783 0.330852
O O1 0.250000 0.750000 0.885958
O O2 0.411912 0.675614 0.879687
O O3 0.285965 0.539848 0.818277
O O4 0.312498 0.583790 0.992382
O O5 0.250000 0.750000 0.577828
O O6 0.205563 0.577074 0.668342
O O7 0.078820 0.706495 0.598162
O O8 0.156969 0.075391 0.493747
O O9 0.043878 0.127248 0.367736
O O10 0.081758 0.902304 0.382123
O O11 0.000000 0.000000 0.500000
O O12 0.009483 0.776797 0.254792
O O13 0.930856 0.781409 0.408698
O O14 0.250000 0.250000 0.064640
O O15 0.182632 0.411956 0.165006
O O16 0.379550 0.880985 0.192044
#
# Coordination Sequence:
#
# PCOD9429899 Si02
#       7
#     8   8   8   8   8   8   8
#     4  10  20  35  62  98 123 157 221 279 335 382
#     4   9  18  31  58  92 122 153 204 281 322 382
#     4  10  19  38  70  88 119 178 221 257 331 402
#     4  10  21  38  65  97 122 172 223 273 324 403
#     4  11  24  43  63  90 134 180 223 267 330 413
#     4  10  19  37  59  91 127 167 214 274 329 390
#     4  10  18  37  65  95 122 160 227 276 327 392
#
# _framework density 21.508997999999998
#
# number of rings (size 3 to 8) (size 9 to 14) (size 15 to 20)
#    0.000    2.000    2.857    3.857    4.000    0.000 
#    5.143    2.143    0.000    2.571    0.000    0.000 
#    0.000    0.000    0.000    0.000    0.000    0.000 
#
# Total GULP energy -312461.298310 kJ/mol
# GULP energy per Si atom -5579.666041 kJ/mol
# Density = 2.146004 g / cm^3
# Si number density = 21.508998 Si / 1000 Ang^3
#
#
#
# Elastic Constant Matrix: (Units=GPa)
#
#
# Indices 1 2 3 4 5 6 
#
# 1 86.7091 38.4254 24.0649 0.0000 0.0000 0.0000
# 2 38.4254 59.4131 41.8591 0.0000 0.0000 0.0000
# 3 24.0649 41.8591 143.4875 0.0000 0.0000 0.0000
# 4 0.0000 0.0000 0.0000 23.6676 0.0000 0.0000
# 5 0.0000 0.0000 0.0000 0.0000 16.4379 0.0000
# 6 0.0000 0.0000 0.0000 0.0000 0.0000 33.5185
#
#
#
# Elastic Compliance Matrix: (Units=1/GPa)
#
#
# Indices 1 2 3 4 5 6 
#
# 1 0.016187 -0.010770 0.000427 0.000000 0.000000 0.000000
# 2 -0.010770 0.028351 -0.006465 0.000000 0.000000 0.000000
# 3 0.000427 -0.006465 0.008784 0.000000 0.000000 0.000000
# 4 0.000000 0.000000 0.000000 0.042252 0.000000 0.000000
# 5 0.000000 0.000000 0.000000 0.000000 0.060835 0.000000
# 6 0.000000 0.000000 0.000000 0.000000 0.000000 0.029834
#
#
# Mechanical properties :
#
#
# Convention : Reuss Voigt Hill
#
# Bulk Modulus (GPa) = 50.74315 55.36762 53.05538
# Shear Modulus (GPa) = 22.08224 27.07550 24.57887
#
# Velocity S-wave (km/s) = 3.20762 3.55180 3.38409
# Velocity P-wave (km/s) = 6.11238 6.52824 6.32373
#
# Compressibility (1/GPa) = 0.01970709
#
# Stress axis : x y z
#
# Youngs Moduli (GPa) = 61.77812 35.27189 113.84982
#
# Poissons Ratio (x) = 0.37987 -0.04862
# Poissons Ratio (y) = 0.66534 0.73599
# Poissons Ratio (z) = -0.02638 0.22802
#
# Static dielectric constant tensor:
#      x y z
#    x 1.802650 0.000000 0.000000 
#    y 0.000000 1.779290 0.000000 
#    z 0.000000 0.000000 1.814750 
# 
# From -- ./inp_files/12278.got.cif
#   From: 2010.05.17/outbox.cif.g08.bks.cpg/sg56_7_cif.got.tgz:12278.got - 2010.06.03 13:42:01.
