data_PCOD9429065
_publ_section_title
;
Structure prediction by ZEFSAII (Michael W. Deem and Ramdas Pophale) SiO2 
 PCOD9429065
Probable space group: P B A M
;
_chemical_formula_sum "Si O2"
_cell_formula_units_Z 40
_cell_length_a 9.140749
_cell_length_b 12.406827
_cell_length_c 15.596651
_cell_angle_alpha 90.000000
_cell_angle_beta 90.000000
_cell_angle_gamma 90.000000
_cell_volume 1768.780185
_symmetry_space_group_name_H-M "P B A M"
_symmetry_group_IT_number 55
_symmetry_cell_setting 'orthorhombic'
loop_
_space_group_symop_operation_xyz
x,y,z
-x,-y,z
1/2+x,1/2-y,-z
1/2-x,1/2+y,-z
-x,-y,-z
x,y,-z
1/2-x,1/2+y,z
1/2+x,1/2-y,z
loop_
_atom_site_type_symbol
_atom_site_label
_atom_site_fract_x
_atom_site_fract_y
_atom_site_fract_z
Si Si1 0.679252 0.687635 0.332586
Si Si2 0.976178 0.874281 0.099891
Si Si3 0.173928 0.694146 0.831687
Si Si4 0.632265 0.366226 0.596656
Si Si5 0.159762 0.507892 0.728396
O O1 0.620012 0.771980 0.263040
O O2 0.792612 0.748196 0.394266
O O3 0.538742 0.639544 0.379738
O O4 0.769130 0.609218 0.270039
O O5 0.106456 0.786564 0.108651
O O6 0.846092 0.816961 0.151835
O O7 0.934129 0.882856 0.000000
O O8 0.000000 0.000000 0.129558
O O9 0.139617 0.566221 0.820559
O O10 0.651583 0.406005 0.500000
O O11 0.722118 0.434862 0.665871
O O12 0.000000 0.500000 0.687002
#
# Coordination Sequence:
#
# PCOD9429065 Si02
#       5
#     8   8   8   8   8
#     4  11  22  39  62  89 121 165 218 267 322 388
#     4  11  24  42  67  99 134 171 211 264 330 393
#     4  11  22  41  65  91 128 168 213 264 317 386
#     4  11  24  40  61  90 127 170 217 275 335 390
#     4  11  23  39  62  91 122 165 219 268 322 385
#
# _framework density 22.614453000000001
#
# number of rings (size 3 to 8) (size 9 to 14) (size 15 to 20)
#    0.000    1.000    0.000    9.000    0.000    2.800 
#    0.000    0.000    0.000    6.000    0.000    0.000 
#    0.000    0.000    0.000    0.000    0.000    0.000 
#
# Total GULP energy -222764.526447 kJ/mol
# GULP energy per Si atom -5569.113161 kJ/mol
# Density = 2.256298 g / cm^3
# Si number density = 22.614453 Si / 1000 Ang^3
#
#
#
# Elastic Constant Matrix: (Units=GPa)
#
#
# Indices 1 2 3 4 5 6 
#
# 1 134.1797 59.1830 3.2453 0.0000 0.0000 0.0000
# 2 59.1830 97.2427 9.3992 0.0000 0.0000 0.0000
# 3 3.2453 9.3992 61.0837 0.0000 0.0000 0.0000
# 4 0.0000 0.0000 0.0000 21.2639 0.0000 0.0000
# 5 0.0000 0.0000 0.0000 0.0000 23.7165 0.0000
# 6 0.0000 0.0000 0.0000 0.0000 0.0000 47.5660
#
#
#
# Elastic Compliance Matrix: (Units=1/GPa)
#
#
# Indices 1 2 3 4 5 6 
#
# 1 0.010198 -0.006247 0.000419 0.000000 0.000000 0.000000
# 2 -0.006247 0.014266 -0.001863 0.000000 0.000000 0.000000
# 3 0.000419 -0.001863 0.016635 0.000000 0.000000 0.000000
# 4 0.000000 0.000000 0.000000 0.047028 0.000000 0.000000
# 5 0.000000 0.000000 0.000000 0.000000 0.042165 0.000000
# 6 0.000000 0.000000 0.000000 0.000000 0.000000 0.021023
#
#
# Mechanical properties :
#
#
# Convention : Reuss Voigt Hill
#
# Bulk Modulus (GPa) = 38.88436 48.46236 43.67336
# Shear Modulus (GPa) = 28.52746 33.22117 30.87432
#
# Velocity S-wave (km/s) = 3.55557 3.83694 3.69893
# Velocity P-wave (km/s) = 5.83849 6.41138 6.13163
#
# Compressibility (1/GPa) = 0.02571728
#
# Stress axis : x y z
#
# Youngs Moduli (GPa) = 98.05839 70.09798 60.11283
#
# Poissons Ratio (x) = 0.43791 -0.02522
# Poissons Ratio (y) = 0.61259 0.11200
# Poissons Ratio (z) = -0.04113 0.13061
#
# Static dielectric constant tensor:
#      x y z
#    x 1.876980 0.000000 0.000000 
#    y 0.000000 2.068410 0.000000 
#    z 0.000000 0.000000 1.805630 
# 
# From -- ./inp_files/20600.got.cif
#   From: 2010.05.17/outbox.cif.g08.bks.cpg/sg55_11_cif.got.tgz:20600.got - 2010.06.03 13:27:54.
