data_PCOD9429143
_publ_section_title
;
Structure prediction by ZEFSAII (Michael W. Deem and Ramdas Pophale) SiO2 
 PCOD9429143
Probable space group: P B A M
;
_chemical_formula_sum "Si O2"
_cell_formula_units_Z 40
_cell_length_a 10.542883
_cell_length_b 20.511648
_cell_length_c 7.864955
_cell_angle_alpha 90.000000
_cell_angle_beta 90.000000
_cell_angle_gamma 90.000000
_cell_volume 1700.811501
_symmetry_space_group_name_H-M "P B A M"
_symmetry_group_IT_number 55
_symmetry_cell_setting 'orthorhombic'
loop_
_space_group_symop_operation_xyz
x,y,z
-x,-y,z
1/2+x,1/2-y,-z
1/2-x,1/2+y,-z
-x,-y,-z
x,y,-z
1/2-x,1/2+y,z
1/2+x,1/2-y,z
loop_
_atom_site_type_symbol
_atom_site_label
_atom_site_fract_x
_atom_site_fract_y
_atom_site_fract_z
Si Si1 0.065551 0.202430 0.192960
Si Si2 0.676026 0.052760 0.793395
Si Si3 0.044721 0.928230 0.208585
Si Si4 0.320894 0.233478 0.689109
Si Si5 0.601496 0.907208 0.793670
O O1 0.172751 0.246055 0.279631
O O2 0.044044 0.130419 0.267878
O O3 0.926259 0.233799 0.193657
O O4 0.111514 0.195232 0.000000
O O5 0.809684 0.081393 0.736099
O O6 0.546231 0.087397 0.740598
O O7 0.664959 0.976258 0.747576
O O8 0.675824 0.054618 0.000000
O O9 0.042207 0.926178 0.000000
O O10 0.000000 0.000000 0.258800
O O11 0.356846 0.252826 0.500000
O O12 0.335880 0.156000 0.715045
O O13 0.606656 0.902038 0.000000
#
# Coordination Sequence:
#
# PCOD9429143 Si02
#       5
#     8   8   8   8   8
#     4  11  24  42  67  94 121 165 219 259 306 381
#     4   8  15  29  55  93 124 152 199 264 312 355
#     4   9  17  31  57  92 124 149 195 262 315 358
#     4  12  26  43  61  88 130 168 205 260 323 375
#     4   9  17  33  60  89 121 160 207 254 307 371
#
# _framework density 23.518186
#
# number of rings (size 3 to 8) (size 9 to 14) (size 15 to 20)
#    0.000    2.200    0.000    4.800    2.800    3.200 
#    0.000    2.000    0.000   10.800    0.000    0.000 
#    0.000    0.000    0.000    0.000    0.000    0.000 
#
# Total GULP energy -223593.209914 kJ/mol
# GULP energy per Si atom -5589.830248 kJ/mol
# Density = 2.346466 g / cm^3
# Si number density = 23.518186 Si / 1000 Ang^3
#
#
#
# Elastic Constant Matrix: (Units=GPa)
#
#
# Indices 1 2 3 4 5 6 
#
# 1 112.5417 21.8750 -4.0651 0.0000 0.0000 0.0000
# 2 21.8750 50.5020 -4.5097 0.0000 0.0000 0.0000
# 3 -4.0651 -4.5097 37.9832 0.0000 0.0000 0.0000
# 4 0.0000 0.0000 0.0000 -35.8318 0.0000 0.0000
# 5 0.0000 0.0000 0.0000 0.0000 7.3946 0.0000
# 6 0.0000 0.0000 0.0000 0.0000 0.0000 32.8072
#
#
#
# Elastic Compliance Matrix: (Units=1/GPa)
#
#
# Indices 1 2 3 4 5 6 
#
# 1 0.009714 -0.004159 0.000546 0.000000 0.000000 0.000000
# 2 -0.004159 0.021794 0.002142 0.000000 0.000000 0.000000
# 3 0.000546 0.002142 0.026640 0.000000 0.000000 0.000000
# 4 0.000000 0.000000 0.000000 -0.027908 0.000000 0.000000
# 5 0.000000 0.000000 0.000000 0.000000 0.135234 0.000000
# 6 0.000000 0.000000 0.000000 0.000000 0.000000 0.030481
#
#
# Mechanical properties :
#
#
# Convention : Reuss Voigt Hill
#
# Bulk Modulus (GPa) = 18.11368 25.29192 21.70280
# Shear Modulus (GPa) = 23.00985 13.38909 18.19947
#
# Velocity S-wave (km/s) = 3.13131 2.38861 2.78483
# Velocity P-wave (km/s) = 4.55984 4.28775 4.42589
#
# Compressibility (1/GPa) = 0.05520689
#
# Stress axis : x y z
#
# Youngs Moduli (GPa) = 102.94788 45.88443 37.53722
#
# Poissons Ratio (x) = 0.19082 -0.02049
# Poissons Ratio (y) = 0.42813 -0.08042
# Poissons Ratio (z) = -0.05619 -0.09831
#
# Static dielectric constant tensor:
#      x y z
#    x 1.912970 0.000000 0.000000 
#    y 0.000000 1.865830 0.000000 
#    z 0.000000 0.000000 1.875300 
# 
# From -- ./inp_files/3841.got.cif
#   From: 2010.05.17/outbox.cif.g08.bks.cpg/sg55_2_cif.got.tgz:3841.got - 2010.06.03 13:27:54.
