data_PCOD9429263
_publ_section_title
;
Structure prediction by ZEFSAII (Michael W. Deem and Ramdas Pophale) SiO2 
 PCOD9429263
Probable space group: P B A M
;
_chemical_formula_sum "Si O2"
_cell_formula_units_Z 64
_cell_length_a 15.000000
_cell_length_b 24.000000
_cell_length_c 9.000000
_cell_angle_alpha 90.000000
_cell_angle_beta 90.000000
_cell_angle_gamma 90.000000
_cell_volume 3240.000000
_symmetry_space_group_name_H-M "P B A M"
_symmetry_group_IT_number 55
_symmetry_cell_setting 'orthorhombic'
loop_
_space_group_symop_operation_xyz
x,y,z
-x,-y,z
1/2+x,1/2-y,-z
1/2-x,1/2+y,-z
-x,-y,-z
x,y,-z
1/2-x,1/2+y,z
1/2+x,1/2-y,z
loop_
_atom_site_type_symbol
_atom_site_label
_atom_site_fract_x
_atom_site_fract_y
_atom_site_fract_z
Si Si1 0.922668 0.075559 0.819356
Si Si2 0.300468 0.042510 0.825095
Si Si3 0.867394 0.192182 0.178913
Si Si4 0.822301 0.706357 0.171514
Si Si5 0.036416 0.600972 0.674742
Si Si6 0.499668 0.773977 0.675504
Si Si7 0.637751 0.076473 0.167948
Si Si8 0.386985 0.550457 0.819046
O O1 0.869101 0.128603 0.765450
O O2 0.026213 0.084805 0.779071
O O3 0.900085 0.013489 0.768948
O O4 0.915153 0.073886 0.000000
O O5 0.385346 0.066562 0.746384
O O6 0.209291 0.069284 0.767581
O O7 0.296901 0.975298 0.808920
O O8 0.308648 0.053642 0.000000
O O9 0.776186 0.222858 0.218275
O O10 0.948730 0.225844 0.242249
O O11 0.870827 0.190330 0.000000
O O12 0.896892 0.728027 0.279905
O O13 0.823668 0.638581 0.174440
O O14 0.840296 0.722465 0.000000
O O15 0.046451 0.602155 0.500000
O O16 0.032807 0.665002 0.729237
O O17 0.942675 0.573824 0.718154
O O18 0.511994 0.770496 0.500000
O O19 0.601303 0.069614 0.000000
O O20 0.384968 0.549074 0.000000
#
# Coordination Sequence:
#
# PCOD9429263 Si02
#       8
#     8   8   8   8   8   8   8   8
#     4   8  14  27  49  77 107 132 159 201 250 301
#     4  10  18  28  47  76 104 133 167 201 247 306
#     4  10  19  33  57  84 105 130 172 223 266 305
#     4   9  18  34  56  80 103 131 170 220 269 308
#     4  10  21  35  48  65  96 136 174 211 255 302
#     4  10  22  39  54  71 102 142 179 218 263 313
#     4   9  17  30  50  75 102 129 165 210 255 303
#     4   8  14  26  46  75 109 137 158 191 245 307
#
# _framework density 19.753086
#
# number of rings (size 3 to 8) (size 9 to 14) (size 15 to 20)
#    0.000    2.750    0.000    2.625    0.000    7.000 
#    2.250    0.000    0.000    2.250    0.000    1.750 
#    0.000    0.000    0.000    0.000    0.000    0.000 
#
# Total GULP energy -356374.692921 kJ/mol
# GULP energy per Si atom -5568.354577 kJ/mol
# Density = 1.970813 g / cm^3
# Si number density = 19.753086 Si / 1000 Ang^3
#
#
#
# Elastic Constant Matrix: (Units=GPa)
#
#
# Indices 1 2 3 4 5 6 
#
# 1 63.5052 12.8561 15.6472 0.0000 0.0000 0.0000
# 2 12.8561 9.0191 3.5867 0.0000 0.0000 0.0000
# 3 15.6472 3.5867 -15.6111 0.0000 0.0000 0.0000
# 4 0.0000 0.0000 0.0000 13.0135 0.0000 0.0000
# 5 0.0000 0.0000 0.0000 0.0000 -106.6204 0.0000
# 6 0.0000 0.0000 0.0000 0.0000 0.0000 0.7021
#
#
#
# Elastic Compliance Matrix: (Units=1/GPa)
#
#
# Indices 1 2 3 4 5 6 
#
# 1 0.019345 -0.032331 0.011961 0.000000 0.000000 0.000000
# 2 -0.032331 0.155629 0.003351 0.000000 0.000000 0.000000
# 3 0.011961 0.003351 -0.051298 0.000000 0.000000 0.000000
# 4 0.000000 0.000000 0.000000 0.076843 0.000000 0.000000
# 5 0.000000 0.000000 0.000000 0.000000 -0.009379 0.000000
# 6 0.000000 0.000000 0.000000 0.000000 0.000000 1.424359
#
#
# Mechanical properties :
#
#
# Convention : Reuss Voigt Hill
#
# Bulk Modulus (GPa) = 11.15611 13.45480 12.30546
# Shear Modulus (GPa) = 2.97722 -16.92609 -6.97443
#
# Velocity S-wave (km/s) = 1.22902 -2.93043 -1.88108
# Velocity P-wave (km/s) = 2.77020 2.15026 1.23499
#
# Compressibility (1/GPa) = 0.08963698
#
# Stress axis : x y z
#
# Youngs Moduli (GPa) = 51.69350 6.42552 -19.49382
#
# Poissons Ratio (x) = 0.20775 0.23317
# Poissons Ratio (y) = 1.67132 0.06532
# Poissons Ratio (z) = -0.61832 -0.02153
#
# Static dielectric constant tensor:
#      x y z
#    x 1.719390 0.000000 0.000000 
#    y 0.000000 1.700340 0.000000 
#    z 0.000000 0.000000 1.658400 
# 
# From -- ./inp_files/6520.got.cif
#   From: 2010.05.17/outbox.ucp.g08.bks.cvg/sg55_4_cif.got.tgz:6520.got - 2010.06.11 16:36:00.
