data_PCOD9429772
_publ_section_title
;
Structure prediction by ZEFSAII (Michael W. Deem and Ramdas Pophale) SiO2 
 PCOD9429772
Probable space group: P C C N
;
_chemical_formula_sum "Si O2"
_cell_formula_units_Z 48
_cell_length_a 23.479614
_cell_length_b 15.530901
_cell_length_c 5.413284
_cell_angle_alpha 90.000000
_cell_angle_beta 90.000000
_cell_angle_gamma 90.000000
_cell_volume 1974.005765
_symmetry_space_group_name_H-M "P C C N"
_symmetry_group_IT_number 56
_symmetry_cell_setting 'orthorhombic'
loop_
_space_group_symop_operation_xyz
x,y,z
1/2-x,1/2-y,z
1/2+x,-y,1/2-z
-x,1/2+y,1/2-z
-x,-y,-z
1/2+x,1/2+y,-z
1/2-x,y,1/2+z
x,1/2-y,1/2+z
loop_
_atom_site_type_symbol
_atom_site_label
_atom_site_fract_x
_atom_site_fract_y
_atom_site_fract_z
Si Si1 0.824852 0.205158 0.561598
Si Si2 0.878379 0.953724 0.930197
Si Si3 0.675003 0.481873 0.413400
Si Si4 0.733859 0.867126 0.403715
Si Si5 0.498792 0.138537 0.611331
Si Si6 0.541989 0.168450 0.110994
O O1 0.809801 0.270787 0.341689
O O2 0.803583 0.112856 0.474179
O O3 0.893885 0.198026 0.562875
O O4 0.863659 0.014957 0.164824
O O5 0.831085 0.879758 0.975416
O O6 0.860790 0.989924 0.658832
O O7 0.939067 0.907779 0.931363
O O8 0.729516 0.543772 0.372536
O O9 0.733151 0.828330 0.132958
O O10 0.536677 0.119497 0.370054
O O11 0.503408 0.244034 0.626583
O O12 0.521989 0.112983 0.878930
#
# Coordination Sequence:
#
# PCOD9429772 Si02
#       6
#     8   8   8   8   8   8
#     4  12  21  38  59  75 109 156 187 224 275 319
#     4  10  19  35  56  83 110 141 177 232 286 325
#     4  10  21  35  55  85 107 143 185 229 273 336
#     4   8  16  32  54  74 105 137 171 220 276 322
#     4  10  18  33  56  79 108 147 182 221 273 325
#     4  10  19  35  53  76 109 149 188 222 259 323
#
# _framework density 24.316040000000001
#
# number of rings (size 3 to 8) (size 9 to 14) (size 15 to 20)
#    0.000    2.000    3.333    2.000    0.000    0.000 
#    0.000    5.000    0.000   27.000    0.000  126.000 
#    0.000    0.000    0.000    0.000    0.000    0.000 
#
# Total GULP energy -267937.926862 kJ/mol
# GULP energy per Si atom -5582.040143 kJ/mol
# Density = 2.426070 g / cm^3
# Si number density = 24.316040 Si / 1000 Ang^3
#
#
#
# Elastic Constant Matrix: (Units=GPa)
#
#
# Indices 1 2 3 4 5 6 
#
# 1 104.8323 23.6716 14.3989 0.0000 0.0000 0.0000
# 2 23.6716 65.4060 -19.4067 0.0000 0.0000 0.0000
# 3 14.3989 -19.4067 168.1992 0.0000 0.0000 0.0000
# 4 0.0000 0.0000 0.0000 56.6170 0.0000 0.0000
# 5 0.0000 0.0000 0.0000 0.0000 -29.9062 0.0000
# 6 0.0000 0.0000 0.0000 0.0000 0.0000 24.9731
#
#
#
# Elastic Compliance Matrix: (Units=1/GPa)
#
#
# Indices 1 2 3 4 5 6 
#
# 1 0.010702 -0.004292 -0.001411 0.000000 0.000000 0.000000
# 2 -0.004292 0.017552 0.002393 0.000000 0.000000 0.000000
# 3 -0.001411 0.002393 0.006342 0.000000 0.000000 0.000000
# 4 0.000000 0.000000 0.000000 0.017663 0.000000 0.000000
# 5 0.000000 0.000000 0.000000 0.000000 -0.033438 0.000000
# 6 0.000000 0.000000 0.000000 0.000000 0.000000 0.040043
#
#
# Mechanical properties :
#
#
# Convention : Reuss Voigt Hill
#
# Bulk Modulus (GPa) = 35.74615 41.75169 38.74892
# Shear Modulus (GPa) = 66.83512 31.65504 49.24508
#
# Velocity S-wave (km/s) = 5.24840 3.61198 4.50512
# Velocity P-wave (km/s) = 7.17357 5.88243 6.55984
#
# Compressibility (1/GPa) = 0.02797504
#
# Stress axis : x y z
#
# Youngs Moduli (GPa) = 93.44002 56.97235 157.67380
#
# Poissons Ratio (x) = 0.24453 0.22254
# Poissons Ratio (y) = 0.40105 -0.37725
# Poissons Ratio (z) = 0.13188 -0.13631
#
# Static dielectric constant tensor:
#      x y z
#    x 1.831610 0.000000 0.000000 
#    y 0.000000 1.990830 0.000000 
#    z 0.000000 0.000000 2.007910 
# 
# From -- ./inp_files/1212.got.cif
#   From: 2010.05.17/outbox.cif.g08.bks.cpg/sg56_1_cif.got.tgz:1212.got - 2010.06.03 13:42:01.
