data_PCOD9429011
_publ_section_title
;
Structure prediction by ZEFSAII (Michael W. Deem and Ramdas Pophale) SiO2 
 PCOD9429011
Probable space group: P B A M
;
_chemical_formula_sum "Si O2"
_cell_formula_units_Z 48
_cell_length_a 10.322776
_cell_length_b 29.755831
_cell_length_c 8.624409
_cell_angle_alpha 90.000000
_cell_angle_beta 90.000000
_cell_angle_gamma 90.000000
_cell_volume 2649.097428
_symmetry_space_group_name_H-M "P B A M"
_symmetry_group_IT_number 55
_symmetry_cell_setting 'orthorhombic'
loop_
_space_group_symop_operation_xyz
x,y,z
-x,-y,z
1/2+x,1/2-y,-z
1/2-x,1/2+y,-z
-x,-y,-z
x,y,-z
1/2-x,1/2+y,z
1/2+x,1/2-y,z
loop_
_atom_site_type_symbol
_atom_site_label
_atom_site_fract_x
_atom_site_fract_y
_atom_site_fract_z
Si Si1 0.510958 0.715637 0.185875
Si Si2 0.131511 0.526680 0.684639
Si Si3 0.273798 0.116653 0.184873
Si Si4 0.278287 0.215020 0.314379
Si Si5 0.128246 0.970764 0.814666
Si Si6 0.013099 0.882911 0.314701
O O1 0.615055 0.751171 0.247600
O O2 0.365875 0.725104 0.249156
O O3 0.547102 0.666011 0.247864
O O4 0.507808 0.715479 0.000000
O O5 0.145181 0.532541 0.500000
O O6 0.137161 0.575426 0.763711
O O7 0.249923 0.497275 0.748365
O O8 0.000000 0.500000 0.716732
O O9 0.310011 0.164272 0.260124
O O10 0.128755 0.105963 0.245344
O O11 0.270646 0.121041 0.000000
O O12 0.275199 0.217190 0.500000
O O13 0.108946 0.922038 0.739028
O O14 0.138655 0.966430 0.000000
O O15 0.000000 0.000000 0.780011
O O16 0.004714 0.880815 0.500000
#
# Coordination Sequence:
#
# PCOD9429011 Si02
#       6
#     8   8   8   8   8   8
#     4  11  22  40  63  90 123 157 198 246 299 355
#     4  11  24  41  60  86 120 157 198 244 298 355
#     4  11  21  37  61  88 118 157 200 240 294 356
#     4  11  22  40  64  91 121 157 199 245 298 355
#     4  11  22  37  61  90 118 153 197 243 292 347
#     4  11  21  36  61  90 119 154 198 246 296 347
#
# _framework density 18.119378000000001
#
# number of rings (size 3 to 8) (size 9 to 14) (size 15 to 20)
#    0.000    1.000    1.667    9.000    0.000    2.000 
#    3.000    0.000    0.000    0.000    0.000    0.000 
#    0.000    0.000    0.000    0.000    0.000    0.000 
#
# Total GULP energy -268421.614541 kJ/mol
# GULP energy per Si atom -5592.116970 kJ/mol
# Density = 1.807814 g / cm^3
# Si number density = 18.119378 Si / 1000 Ang^3
#
#
#
# Elastic Constant Matrix: (Units=GPa)
#
#
# Indices 1 2 3 4 5 6 
#
# 1 88.6305 72.4105 72.0978 0.0000 0.0000 0.0000
# 2 72.4105 136.5483 68.0450 0.0000 0.0000 0.0000
# 3 72.0978 68.0450 154.3887 0.0000 0.0000 0.0000
# 4 0.0000 0.0000 0.0000 36.3554 0.0000 0.0000
# 5 0.0000 0.0000 0.0000 0.0000 33.7889 0.0000
# 6 0.0000 0.0000 0.0000 0.0000 0.0000 34.3976
#
#
#
# Elastic Compliance Matrix: (Units=1/GPa)
#
#
# Indices 1 2 3 4 5 6 
#
# 1 0.025338 -0.009662 -0.007574 0.000000 0.000000 0.000000
# 2 -0.009662 0.013069 -0.001248 0.000000 0.000000 0.000000
# 3 -0.007574 -0.001248 0.010564 0.000000 0.000000 0.000000
# 4 0.000000 0.000000 0.000000 0.027506 0.000000 0.000000
# 5 0.000000 0.000000 0.000000 0.000000 0.029596 0.000000
# 6 0.000000 0.000000 0.000000 0.000000 0.000000 0.029072
#
#
# Mechanical properties :
#
#
# Convention : Reuss Voigt Hill
#
# Bulk Modulus (GPa) = 83.31329 89.40823 86.36076
# Shear Modulus (GPa) = 28.39070 32.04265 30.21668
#
# Velocity S-wave (km/s) = 3.96266 4.20982 4.08811
# Velocity P-wave (km/s) = 8.18639 8.54875 8.36953
#
# Compressibility (1/GPa) = 0.01200289
#
# Stress axis : x y z
#
# Youngs Moduli (GPa) = 39.46647 76.51658 94.65983
#
# Poissons Ratio (x) = 0.73932 0.71696
# Poissons Ratio (y) = 0.38133 0.11813
# Poissons Ratio (z) = 0.29892 0.09548
#
# Static dielectric constant tensor:
#      x y z
#    x 1.597980 0.000000 0.000000 
#    y 0.000000 1.616420 0.000000 
#    z 0.000000 0.000000 1.603890 
# 
# From -- ./inp_files/2841.got.cif
#   From: 2010.05.17/outbox.cif.g08.bks.cpg/sg55_2_cif.got.tgz:2841.got - 2010.06.03 13:27:54.
