data_PCOD9429180
_publ_section_title
;
Structure prediction by ZEFSAII (Michael W. Deem and Ramdas Pophale) SiO2 
 PCOD9429180
Probable space group: P B A M
;
_chemical_formula_sum "Si O2"
_cell_formula_units_Z 48
_cell_length_a 8.573883
_cell_length_b 15.775552
_cell_length_c 16.536690
_cell_angle_alpha 90.000000
_cell_angle_beta 90.000000
_cell_angle_gamma 90.000000
_cell_volume 2236.715269
_symmetry_space_group_name_H-M "P B A M"
_symmetry_group_IT_number 55
_symmetry_cell_setting 'orthorhombic'
loop_
_space_group_symop_operation_xyz
x,y,z
-x,-y,z
1/2+x,1/2-y,-z
1/2-x,1/2+y,-z
-x,-y,-z
x,y,-z
1/2-x,1/2+y,z
1/2+x,1/2-y,z
loop_
_atom_site_type_symbol
_atom_site_label
_atom_site_fract_x
_atom_site_fract_y
_atom_site_fract_z
Si Si1 0.187554 0.497898 0.405120
Si Si2 0.038209 0.343437 0.000000
Si Si3 0.125837 0.941303 0.847682
Si Si4 0.290287 0.657676 0.698414
Si Si5 0.586809 0.654908 0.000000
Si Si6 0.882754 0.432027 0.845841
Si Si7 0.165045 0.844253 0.302693
O O1 0.225580 0.494319 0.500000
O O2 0.247745 0.584622 0.365228
O O3 0.266086 0.417344 0.360477
O O4 0.000000 0.500000 0.396783
O O5 0.981656 0.247394 0.000000
O O6 0.969524 0.386143 0.080962
O O7 0.224973 0.344294 0.000000
O O8 0.206983 0.875202 0.788035
O O9 0.251281 0.006227 0.881772
O O10 0.039899 0.893640 0.919222
O O11 0.000000 0.000000 0.801195
O O12 0.201812 0.628747 0.781229
O O13 0.477502 0.660667 0.701335
O O14 0.231288 0.751874 0.677747
O O15 0.000000 0.500000 0.804160
#
# Coordination Sequence:
#
# PCOD9429180 Si02
#       7
#     8   4   8   8   4   8   8
#     4  11  25  48  76 106 141 182 226 280 345 413
#     4  12  28  43  60  97 131 184 235 296 355 413
#     4  12  24  44  68  98 132 181 235 289 356 418
#     4  12  26  44  72 105 141 184 231 286 346 415
#     4  12  28  42  62  93 137 179 239 294 353 415
#     4  12  24  44  71  93 135 182 238 293 357 418
#     4  12  26  45  71 107 141 183 233 282 346 414
#
# _framework density 21.460042000000001
#
# number of rings (size 3 to 8) (size 9 to 14) (size 15 to 20)
#    0.000    0.167    5.000    4.000    4.667    4.667 
#    0.000    0.000    0.000    0.000    0.000    0.000 
#    0.000    0.000    0.000    0.000    0.000    0.000 
#
# Total GULP energy -268533.098975 kJ/mol
# GULP energy per Si atom -5594.439562 kJ/mol
# Density = 2.141120 g / cm^3
# Si number density = 21.460042 Si / 1000 Ang^3
#
#
#
# Elastic Constant Matrix: (Units=GPa)
#
#
# Indices 1 2 3 4 5 6 
#
# 1 123.2087 60.5188 26.8370 0.0000 0.0000 0.0000
# 2 60.5188 195.0978 66.0248 0.0000 0.0000 0.0000
# 3 26.8370 66.0248 127.1879 0.0000 0.0000 0.0000
# 4 0.0000 0.0000 0.0000 3.4206 0.0000 0.0000
# 5 0.0000 0.0000 0.0000 0.0000 26.8200 0.0000
# 6 0.0000 0.0000 0.0000 0.0000 0.0000 46.8414
#
#
#
# Elastic Compliance Matrix: (Units=1/GPa)
#
#
# Indices 1 2 3 4 5 6 
#
# 1 0.009611 -0.002784 -0.000583 0.000000 0.000000 0.000000
# 2 -0.002784 0.007024 -0.003059 0.000000 0.000000 0.000000
# 3 -0.000583 -0.003059 0.009573 0.000000 0.000000 0.000000
# 4 0.000000 0.000000 0.000000 0.292349 0.000000 0.000000
# 5 0.000000 0.000000 0.000000 0.000000 0.037286 0.000000
# 6 0.000000 0.000000 0.000000 0.000000 0.000000 0.021349
#
#
# Mechanical properties :
#
#
# Convention : Reuss Voigt Hill
#
# Bulk Modulus (GPa) = 74.86703 83.58394 79.22548
# Shear Modulus (GPa) = 12.67441 34.89065 23.78253
#
# Velocity S-wave (km/s) = 2.43287 4.03655 3.33261
# Velocity P-wave (km/s) = 6.54632 7.79475 7.19765
#
# Compressibility (1/GPa) = 0.01335701
#
# Stress axis : x y z
#
# Youngs Moduli (GPa) = 104.05061 142.35946 104.45699
#
# Poissons Ratio (x) = 0.39633 0.06086
# Poissons Ratio (y) = 0.28968 0.31954
# Poissons Ratio (z) = 0.06063 0.43548
#
# Static dielectric constant tensor:
#      x y z
#    x 1.840810 0.000000 0.000000 
#    y 0.000000 1.752070 0.000000 
#    z 0.000000 0.000000 1.793480 
# 
# From -- ./inp_files/20839.got.cif
#   From: 2010.05.17/outbox.cif.g08.bks.cpg/sg55_11_cif.got.tgz:20839.got - 2010.06.03 13:27:54.
