data_PCOD9429376
_publ_section_title
;
Structure prediction by ZEFSAII (Michael W. Deem and Ramdas Pophale) SiO2 
 PCOD9429376
Probable space group: P B A M
;
_chemical_formula_sum "Si O2"
_cell_formula_units_Z 64
_cell_length_a 15.000000
_cell_length_b 24.000000
_cell_length_c 9.000000
_cell_angle_alpha 90.000000
_cell_angle_beta 90.000000
_cell_angle_gamma 90.000000
_cell_volume 3240.000000
_symmetry_space_group_name_H-M "P B A M"
_symmetry_group_IT_number 55
_symmetry_cell_setting 'orthorhombic'
loop_
_space_group_symop_operation_xyz
x,y,z
-x,-y,z
1/2+x,1/2-y,-z
1/2-x,1/2+y,-z
-x,-y,-z
x,y,-z
1/2-x,1/2+y,z
1/2+x,1/2-y,z
loop_
_atom_site_type_symbol
_atom_site_label
_atom_site_fract_x
_atom_site_fract_y
_atom_site_fract_z
Si Si1 0.086578 0.263091 0.676120
Si Si2 0.898019 0.499346 0.180858
Si Si3 0.776133 0.394192 0.178549
Si Si4 0.905894 0.290958 0.178131
Si Si5 0.586330 0.368526 0.678234
Si Si6 0.729952 0.697867 0.821018
Si Si7 0.434447 0.447819 0.330990
Si Si8 0.261921 0.429370 0.177814
O O1 0.090258 0.271816 0.500000
O O2 0.077283 0.197104 0.705503
O O3 0.178764 0.281035 0.750349
O O4 0.001164 0.294208 0.744139
O O5 0.837720 0.446368 0.223668
O O6 0.836121 0.551230 0.226180
O O7 0.000000 0.500000 0.235152
O O8 0.903133 0.498760 0.000000
O O9 0.836419 0.340170 0.212674
O O10 0.679248 0.389807 0.252675
O O11 0.763604 0.396757 0.000000
O O12 0.854252 0.234880 0.224050
O O13 0.919750 0.291006 0.000000
O O14 0.590132 0.378245 0.500000
O O15 0.497404 0.399416 0.735101
O O16 0.719225 0.633896 0.779426
O O17 0.737580 0.702124 0.000000
O O18 0.500000 0.500000 0.335338
O O19 0.409024 0.432866 0.500000
O O20 0.344843 0.462528 0.244253
O O21 0.264208 0.434412 0.000000
#
# Coordination Sequence:
#
# PCOD9429376 Si02
#       8
#     8   8   8   8   8   8   8   8
#     4  11  23  36  55  82 112 149 188 229 281 338
#     4   9  19  35  56  83 112 145 186 230 279 331
#     4  10  20  35  59  85 109 145 187 230 279 328
#     4  10  21  36  56  83 112 145 186 231 280 332
#     4  10  21  37  56  82 115 149 183 226 280 337
#     4  10  21  38  58  83 114 147 186 233 285 336
#     4  10  21  37  58  83 114 153 188 224 281 342
#     4  10  21  36  58  85 112 146 188 237 284 331
#
# _framework density 19.753086
#
# number of rings (size 3 to 8) (size 9 to 14) (size 15 to 20)
#    0.000    2.000    1.250    1.875    1.750    2.750 
#    0.000    0.000    0.000    0.750    0.000    0.000 
#    0.000    0.000    0.000    0.000    0.000    0.000 
#
# Total GULP energy -357208.460535 kJ/mol
# GULP energy per Si atom -5581.382196 kJ/mol
# Density = 1.970813 g / cm^3
# Si number density = 19.753086 Si / 1000 Ang^3
#
#
#
# Elastic Constant Matrix: (Units=GPa)
#
#
# Indices 1 2 3 4 5 6 
#
# 1 92.2253 -8.5549 2.9829 0.0000 0.0000 0.0000
# 2 -8.5549 32.8723 6.2448 0.0000 0.0000 0.0000
# 3 2.9829 6.2448 -6.5992 0.0000 0.0000 0.0000
# 4 0.0000 0.0000 0.0000 4.2849 0.0000 0.0000
# 5 0.0000 0.0000 0.0000 0.0000 -3.9580 0.0000
# 6 0.0000 0.0000 0.0000 0.0000 0.0000 29.2925
#
#
#
# Elastic Compliance Matrix: (Units=1/GPa)
#
#
# Indices 1 2 3 4 5 6 
#
# 1 0.010784 0.001594 0.006383 0.000000 0.000000 0.000000
# 2 0.001594 0.026021 0.025344 0.000000 0.000000 0.000000
# 3 0.006383 0.025344 -0.124666 0.000000 0.000000 0.000000
# 4 0.000000 0.000000 0.000000 0.233377 0.000000 0.000000
# 5 0.000000 0.000000 0.000000 0.000000 -0.252652 0.000000
# 6 0.000000 0.000000 0.000000 0.000000 0.000000 0.034138
#
#
# Mechanical properties :
#
#
# Convention : Reuss Voigt Hill
#
# Bulk Modulus (GPa) = -47.12937 13.31601 -16.90668
# Shear Modulus (GPa) = -34.08031 13.77892 -10.15070
#
# Velocity S-wave (km/s) = -4.15820 2.64400 -2.26935
# Velocity P-wave (km/s) = 6.85312 4.00959 3.92991
#
# Compressibility (1/GPa) = -0.02121819
#
# Stress axis : x y z
#
# Youngs Moduli (GPa) = 92.72634 38.43060 -8.02144
#
# Poissons Ratio (x) = -0.06126 0.05120
# Poissons Ratio (y) = -0.14781 0.20330
# Poissons Ratio (z) = -0.59188 -0.97399
#
# Static dielectric constant tensor:
#      x y z
#    x 1.657360 0.000000 0.000000 
#    y 0.000000 1.765480 0.000000 
#    z 0.000000 0.000000 1.668880 
# 
# From -- ./inp_files/6592.got.cif
#   From: 2010.05.17/outbox.ucp.g08.bks.cvg/sg55_4_cif.got.tgz:6592.got - 2010.06.11 16:36:00.
