data_PCOD9429694
_publ_section_title
;
Structure prediction by ZEFSAII (Michael W. Deem and Ramdas Pophale) SiO2 
 PCOD9429694
Probable space group: P C C N
;
_chemical_formula_sum "Si O2"
_cell_formula_units_Z 64
_cell_length_a 21.734025
_cell_length_b 8.193778
_cell_length_c 18.852312
_cell_angle_alpha 90.000000
_cell_angle_beta 90.000000
_cell_angle_gamma 90.000000
_cell_volume 3357.290905
_symmetry_space_group_name_H-M "P C C N"
_symmetry_group_IT_number 56
_symmetry_cell_setting 'orthorhombic'
loop_
_space_group_symop_operation_xyz
x,y,z
1/2-x,1/2-y,z
1/2+x,-y,1/2-z
-x,1/2+y,1/2-z
-x,-y,-z
1/2+x,1/2+y,-z
1/2-x,y,1/2+z
x,1/2-y,1/2+z
loop_
_atom_site_type_symbol
_atom_site_label
_atom_site_fract_x
_atom_site_fract_y
_atom_site_fract_z
Si Si1 0.750000 0.060308 0.660582
Si Si2 0.621184 0.055375 0.833229
Si Si3 0.997695 0.945409 0.418982
Si Si4 0.616340 0.449797 0.668697
Si Si5 0.250000 0.060890 0.181485
Si Si6 0.378816 0.944625 0.666771
Si Si7 0.616340 0.449797 0.168697
Si Si8 0.497695 0.445409 0.081018
O O1 0.750000 0.250000 0.639520
O O2 0.816902 0.991468 0.640400
O O3 0.683097 0.991468 0.640400
O O4 0.750000 0.046951 0.746602
O O5 0.627571 0.250000 0.833431
O O6 0.610168 0.001737 0.751322
O O7 0.563772 0.006641 0.880773
O O8 0.686287 0.979774 0.857049
O O9 0.998028 0.750000 0.415951
O O10 0.058238 0.004933 0.376712
O O11 0.000000 0.000000 0.500000
O O12 0.610169 0.498263 0.751322
O O13 0.617721 0.250000 0.667624
O O14 0.250000 0.250000 0.202415
O O15 0.186287 0.020225 0.142951
O O16 0.436228 0.993360 0.619227
O O17 0.558237 0.504933 0.123288
O O18 0.500000 0.500000 0.000000
#
# Coordination Sequence:
#
# PCOD9429694 Si02
#       8
#     8   8   8   8   8   8   8   8
#     4   8  14  30  53  78 103 130 166 214 262 310
#     4  10  19  35  57  80 103 135 175 218 263 313
#     4  11  22  36  51  74 107 144 181 222 266 314
#     4   8  16  31  55  80 103 131 171 217 264 314
#     4  10  18  30  51  82 111 134 162 208 262 316
#     4  10  19  35  57  80 103 135 175 218 263 313
#     4   8  16  31  55  80 103 131 171 217 264 314
#     4  11  22  36  51  74 107 144 181 222 266 314
#
# _framework density 19.062989000000002
#
# number of rings (size 3 to 8) (size 9 to 14) (size 15 to 20)
#    0.000    2.500    0.000    4.875    0.000    0.000 
#    0.000   12.500    0.000    3.000    0.000    0.000 
#    0.000    0.000    0.000    0.000    0.000    0.000 
#
# Total GULP energy -356868.250816 kJ/mol
# GULP energy per Si atom -5576.066419 kJ/mol
# Density = 1.901960 g / cm^3
# Si number density = 19.062989 Si / 1000 Ang^3
#
#
#
# Elastic Constant Matrix: (Units=GPa)
#
#
# Indices 1 2 3 4 5 6 
#
# 1 231.4455 20.8624 87.2015 0.0000 0.0000 0.0000
# 2 20.8624 39.8445 14.1091 0.0000 0.0000 0.0000
# 3 87.2015 14.1091 81.6921 0.0000 0.0000 0.0000
# 4 0.0000 0.0000 0.0000 18.4763 0.0000 0.0000
# 5 0.0000 0.0000 0.0000 0.0000 -6.1997 0.0000
# 6 0.0000 0.0000 0.0000 0.0000 0.0000 25.3962
#
#
#
# Elastic Compliance Matrix: (Units=1/GPa)
#
#
# Indices 1 2 3 4 5 6 
#
# 1 0.007275 -0.001128 -0.007570 0.000000 0.000000 0.000000
# 2 -0.001128 0.026907 -0.003443 0.000000 0.000000 0.000000
# 3 -0.007570 -0.003443 0.020917 0.000000 0.000000 0.000000
# 4 0.000000 0.000000 0.000000 0.054123 0.000000 0.000000
# 5 0.000000 0.000000 0.000000 0.000000 -0.161299 0.000000
# 6 0.000000 0.000000 0.000000 0.000000 0.000000 0.039376
#
#
# Mechanical properties :
#
#
# Convention : Reuss Voigt Hill
#
# Bulk Modulus (GPa) = 32.45096 66.36980 49.41038
# Shear Modulus (GPa) = 228.78671 22.92184 125.85428
#
# Velocity S-wave (km/s) = 10.96707 3.47136 8.13410
# Velocity P-wave (km/s) = 13.32025 7.13854 10.68615
#
# Compressibility (1/GPa) = 0.03081573
#
# Stress axis : x y z
#
# Youngs Moduli (GPa) = 137.46308 37.16445 47.80869
#
# Poissons Ratio (x) = 0.04193 0.36193
# Poissons Ratio (y) = 0.15510 0.16460
# Poissons Ratio (z) = 1.04066 0.12795
#
# Static dielectric constant tensor:
#      x y z
#    x 1.705380 0.000000 0.000000 
#    y 0.000000 1.674550 0.000000 
#    z 0.000000 0.000000 1.582630 
# 
# From -- ./inp_files/16872.got.cif
#   From: 2010.05.17/outbox.cif.g08.bks.cpg/sg56_9_cif.got.tgz:16872.got - 2010.06.03 13:42:01.
