data_PCOD9429059
_publ_section_title
;
Structure prediction by ZEFSAII (Michael W. Deem and Ramdas Pophale) SiO2 
 PCOD9429059
Probable space group: P B A M
;
_chemical_formula_sum "Si O2"
_cell_formula_units_Z 40
_cell_length_a 8.119819
_cell_length_b 24.203301
_cell_length_c 7.796929
_cell_angle_alpha 90.000000
_cell_angle_beta 90.000000
_cell_angle_gamma 90.000000
_cell_volume 1532.302569
_symmetry_space_group_name_H-M "P B A M"
_symmetry_group_IT_number 55
_symmetry_cell_setting 'orthorhombic'
loop_
_space_group_symop_operation_xyz
x,y,z
-x,-y,z
1/2+x,1/2-y,-z
1/2-x,1/2+y,-z
-x,-y,-z
x,y,-z
1/2-x,1/2+y,z
1/2+x,1/2-y,z
loop_
_atom_site_type_symbol
_atom_site_label
_atom_site_fract_x
_atom_site_fract_y
_atom_site_fract_z
Si Si1 0.564921 0.833308 0.805419
Si Si2 0.969656 0.134079 0.207635
Si Si3 0.135309 0.240738 0.309001
Si Si4 0.827933 0.965818 0.796097
Si Si5 0.139151 0.431870 0.210134
O O1 0.404349 0.793210 0.807855
O O2 0.702192 0.795628 0.718653
O O3 0.511237 0.892930 0.733737
O O4 0.621749 0.841631 0.000000
O O5 0.994215 0.194593 0.280126
O O6 0.119826 0.094338 0.268442
O O7 0.801684 0.103614 0.254753
O O8 0.974722 0.136867 0.000000
O O9 0.130568 0.262740 0.500000
O O10 0.684036 0.006167 0.730020
O O11 0.797113 0.960223 0.000000
O O12 0.000000 0.000000 0.780625
O O13 0.128505 0.434122 0.000000
#
# Coordination Sequence:
#
# PCOD9429059 Si02
#       5
#     8   8   8   8   8
#     4  11  22  38  59  80 104 139 185 227 268 324
#     4   9  16  31  57  84 109 140 179 220 264 319
#     4  12  25  39  54  77 111 144 177 222 277 326
#     4   7  11  23  48  82 111 133 167 219 270 310
#     4   8  15  29  54  85 109 132 172 227 273 310
#
# _framework density 26.104503999999999
#
# number of rings (size 3 to 8) (size 9 to 14) (size 15 to 20)
#    0.000    2.600    0.000    6.000    0.000    1.600 
#    0.000    2.000    0.000   13.800    0.000    0.000 
#    0.000    0.000    0.000    0.000    0.000    0.000 
#
# Total GULP energy -223631.212659 kJ/mol
# GULP energy per Si atom -5590.780316 kJ/mol
# Density = 2.604509 g / cm^3
# Si number density = 26.104504 Si / 1000 Ang^3
#
#
#
# Elastic Constant Matrix: (Units=GPa)
#
#
# Indices 1 2 3 4 5 6 
#
# 1 97.0225 12.4874 2.8234 0.0000 0.0000 0.0000
# 2 12.4874 165.4991 -0.0397 0.0000 0.0000 0.0000
# 3 2.8234 -0.0397 47.7924 0.0000 0.0000 0.0000
# 4 0.0000 0.0000 0.0000 3.7535 0.0000 0.0000
# 5 0.0000 0.0000 0.0000 0.0000 16.1965 0.0000
# 6 0.0000 0.0000 0.0000 0.0000 0.0000 47.2983
#
#
#
# Elastic Compliance Matrix: (Units=1/GPa)
#
#
# Indices 1 2 3 4 5 6 
#
# 1 0.010426 -0.000787 -0.000617 0.000000 0.000000 0.000000
# 2 -0.000787 0.006102 0.000052 0.000000 0.000000 0.000000
# 3 -0.000617 0.000052 0.020960 0.000000 0.000000 0.000000
# 4 0.000000 0.000000 0.000000 0.266416 0.000000 0.000000
# 5 0.000000 0.000000 0.000000 0.000000 0.061742 0.000000
# 6 0.000000 0.000000 0.000000 0.000000 0.000000 0.021142
#
#
# Mechanical properties :
#
#
# Convention : Reuss Voigt Hill
#
# Bulk Modulus (GPa) = 28.74852 37.87290 33.31071
# Shear Modulus (GPa) = 12.46612 33.11919 22.79265
#
# Velocity S-wave (km/s) = 2.18765 3.56577 2.95808
# Velocity P-wave (km/s) = 4.17347 5.61183 4.94522
#
# Compressibility (1/GPa) = 0.03478440
#
# Stress axis : x y z
#
# Youngs Moduli (GPa) = 95.91317 163.88846 47.70922
#
# Poissons Ratio (x) = 0.12895 0.02942
# Poissons Ratio (y) = 0.07547 -0.00246
# Poissons Ratio (z) = 0.05914 -0.00845
#
# Static dielectric constant tensor:
#      x y z
#    x 2.184860 0.000000 0.000000 
#    y 0.000000 2.017760 0.000000 
#    z 0.000000 0.000000 1.961730 
# 
# From -- ./inp_files/2316.got.cif
#   From: 2010.05.17/outbox.cif.g08.bks.cpg/sg55_2_cif.got.tgz:2316.got - 2010.06.03 13:27:54.
