data_PCOD9429439
_publ_section_title
;
Structure prediction by ZEFSAII (Michael W. Deem and Ramdas Pophale) SiO2 
 PCOD9429439
Probable space group: P B A M
;
_chemical_formula_sum "Si O2"
_cell_formula_units_Z 56
_cell_length_a 15.000000
_cell_length_b 12.000000
_cell_length_c 15.000000
_cell_angle_alpha 90.000000
_cell_angle_beta 90.000000
_cell_angle_gamma 90.000000
_cell_volume 2700.000000
_symmetry_space_group_name_H-M "P B A M"
_symmetry_group_IT_number 55
_symmetry_cell_setting 'orthorhombic'
loop_
_space_group_symop_operation_xyz
x,y,z
-x,-y,z
1/2+x,1/2-y,-z
1/2-x,1/2+y,-z
-x,-y,-z
x,y,-z
1/2-x,1/2+y,z
1/2+x,1/2-y,z
loop_
_atom_site_type_symbol
_atom_site_label
_atom_site_fract_x
_atom_site_fract_y
_atom_site_fract_z
Si Si1 0.758264 0.200712 0.602037
Si Si2 0.091267 0.675876 0.208632
Si Si3 0.660772 0.574659 0.751796
Si Si4 0.043031 0.702292 0.603076
Si Si5 0.788405 0.490954 0.103651
Si Si6 0.914617 0.708242 0.104857
Si Si7 0.388170 0.664593 0.294271
O O1 0.726728 0.176826 0.500000
O O2 0.765034 0.101378 0.674983
O O3 0.860811 0.239221 0.593209
O O4 0.699950 0.294603 0.652299
O O5 0.114773 0.806492 0.226338
O O6 0.060576 0.628211 0.306260
O O7 0.171415 0.607775 0.164362
O O8 0.013610 0.672631 0.134934
O O9 0.701641 0.532901 0.844612
O O10 0.606384 0.468840 0.714602
O O11 0.020775 0.663687 0.500000
O O12 0.966466 0.783503 0.643266
O O13 0.854226 0.597573 0.105825
O O14 0.775251 0.458659 0.000000
O O15 0.888220 0.784937 0.192129
O O16 0.912308 0.750191 0.000000
#
# Coordination Sequence:
#
# PCOD9429439 Si02
#       7
#     8   8   8   8   8   8   8
#     4  10  21  39  62  92 127 166 215 263 314 385
#     4  10  22  40  63  91 128 164 215 270 323 386
#     4  11  23  40  61  96 130 170 206 271 328 393
#     4   9  20  38  63  92 124 166 209 256 318 384
#     4  11  23  40  65  91 124 171 222 271 324 387
#     4  10  22  41  66  92 121 166 219 270 326 390
#     4  11  22  41  65  91 133 168 212 268 329 390
#
# _framework density 20.740741
#
# number of rings (size 3 to 8) (size 9 to 14) (size 15 to 20)
#    0.000    1.714    1.429    3.000    0.000    9.143 
#    0.000    5.000    0.000    1.714    0.000    0.000 
#    0.000    0.000    0.000    0.000    0.000    0.000 
#
# Total GULP energy -312002.408654 kJ/mol
# GULP energy per Si atom -5571.471583 kJ/mol
# Density = 2.069353 g / cm^3
# Si number density = 20.740741 Si / 1000 Ang^3
#
#
#
# Elastic Constant Matrix: (Units=GPa)
#
#
# Indices 1 2 3 4 5 6 
#
# 1 70.9965 10.3757 27.7248 0.0000 0.0000 0.0000
# 2 10.3757 43.5001 19.6816 0.0000 0.0000 0.0000
# 3 27.7248 19.6816 193.5083 0.0000 0.0000 0.0000
# 4 0.0000 0.0000 0.0000 23.9704 0.0000 0.0000
# 5 0.0000 0.0000 0.0000 0.0000 31.1530 0.0000
# 6 0.0000 0.0000 0.0000 0.0000 0.0000 23.7570
#
#
#
# Elastic Compliance Matrix: (Units=1/GPa)
#
#
# Indices 1 2 3 4 5 6 
#
# 1 0.015233 -0.002773 -0.001900 0.000000 0.000000 0.000000
# 2 -0.002773 0.024602 -0.002105 0.000000 0.000000 0.000000
# 3 -0.001900 -0.002105 0.005654 0.000000 0.000000 0.000000
# 4 0.000000 0.000000 0.000000 0.041718 0.000000 0.000000
# 5 0.000000 0.000000 0.000000 0.000000 0.032100 0.000000
# 6 0.000000 0.000000 0.000000 0.000000 0.000000 0.042093
#
#
# Mechanical properties :
#
#
# Convention : Reuss Voigt Hill
#
# Bulk Modulus (GPa) = 31.31698 47.06323 39.19010
# Shear Modulus (GPa) = 26.93952 32.45762 29.69857
#
# Velocity S-wave (km/s) = 3.60789 3.96020 3.78814
# Velocity P-wave (km/s) = 5.69982 6.60692 6.17006
#
# Compressibility (1/GPa) = 0.03193156
#
# Stress axis : x y z
#
# Youngs Moduli (GPa) = 65.64850 40.64656 176.86278
#
# Poissons Ratio (x) = 0.11273 0.33610
# Poissons Ratio (y) = 0.18207 0.37228
# Poissons Ratio (z) = 0.12476 0.08556
#
# Static dielectric constant tensor:
#      x y z
#    x 1.818230 0.000000 0.000000 
#    y 0.000000 1.753390 0.000000 
#    z 0.000000 0.000000 1.770580 
# 
# From -- ./inp_files/18973.got.cif
#   From: 2010.05.17/outbox.ucp.g08.bks.cvg/sg55_10_cif.got.tgz:18973.got - 2010.06.11 16:36:00.
