data_PCOD9429953
_publ_section_title
;
Structure prediction by ZEFSAII (Michael W. Deem and Ramdas Pophale) SiO2 
 PCOD9429953
Probable space group: P C C N
;
_chemical_formula_sum "Si O2"
_cell_formula_units_Z 44
_cell_length_a 22.634706
_cell_length_b 5.106095
_cell_length_c 18.083446
_cell_angle_alpha 90.000000
_cell_angle_beta 90.000000
_cell_angle_gamma 90.000000
_cell_volume 2089.993532
_symmetry_space_group_name_H-M "P C C N"
_symmetry_group_IT_number 56
_symmetry_cell_setting 'orthorhombic'
loop_
_space_group_symop_operation_xyz
x,y,z
1/2-x,1/2-y,z
1/2+x,-y,1/2-z
-x,1/2+y,1/2-z
-x,-y,-z
1/2+x,1/2+y,-z
1/2-x,y,1/2+z
x,1/2-y,1/2+z
loop_
_atom_site_type_symbol
_atom_site_label
_atom_site_fract_x
_atom_site_fract_y
_atom_site_fract_z
Si Si1 0.750000 0.250000 0.115377
Si Si2 0.808379 0.862057 0.998840
Si Si3 0.958417 0.572442 0.242090
Si Si4 0.628837 0.040029 0.109569
Si Si5 0.055890 0.674417 0.023456
Si Si6 0.090234 0.153655 0.102252
O O1 0.720727 0.453230 0.059318
O O2 0.810642 0.362977 0.150643
O O3 0.750000 0.750000 0.960462
O O4 0.847020 0.670808 0.050618
O O5 0.850371 0.959659 0.934269
O O6 0.919516 0.557085 0.167859
O O7 0.915826 0.627462 0.311048
O O8 0.993037 0.301930 0.256149
O O9 0.593934 0.228342 0.051556
O O10 0.085532 0.458783 0.078909
O O11 0.043751 0.948240 0.065026
O O12 0.000000 0.500000 0.000000
#
# Coordination Sequence:
#
# PCOD9429953 Si02
#       6
#     4   8   8   8   8   8
#     4  10  18  40  64  92 124 162 222 270 324 382
#     4   9  20  38  64  94 121 162 216 273 319 382
#     4  12  27  44  63  93 138 175 210 266 326 389
#     4  10  22  38  65  92 128 170 215 265 326 389
#     4  11  21  37  63  93 121 161 214 259 309 376
#     4  11  22  40  60  92 123 162 207 258 316 370
#
# _framework density 21.052697999999999
#
# number of rings (size 3 to 8) (size 9 to 14) (size 15 to 20)
#    0.000    1.455    1.818    3.818    2.545    1.455 
#    0.000    3.636    0.000    0.000    0.000    0.000 
#    0.000    0.000    0.000    0.000    0.000    0.000 
#
# Total GULP energy -244977.770121 kJ/mol
# GULP energy per Si atom -5567.676594 kJ/mol
# Density = 2.100478 g / cm^3
# Si number density = 21.052698 Si / 1000 Ang^3
#
#
#
# Elastic Constant Matrix: (Units=GPa)
#
#
# Indices 1 2 3 4 5 6 
#
# 1 86.6632 -4.0365 30.4591 0.0000 0.0000 0.0000
# 2 -4.0365 54.3794 3.2721 0.0000 0.0000 0.0000
# 3 30.4591 3.2721 110.4640 0.0000 0.0000 0.0000
# 4 0.0000 0.0000 0.0000 14.7237 0.0000 0.0000
# 5 0.0000 0.0000 0.0000 0.0000 22.4708 0.0000
# 6 0.0000 0.0000 0.0000 0.0000 0.0000 30.2164
#
#
#
# Elastic Compliance Matrix: (Units=1/GPa)
#
#
# Indices 1 2 3 4 5 6 
#
# 1 0.012851 0.001169 -0.003578 0.000000 0.000000 0.000000
# 2 0.001169 0.018529 -0.000871 0.000000 0.000000 0.000000
# 3 -0.003578 -0.000871 0.010065 0.000000 0.000000 0.000000
# 4 0.000000 0.000000 0.000000 0.067918 0.000000 0.000000
# 5 0.000000 0.000000 0.000000 0.000000 0.044502 0.000000
# 6 0.000000 0.000000 0.000000 0.000000 0.000000 0.033095
#
#
# Mechanical properties :
#
#
# Convention : Reuss Voigt Hill
#
# Bulk Modulus (GPa) = 28.66617 34.54402 31.60509
# Shear Modulus (GPa) = 24.37269 28.26964 26.32116
#
# Velocity S-wave (km/s) = 3.40619 3.66840 3.53973
# Velocity P-wave (km/s) = 5.39587 5.86403 5.63482
#
# Compressibility (1/GPa) = 0.03488433
#
# Stress axis : x y z
#
# Youngs Moduli (GPa) = 77.81515 53.97081 99.35265
#
# Poissons Ratio (x) = -0.06310 0.35550
# Poissons Ratio (y) = -0.09098 0.08656
# Poissons Ratio (z) = 0.27843 0.04702
#
# Static dielectric constant tensor:
#      x y z
#    x 0.803100 0.000000 0.000000 
#    y 0.000000 1.348820 0.000000 
#    z 0.000000 0.000000 1.745680 
# 
# From -- ./inp_files/16900.got.cif
#   From: 2010.05.17/outbox.cif.g08.bks.cpg/sg56_9_cif.got.tgz:16900.got - 2010.06.03 13:42:01.
