data_PCOD9429010
_publ_section_title
;
Structure prediction by ZEFSAII (Michael W. Deem and Ramdas Pophale) SiO2 
 PCOD9429010
Probable space group: P B A M
;
_chemical_formula_sum "Si O2"
_cell_formula_units_Z 48
_cell_length_a 10.464695
_cell_length_b 28.750550
_cell_length_c 8.694769
_cell_angle_alpha 90.000000
_cell_angle_beta 90.000000
_cell_angle_gamma 90.000000
_cell_volume 2615.958082
_symmetry_space_group_name_H-M "P B A M"
_symmetry_group_IT_number 55
_symmetry_cell_setting 'orthorhombic'
loop_
_space_group_symop_operation_xyz
x,y,z
-x,-y,z
1/2+x,1/2-y,-z
1/2-x,1/2+y,-z
-x,-y,-z
x,y,-z
1/2-x,1/2+y,z
1/2+x,1/2-y,z
loop_
_atom_site_type_symbol
_atom_site_label
_atom_site_fract_x
_atom_site_fract_y
_atom_site_fract_z
Si Si1 0.856356 0.950953 0.316408
Si Si2 0.740578 0.357713 0.816341
Si Si3 0.495991 0.700386 0.684077
Si Si4 0.747176 0.142706 0.684249
Si Si5 0.642128 0.550463 0.183819
Si Si6 0.002558 0.304207 0.815639
O O1 0.861340 0.954179 0.500000
O O2 0.771281 0.907815 0.263109
O O3 0.000097 0.942100 0.253560
O O4 0.814497 0.000145 0.245172
O O5 0.621827 0.326801 0.759500
O O6 0.871921 0.331442 0.778798
O O7 0.732614 0.363585 0.000000
O O8 0.479845 0.700060 0.500000
O O9 0.627756 0.673772 0.720810
O O10 0.500894 0.752845 0.744474
O O11 0.738816 0.138526 0.500000
O O12 0.770121 0.092315 0.758186
O O13 0.622865 0.167867 0.749781
O O14 0.633557 0.549944 0.000000
O O15 0.013178 0.300547 0.000000
#
# Coordination Sequence:
#
# PCOD9429010 Si02
#       6
#     8   8   8   8   8   8
#     4  11  21  36  60  90 122 154 197 246 296 352
#     4  11  23  40  62  89 121 158 202 248 300 356
#     4  11  23  39  62  89 118 156 203 251 298 353
#     4  11  23  40  62  90 122 158 201 247 299 356
#     4  11  21  36  61  90 121 155 196 245 297 350
#     4  11  25  41  59  86 122 161 201 247 300 357
#
# _framework density 18.348918999999999
#
# number of rings (size 3 to 8) (size 9 to 14) (size 15 to 20)
#    0.000    1.000    1.667    7.000    0.000    7.333 
#    0.000    0.833    0.000    5.000    0.000    0.000 
#    0.000    0.000    0.000    0.000    0.000    0.000 
#
# Total GULP energy -268527.693603 kJ/mol
# GULP energy per Si atom -5594.326950 kJ/mol
# Density = 1.830716 g / cm^3
# Si number density = 18.348919 Si / 1000 Ang^3
#
#
#
# Elastic Constant Matrix: (Units=GPa)
#
#
# Indices 1 2 3 4 5 6 
#
# 1 108.7762 56.1091 54.6478 0.0000 0.0000 0.0000
# 2 56.1091 148.3682 49.0540 0.0000 0.0000 0.0000
# 3 54.6478 49.0540 92.3099 0.0000 0.0000 0.0000
# 4 0.0000 0.0000 0.0000 38.8118 0.0000 0.0000
# 5 0.0000 0.0000 0.0000 0.0000 11.4152 0.0000
# 6 0.0000 0.0000 0.0000 0.0000 0.0000 -32.5550
#
#
#
# Elastic Compliance Matrix: (Units=1/GPa)
#
#
# Indices 1 2 3 4 5 6 
#
# 1 0.014198 -0.003142 -0.006735 0.000000 0.000000 0.000000
# 2 -0.003142 0.008872 -0.002854 0.000000 0.000000 0.000000
# 3 -0.006735 -0.002854 0.016337 0.000000 0.000000 0.000000
# 4 0.000000 0.000000 0.000000 0.025765 0.000000 0.000000
# 5 0.000000 0.000000 0.000000 0.000000 0.087602 0.000000
# 6 0.000000 0.000000 0.000000 0.000000 0.000000 -0.030717
#
#
# Mechanical properties :
#
#
# Convention : Reuss Voigt Hill
#
# Bulk Modulus (GPa) = 71.72040 74.34178 73.03109
# Shear Modulus (GPa) = 32.85811 16.17728 24.51770
#
# Velocity S-wave (km/s) = 4.23630 2.97248 3.65936
# Velocity P-wave (km/s) = 7.94356 7.23771 7.59884
#
# Compressibility (1/GPa) = 0.01394303
#
# Stress axis : x y z
#
# Youngs Moduli (GPa) = 70.43336 112.71301 61.20999
#
# Poissons Ratio (x) = 0.35419 0.41227
# Poissons Ratio (y) = 0.22133 0.17472
# Poissons Ratio (z) = 0.47439 0.32172
#
# Static dielectric constant tensor:
#      x y z
#    x 1.600650 0.000000 0.000000 
#    y 0.000000 1.620600 0.000000 
#    z 0.000000 0.000000 1.612760 
# 
# From -- ./inp_files/4093.got.cif
#   From: 2010.05.17/outbox.cif.g08.bks.cpg/sg55_3_cif.got.tgz:4093.got - 2010.06.03 13:27:54.
