data_PCOD9429278
_publ_section_title
;
Structure prediction by ZEFSAII (Michael W. Deem and Ramdas Pophale) SiO2 
 PCOD9429278
Probable space group: P B A M
;
_chemical_formula_sum "Si O2"
_cell_formula_units_Z 64
_cell_length_a 18.000000
_cell_length_b 21.000000
_cell_length_c 9.000000
_cell_angle_alpha 90.000000
_cell_angle_beta 90.000000
_cell_angle_gamma 90.000000
_cell_volume 3402.000000
_symmetry_space_group_name_H-M "P B A M"
_symmetry_group_IT_number 55
_symmetry_cell_setting 'orthorhombic'
loop_
_space_group_symop_operation_xyz
x,y,z
-x,-y,z
1/2+x,1/2-y,-z
1/2-x,1/2+y,-z
-x,-y,-z
x,y,-z
1/2-x,1/2+y,z
1/2+x,1/2-y,z
loop_
_atom_site_type_symbol
_atom_site_label
_atom_site_fract_x
_atom_site_fract_y
_atom_site_fract_z
Si Si1 0.147724 0.319034 0.819790
Si Si2 0.820835 0.536014 0.824177
Si Si3 0.594861 0.409467 0.325167
Si Si4 0.566586 0.655062 0.325330
Si Si5 0.286324 0.685432 0.180072
Si Si6 0.523183 0.788365 0.179159
Si Si7 0.639539 0.894762 0.819437
Si Si8 0.643772 0.539034 0.825503
O O1 0.160552 0.392219 0.765767
O O2 0.201131 0.259623 0.772883
O O3 0.063698 0.297161 0.783536
O O4 0.154361 0.321936 0.000000
O O5 0.855213 0.468619 0.765808
O O6 0.732091 0.528109 0.811924
O O7 0.840435 0.538084 0.000000
O O8 0.613227 0.413366 0.500000
O O9 0.512162 0.381685 0.310921
O O10 0.648790 0.359179 0.244507
O O11 0.603948 0.479465 0.254132
O O12 0.584096 0.661119 0.500000
O O13 0.557031 0.724855 0.253138
O O14 0.623455 0.607294 0.244615
O O15 0.210131 0.649453 0.223718
O O16 0.290190 0.684645 0.000000
O O17 0.567733 0.852684 0.221412
O O18 0.528996 0.781213 0.000000
O O19 0.641306 0.898555 0.000000
O O20 0.624499 0.539315 0.000000
#
# Coordination Sequence:
#
# PCOD9429278 Si02
#       8
#     8   8   8   8   8   8   8   8
#     4   9  18  31  53  84 115 143 183 234 282 328
#     4   9  18  33  54  84 115 145 179 231 291 328
#     4  11  22  37  57  80 113 152 185 225 281 335
#     4  11  24  39  54  79 117 152 182 229 282 334
#     4  10  18  33  56  82 112 146 185 233 279 328
#     4  10  20  35  58  85 109 145 192 235 274 331
#     4   9  18  32  54  84 116 143 182 237 288 325
#     4  11  22  36  59  85 112 148 188 228 276 338
#
# _framework density 18.812463000000001
#
# number of rings (size 3 to 8) (size 9 to 14) (size 15 to 20)
#    0.000    2.000    2.500    1.500    1.750    3.500 
#    0.000    3.125    0.000    1.500    0.000    0.875 
#    0.000    0.000    0.000    0.000    0.000    0.000 
#
# Total GULP energy -357004.377027 kJ/mol
# GULP energy per Si atom -5578.193391 kJ/mol
# Density = 1.876965 g / cm^3
# Si number density = 18.812463 Si / 1000 Ang^3
#
#
#
# Elastic Constant Matrix: (Units=GPa)
#
#
# Indices 1 2 3 4 5 6 
#
# 1 19.9064 17.6635 6.7059 0.0000 0.0000 0.0000
# 2 17.6635 180.8628 20.9787 0.0000 0.0000 0.0000
# 3 6.7059 20.9787 36.6831 0.0000 0.0000 0.0000
# 4 0.0000 0.0000 0.0000 15.6331 0.0000 0.0000
# 5 0.0000 0.0000 0.0000 0.0000 8.8228 0.0000
# 6 0.0000 0.0000 0.0000 0.0000 0.0000 41.6849
#
#
#
# Elastic Compliance Matrix: (Units=1/GPa)
#
#
# Indices 1 2 3 4 5 6 
#
# 1 0.056986 -0.004667 -0.007749 0.000000 0.000000 0.000000
# 2 -0.004667 0.006304 -0.002752 0.000000 0.000000 0.000000
# 3 -0.007749 -0.002752 0.030251 0.000000 0.000000 0.000000
# 4 0.000000 0.000000 0.000000 0.063967 0.000000 0.000000
# 5 0.000000 0.000000 0.000000 0.000000 0.113343 0.000000
# 6 0.000000 0.000000 0.000000 0.000000 0.000000 0.023990
#
#
# Mechanical properties :
#
#
# Convention : Reuss Voigt Hill
#
# Bulk Modulus (GPa) = 15.82115 36.46093 26.14104
# Shear Modulus (GPa) = 14.44068 26.03510 20.23789
#
# Velocity S-wave (km/s) = 2.77359 3.72415 3.28345
# Velocity P-wave (km/s) = 4.32264 6.15758 5.31982
#
# Compressibility (1/GPa) = 0.06320652
#
# Stress axis : x y z
#
# Youngs Moduli (GPa) = 17.54808 158.62853 33.05690
#
# Poissons Ratio (x) = 0.74026 0.25614
# Poissons Ratio (y) = 0.08189 0.09098
# Poissons Ratio (z) = 0.13597 0.43657
#
# Static dielectric constant tensor:
#      x y z
#    x 1.672170 0.000000 0.000000 
#    y 0.000000 1.654560 0.000000 
#    z 0.000000 0.000000 1.628230 
# 
# From -- ./inp_files/8070.got.cif
#   From: 2010.05.17/outbox.ucp.g08.bks.cvg/sg55_5_cif.got.tgz:8070.got - 2010.06.11 16:36:00.
