data_PCOD9429290
_publ_section_title
;
Structure prediction by ZEFSAII (Michael W. Deem and Ramdas Pophale) SiO2 
 PCOD9429290
Probable space group: P B A M
;
_chemical_formula_sum "Si O2"
_cell_formula_units_Z 64
_cell_length_a 12.000000
_cell_length_b 30.000000
_cell_length_c 9.000000
_cell_angle_alpha 90.000000
_cell_angle_beta 90.000000
_cell_angle_gamma 90.000000
_cell_volume 3240.000000
_symmetry_space_group_name_H-M "P B A M"
_symmetry_group_IT_number 55
_symmetry_cell_setting 'orthorhombic'
loop_
_space_group_symop_operation_xyz
x,y,z
-x,-y,z
1/2+x,1/2-y,-z
1/2-x,1/2+y,-z
-x,-y,-z
x,y,-z
1/2-x,1/2+y,z
1/2+x,1/2-y,z
loop_
_atom_site_type_symbol
_atom_site_label
_atom_site_fract_x
_atom_site_fract_y
_atom_site_fract_z
Si Si1 0.910443 0.266129 0.337530
Si Si2 0.626814 0.500435 0.181105
Si Si3 0.402354 0.757652 0.162566
Si Si4 0.000325 0.552446 0.181171
Si Si5 0.682399 0.683676 0.171153
Si Si6 0.761862 0.587534 0.818748
Si Si7 0.239323 0.587464 0.820930
Si Si8 0.187100 0.176377 0.664965
O O1 0.962465 0.265447 0.500000
O O2 0.881302 0.216565 0.281543
O O3 0.803835 0.297216 0.342058
O O4 0.992783 0.285319 0.215876
O O5 0.500000 0.500000 0.231410
O O6 0.690027 0.544991 0.228160
O O7 0.690830 0.455900 0.225783
O O8 0.627467 0.500890 0.000000
O O9 0.299330 0.790488 0.162729
O O10 0.387445 0.714880 0.265003
O O11 0.417924 0.739577 0.000000
O O12 0.888533 0.577925 0.229244
O O13 0.000000 0.500000 0.226285
O O14 0.112338 0.577869 0.228102
O O15 0.000329 0.551656 0.000000
O O16 0.705925 0.633982 0.226854
O O17 0.638334 0.682231 0.000000
O O18 0.763483 0.589133 0.000000
O O19 0.293594 0.632152 0.758655
O O20 0.239919 0.589769 0.000000
O O21 0.149910 0.164537 0.500000
#
# Coordination Sequence:
#
# PCOD9429290 Si02
#       8
#     8   8   8   8   8   8   8   8
#     4  10  21  37  55  75 106 146 180 215 269 330
#     4   9  17  29  46  74 111 142 171 215 270 327
#     4  10  20  35  56  81 107 136 180 233 275 313
#     4   9  15  26  47  76 108 138 173 224 277 322
#     4   9  19  33  52  79 106 137 178 225 269 312
#     4   9  16  28  46  73 106 139 175 220 274 322
#     4  10  19  31  53  81 105 136 183 231 273 318
#     4  10  22  38  54  76 110 149 183 218 269 333
#
# _framework density 19.753086
#
# number of rings (size 3 to 8) (size 9 to 14) (size 15 to 20)
#    0.000    2.500    1.250    1.125    1.750    3.000 
#    0.000    2.500    0.000    1.500    0.000    0.000 
#    0.000    0.000    0.000    0.000    0.000    0.000 
#
# Total GULP energy -356396.338101 kJ/mol
# GULP energy per Si atom -5568.692783 kJ/mol
# Density = 1.970813 g / cm^3
# Si number density = 19.753086 Si / 1000 Ang^3
#
#
#
# Elastic Constant Matrix: (Units=GPa)
#
#
# Indices 1 2 3 4 5 6 
#
# 1 87.0244 18.4064 11.4417 0.0000 0.0000 0.0000
# 2 18.4064 101.2274 25.6125 0.0000 0.0000 0.0000
# 3 11.4417 25.6125 -9.8761 0.0000 0.0000 0.0000
# 4 0.0000 0.0000 0.0000 -1.5458 0.0000 0.0000
# 5 0.0000 0.0000 0.0000 0.0000 11.8552 0.0000
# 6 0.0000 0.0000 0.0000 0.0000 0.0000 659.0653
#
#
#
# Elastic Compliance Matrix: (Units=1/GPa)
#
#
# Indices 1 2 3 4 5 6 
#
# 1 0.011562 -0.003316 0.004796 0.000000 0.000000 0.000000
# 2 -0.003316 0.006916 0.014094 0.000000 0.000000 0.000000
# 3 0.004796 0.014094 -0.059148 0.000000 0.000000 0.000000
# 4 0.000000 0.000000 0.000000 -0.646924 0.000000 0.000000
# 5 0.000000 0.000000 0.000000 0.000000 0.084351 0.000000
# 6 0.000000 0.000000 0.000000 0.000000 0.000000 0.001517
#
#
# Mechanical properties :
#
#
# Convention : Reuss Voigt Hill
#
# Bulk Modulus (GPa) = -105.00420 32.14411 -36.43005
# Shear Modulus (GPa) = -7.86104 142.06930 67.10413
#
# Velocity S-wave (km/s) = -1.99707 8.48992 5.83483
# Velocity P-wave (km/s) = 7.65451 10.60251 5.18757
#
# Compressibility (1/GPa) = -0.00952343
#
# Stress axis : x y z
#
# Youngs Moduli (GPa) = 86.49171 144.59910 -16.90668
#
# Poissons Ratio (x) = 0.47945 0.08108
# Poissons Ratio (y) = 0.28678 0.23828
# Poissons Ratio (z) = -0.41479 -2.03793
#
# Static dielectric constant tensor:
#      x y z
#    x 1.758520 0.000000 0.000000 
#    y 0.000000 1.644750 0.000000 
#    z 0.000000 0.000000 1.750910 
# 
# From -- ./inp_files/4650.got.cif
#   From: 2010.05.17/outbox.ucp.g08.bks.cvg/sg55_3_cif.got.tgz:4650.got - 2010.06.11 16:36:00.
