data_PCOD9429274
_publ_section_title
;
Structure prediction by ZEFSAII (Michael W. Deem and Ramdas Pophale) SiO2 
 PCOD9429274
Probable space group: P B A M
;
_chemical_formula_sum "Si O2"
_cell_formula_units_Z 48
_cell_length_a 15.000000
_cell_length_b 18.000000
_cell_length_c 9.000000
_cell_angle_alpha 90.000000
_cell_angle_beta 90.000000
_cell_angle_gamma 90.000000
_cell_volume 2430.000000
_symmetry_space_group_name_H-M "P B A M"
_symmetry_group_IT_number 55
_symmetry_cell_setting 'orthorhombic'
loop_
_space_group_symop_operation_xyz
x,y,z
-x,-y,z
1/2+x,1/2-y,-z
1/2-x,1/2+y,-z
-x,-y,-z
x,y,-z
1/2-x,1/2+y,z
1/2+x,1/2-y,z
loop_
_atom_site_type_symbol
_atom_site_label
_atom_site_fract_x
_atom_site_fract_y
_atom_site_fract_z
Si Si1 0.436403 0.571226 0.169498
Si Si2 0.778713 0.183010 0.676443
Si Si3 0.047909 0.793094 0.171663
Si Si4 0.110632 0.319940 0.169284
Si Si5 0.901062 0.526669 0.673119
Si Si6 0.272933 0.481756 0.178165
O O1 0.500000 0.500000 0.161808
O O2 0.493456 0.637013 0.237250
O O3 0.345196 0.540752 0.234959
O O4 0.416834 0.596900 0.000000
O O5 0.766652 0.180409 0.500000
O O6 0.868585 0.222706 0.726075
O O7 0.696525 0.220617 0.763127
O O8 0.786592 0.098724 0.744256
O O9 0.977440 0.727723 0.166091
O O10 0.076693 0.810025 0.000000
O O11 0.098672 0.387583 0.281071
O O12 0.130152 0.345048 0.000000
O O13 0.878807 0.516665 0.500000
O O14 0.825257 0.492067 0.776670
O O15 0.000000 0.500000 0.701385
O O16 0.283913 0.473996 0.000000
#
# Coordination Sequence:
#
# PCOD9429274 Si02
#       6
#     8   8   8   8   8   8
#     4   9  16  30  55  83 110 138 171 220 273 314
#     4  11  21  34  55  79 110 147 181 217 272 335
#     4  10  20  37  58  81 109 142 185 229 271 319
#     4  10  21  37  59  82 108 142 187 235 271 321
#     4  10  21  38  58  78 109 146 181 225 278 334
#     4  10  18  32  57  82 107 139 182 227 268 319
#
# _framework density 19.753086
#
# number of rings (size 3 to 8) (size 9 to 14) (size 15 to 20)
#    0.000    2.000    1.667    5.000    0.000    2.667 
#    3.000    2.500    0.000    0.000    0.000    0.000 
#    0.000    0.000    0.000    0.000    0.000    0.000 
#
# Total GULP energy -267428.073138 kJ/mol
# GULP energy per Si atom -5571.418190 kJ/mol
# Density = 1.970813 g / cm^3
# Si number density = 19.753086 Si / 1000 Ang^3
#
#
#
# Elastic Constant Matrix: (Units=GPa)
#
#
# Indices 1 2 3 4 5 6 
#
# 1 109.6165 17.5457 46.7813 0.0000 0.0000 0.0000
# 2 17.5457 -6.8882 -24.0284 0.0000 0.0000 0.0000
# 3 46.7813 -24.0284 25.2976 0.0000 0.0000 0.0000
# 4 0.0000 0.0000 0.0000 12.3261 0.0000 0.0000
# 5 0.0000 0.0000 0.0000 0.0000 16.3299 0.0000
# 6 0.0000 0.0000 0.0000 0.0000 0.0000 24.7079
#
#
#
# Elastic Compliance Matrix: (Units=1/GPa)
#
#
# Indices 1 2 3 4 5 6 
#
# 1 0.006562 0.013688 0.000867 0.000000 0.000000 0.000000
# 2 0.013688 -0.005103 -0.030159 0.000000 0.000000 0.000000
# 3 0.000867 -0.030159 0.009279 0.000000 0.000000 0.000000
# 4 0.000000 0.000000 0.000000 0.081129 0.000000 0.000000
# 5 0.000000 0.000000 0.000000 0.000000 0.061237 0.000000
# 6 0.000000 0.000000 0.000000 0.000000 0.000000 0.040473
#
#
# Mechanical properties :
#
#
# Convention : Reuss Voigt Hill
#
# Bulk Modulus (GPa) = -48.85109 23.18034 -12.83537
# Shear Modulus (GPa) = 22.93987 16.52127 19.73057
#
# Velocity S-wave (km/s) = 3.41153 2.89518 3.16390
# Velocity P-wave (km/s) = 3.04410 4.78922 2.61439
#
# Compressibility (1/GPa) = -0.02047037
#
# Stress axis : x y z
#
# Youngs Moduli (GPa) = 152.40236 -195.96014 107.76823
#
# Poissons Ratio (x) = 2.68231 -0.09347
# Poissons Ratio (y) = -2.08609 3.25023
# Poissons Ratio (z) = -0.13219 -5.91004
#
# Static dielectric constant tensor:
#      x y z
#    x 1.951710 0.000000 0.000000 
#    y 0.000000 1.724160 0.000000 
#    z 0.000000 0.000000 1.679160 
# 
# From -- ./inp_files/5567.got.cif
#   From: 2010.05.17/outbox.ucp.g08.bks.cvg/sg55_3_cif.got.tgz:5567.got - 2010.06.11 16:36:00.
