data_PCOD9429842
_publ_section_title
;
Structure prediction by ZEFSAII (Michael W. Deem and Ramdas Pophale) SiO2 
 PCOD9429842
Probable space group: P C C N
;
_chemical_formula_sum "Si O2"
_cell_formula_units_Z 60
_cell_length_a 14.420242
_cell_length_b 13.062652
_cell_length_c 16.940110
_cell_angle_alpha 90.000000
_cell_angle_beta 90.000000
_cell_angle_gamma 90.000000
_cell_volume 3190.950975
_symmetry_space_group_name_H-M "P C C N"
_symmetry_group_IT_number 56
_symmetry_cell_setting 'orthorhombic'
loop_
_space_group_symop_operation_xyz
x,y,z
1/2-x,1/2-y,z
1/2+x,-y,1/2-z
-x,1/2+y,1/2-z
-x,-y,-z
1/2+x,1/2+y,-z
1/2-x,y,1/2+z
x,1/2-y,1/2+z
loop_
_atom_site_type_symbol
_atom_site_label
_atom_site_fract_x
_atom_site_fract_y
_atom_site_fract_z
Si Si1 0.834698 0.174571 0.470998
Si Si2 0.208920 0.003681 0.012418
Si Si3 0.312739 0.846027 0.214833
Si Si4 0.383302 0.130413 0.385889
Si Si5 0.750000 0.750000 0.714042
Si Si6 0.691821 0.949813 0.307710
Si Si7 0.958520 0.157553 0.014766
Si Si8 0.022155 0.936684 0.814398
O O1 0.750000 0.250000 0.492133
O O2 0.841598 0.177101 0.375916
O O3 0.920306 0.227323 0.513239
O O4 0.802459 0.062015 0.493709
O O5 0.203185 0.057289 0.097225
O O6 0.196509 0.075292 0.937330
O O7 0.122728 0.922259 0.011573
O O8 0.250000 0.750000 0.242818
O O9 0.406037 0.870023 0.263032
O O10 0.247119 0.946719 0.215168
O O11 0.339155 0.224257 0.339725
O O12 0.460800 0.153476 0.450950
O O13 0.428536 0.046045 0.328519
O O14 0.766640 0.850600 0.765911
O O15 0.582738 0.954272 0.286144
O O16 0.986586 0.118610 0.100542
#
# Coordination Sequence:
#
# PCOD9429842 Si02
#       8
#     8   8   8   8   4   8   8   8
#     4   8  17  31  57  88 116 147 184 254 301 341
#     4   9  17  36  63  80 115 152 200 247 297 350
#     4  10  22  38  62  94 125 156 204 260 311 352
#     4  11  21  39  60  85 113 167 202 247 287 375
#     4  12  28  38  58  84 134 160 200 248 310 368
#     4  11  22  42  58  92 122 164 204 246 310 379
#     4  10  18  35  61  92 112 149 210 246 295 361
#     4  11  21  37  65  89 121 165 204 255 299 365
#
# _framework density 18.803172
#
# number of rings (size 3 to 8) (size 9 to 14) (size 15 to 20)
#    0.000    1.867    4.000    1.600    1.867    3.200 
#    0.000    0.000    0.000    0.800    0.000    0.000 
#    0.000    0.000    0.000    0.000    0.000    0.000 
#
# Total GULP energy -334677.491798 kJ/mol
# GULP energy per Si atom -5577.958197 kJ/mol
# Density = 1.876038 g / cm^3
# Si number density = 18.803172 Si / 1000 Ang^3
#
#
#
# Elastic Constant Matrix: (Units=GPa)
#
#
# Indices 1 2 3 4 5 6 
#
# 1 52.1804 22.7548 12.9218 0.0000 0.0000 0.0000
# 2 22.7548 76.4535 18.2627 0.0000 0.0000 0.0000
# 3 12.9218 18.2627 21.3174 0.0000 0.0000 0.0000
# 4 0.0000 0.0000 0.0000 17.0575 0.0000 0.0000
# 5 0.0000 0.0000 0.0000 0.0000 14.1670 0.0000
# 6 0.0000 0.0000 0.0000 0.0000 0.0000 16.2053
#
#
#
# Elastic Compliance Matrix: (Units=1/GPa)
#
#
# Indices 1 2 3 4 5 6 
#
# 1 0.023752 -0.004564 -0.010487 0.000000 0.000000 0.000000
# 2 -0.004564 0.017322 -0.012074 0.000000 0.000000 0.000000
# 3 -0.010487 -0.012074 0.063610 0.000000 0.000000 0.000000
# 4 0.000000 0.000000 0.000000 0.058625 0.000000 0.000000
# 5 0.000000 0.000000 0.000000 0.000000 0.070587 0.000000
# 6 0.000000 0.000000 0.000000 0.000000 0.000000 0.061708
#
#
# Mechanical properties :
#
#
# Convention : Reuss Voigt Hill
#
# Bulk Modulus (GPa) = 19.82764 28.64778 24.23771
# Shear Modulus (GPa) = 13.63640 15.88676 14.76158
#
# Velocity S-wave (km/s) = 2.69591 2.90987 2.80493
# Velocity P-wave (km/s) = 4.50092 5.15349 4.83822
#
# Compressibility (1/GPa) = 0.05043464
#
# Stress axis : x y z
#
# Youngs Moduli (GPa) = 42.10241 57.72909 15.72068
#
# Poissons Ratio (x) = 0.26348 0.16487
# Poissons Ratio (y) = 0.19216 0.18980
# Poissons Ratio (z) = 0.44154 0.69699
#
# Static dielectric constant tensor:
#      x y z
#    x 1.682130 0.000000 0.000000 
#    y 0.000000 1.664170 0.000000 
#    z 0.000000 0.000000 1.642450 
# 
# From -- ./inp_files/15788.got.cif
#   From: 2010.05.17/outbox.cif.g08.bks.cpg/sg56_8_cif.got.tgz:15788.got - 2010.06.03 13:42:01.
