data_PCOD9429214
_publ_section_title
;
Structure prediction by ZEFSAII (Michael W. Deem and Ramdas Pophale) SiO2 
 PCOD9429214
Probable space group: P B A M
;
_chemical_formula_sum "Si O2"
_cell_formula_units_Z 24
_cell_length_a 17.179026
_cell_length_b 7.937606
_cell_length_c 7.947928
_cell_angle_alpha 90.000000
_cell_angle_beta 90.000000
_cell_angle_gamma 90.000000
_cell_volume 1083.782163
_symmetry_space_group_name_H-M "P B A M"
_symmetry_group_IT_number 55
_symmetry_cell_setting 'orthorhombic'
loop_
_space_group_symop_operation_xyz
x,y,z
-x,-y,z
1/2+x,1/2-y,-z
1/2-x,1/2+y,-z
-x,-y,-z
x,y,-z
1/2-x,1/2+y,z
1/2+x,1/2-y,z
loop_
_atom_site_type_symbol
_atom_site_label
_atom_site_fract_x
_atom_site_fract_y
_atom_site_fract_z
Si Si1 0.957166 0.769117 0.189885
Si Si2 0.873534 0.912788 0.500000
Si Si3 0.377033 0.097099 0.809956
Si Si4 0.714333 0.767130 0.500000
O O1 0.925142 0.888013 0.334498
O O2 0.909400 0.593107 0.200563
O O3 0.046795 0.714749 0.213992
O O4 0.947012 0.835290 0.000000
O O5 0.807064 0.768822 0.500000
O O6 0.826328 0.085882 0.500000
O O7 0.315696 0.138618 0.666932
O O8 0.347074 0.123770 0.000000
#
# Coordination Sequence:
#
# PCOD9429214 Si02
#       4
#     8   4   8   4
#     4   9  19  38  63  87 112 145 184 227 277 333
#     4  12  25  38  55  81 115 153 189 230 279 330
#     4   9  19  38  63  87 112 145 184 227 277 333
#     4  12  25  38  55  81 115 153 189 230 279 330
#
# _framework density 22.144673999999998
#
# number of rings (size 3 to 8) (size 9 to 14) (size 15 to 20)
#    0.000    2.000    0.000    6.000    0.000    8.000 
#    0.000    3.333    0.000    0.000    0.000    0.000 
#    0.000    0.000    0.000    0.000    0.000    0.000 
#
# Total GULP energy -134361.852868 kJ/mol
# GULP energy per Si atom -5598.410536 kJ/mol
# Density = 2.209427 g / cm^3
# Si number density = 22.144674 Si / 1000 Ang^3
#
#
#
# Elastic Constant Matrix: (Units=GPa)
#
#
# Indices 1 2 3 4 5 6 
#
# 1 70.4499 11.5363 74.4074 0.0000 0.0000 0.0000
# 2 11.5363 84.9220 37.1082 0.0000 0.0000 0.0000
# 3 74.4074 37.1082 155.8874 0.0000 0.0000 0.0000
# 4 0.0000 0.0000 0.0000 -36.8588 0.0000 0.0000
# 5 0.0000 0.0000 0.0000 0.0000 6.4624 0.0000
# 6 0.0000 0.0000 0.0000 0.0000 0.0000 37.8766
#
#
#
# Elastic Compliance Matrix: (Units=1/GPa)
#
#
# Indices 1 2 3 4 5 6 
#
# 1 0.029042 0.002357 -0.014423 0.000000 0.000000 0.000000
# 2 0.002357 0.013334 -0.004299 0.000000 0.000000 0.000000
# 3 -0.014423 -0.004299 0.014323 0.000000 0.000000 0.000000
# 4 0.000000 0.000000 0.000000 -0.027131 0.000000 0.000000
# 5 0.000000 0.000000 0.000000 0.000000 0.154742 0.000000
# 6 0.000000 0.000000 0.000000 0.000000 0.000000 0.026402
#
#
# Mechanical properties :
#
#
# Convention : Reuss Voigt Hill
#
# Bulk Modulus (GPa) = 41.72200 61.92923 51.82562
# Shear Modulus (GPa) = 19.88609 14.04318 16.96464
#
# Velocity S-wave (km/s) = 2.99993 2.52098 2.77082
# Velocity P-wave (km/s) = 5.55707 6.04154 5.80436
#
# Compressibility (1/GPa) = 0.02396817
#
# Stress axis : x y z
#
# Youngs Moduli (GPa) = 34.43284 74.99668 69.81882
#
# Poissons Ratio (x) = -0.17679 1.00702
# Poissons Ratio (y) = -0.08117 0.30017
# Poissons Ratio (z) = 0.49664 0.32243
#
# Static dielectric constant tensor:
#      x y z
#    x 1.747740 0.000000 0.000000 
#    y 0.000000 1.846540 0.000000 
#    z 0.000000 0.000000 1.771530 
# 
# From -- ./inp_files/1673.got.cif
#   From: 2010.05.17/outbox.cif.g08.bks.cpg/sg55_1_cif.got.tgz:1673.got - 2010.06.03 13:27:54.
