data_PCOD9429175
_publ_section_title
;
Structure prediction by ZEFSAII (Michael W. Deem and Ramdas Pophale) SiO2 
 PCOD9429175
Probable space group: P B A M
;
_chemical_formula_sum "Si O2"
_cell_formula_units_Z 28
_cell_length_a 7.748078
_cell_length_b 14.253101
_cell_length_c 9.833681
_cell_angle_alpha 90.000000
_cell_angle_beta 90.000000
_cell_angle_gamma 90.000000
_cell_volume 1085.974087
_symmetry_space_group_name_H-M "P B A M"
_symmetry_group_IT_number 55
_symmetry_cell_setting 'orthorhombic'
loop_
_space_group_symop_operation_xyz
x,y,z
-x,-y,z
1/2+x,1/2-y,-z
1/2-x,1/2+y,-z
-x,-y,-z
x,y,-z
1/2-x,1/2+y,z
1/2+x,1/2-y,z
loop_
_atom_site_type_symbol
_atom_site_label
_atom_site_fract_x
_atom_site_fract_y
_atom_site_fract_z
Si Si1 0.584424 0.178440 0.500000
Si Si2 0.133298 0.396767 0.000000
Si Si3 0.406289 0.646420 0.289924
Si Si4 0.246003 0.695348 0.000000
Si Si5 0.272151 0.959387 0.290704
O O1 0.596151 0.261816 0.382262
O O2 0.596947 0.097402 0.382273
O O3 0.262472 0.308060 0.000000
O O4 0.170822 0.455842 0.134488
O O5 0.942972 0.351046 0.000000
O O6 0.278483 0.563498 0.336562
O O7 0.595730 0.601752 0.299692
O O8 0.348234 0.668534 0.136694
#
# Coordination Sequence:
#
# PCOD9429175 Si02
#       5
#     4   4   8   4   8
#     4  12  24  40  72 102 142 186 236 280 328 412
#     4  12  25  44  73 104 138 180 231 291 348 407
#     4  11  25  46  72 103 142 187 231 281 347 416
#     4  12  25  44  73 104 138 180 231 291 348 407
#     4  11  25  46  72 103 142 187 231 281 347 416
#
# _framework density 25.783306
#
# number of rings (size 3 to 8) (size 9 to 14) (size 15 to 20)
#    0.000    0.571    2.857    5.143    0.000    9.143 
#    0.000    0.000    0.000   10.286    0.000    0.000 
#    0.000    0.000    0.000    0.000    0.000    0.000 
#
# Total GULP energy -156203.169428 kJ/mol
# GULP energy per Si atom -5578.684622 kJ/mol
# Density = 2.572462 g / cm^3
# Si number density = 25.783306 Si / 1000 Ang^3
#
#
#
# Elastic Constant Matrix: (Units=GPa)
#
#
# Indices 1 2 3 4 5 6 
#
# 1 129.2359 24.2252 13.3263 0.0000 0.0000 0.0000
# 2 24.2252 122.9886 7.7898 0.0000 0.0000 0.0000
# 3 13.3263 7.7898 167.8397 0.0000 0.0000 0.0000
# 4 0.0000 0.0000 0.0000 78.2329 0.0000 0.0000
# 5 0.0000 0.0000 0.0000 0.0000 -26.4067 0.0000
# 6 0.0000 0.0000 0.0000 0.0000 0.0000 27.9760
#
#
#
# Elastic Compliance Matrix: (Units=1/GPa)
#
#
# Indices 1 2 3 4 5 6 
#
# 1 0.008088 -0.001557 -0.000570 0.000000 0.000000 0.000000
# 2 -0.001557 0.008455 -0.000269 0.000000 0.000000 0.000000
# 3 -0.000570 -0.000269 0.006016 0.000000 0.000000 0.000000
# 4 0.000000 0.000000 0.000000 0.012782 0.000000 0.000000
# 5 0.000000 0.000000 0.000000 0.000000 -0.037869 0.000000
# 6 0.000000 0.000000 0.000000 0.000000 0.000000 0.035745
#
#
# Mechanical properties :
#
#
# Convention : Reuss Voigt Hill
#
# Bulk Modulus (GPa) = 56.28349 56.74962 56.51656
# Shear Modulus (GPa) = 113.81514 40.94197 77.37855
#
# Velocity S-wave (km/s) = 6.65122 3.98920 5.48418
# Velocity P-wave (km/s) = 8.99232 6.57847 7.87839
#
# Compressibility (1/GPa) = 0.01776720
#
# Stress axis : x y z
#
# Youngs Moduli (GPa) = 123.63339 118.27940 166.22914
#
# Poissons Ratio (x) = 0.18417 0.09474
# Poissons Ratio (y) = 0.19251 0.04468
# Poissons Ratio (z) = 0.07046 0.03179
#
# Static dielectric constant tensor:
#      x y z
#    x 2.112360 0.000000 0.000000 
#    y 0.000000 1.986470 0.000000 
#    z 0.000000 0.000000 1.941030 
# 
# From -- ./inp_files/1902.got.cif
#   From: 2010.05.17/outbox.cif.g08.bks.cpg/sg55_1_cif.got.tgz:1902.got - 2010.06.03 13:27:54.
