data_PCOD9429827
_publ_section_title
;
Structure prediction by ZEFSAII (Michael W. Deem and Ramdas Pophale) SiO2 
 PCOD9429827
Probable space group: P C C N
;
_chemical_formula_sum "Si O2"
_cell_formula_units_Z 56
_cell_length_a 12.713301
_cell_length_b 19.196246
_cell_length_c 9.001021
_cell_angle_alpha 90.000000
_cell_angle_beta 90.000000
_cell_angle_gamma 90.000000
_cell_volume 2196.678054
_symmetry_space_group_name_H-M "P C C N"
_symmetry_group_IT_number 56
_symmetry_cell_setting 'orthorhombic'
loop_
_space_group_symop_operation_xyz
x,y,z
1/2-x,1/2-y,z
1/2+x,-y,1/2-z
-x,1/2+y,1/2-z
-x,-y,-z
1/2+x,1/2+y,-z
1/2-x,y,1/2+z
x,1/2-y,1/2+z
loop_
_atom_site_type_symbol
_atom_site_label
_atom_site_fract_x
_atom_site_fract_y
_atom_site_fract_z
Si Si1 0.799273 0.359861 0.586505
Si Si2 0.074626 0.025427 0.208734
Si Si3 0.389616 0.248289 0.520250
Si Si4 0.144380 0.347907 0.255779
Si Si5 0.156901 0.016741 0.902705
Si Si6 0.891550 0.134985 0.763497
Si Si7 0.999990 0.164519 0.285908
O O1 0.786272 0.443932 0.574317
O O2 0.685670 0.332574 0.639511
O O3 0.848399 0.341762 0.426035
O O4 0.882935 0.344989 0.719321
O O5 0.054684 0.089564 0.318131
O O6 0.116920 0.949404 0.248357
O O7 0.136282 0.050311 0.062621
O O8 0.956758 0.007808 0.154390
O O9 0.336114 0.201788 0.394770
O O10 0.325900 0.308414 0.606725
O O11 0.481989 0.288109 0.428514
O O12 0.437654 0.200309 0.649639
O O13 0.192746 0.423425 0.290355
O O14 0.015994 0.352781 0.250787
#
# Coordination Sequence:
#
# PCOD9429827 Si02
#       7
#     8   8   8   8   8   8   8
#     4  10  20  34  51  72 101 131 160 200 246 291
#     4   8  14  30  53  70  91 125 161 202 248 283
#     4  10  20  30  53  72 101 126 170 198 236 280
#     4  10  18  35  50  75  97 129 163 206 235 287
#     4   8  14  30  53  70  91 125 161 202 248 283
#     4  10  20  34  51  72 101 131 160 200 246 291
#     4  10  18  35  50  75  97 129 163 206 235 287
#
# _framework density 25.493040000000001
#
# number of rings (size 3 to 8) (size 9 to 14) (size 15 to 20)
#    0.000    2.571    2.857    1.714    2.000    0.000 
#    2.571    6.429    0.000    0.000    0.000    6.000 
#    0.000    0.000    0.000    0.000    0.000    0.000 
#
# Total GULP energy -312867.269970 kJ/mol
# GULP energy per Si atom -5586.915535 kJ/mol
# Density = 2.543502 g / cm^3
# Si number density = 25.493040 Si / 1000 Ang^3
#
#
#
# Elastic Constant Matrix: (Units=GPa)
#
#
# Indices 1 2 3 4 5 6 
#
# 1 77.9557 -3.5999 31.2235 0.0000 0.0000 0.0000
# 2 -3.5999 92.3082 35.6419 0.0000 0.0000 0.0000
# 3 31.2235 35.6419 83.0931 0.0000 0.0000 0.0000
# 4 0.0000 0.0000 0.0000 32.5001 0.0000 0.0000
# 5 0.0000 0.0000 0.0000 0.0000 30.4717 0.0000
# 6 0.0000 0.0000 0.0000 0.0000 0.0000 14.2871
#
#
#
# Elastic Compliance Matrix: (Units=1/GPa)
#
#
# Indices 1 2 3 4 5 6 
#
# 1 0.016007 0.003532 -0.007530 0.000000 0.000000 0.000000
# 2 0.003532 0.013763 -0.007230 0.000000 0.000000 0.000000
# 3 -0.007530 -0.007230 0.017965 0.000000 0.000000 0.000000
# 4 0.000000 0.000000 0.000000 0.030769 0.000000 0.000000
# 5 0.000000 0.000000 0.000000 0.000000 0.032817 0.000000
# 6 0.000000 0.000000 0.000000 0.000000 0.000000 0.069993
#
#
# Mechanical properties :
#
#
# Convention : Reuss Voigt Hill
#
# Bulk Modulus (GPa) = 39.56007 42.20979 40.88493
# Shear Modulus (GPa) = 23.56294 28.12454 25.84374
#
# Velocity S-wave (km/s) = 3.04351 3.32509 3.18741
# Velocity P-wave (km/s) = 5.28226 5.59776 5.44230
#
# Compressibility (1/GPa) = 0.02527801
#
# Stress axis : x y z
#
# Youngs Moduli (GPa) = 62.47385 72.65961 55.66228
#
# Poissons Ratio (x) = -0.25660 0.41911
# Poissons Ratio (y) = -0.22063 0.40246
# Poissons Ratio (z) = 0.47040 0.52536
#
# Static dielectric constant tensor:
#      x y z
#    x 2.057530 0.000000 0.000000 
#    y 0.000000 2.023490 0.000000 
#    z 0.000000 0.000000 1.952370 
# 
# From -- ./inp_files/3568.got.cif
#   From: 2010.05.17/outbox.cif.g08.bks.cpg/sg56_2_cif.got.tgz:3568.got - 2010.06.03 13:42:01.
