data_PCOD9429464
_publ_section_title
;
Structure prediction by ZEFSAII (Michael W. Deem and Ramdas Pophale) SiO2 
 PCOD9429464
Probable space group: P B A M
;
_chemical_formula_sum "Si O2"
_cell_formula_units_Z 48
_cell_length_a 9.000000
_cell_length_b 15.000000
_cell_length_c 18.000000
_cell_angle_alpha 90.000000
_cell_angle_beta 90.000000
_cell_angle_gamma 90.000000
_cell_volume 2430.000000
_symmetry_space_group_name_H-M "P B A M"
_symmetry_group_IT_number 55
_symmetry_cell_setting 'orthorhombic'
loop_
_space_group_symop_operation_xyz
x,y,z
-x,-y,z
1/2+x,1/2-y,-z
1/2-x,1/2+y,-z
-x,-y,-z
x,y,-z
1/2-x,1/2+y,z
1/2+x,1/2-y,z
loop_
_atom_site_type_symbol
_atom_site_label
_atom_site_fract_x
_atom_site_fract_y
_atom_site_fract_z
Si Si1 0.970969 0.710081 0.587952
Si Si2 0.671514 0.979250 0.087914
Si Si3 0.161784 0.452934 0.678898
Si Si4 0.337534 0.672948 0.181133
Si Si5 0.692230 0.634736 0.174516
Si Si6 0.218650 0.137760 0.353488
O O1 0.955965 0.701637 0.500000
O O2 0.138267 0.687487 0.612551
O O3 0.873818 0.633572 0.628944
O O4 0.920585 0.808905 0.612758
O O5 0.768354 0.065742 0.109367
O O6 0.500000 0.000000 0.110658
O O7 0.745865 0.895529 0.129673
O O8 0.671980 0.963272 0.000000
O O9 0.249499 0.416550 0.751059
O O10 0.255779 0.531444 0.638456
O O11 0.000000 0.500000 0.696582
O O12 0.516042 0.657344 0.176349
O O13 0.286842 0.774399 0.165817
O O14 0.289097 0.652918 0.265420
#
# Coordination Sequence:
#
# PCOD9429464 Si02
#       6
#     8   8   8   8   8   8
#     4  11  24  42  64  95 134 177 224 283 348 404
#     4  11  26  47  72 104 144 181 224 286 351 411
#     4  10  23  39  68  97 131 178 228 281 340 412
#     4  12  25  41  72 102 136 185 234 284 338 414
#     4  12  24  42  69 103 139 179 233 285 340 409
#     4  11  23  41  65  95 130 177 224 282 335 409
#
# _framework density 19.753086
#
# number of rings (size 3 to 8) (size 9 to 14) (size 15 to 20)
#    0.000    0.833    3.333    3.500    4.667    5.667 
#    0.000    0.000    0.000    2.000    0.000    0.000 
#    0.000    0.000    0.000    0.000    0.000    0.000 
#
# Total GULP energy -268441.881802 kJ/mol
# GULP energy per Si atom -5592.539204 kJ/mol
# Density = 1.970813 g / cm^3
# Si number density = 19.753086 Si / 1000 Ang^3
#
#
#
# Elastic Constant Matrix: (Units=GPa)
#
#
# Indices 1 2 3 4 5 6 
#
# 1 93.3081 46.8371 39.6263 0.0000 0.0000 0.0000
# 2 46.8371 123.3930 22.4969 0.0000 0.0000 0.0000
# 3 39.6263 22.4969 103.3330 0.0000 0.0000 0.0000
# 4 0.0000 0.0000 0.0000 27.5020 0.0000 0.0000
# 5 0.0000 0.0000 0.0000 0.0000 15.0605 0.0000
# 6 0.0000 0.0000 0.0000 0.0000 0.0000 42.4779
#
#
#
# Elastic Compliance Matrix: (Units=1/GPa)
#
#
# Indices 1 2 3 4 5 6 
#
# 1 0.015200 -0.004901 -0.004762 0.000000 0.000000 0.000000
# 2 -0.004901 0.010020 -0.000302 0.000000 0.000000 0.000000
# 3 -0.004762 -0.000302 0.011569 0.000000 0.000000 0.000000
# 4 0.000000 0.000000 0.000000 0.036361 0.000000 0.000000
# 5 0.000000 0.000000 0.000000 0.000000 0.066399 0.000000
# 6 0.000000 0.000000 0.000000 0.000000 0.000000 0.023542
#
#
# Mechanical properties :
#
#
# Convention : Reuss Voigt Hill
#
# Bulk Modulus (GPa) = 59.31625 59.77275 59.54450
# Shear Modulus (GPa) = 26.50561 31.07968 28.79264
#
# Velocity S-wave (km/s) = 3.66710 3.97092 3.82203
# Velocity P-wave (km/s) = 6.92995 7.16589 7.04891
#
# Compressibility (1/GPa) = 0.01685879
#
# Stress axis : x y z
#
# Youngs Moduli (GPa) = 65.79099 99.80410 86.43642
#
# Poissons Ratio (x) = 0.48917 0.41159
# Poissons Ratio (y) = 0.32246 0.02609
# Poissons Ratio (z) = 0.31328 0.03013
#
# Static dielectric constant tensor:
#      x y z
#    x 1.711860 0.000000 0.000000 
#    y 0.000000 1.695390 0.000000 
#    z 0.000000 0.000000 1.677920 
# 
# From -- ./inp_files/20774.got.cif
#   From: 2010.05.17/outbox.ucp.g08.bks.cvg/sg55_11_cif.got.tgz:20774.got - 2010.06.11 16:36:00.
