data_PCOD9429781
_publ_section_title
;
Structure prediction by ZEFSAII (Michael W. Deem and Ramdas Pophale) SiO2 
 PCOD9429781
Probable space group: P C C N
;
_chemical_formula_sum "Si O2"
_cell_formula_units_Z 64
_cell_length_a 9.754757
_cell_length_b 19.060219
_cell_length_c 16.529371
_cell_angle_alpha 90.000000
_cell_angle_beta 90.000000
_cell_angle_gamma 90.000000
_cell_volume 3073.269663
_symmetry_space_group_name_H-M "P C C N"
_symmetry_group_IT_number 56
_symmetry_cell_setting 'orthorhombic'
loop_
_space_group_symop_operation_xyz
x,y,z
1/2-x,1/2-y,z
1/2+x,-y,1/2-z
-x,1/2+y,1/2-z
-x,-y,-z
1/2+x,1/2+y,-z
1/2-x,y,1/2+z
x,1/2-y,1/2+z
loop_
_atom_site_type_symbol
_atom_site_label
_atom_site_fract_x
_atom_site_fract_y
_atom_site_fract_z
Si Si1 0.838514 0.027124 0.181598
Si Si2 0.198579 0.678584 0.010601
Si Si3 0.898246 0.469372 0.928405
Si Si4 0.718849 0.673467 0.958000
Si Si5 0.928761 0.172551 0.131116
Si Si6 0.655896 0.971281 0.511693
Si Si7 0.950956 0.463774 0.219933
Si Si8 0.502233 0.681018 0.366846
O O1 0.897286 0.105560 0.185756
O O2 0.705176 0.016667 0.235253
O O3 0.791856 0.013073 0.089814
O O4 0.955952 0.971804 0.201808
O O5 0.250000 0.750000 0.053762
O O6 0.316581 0.668624 0.941484
O O7 0.064903 0.689191 0.955401
O O8 0.154183 0.610470 0.060602
O O9 0.977070 0.485531 0.845957
O O10 0.754852 0.510551 0.937111
O O11 0.000000 0.500000 0.000000
O O12 0.750000 0.750000 0.995556
O O13 0.576712 0.668024 0.910029
O O14 0.839028 0.669421 0.889953
O O15 0.694141 0.610795 0.021707
O O16 0.943008 0.248203 0.174130
O O17 0.500000 0.000000 0.500000
O O18 0.952332 0.386927 0.180490
#
# Coordination Sequence:
#
# PCOD9429781 Si02
#       8
#     8   8   8   8   8   8   8   8
#     4  12  26  41  60  93 128 166 211 259 318 384
#     4  10  18  33  61  92 116 149 203 259 307 366
#     4  12  19  38  63  91 118 158 209 261 321 366
#     4  10  20  33  59  96 121 151 200 259 318 372
#     4  10  19  37  60  91 120 152 207 257 304 371
#     4  12  21  36  65  91 124 158 208 264 315 375
#     4  12  26  40  62  91 125 166 211 259 322 387
#     4  10  19  35  64  89 115 156 205 257 310 370
#
# _framework density 20.824725999999998
#
# number of rings (size 3 to 8) (size 9 to 14) (size 15 to 20)
#    0.000    1.000    7.500    0.000    3.500    0.000 
#    0.000    0.000    5.500    0.000    0.000    0.000 
#    0.000    0.000    0.000    0.000    0.000    0.000 
#
# Total GULP energy -356415.861462 kJ/mol
# GULP energy per Si atom -5568.997835 kJ/mol
# Density = 2.077733 g / cm^3
# Si number density = 20.824726 Si / 1000 Ang^3
#
#
#
# Elastic Constant Matrix: (Units=GPa)
#
#
# Indices 1 2 3 4 5 6 
#
# 1 145.3934 26.4625 7.0709 0.0000 0.0000 0.0000
# 2 26.4625 158.2860 13.8265 0.0000 0.0000 0.0000
# 3 7.0709 13.8265 20.5673 0.0000 0.0000 0.0000
# 4 0.0000 0.0000 0.0000 12.2732 0.0000 0.0000
# 5 0.0000 0.0000 0.0000 0.0000 23.7555 0.0000
# 6 0.0000 0.0000 0.0000 0.0000 0.0000 31.7624
#
#
#
# Elastic Compliance Matrix: (Units=1/GPa)
#
#
# Indices 1 2 3 4 5 6 
#
# 1 0.007153 -0.001042 -0.001759 0.000000 0.000000 0.000000
# 2 -0.001042 0.006864 -0.004256 0.000000 0.000000 0.000000
# 3 -0.001759 -0.004256 0.052086 0.000000 0.000000 0.000000
# 4 0.000000 0.000000 0.000000 0.081479 0.000000 0.000000
# 5 0.000000 0.000000 0.000000 0.000000 0.042096 0.000000
# 6 0.000000 0.000000 0.000000 0.000000 0.000000 0.031484
#
#
# Mechanical properties :
#
#
# Convention : Reuss Voigt Hill
#
# Bulk Modulus (GPa) = 19.23449 46.55184 32.89316
# Shear Modulus (GPa) = 19.79382 32.01734 25.90558
#
# Velocity S-wave (km/s) = 3.08636 3.92531 3.53084
# Velocity P-wave (km/s) = 4.68585 6.55337 5.69666
#
# Compressibility (1/GPa) = 0.05198995
#
# Stress axis : x y z
#
# Youngs Moduli (GPa) = 139.79933 145.69454 19.19889
#
# Poissons Ratio (x) = 0.15185 0.03376
# Poissons Ratio (y) = 0.14571 0.08171
# Poissons Ratio (z) = 0.24584 0.62005
#
# Static dielectric constant tensor:
#      x y z
#    x 1.836730 0.000000 0.000000 
#    y 0.000000 1.954440 0.000000 
#    z 0.000000 0.000000 1.737420 
# 
# From -- ./inp_files/18434.got.cif
#   From: 2010.05.17/outbox.cif.g08.bks.cpg/sg56_10_cif.got.tgz:18434.got - 2010.06.03 13:42:01.
