data_PCOD9429952
_publ_section_title
;
Structure prediction by ZEFSAII (Michael W. Deem and Ramdas Pophale) SiO2 
 PCOD9429952
Probable space group: P C C N
;
_chemical_formula_sum "Si O2"
_cell_formula_units_Z 36
_cell_length_a 4.876722
_cell_length_b 15.028711
_cell_length_c 19.927035
_cell_angle_alpha 90.000000
_cell_angle_beta 90.000000
_cell_angle_gamma 90.000000
_cell_volume 1460.469245
_symmetry_space_group_name_H-M "P C C N"
_symmetry_group_IT_number 56
_symmetry_cell_setting 'orthorhombic'
loop_
_space_group_symop_operation_xyz
x,y,z
1/2-x,1/2-y,z
1/2+x,-y,1/2-z
-x,1/2+y,1/2-z
-x,-y,-z
1/2+x,1/2+y,-z
1/2-x,y,1/2+z
x,1/2-y,1/2+z
loop_
_atom_site_type_symbol
_atom_site_label
_atom_site_fract_x
_atom_site_fract_y
_atom_site_fract_z
Si Si1 0.528179 0.497797 0.795444
Si Si2 0.366915 0.651653 0.632223
Si Si3 0.500462 0.817147 0.991859
Si Si4 0.750000 0.750000 0.232154
Si Si5 0.351414 0.155007 0.144714
O O1 0.213458 0.503530 0.773000
O O2 0.643838 0.416085 0.838705
O O3 0.617392 0.586519 0.834598
O O4 0.250000 0.750000 0.619881
O O5 0.468172 0.623476 0.558849
O O6 0.594082 0.678055 0.687508
O O7 0.750000 0.750000 0.010342
O O8 0.505630 0.876033 0.923270
O O9 0.250000 0.750000 0.979898
O O10 0.950884 0.806302 0.282694
O O11 0.250000 0.250000 0.117175
#
# Coordination Sequence:
#
# PCOD9429952 Si02
#       5
#     8   8   8   4   8
#     4  12  25  40  64  99 130 166 219 271 318 383
#     4  11  23  39  68  92 132 169 220 263 327 383
#     4  10  22  40  65  91 129 172 215 260 321 388
#     4  10  18  40  64  88 122 174 206 264 322 372
#     4   9  21  40  63  92 128 167 210 261 324 375
#
# _framework density 24.649612000000001
#
# number of rings (size 3 to 8) (size 9 to 14) (size 15 to 20)
#    0.667    0.889    3.333    1.333    0.000    7.111 
#    0.000    0.000    0.000   14.667    0.000    0.000 
#    0.000    0.000    0.000    0.000    0.000    0.000 
#
# Total GULP energy -200520.130062 kJ/mol
# GULP energy per Si atom -5570.003613 kJ/mol
# Density = 2.459351 g / cm^3
# Si number density = 24.649612 Si / 1000 Ang^3
#
#
#
# Elastic Constant Matrix: (Units=GPa)
#
#
# Indices 1 2 3 4 5 6 
#
# 1 66.3690 -11.1365 0.8757 0.0000 0.0000 0.0000
# 2 -11.1365 89.0125 -1.1732 0.0000 0.0000 0.0000
# 3 0.8757 -1.1732 189.0899 0.0000 0.0000 0.0000
# 4 0.0000 0.0000 0.0000 130.7092 0.0000 0.0000
# 5 0.0000 0.0000 0.0000 0.0000 20.6182 0.0000
# 6 0.0000 0.0000 0.0000 0.0000 0.0000 27.7352
#
#
#
# Elastic Compliance Matrix: (Units=1/GPa)
#
#
# Indices 1 2 3 4 5 6 
#
# 1 0.015391 0.001925 -0.000059 0.000000 0.000000 0.000000
# 2 0.001925 0.011476 0.000062 0.000000 0.000000 0.000000
# 3 -0.000059 0.000062 0.005289 0.000000 0.000000 0.000000
# 4 0.000000 0.000000 0.000000 0.007651 0.000000 0.000000
# 5 0.000000 0.000000 0.000000 0.000000 0.048501 0.000000
# 6 0.000000 0.000000 0.000000 0.000000 0.000000 0.036055
#
#
# Mechanical properties :
#
#
# Convention : Reuss Voigt Hill
#
# Bulk Modulus (GPa) = 27.76873 35.73371 31.75122
# Shear Modulus (GPa) = 37.73261 59.53953 48.63607
#
# Velocity S-wave (km/s) = 3.91674 4.92004 4.44677
# Velocity P-wave (km/s) = 5.63420 6.84133 6.26690
#
# Compressibility (1/GPa) = 0.03601173
#
# Stress axis : x y z
#
# Youngs Moduli (GPa) = 64.97292 87.13831 189.06627
#
# Poissons Ratio (x) = -0.16772 0.01122
# Poissons Ratio (y) = -0.12506 -0.01178
# Poissons Ratio (z) = 0.00385 -0.00543
#
# Static dielectric constant tensor:
#      x y z
#    x 0.456830 0.000000 0.000000 
#    y 0.000000 1.962780 0.000000 
#    z 0.000000 0.000000 2.179000 
# 
# From -- ./inp_files/17367.got.cif
#   From: 2010.05.17/outbox.cif.g08.bks.cpg/sg56_9_cif.got.tgz:17367.got - 2010.06.03 13:42:01.
