data_PCOD9429648
_publ_section_title
;
Structure prediction by ZEFSAII (Michael W. Deem and Ramdas Pophale) SiO2 
 PCOD9429648
Probable space group: P C C N
;
_chemical_formula_sum "Si O2"
_cell_formula_units_Z 48
_cell_length_a 8.688592
_cell_length_b 15.755639
_cell_length_c 18.813098
_cell_angle_alpha 90.000000
_cell_angle_beta 90.000000
_cell_angle_gamma 90.000000
_cell_volume 2575.406238
_symmetry_space_group_name_H-M "P C C N"
_symmetry_group_IT_number 56
_symmetry_cell_setting 'orthorhombic'
loop_
_space_group_symop_operation_xyz
x,y,z
1/2-x,1/2-y,z
1/2+x,-y,1/2-z
-x,1/2+y,1/2-z
-x,-y,-z
1/2+x,1/2+y,-z
1/2-x,y,1/2+z
x,1/2-y,1/2+z
loop_
_atom_site_type_symbol
_atom_site_label
_atom_site_fract_x
_atom_site_fract_y
_atom_site_fract_z
Si Si1 0.339495 0.160166 0.814950
Si Si2 0.881045 0.567924 0.579182
Si Si3 0.291873 0.003582 0.571482
Si Si4 0.873418 0.324780 0.917832
Si Si5 0.161559 0.339022 0.653993
Si Si6 0.068423 0.226243 0.015799
O O1 0.250000 0.250000 0.815739
O O2 0.230308 0.093344 0.856624
O O3 0.493836 0.174119 0.859128
O O4 0.378148 0.135162 0.733940
O O5 0.793663 0.526048 0.512172
O O6 0.948445 0.654188 0.544053
O O7 0.030659 0.512126 0.595814
O O8 0.201649 0.917162 0.582260
O O9 0.241155 0.085811 0.616484
O O10 0.750000 0.250000 0.905449
O O11 0.959819 0.302329 0.991997
O O12 0.250000 0.250000 0.662148
O O13 0.037349 0.314306 0.592967
O O14 0.250000 0.250000 0.013288
#
# Coordination Sequence:
#
# PCOD9429648 Si02
#       6
#     8   8   8   8   8   8
#     4  11  20  38  62  82 117 166 192 233 300 361
#     4  10  18  37  60  82 114 154 196 231 295 347
#     4  10  22  35  60  91 117 150 195 252 287 344
#     4  12  21  35  62  94 116 149 203 248 284 350
#     4   9  22  39  58  82 119 160 195 238 303 354
#     4  10  17  37  60  83 112 154 194 238 287 346
#
# _framework density 18.637836
#
# number of rings (size 3 to 8) (size 9 to 14) (size 15 to 20)
#    0.000    1.667    5.000    0.000    0.000    2.000 
#    0.000    0.833    0.000    0.000    0.000    0.000 
#    0.000    0.000    0.000    0.000    0.000    0.000 
#
# Total GULP energy -267451.831964 kJ/mol
# GULP energy per Si atom -5571.913166 kJ/mol
# Density = 1.859542 g / cm^3
# Si number density = 18.637836 Si / 1000 Ang^3
#
#
#
# Elastic Constant Matrix: (Units=GPa)
#
#
# Indices 1 2 3 4 5 6 
#
# 1 65.0894 37.6795 43.5699 0.0000 0.0000 0.0000
# 2 37.6795 119.2648 40.5584 0.0000 0.0000 0.0000
# 3 43.5699 40.5584 139.1964 0.0000 0.0000 0.0000
# 4 0.0000 0.0000 0.0000 0.4059 0.0000 0.0000
# 5 0.0000 0.0000 0.0000 0.0000 -1.5937 0.0000
# 6 0.0000 0.0000 0.0000 0.0000 0.0000 25.1914
#
#
#
# Elastic Compliance Matrix: (Units=1/GPa)
#
#
# Indices 1 2 3 4 5 6 
#
# 1 0.021910 -0.005095 -0.005374 0.000000 0.000000 0.000000
# 2 -0.005095 0.010492 -0.001462 0.000000 0.000000 0.000000
# 3 -0.005374 -0.001462 0.009292 0.000000 0.000000 0.000000
# 4 0.000000 0.000000 0.000000 2.463803 0.000000 0.000000
# 5 0.000000 0.000000 0.000000 0.000000 -0.627489 0.000000
# 6 0.000000 0.000000 0.000000 0.000000 0.000000 0.039696
#
#
# Mechanical properties :
#
#
# Convention : Reuss Voigt Hill
#
# Bulk Modulus (GPa) = 56.07740 63.01847 59.54794
# Shear Modulus (GPa) = 2.56738 18.25025 10.40882
#
# Velocity S-wave (km/s) = 1.17495 3.13262 2.36578
# Velocity P-wave (km/s) = 5.65632 6.85346 6.28346
#
# Compressibility (1/GPa) = 0.01783250
#
# Stress axis : x y z
#
# Youngs Moduli (GPa) = 45.64206 95.31501 107.61788
#
# Poissons Ratio (x) = 0.48559 0.57828
# Poissons Ratio (y) = 0.23253 0.15737
# Poissons Ratio (z) = 0.24526 0.13938
#
# Static dielectric constant tensor:
#      x y z
#    x 1.669520 0.000000 0.000000 
#    y 0.000000 1.703150 0.000000 
#    z 0.000000 0.000000 1.672870 
# 
# From -- ./inp_files/18091.got.cif
#   From: 2010.05.17/outbox.cif.g08.bks.cpg/sg56_10_cif.got.tgz:18091.got - 2010.06.03 13:42:01.
