data_PCOD9429074
_publ_section_title
;
Structure prediction by ZEFSAII (Michael W. Deem and Ramdas Pophale) SiO2 
 PCOD9429074
Probable space group: P B A M
;
_chemical_formula_sum "Si O2"
_cell_formula_units_Z 40
_cell_length_a 12.712783
_cell_length_b 18.320536
_cell_length_c 8.108708
_cell_angle_alpha 90.000000
_cell_angle_beta 90.000000
_cell_angle_gamma 90.000000
_cell_volume 1888.558625
_symmetry_space_group_name_H-M "P B A M"
_symmetry_group_IT_number 55
_symmetry_cell_setting 'orthorhombic'
loop_
_space_group_symop_operation_xyz
x,y,z
-x,-y,z
1/2+x,1/2-y,-z
1/2-x,1/2+y,-z
-x,-y,-z
x,y,-z
1/2-x,1/2+y,z
1/2+x,1/2-y,z
loop_
_atom_site_type_symbol
_atom_site_label
_atom_site_fract_x
_atom_site_fract_y
_atom_site_fract_z
Si Si1 0.605655 0.708556 0.805986
Si Si2 0.545021 0.421420 0.200372
Si Si3 0.306720 0.873102 0.692503
Si Si4 0.045376 0.634285 0.307301
Si Si5 0.229663 0.533475 0.806705
O O1 0.525091 0.646287 0.742285
O O2 0.722325 0.676914 0.783499
O O3 0.588904 0.784351 0.714404
O O4 0.585789 0.721113 0.000000
O O5 0.500000 0.500000 0.254621
O O6 0.667943 0.419888 0.244697
O O7 0.537194 0.420288 0.000000
O O8 0.306423 0.852593 0.500000
O O9 0.425873 0.867160 0.756827
O O10 0.273352 0.957214 0.712251
O O11 0.042245 0.613708 0.500000
O O12 0.123627 0.578365 0.219890
O O13 0.242836 0.515799 0.000000
#
# Coordination Sequence:
#
# PCOD9429074 Si02
#       5
#     8   8   8   8   8
#     4  11  23  41  66  93 124 163 212 265 316 373
#     4   9  18  37  62  92 124 155 199 260 313 360
#     4  11  24  43  64  90 129 171 208 257 319 380
#     4  11  26  44  61  89 131 170 208 259 321 380
#     4  11  22  40  68  97 123 162 215 264 313 374
#
# _framework density 21.180173
#
# number of rings (size 3 to 8) (size 9 to 14) (size 15 to 20)
#    0.000    1.400    2.000    3.000    2.800    5.600 
#    0.000    4.000    0.000    0.000    0.000    0.000 
#    0.000    0.000    0.000    0.000    0.000    0.000 
#
# Total GULP energy -223700.169034 kJ/mol
# GULP energy per Si atom -5592.504226 kJ/mol
# Density = 2.113197 g / cm^3
# Si number density = 21.180173 Si / 1000 Ang^3
#
#
#
# Elastic Constant Matrix: (Units=GPa)
#
#
# Indices 1 2 3 4 5 6 
#
# 1 112.3357 -11.3659 0.4948 0.0000 0.0000 0.0000
# 2 -11.3659 27.1770 -10.9277 0.0000 0.0000 0.0000
# 3 0.4948 -10.9277 21.7675 0.0000 0.0000 0.0000
# 4 0.0000 0.0000 0.0000 32.4223 0.0000 0.0000
# 5 0.0000 0.0000 0.0000 0.0000 19.3057 0.0000
# 6 0.0000 0.0000 0.0000 0.0000 0.0000 24.1450
#
#
#
# Elastic Compliance Matrix: (Units=1/GPa)
#
#
# Indices 1 2 3 4 5 6 
#
# 1 0.009379 0.004807 0.002200 0.000000 0.000000 0.000000
# 2 0.004807 0.048566 0.024272 0.000000 0.000000 0.000000
# 3 0.002200 0.024272 0.058075 0.000000 0.000000 0.000000
# 4 0.000000 0.000000 0.000000 0.030843 0.000000 0.000000
# 5 0.000000 0.000000 0.000000 0.000000 0.051798 0.000000
# 6 0.000000 0.000000 0.000000 0.000000 0.000000 0.041416
#
#
# Mechanical properties :
#
#
# Convention : Reuss Voigt Hill
#
# Bulk Modulus (GPa) = 5.59984 13.07585 9.33784
# Shear Modulus (GPa) = 21.09301 27.37986 24.23644
#
# Velocity S-wave (km/s) = 3.15919 3.59933 3.38642
# Velocity P-wave (km/s) = 3.99461 4.84361 4.43946
#
# Compressibility (1/GPa) = 0.17857653
#
# Stress axis : x y z
#
# Youngs Moduli (GPa) = 106.62636 20.59062 17.21911
#
# Poissons Ratio (x) = -0.09898 -0.03788
# Poissons Ratio (y) = -0.51254 -0.41794
# Poissons Ratio (z) = -0.23457 -0.49977
#
# Static dielectric constant tensor:
#      x y z
#    x 1.769610 0.000000 0.000000 
#    y 0.000000 1.707740 0.000000 
#    z 0.000000 0.000000 1.740000 
# 
# From -- ./inp_files/3628.got.cif
#   From: 2010.05.17/outbox.cif.g08.bks.cpg/sg55_2_cif.got.tgz:3628.got - 2010.06.03 13:27:54.
