data_PCOD9429319
_publ_section_title
;
Structure prediction by ZEFSAII (Michael W. Deem and Ramdas Pophale) SiO2 
 PCOD9429319
Probable space group: P B A M
;
_chemical_formula_sum "Si O2"
_cell_formula_units_Z 64
_cell_length_a 30.000000
_cell_length_b 12.000000
_cell_length_c 9.000000
_cell_angle_alpha 90.000000
_cell_angle_beta 90.000000
_cell_angle_gamma 90.000000
_cell_volume 3240.000000
_symmetry_space_group_name_H-M "P B A M"
_symmetry_group_IT_number 55
_symmetry_cell_setting 'orthorhombic'
loop_
_space_group_symop_operation_xyz
x,y,z
-x,-y,z
1/2+x,1/2-y,-z
1/2-x,1/2+y,-z
-x,-y,-z
x,y,-z
1/2-x,1/2+y,z
1/2+x,1/2-y,z
loop_
_atom_site_type_symbol
_atom_site_label
_atom_site_fract_x
_atom_site_fract_y
_atom_site_fract_z
Si Si1 0.435289 0.941087 0.170911
Si Si2 0.488678 0.755796 0.677296
Si Si3 0.594414 0.404928 0.677701
Si Si4 0.128771 0.631033 0.820756
Si Si5 0.585747 0.665864 0.678898
Si Si6 0.223595 0.592798 0.680458
Si Si7 0.238806 0.341742 0.676952
Si Si8 0.149743 0.275690 0.170747
O O1 0.473960 0.873523 0.253369
O O2 0.392963 0.856899 0.174309
O O3 0.413743 0.055657 0.229076
O O4 0.448408 0.957621 0.000000
O O5 0.488855 0.768602 0.500000
O O6 0.451198 0.662204 0.712487
O O7 0.536588 0.708934 0.722611
O O8 0.602062 0.393517 0.500000
O O9 0.590547 0.535202 0.712225
O O10 0.633142 0.342455 0.766550
O O11 0.120454 0.755716 0.763180
O O12 0.174146 0.585910 0.749403
O O13 0.131200 0.624719 0.000000
O O14 0.590795 0.679066 0.500000
O O15 0.222217 0.592785 0.500000
O O16 0.248555 0.473635 0.723224
O O17 0.240248 0.719492 0.726207
O O18 0.244983 0.342152 0.500000
O O19 0.187865 0.324504 0.725616
O O20 0.165056 0.268340 0.000000
#
# Coordination Sequence:
#
# PCOD9429319 Si02
#       8
#     8   8   8   8   8   8   8   8
#     4   9  19  35  54  77 109 147 186 230 277 330
#     4   9  18  33  56  83 108 143 192 241 285 333
#     4   9  18  34  56  81 112 150 190 235 286 339
#     4  11  23  39  57  79 112 152 191 231 282 341
#     4  10  21  36  54  80 114 149 189 239 289 337
#     4  10  22  40  62  87 116 150 191 237 289 346
#     4  10  21  38  61  88 116 149 189 236 288 345
#     4  10  19  34  57  84 112 145 188 229 273 333
#
# _framework density 19.753086
#
# number of rings (size 3 to 8) (size 9 to 14) (size 15 to 20)
#    0.000    2.250    1.250    1.125    0.000    6.000 
#    0.000    5.000    0.000    3.750    0.000    0.000 
#    0.000    0.000    0.000    0.000    0.000    0.000 
#
# Total GULP energy -356755.016085 kJ/mol
# GULP energy per Si atom -5574.297126 kJ/mol
# Density = 1.970813 g / cm^3
# Si number density = 19.753086 Si / 1000 Ang^3
#
#
#
# Elastic Constant Matrix: (Units=GPa)
#
#
# Indices 1 2 3 4 5 6 
#
# 1 30.2110 23.7447 -1.3076 0.0000 0.0000 0.0000
# 2 23.7447 150.8910 17.6712 0.0000 0.0000 0.0000
# 3 -1.3076 17.6712 -3.8305 0.0000 0.0000 0.0000
# 4 0.0000 0.0000 0.0000 20.7102 0.0000 0.0000
# 5 0.0000 0.0000 0.0000 0.0000 4.8577 0.0000
# 6 0.0000 0.0000 0.0000 0.0000 0.0000 30.6354
#
#
#
# Elastic Compliance Matrix: (Units=1/GPa)
#
#
# Indices 1 2 3 4 5 6 
#
# 1 0.034121 -0.002600 -0.023644 0.000000 0.000000 0.000000
# 2 -0.002600 0.004501 0.021651 0.000000 0.000000 0.000000
# 3 -0.023644 0.021651 -0.153107 0.000000 0.000000 0.000000
# 4 0.000000 0.000000 0.000000 0.048285 0.000000 0.000000
# 5 0.000000 0.000000 0.000000 0.000000 0.205859 0.000000
# 6 0.000000 0.000000 0.000000 0.000000 0.000000 0.032642
#
#
# Mechanical properties :
#
#
# Convention : Reuss Voigt Hill
#
# Bulk Modulus (GPa) = -8.08599 28.60978 10.26190
# Shear Modulus (GPa) = 35.64703 20.38487 28.01595
#
# Velocity S-wave (km/s) = 4.25270 3.21594 3.77013
# Velocity P-wave (km/s) = 4.47343 5.32023 4.91510
#
# Compressibility (1/GPa) = -0.12367073
#
# Stress axis : x y z
#
# Youngs Moduli (GPa) = 29.30743 222.17902 -6.53140
#
# Poissons Ratio (x) = 0.57776 -0.15443
# Poissons Ratio (y) = 0.07621 0.14141
# Poissons Ratio (z) = 0.69294 -4.81047
#
# Static dielectric constant tensor:
#      x y z
#    x 1.702410 0.000000 0.000000 
#    y 0.000000 1.729610 0.000000 
#    z 0.000000 0.000000 1.662100 
# 
# From -- ./inp_files/10784.got.cif
#   From: 2010.05.17/outbox.ucp.g08.bks.cvg/sg55_6_cif.got.tgz:10784.got - 2010.06.11 16:36:00.
