data_PCOD9429368
_publ_section_title
;
Structure prediction by ZEFSAII (Michael W. Deem and Ramdas Pophale) SiO2 
 PCOD9429368
Probable space group: P B A M
;
_chemical_formula_sum "Si O2"
_cell_formula_units_Z 64
_cell_length_a 24.000000
_cell_length_b 9.000000
_cell_length_c 15.000000
_cell_angle_alpha 90.000000
_cell_angle_beta 90.000000
_cell_angle_gamma 90.000000
_cell_volume 3240.000000
_symmetry_space_group_name_H-M "P B A M"
_symmetry_group_IT_number 55
_symmetry_cell_setting 'orthorhombic'
loop_
_space_group_symop_operation_xyz
x,y,z
-x,-y,z
1/2+x,1/2-y,-z
1/2-x,1/2+y,-z
-x,-y,-z
x,y,-z
1/2-x,1/2+y,z
1/2+x,1/2-y,z
loop_
_atom_site_type_symbol
_atom_site_label
_atom_site_fract_x
_atom_site_fract_y
_atom_site_fract_z
Si Si1 0.654336 0.126552 0.599814
Si Si2 0.516874 0.826312 0.395015
Si Si3 0.120194 0.034964 0.595055
Si Si4 0.552017 0.207836 0.098782
Si Si5 0.921413 0.359737 0.101243
Si Si6 0.046283 0.108109 0.258569
Si Si7 0.283477 0.307988 0.599356
Si Si8 0.871613 0.357551 0.293190
O O1 0.643200 0.060744 0.500000
O O2 0.628927 0.289352 0.596915
O O3 0.719986 0.149480 0.612089
O O4 0.631424 0.031407 0.681313
O O5 0.509115 0.793112 0.500000
O O6 0.481585 0.722394 0.328858
O O7 0.580280 0.806882 0.362305
O O8 0.500000 0.000000 0.382109
O O9 0.093069 0.994047 0.500000
O O10 0.085890 0.004749 0.682986
O O11 0.179388 0.956004 0.598008
O O12 0.484777 0.199491 0.110848
O O13 0.575098 0.304355 0.179130
O O14 0.572763 0.038727 0.102367
O O15 0.563723 0.267378 0.000000
O O16 0.887403 0.322414 0.191210
O O17 0.902022 0.318185 0.000000
O O18 0.000000 0.000000 0.218587
O O19 0.287964 0.238389 0.500000
O O20 0.312948 0.207473 0.673173
#
# Coordination Sequence:
#
# PCOD9429368 Si02
#       8
#     8   8   8   8   8   8   8   8
#     4  10  20  35  55  78 102 134 179 227 263 298
#     4  11  22  34  50  76 108 142 181 219 256 308
#     4  10  21  35  49  70 107 146 174 205 258 319
#     4   9  18  35  54  75 104 138 176 219 261 302
#     4   9  18  33  57  81 101 130 175 227 269 307
#     4  12  23  33  49  76 113 148 172 205 259 330
#     4  10  21  36  53  76 106 139 177 220 264 310
#     4  12  20  32  57  80 102 133 179 223 260 310
#
# _framework density 19.753086
#
# number of rings (size 3 to 8) (size 9 to 14) (size 15 to 20)
#    0.000    1.625    1.250    6.000    0.000    6.250 
#    0.000    0.000    0.000    0.750    0.000    1.750 
#    0.000    0.000    0.000    0.000    0.000    0.000 
#
# Total GULP energy -357241.685822 kJ/mol
# GULP energy per Si atom -5581.901341 kJ/mol
# Density = 1.970813 g / cm^3
# Si number density = 19.753086 Si / 1000 Ang^3
#
#
#
# Elastic Constant Matrix: (Units=GPa)
#
#
# Indices 1 2 3 4 5 6 
#
# 1 41.2923 -3.7197 15.0610 0.0000 0.0000 0.0000
# 2 -3.7197 59.2890 14.5651 0.0000 0.0000 0.0000
# 3 15.0610 14.5651 125.2367 0.0000 0.0000 0.0000
# 4 0.0000 0.0000 0.0000 11.0607 0.0000 0.0000
# 5 0.0000 0.0000 0.0000 0.0000 12.7091 0.0000
# 6 0.0000 0.0000 0.0000 0.0000 0.0000 16.8783
#
#
#
# Elastic Compliance Matrix: (Units=1/GPa)
#
#
# Indices 1 2 3 4 5 6 
#
# 1 0.025666 0.002438 -0.003370 0.000000 0.000000 0.000000
# 2 0.002438 0.017594 -0.002339 0.000000 0.000000 0.000000
# 3 -0.003370 -0.002339 0.008662 0.000000 0.000000 0.000000
# 4 0.000000 0.000000 0.000000 0.090411 0.000000 0.000000
# 5 0.000000 0.000000 0.000000 0.000000 0.078684 0.000000
# 6 0.000000 0.000000 0.000000 0.000000 0.000000 0.059248
#
#
# Mechanical properties :
#
#
# Convention : Reuss Voigt Hill
#
# Bulk Modulus (GPa) = 22.03610 30.84786 26.44198
# Shear Modulus (GPa) = 16.55989 21.45706 19.00847
#
# Velocity S-wave (km/s) = 2.89856 3.29943 3.10547
# Velocity P-wave (km/s) = 4.73098 5.49232 5.12581
#
# Compressibility (1/GPa) = 0.04538009
#
# Stress axis : x y z
#
# Youngs Moduli (GPa) = 38.96132 56.83680 115.44326
#
# Poissons Ratio (x) = -0.13858 0.38907
# Poissons Ratio (y) = -0.09500 0.27007
# Poissons Ratio (z) = 0.13131 0.13297
#
# Static dielectric constant tensor:
#      x y z
#    x 1.715130 0.000000 0.000000 
#    y 0.000000 1.767610 0.000000 
#    z 0.000000 0.000000 1.707780 
# 
# From -- ./inp_files/19994.got.cif
#   From: 2010.05.17/outbox.ucp.g08.bks.cvg/sg55_10_cif.got.tgz:19994.got - 2010.06.11 16:36:00.
