data_PCOD9429932
_publ_section_title
;
Structure prediction by ZEFSAII (Michael W. Deem and Ramdas Pophale) SiO2 
 PCOD9429932
Probable space group: P C C N
;
_chemical_formula_sum "Si O2"
_cell_formula_units_Z 44
_cell_length_a 12.090702
_cell_length_b 8.147860
_cell_length_c 19.335553
_cell_angle_alpha 90.000000
_cell_angle_beta 90.000000
_cell_angle_gamma 90.000000
_cell_volume 1904.810046
_symmetry_space_group_name_H-M "P C C N"
_symmetry_group_IT_number 56
_symmetry_cell_setting 'orthorhombic'
loop_
_space_group_symop_operation_xyz
x,y,z
1/2-x,1/2-y,z
1/2+x,-y,1/2-z
-x,1/2+y,1/2-z
-x,-y,-z
1/2+x,1/2+y,-z
1/2-x,y,1/2+z
x,1/2-y,1/2+z
loop_
_atom_site_type_symbol
_atom_site_label
_atom_site_fract_x
_atom_site_fract_y
_atom_site_fract_z
Si Si1 0.525617 0.701094 0.151163
Si Si2 0.183717 0.905985 0.216199
Si Si3 0.420852 0.488810 0.432588
Si Si4 0.250000 0.750000 0.446427
Si Si5 0.250000 0.250000 0.783585
Si Si6 0.250000 0.250000 0.503266
Si Si7 0.360406 0.535709 0.064906
O O1 0.444754 0.648157 0.213066
O O2 0.514514 0.890724 0.127169
O O3 0.650099 0.676268 0.172391
O O4 0.482774 0.591453 0.086854
O O5 0.250000 0.750000 0.245752
O O6 0.209407 0.919038 0.133622
O O7 0.203225 0.088529 0.244604
O O8 0.500000 0.500000 0.500000
O O9 0.349317 0.648033 0.410168
O O10 0.323629 0.367821 0.457176
O O11 0.183082 0.632921 0.499171
O O12 0.162908 0.347685 0.550175
#
# Coordination Sequence:
#
# PCOD9429932 Si02
#       7
#     8   8   8   4   4   4   8
#     4  10  24  41  65  96 138 172 230 291 343 424
#     4  10  23  44  72  91 132 175 235 289 360 411
#     4  11  21  41  63  97 139 178 223 279 338 423
#     4  10  18  38  66  94 136 182 222 274 346 410
#     4  12  26  46  68 102 136 174 236 308 352 422
#     4  10  22  34  68  98 134 178 222 266 338 420
#     4   9  18  39  62  96 125 173 224 275 335 422
#
# _framework density 23.099416000000002
#
# number of rings (size 3 to 8) (size 9 to 14) (size 15 to 20)
#    1.091    0.727    2.727    1.091    5.091    0.727 
#    4.909    0.000    0.000    0.000    0.000    0.000 
#    0.000    0.000    0.000    0.000    0.000    0.000 
#
# Total GULP energy -245250.755375 kJ/mol
# GULP energy per Si atom -5573.880804 kJ/mol
# Density = 2.304684 g / cm^3
# Si number density = 23.099416 Si / 1000 Ang^3
#
#
#
# Elastic Constant Matrix: (Units=GPa)
#
#
# Indices 1 2 3 4 5 6 
#
# 1 142.4388 59.2279 33.5729 0.0000 0.0000 0.0000
# 2 59.2279 136.4014 36.8031 0.0000 0.0000 0.0000
# 3 33.5729 36.8031 38.5537 0.0000 0.0000 0.0000
# 4 0.0000 0.0000 0.0000 2.2963 0.0000 0.0000
# 5 0.0000 0.0000 0.0000 0.0000 29.4017 0.0000
# 6 0.0000 0.0000 0.0000 0.0000 0.0000 51.7718
#
#
#
# Elastic Compliance Matrix: (Units=1/GPa)
#
#
# Indices 1 2 3 4 5 6 
#
# 1 0.009442 -0.002534 -0.005803 0.000000 0.000000 0.000000
# 2 -0.002534 0.010555 -0.007869 0.000000 0.000000 0.000000
# 3 -0.005803 -0.007869 0.038503 0.000000 0.000000 0.000000
# 4 0.000000 0.000000 0.000000 0.435490 0.000000 0.000000
# 5 0.000000 0.000000 0.000000 0.000000 0.034012 0.000000
# 6 0.000000 0.000000 0.000000 0.000000 0.000000 0.019316
#
#
# Mechanical properties :
#
#
# Convention : Reuss Voigt Hill
#
# Bulk Modulus (GPa) = 38.33260 64.06687 51.19973
# Shear Modulus (GPa) = 8.49727 29.21327 18.85527
#
# Velocity S-wave (km/s) = 1.92004 3.56009 2.86014
# Velocity P-wave (km/s) = 4.64177 6.68539 5.75502
#
# Compressibility (1/GPa) = 0.02608746
#
# Stress axis : x y z
#
# Youngs Moduli (GPa) = 105.90857 94.74372 25.97214
#
# Poissons Ratio (x) = 0.24009 0.15072
# Poissons Ratio (y) = 0.26839 0.20437
# Poissons Ratio (z) = 0.61461 0.74552
#
# Static dielectric constant tensor:
#      x y z
#    x 1.902580 0.000000 0.000000 
#    y 0.000000 1.936900 0.000000 
#    z 0.000000 0.000000 1.905660 
# 
# From -- ./inp_files/20870.got.cif
#   From: 2010.05.17/outbox.cif.g08.bks.cpg/sg56_11_cif.got.tgz:20870.got - 2010.06.03 13:42:01.
