data_PCOD9429790
_publ_section_title
;
Structure prediction by ZEFSAII (Michael W. Deem and Ramdas Pophale) SiO2 
 PCOD9429790
Probable space group: P C C N
;
_chemical_formula_sum "Si O2"
_cell_formula_units_Z 56
_cell_length_a 14.671644
_cell_length_b 12.068388
_cell_length_c 17.327307
_cell_angle_alpha 90.000000
_cell_angle_beta 90.000000
_cell_angle_gamma 90.000000
_cell_volume 3068.026560
_symmetry_space_group_name_H-M "P C C N"
_symmetry_group_IT_number 56
_symmetry_cell_setting 'orthorhombic'
loop_
_space_group_symop_operation_xyz
x,y,z
1/2-x,1/2-y,z
1/2+x,-y,1/2-z
-x,1/2+y,1/2-z
-x,-y,-z
1/2+x,1/2+y,-z
1/2-x,y,1/2+z
x,1/2-y,1/2+z
loop_
_atom_site_type_symbol
_atom_site_label
_atom_site_fract_x
_atom_site_fract_y
_atom_site_fract_z
Si Si1 0.750000 0.620882 0.060587
Si Si2 0.441648 0.126047 0.665478
Si Si3 0.400557 0.028930 0.327261
Si Si4 0.750000 0.542113 0.394151
Si Si5 0.250000 0.881722 0.242540
Si Si6 0.900557 0.971070 0.672739
Si Si7 0.941648 0.873953 0.334522
O O1 0.750000 0.750000 0.037405
O O2 0.662073 0.593649 0.112745
O O3 0.837927 0.593649 0.112745
O O4 0.750000 0.542063 0.986116
O O5 0.513296 0.034398 0.637173
O O6 0.341217 0.105259 0.632406
O O7 0.471997 0.250000 0.647697
O O8 0.434079 0.107480 0.757842
O O9 0.336891 0.936308 0.285558
O O10 0.434078 0.107480 0.257842
O O11 0.750000 0.428484 0.345021
O O12 0.658783 0.605259 0.367595
O O13 0.250000 0.750000 0.246147
O O14 0.163109 0.936309 0.285558
O O15 0.986704 0.034398 0.637173
#
# Coordination Sequence:
#
# PCOD9429790 Si02
#       7
#     8   8   8   8   8   8   8
#     4  11  21  37  54  78 112 143 171 215 262 314
#     4  10  18  34  54  77 104 137 177 225 264 304
#     4   9  20  32  54  81 102 133 183 220 262 318
#     4  10  22  34  52  78 108 144 182 208 256 324
#     4   9  17  35  54  74 104 139 175 227 270 304
#     4   9  20  32  54  81 102 133 183 220 262 318
#     4  10  18  34  54  77 104 137 177 225 264 304
#
# _framework density 18.252776000000001
#
# number of rings (size 3 to 8) (size 9 to 14) (size 15 to 20)
#    0.000    2.286    0.000    3.857    0.000    1.143 
#    0.000    5.714    0.000    0.000    0.000    0.000 
#    0.000    0.000    0.000    0.000    0.000    0.000 
#
# Total GULP energy -312388.825868 kJ/mol
# GULP energy per Si atom -5578.371891 kJ/mol
# Density = 1.821123 g / cm^3
# Si number density = 18.252776 Si / 1000 Ang^3
#
#
#
# Elastic Constant Matrix: (Units=GPa)
#
#
# Indices 1 2 3 4 5 6 
#
# 1 95.5415 3.1950 2.3594 0.0000 0.0000 0.0000
# 2 3.1950 63.5518 -1.1583 0.0000 0.0000 0.0000
# 3 2.3594 -1.1583 40.9374 0.0000 0.0000 0.0000
# 4 0.0000 0.0000 0.0000 10.9582 0.0000 0.0000
# 5 0.0000 0.0000 0.0000 0.0000 2.1764 0.0000
# 6 0.0000 0.0000 0.0000 0.0000 0.0000 14.0890
#
#
#
# Elastic Compliance Matrix: (Units=1/GPa)
#
#
# Indices 1 2 3 4 5 6 
#
# 1 0.010500 -0.000539 -0.000620 0.000000 0.000000 0.000000
# 2 -0.000539 0.015771 0.000477 0.000000 0.000000 0.000000
# 3 -0.000620 0.000477 0.024477 0.000000 0.000000 0.000000
# 4 0.000000 0.000000 0.000000 0.091256 0.000000 0.000000
# 5 0.000000 0.000000 0.000000 0.000000 0.459466 0.000000
# 6 0.000000 0.000000 0.000000 0.000000 0.000000 0.070977
#
#
# Mechanical properties :
#
#
# Convention : Reuss Voigt Hill
#
# Bulk Modulus (GPa) = 20.24977 23.20253 21.72615
# Shear Modulus (GPa) = 7.24352 18.48704 12.86528
#
# Velocity S-wave (km/s) = 1.99426 3.18596 2.65776
# Velocity P-wave (km/s) = 4.05227 5.12573 4.62029
#
# Compressibility (1/GPa) = 0.04938327
#
# Stress axis : x y z
#
# Youngs Moduli (GPa) = 95.23806 63.40752 40.85497
#
# Poissons Ratio (x) = 0.03419 0.02535
# Poissons Ratio (y) = 0.05135 -0.01950
# Poissons Ratio (z) = 0.05909 -0.03027
#
# Static dielectric constant tensor:
#      x y z
#    x 1.649190 0.000000 0.000000 
#    y 0.000000 1.594510 0.000000 
#    z 0.000000 0.000000 1.618560 
# 
# From -- ./inp_files/12296.got.cif
#   From: 2010.05.17/outbox.cif.g08.bks.cpg/sg56_7_cif.got.tgz:12296.got - 2010.06.03 13:42:01.
