data_PCOD9429117
_publ_section_title
;
Structure prediction by ZEFSAII (Michael W. Deem and Ramdas Pophale) SiO2 
 PCOD9429117
Probable space group: P B A M
;
_chemical_formula_sum "Si O2"
_cell_formula_units_Z 40
_cell_length_a 17.875372
_cell_length_b 12.536633
_cell_length_c 8.441127
_cell_angle_alpha 90.000000
_cell_angle_beta 90.000000
_cell_angle_gamma 90.000000
_cell_volume 1891.631056
_symmetry_space_group_name_H-M "P B A M"
_symmetry_group_IT_number 55
_symmetry_cell_setting 'orthorhombic'
loop_
_space_group_symop_operation_xyz
x,y,z
-x,-y,z
1/2+x,1/2-y,-z
1/2-x,1/2+y,-z
-x,-y,-z
x,y,-z
1/2-x,1/2+y,z
1/2+x,1/2-y,z
loop_
_atom_site_type_symbol
_atom_site_label
_atom_site_fract_x
_atom_site_fract_y
_atom_site_fract_z
Si Si1 0.584171 0.538756 0.689240
Si Si2 0.870590 0.450449 0.685762
Si Si3 0.122734 0.303024 0.311986
Si Si4 0.786604 0.886034 0.815631
Si Si5 0.538381 0.756717 0.813747
O O1 0.500000 0.500000 0.729767
O O2 0.593444 0.529999 0.500000
O O3 0.646001 0.466204 0.772444
O O4 0.588269 0.661259 0.743672
O O5 0.890812 0.443812 0.500000
O O6 0.877628 0.573349 0.736333
O O7 0.785481 0.414930 0.712849
O O8 0.923074 0.369726 0.780217
O O9 0.136474 0.296934 0.500000
O O10 0.183765 0.231971 0.223702
O O11 0.041362 0.255705 0.273303
O O12 0.767277 0.895139 0.000000
O O13 0.527359 0.740198 0.000000
#
# Coordination Sequence:
#
# PCOD9429117 Si02
#       5
#     8   8   8   8   8
#     4  11  23  42  69  96 130 175 223 268 323 396
#     4  11  26  46  69  95 133 180 224 268 327 401
#     4  11  24  45  70  96 130 176 225 269 326 399
#     4  12  26  43  67  99 136 171 218 279 337 388
#     4  12  25  42  69 102 135 170 218 278 335 388
#
# _framework density 21.145772000000001
#
# number of rings (size 3 to 8) (size 9 to 14) (size 15 to 20)
#    0.000    0.600    2.000    6.000    2.800    6.400 
#    0.000    0.000    0.000    0.000    0.000    0.000 
#    0.000    0.000    0.000    0.000    0.000    0.000 
#
# Total GULP energy -224057.929752 kJ/mol
# GULP energy per Si atom -5601.448244 kJ/mol
# Density = 2.109764 g / cm^3
# Si number density = 21.145772 Si / 1000 Ang^3
#
#
#
# Elastic Constant Matrix: (Units=GPa)
#
#
# Indices 1 2 3 4 5 6 
#
# 1 32.2266 -9.1216 -22.4966 0.0000 0.0000 0.0000
# 2 -9.1216 98.1471 6.6600 0.0000 0.0000 0.0000
# 3 -22.4966 6.6600 37.3556 0.0000 0.0000 0.0000
# 4 0.0000 0.0000 0.0000 45.2832 0.0000 0.0000
# 5 0.0000 0.0000 0.0000 0.0000 84.3663 0.0000
# 6 0.0000 0.0000 0.0000 0.0000 0.0000 -751.4246
#
#
#
# Elastic Compliance Matrix: (Units=1/GPa)
#
#
# Indices 1 2 3 4 5 6 
#
# 1 0.054321 0.002863 0.032203 0.000000 0.000000 0.000000
# 2 0.002863 0.010464 -0.000141 0.000000 0.000000 0.000000
# 3 0.032203 -0.000141 0.046189 0.000000 0.000000 0.000000
# 4 0.000000 0.000000 0.000000 0.022083 0.000000 0.000000
# 5 0.000000 0.000000 0.000000 0.000000 0.011853 0.000000
# 6 0.000000 0.000000 0.000000 0.000000 0.000000 -0.001331
#
#
# Mechanical properties :
#
#
# Convention : Reuss Voigt Hill
#
# Bulk Modulus (GPa) = 5.53023 13.09030 9.31027
# Shear Modulus (GPa) = 37.31228 -111.50919 -37.09846
#
# Velocity S-wave (km/s) = 4.20518 -7.26967 -4.19312
# Velocity P-wave (km/s) = 5.11850 8.01624 4.36240
#
# Compressibility (1/GPa) = 0.18082437
#
# Stress axis : x y z
#
# Youngs Moduli (GPa) = 18.40911 95.56130 21.65033
#
# Poissons Ratio (x) = -0.27362 -0.69721
# Poissons Ratio (y) = -0.05271 0.00306
# Poissons Ratio (z) = -0.59283 0.01350
#
# Static dielectric constant tensor:
#      x y z
#    x 1.725270 0.000000 0.000000 
#    y 0.000000 1.761890 0.000000 
#    z 0.000000 0.000000 1.702980 
# 
# From -- ./inp_files/3622.got.cif
#   From: 2010.05.17/outbox.cif.g08.bks.cpg/sg55_2_cif.got.tgz:3622.got - 2010.06.03 13:27:54.
