data_PCOD9429569
_publ_section_title
;
Structure prediction by ZEFSAII (Michael W. Deem and Ramdas Pophale) SiO2 
 PCOD9429569
Probable space group: P C C N
;
_chemical_formula_sum "Si O2"
_cell_formula_units_Z 52
_cell_length_a 7.089514
_cell_length_b 17.680921
_cell_length_c 17.841265
_cell_angle_alpha 90.000000
_cell_angle_beta 90.000000
_cell_angle_gamma 90.000000
_cell_volume 2236.387170
_symmetry_space_group_name_H-M "P C C N"
_symmetry_group_IT_number 56
_symmetry_cell_setting 'orthorhombic'
loop_
_space_group_symop_operation_xyz
x,y,z
1/2-x,1/2-y,z
1/2+x,-y,1/2-z
-x,1/2+y,1/2-z
-x,-y,-z
1/2+x,1/2+y,-z
1/2-x,y,1/2+z
x,1/2-y,1/2+z
loop_
_atom_site_type_symbol
_atom_site_label
_atom_site_fract_x
_atom_site_fract_y
_atom_site_fract_z
Si Si1 0.397132 0.440911 0.856387
Si Si2 0.850115 0.170365 0.480793
Si Si3 0.231915 0.994801 0.508380
Si Si4 0.926594 0.658945 0.172534
Si Si5 0.750000 0.750000 0.786803
Si Si6 0.077793 0.506097 0.765308
Si Si7 0.116526 0.113578 0.613441
O O1 0.338338 0.478710 0.933755
O O2 0.594280 0.450145 0.815276
O O3 0.021555 0.418986 0.786187
O O4 0.302564 0.490485 0.788117
O O5 0.750000 0.250000 0.493213
O O6 0.725201 0.093178 0.476861
O O7 0.957783 0.173432 0.401874
O O8 0.991929 0.153784 0.549435
O O9 0.262676 0.057829 0.571690
O O10 0.000000 0.000000 0.500000
O O11 0.920116 0.725593 0.232226
O O12 0.709757 0.638835 0.146422
O O13 0.789713 0.677634 0.836906
O O14 0.007636 0.562124 0.831273
#
# Coordination Sequence:
#
# PCOD9429569 Si02
#       7
#     8   8   8   8   4   8   8
#     4  10  18  35  68  88 115 165 216 258 310 396
#     4  11  21  39  64  94 125 164 217 272 320 381
#     4  10  16  37  66  85 111 174 215 240 321 390
#     4  10  21  41  58  88 128 166 205 263 329 384
#     4  12  26  38  60  96 132 160 212 274 334 374
#     4  10  18  37  66  88 117 169 215 253 314 404
#     4  11  19  40  64  85 121 176 207 255 326 389
#
# _framework density 23.251788000000001
#
# number of rings (size 3 to 8) (size 9 to 14) (size 15 to 20)
#    0.923    0.615    9.231    0.000    0.000    1.846 
#    2.769    0.000    0.000    2.769    0.000    0.000 
#    0.000    0.000    0.000    0.000    0.000    0.000 
#
# Total GULP energy -289845.056936 kJ/mol
# GULP energy per Si atom -5573.943403 kJ/mol
# Density = 2.319887 g / cm^3
# Si number density = 23.251788 Si / 1000 Ang^3
#
#
#
# Elastic Constant Matrix: (Units=GPa)
#
#
# Indices 1 2 3 4 5 6 
#
# 1 19.8172 21.8199 16.6554 0.0000 0.0000 0.0000
# 2 21.8199 152.3341 58.9248 0.0000 0.0000 0.0000
# 3 16.6554 58.9248 154.9921 0.0000 0.0000 0.0000
# 4 0.0000 0.0000 0.0000 51.1320 0.0000 0.0000
# 5 0.0000 0.0000 0.0000 0.0000 36.6006 0.0000
# 6 0.0000 0.0000 0.0000 0.0000 0.0000 36.6528
#
#
#
# Elastic Compliance Matrix: (Units=1/GPa)
#
#
# Indices 1 2 3 4 5 6 
#
# 1 0.061800 -0.007367 -0.003840 0.000000 0.000000 0.000000
# 2 -0.007367 0.008574 -0.002468 0.000000 0.000000 0.000000
# 3 -0.003840 -0.002468 0.007803 0.000000 0.000000 0.000000
# 4 0.000000 0.000000 0.000000 0.019557 0.000000 0.000000
# 5 0.000000 0.000000 0.000000 0.000000 0.027322 0.000000
# 6 0.000000 0.000000 0.000000 0.000000 0.000000 0.027283
#
#
# Mechanical properties :
#
#
# Convention : Reuss Voigt Hill
#
# Bulk Modulus (GPa) = 19.67455 57.99371 38.83413
# Shear Modulus (GPa) = 25.42819 40.19330 32.81075
#
# Velocity S-wave (km/s) = 3.31055 4.16217 3.76054
# Velocity P-wave (km/s) = 4.80551 6.93498 5.96602
#
# Compressibility (1/GPa) = 0.05082708
#
# Stress axis : x y z
#
# Youngs Moduli (GPa) = 16.18125 116.62608 128.15595
#
# Poissons Ratio (x) = 0.85913 0.49217
# Poissons Ratio (y) = 0.11920 0.31632
# Poissons Ratio (z) = 0.06214 0.28786
#
# Static dielectric constant tensor:
#      x y z
#    x 3.048070 0.000000 0.000000 
#    y 0.000000 1.814980 0.000000 
#    z 0.000000 0.000000 1.497800 
# 
# From -- ./inp_files/15057.got.cif
#   From: 2010.05.17/outbox.cif.g08.bks.cpg/sg56_8_cif.got.tgz:15057.got - 2010.06.03 13:42:01.
