data_PCOD9429069
_publ_section_title
;
Structure prediction by ZEFSAII (Michael W. Deem and Ramdas Pophale) SiO2 
 PCOD9429069
Probable space group: P B A M
;
_chemical_formula_sum "Si O2"
_cell_formula_units_Z 32
_cell_length_a 8.100065
_cell_length_b 19.042936
_cell_length_c 8.301645
_cell_angle_alpha 90.000000
_cell_angle_beta 90.000000
_cell_angle_gamma 90.000000
_cell_volume 1280.520601
_symmetry_space_group_name_H-M "P B A M"
_symmetry_group_IT_number 55
_symmetry_cell_setting 'orthorhombic'
loop_
_space_group_symop_operation_xyz
x,y,z
-x,-y,z
1/2+x,1/2-y,-z
1/2-x,1/2+y,-z
-x,-y,-z
x,y,-z
1/2-x,1/2+y,z
1/2+x,1/2-y,z
loop_
_atom_site_type_symbol
_atom_site_label
_atom_site_fract_x
_atom_site_fract_y
_atom_site_fract_z
Si Si1 0.056607 0.397501 0.689050
Si Si2 0.057781 0.147108 0.313031
Si Si3 0.251648 0.767921 0.812516
Si Si4 0.744379 0.480646 0.813604
O O1 0.015600 0.393988 0.500000
O O2 0.107701 0.323338 0.760949
O O3 0.212790 0.450238 0.711612
O O4 0.908597 0.433105 0.786929
O O5 0.016197 0.142055 0.500000
O O6 0.217137 0.197907 0.289971
O O7 0.099426 0.070882 0.242808
O O8 0.914961 0.189431 0.222275
O O9 0.262378 0.749857 0.000000
O O10 0.725822 0.499690 0.000000
#
# Coordination Sequence:
#
# PCOD9429069 Si02
#       4
#     8   8   8   8
#     4  11  22  40  64  93 125 163 204 250 302 361
#     4  12  25  43  64  91 123 161 204 253 305 362
#     4  12  25  43  64  91 123 161 204 253 305 362
#     4  11  22  40  64  93 125 163 204 250 302 361
#
# _framework density 24.989836
#
# number of rings (size 3 to 8) (size 9 to 14) (size 15 to 20)
#    0.000    0.500    0.000   12.000    0.000    1.000 
#    0.000    5.000    0.000    0.000    0.000    0.000 
#    0.000    0.000    0.000    0.000    0.000    0.000 
#
# Total GULP energy -179542.463796 kJ/mol
# GULP energy per Si atom -5610.701994 kJ/mol
# Density = 2.493296 g / cm^3
# Si number density = 24.989836 Si / 1000 Ang^3
#
#
#
# Elastic Constant Matrix: (Units=GPa)
#
#
# Indices 1 2 3 4 5 6 
#
# 1 70.7180 -4.4090 -15.7590 0.0000 0.0000 0.0000
# 2 -4.4090 116.0956 -1.2052 0.0000 0.0000 0.0000
# 3 -15.7590 -1.2052 142.5016 0.0000 0.0000 0.0000
# 4 0.0000 0.0000 0.0000 37.4931 0.0000 0.0000
# 5 0.0000 0.0000 0.0000 0.0000 27.7715 0.0000
# 6 0.0000 0.0000 0.0000 0.0000 0.0000 48.7950
#
#
#
# Elastic Compliance Matrix: (Units=1/GPa)
#
#
# Indices 1 2 3 4 5 6 
#
# 1 0.014535 0.000569 0.001612 0.000000 0.000000 0.000000
# 2 0.000569 0.008637 0.000136 0.000000 0.000000 0.000000
# 3 0.001612 0.000136 0.007197 0.000000 0.000000 0.000000
# 4 0.000000 0.000000 0.000000 0.026672 0.000000 0.000000
# 5 0.000000 0.000000 0.000000 0.000000 0.036008 0.000000
# 6 0.000000 0.000000 0.000000 0.000000 0.000000 0.020494
#
#
# Mechanical properties :
#
#
# Convention : Reuss Voigt Hill
#
# Bulk Modulus (GPa) = 28.56912 31.84098 30.20505
# Shear Modulus (GPa) = 41.46754 46.19114 43.82934
#
# Velocity S-wave (km/s) = 4.07796 4.30396 4.19249
# Velocity P-wave (km/s) = 5.79915 6.12111 5.96231
#
# Compressibility (1/GPa) = 0.03500282
#
# Stress axis : x y z
#
# Youngs Moduli (GPa) = 68.79747 115.78624 138.94853
#
# Poissons Ratio (x) = -0.06585 -0.22402
# Poissons Ratio (y) = -0.03913 -0.01889
# Poissons Ratio (z) = -0.11092 -0.01574
#
# Static dielectric constant tensor:
#      x y z
#    x 2.144780 0.000000 0.000000 
#    y 0.000000 1.973910 0.000000 
#    z 0.000000 0.000000 1.803200 
# 
# From -- ./inp_files/2022.got.cif
#   From: 2010.05.17/outbox.cif.g08.bks.cpg/sg55_2_cif.got.tgz:2022.got - 2010.06.03 13:27:54.
