data_PCOD9429818
_publ_section_title
;
Structure prediction by ZEFSAII (Michael W. Deem and Ramdas Pophale) SiO2 
 PCOD9429818
Probable space group: P C C N
;
_chemical_formula_sum "Si O2"
_cell_formula_units_Z 48
_cell_length_a 5.086498
_cell_length_b 15.769918
_cell_length_c 24.509888
_cell_angle_alpha 90.000000
_cell_angle_beta 90.000000
_cell_angle_gamma 90.000000
_cell_volume 1966.027734
_symmetry_space_group_name_H-M "P C C N"
_symmetry_group_IT_number 56
_symmetry_cell_setting 'orthorhombic'
loop_
_space_group_symop_operation_xyz
x,y,z
1/2-x,1/2-y,z
1/2+x,-y,1/2-z
-x,1/2+y,1/2-z
-x,-y,-z
1/2+x,1/2+y,-z
1/2-x,y,1/2+z
x,1/2-y,1/2+z
loop_
_atom_site_type_symbol
_atom_site_label
_atom_site_fract_x
_atom_site_fract_y
_atom_site_fract_z
Si Si1 0.855995 0.115737 0.138389
Si Si2 0.965907 0.478986 0.280261
Si Si3 0.750000 0.750000 0.397521
Si Si4 0.750000 0.250000 0.211864
Si Si5 0.499027 0.688798 0.585023
Si Si6 0.616616 0.344345 0.530611
Si Si7 0.372264 0.335517 0.302606
O O1 0.646551 0.163807 0.178401
O O2 0.768213 0.101310 0.076244
O O3 0.045542 0.197447 0.137452
O O4 0.985045 0.036059 0.166750
O O5 0.157973 0.524828 0.234829
O O6 0.126372 0.392760 0.285817
O O7 0.648074 0.677061 0.437646
O O8 0.545998 0.297445 0.253535
O O9 0.250000 0.750000 0.593829
O O10 0.434723 0.632141 0.531377
O O11 0.509127 0.631868 0.639954
O O12 0.750000 0.750000 0.569274
O O13 0.750000 0.250000 0.529263
O O14 0.250000 0.250000 0.326852
#
# Coordination Sequence:
#
# PCOD9429818 Si02
#       7
#     8   8   4   4   8   8   8
#     4  11  23  37  65  99 132 175 220 282 336 398
#     4  12  28  46  65  98 143 179 222 281 345 405
#     4  10  18  34  62  94 124 164 218 270 326 392
#     4  12  20  38  60  96 124 168 228 264 328 400
#     4  10  20  37  63  94 127 168 227 275 326 394
#     4   9  18  34  58  94 124 166 217 279 327 386
#     4  11  25  42  68  92 133 179 228 274 334 410
#
# _framework density 24.414708000000001
#
# number of rings (size 3 to 8) (size 9 to 14) (size 15 to 20)
#    0.000    1.333    5.833    1.000    3.500    0.000 
#    0.000    0.833    0.000    1.000    0.000    0.000 
#    0.000    0.000    0.000    0.000    0.000    0.000 
#
# Total GULP energy -267264.747505 kJ/mol
# GULP energy per Si atom -5568.015573 kJ/mol
# Density = 2.435914 g / cm^3
# Si number density = 24.414708 Si / 1000 Ang^3
#
#
#
# Elastic Constant Matrix: (Units=GPa)
#
#
# Indices 1 2 3 4 5 6 
#
# 1 52.1200 -28.2087 -17.8689 0.0000 0.0000 0.0000
# 2 -28.2087 29.3304 -7.9557 0.0000 0.0000 0.0000
# 3 -17.8689 -7.9557 156.6977 0.0000 0.0000 0.0000
# 4 0.0000 0.0000 0.0000 0.0031 0.0000 0.0000
# 5 0.0000 0.0000 0.0000 0.0000 20.3291 0.0000
# 6 0.0000 0.0000 0.0000 0.0000 0.0000 15.2867
#
#
#
# Elastic Compliance Matrix: (Units=1/GPa)
#
#
# Indices 1 2 3 4 5 6 
#
# 1 0.048133 0.048448 0.007949 0.000000 0.000000 0.000000
# 2 0.048448 0.083336 0.009756 0.000000 0.000000 0.000000
# 3 0.007949 0.009756 0.007783 0.000000 0.000000 0.000000
# 4 0.000000 0.000000 0.000000317.853337 0.000000 0.000000
# 5 0.000000 0.000000 0.000000 0.000000 0.049190 0.000000
# 6 0.000000 0.000000 0.000000 0.000000 0.000000 0.065416
#
#
# Mechanical properties :
#
#
# Convention : Reuss Voigt Hill
#
# Bulk Modulus (GPa) = 3.68247 14.45350 9.06799
# Shear Modulus (GPa) = 0.01572 26.60256 13.30914
#
# Velocity S-wave (km/s) = 0.08033 3.30451 2.33733
# Velocity P-wave (km/s) = 1.23295 4.52687 3.31758
#
# Compressibility (1/GPa) = 0.27155702
#
# Stress axis : x y z
#
# Youngs Moduli (GPa) = 20.77579 11.99966 128.47799
#
# Poissons Ratio (x) = -0.58136 -1.02122
# Poissons Ratio (y) = -1.00655 -1.25340
# Poissons Ratio (z) = -0.16514 -0.11707
#
# Static dielectric constant tensor:
#      x y z
#    x 2.291020 0.000000 0.000000 
#    y 0.000000 1.992740 0.000000 
#    z 0.000000 0.000000 2.128030 
# 
# From -- ./inp_files/20083.got.cif
#   From: 2010.05.17/outbox.cif.g08.bks.cpg/sg56_11_cif.got.tgz:20083.got - 2010.06.03 13:42:01.
