data_PCOD9429905
_publ_section_title
;
Structure prediction by ZEFSAII (Michael W. Deem and Ramdas Pophale) SiO2 
 PCOD9429905
Probable space group: P C C N
;
_chemical_formula_sum "Si O2"
_cell_formula_units_Z 60
_cell_length_a 10.764290
_cell_length_b 26.220054
_cell_length_c 9.486444
_cell_angle_alpha 90.000000
_cell_angle_beta 90.000000
_cell_angle_gamma 90.000000
_cell_volume 2677.456469
_symmetry_space_group_name_H-M "P C C N"
_symmetry_group_IT_number 56
_symmetry_cell_setting 'orthorhombic'
loop_
_space_group_symop_operation_xyz
x,y,z
1/2-x,1/2-y,z
1/2+x,-y,1/2-z
-x,1/2+y,1/2-z
-x,-y,-z
1/2+x,1/2+y,-z
1/2-x,y,1/2+z
x,1/2-y,1/2+z
loop_
_atom_site_type_symbol
_atom_site_label
_atom_site_fract_x
_atom_site_fract_y
_atom_site_fract_z
Si Si1 0.943252 0.895981 0.578744
Si Si2 0.750000 0.750000 0.344275
Si Si3 0.390144 0.553361 0.776847
Si Si4 0.937970 0.304109 0.372575
Si Si5 0.013100 0.790206 0.453366
Si Si6 0.669521 0.408709 0.912205
Si Si7 0.797008 0.847497 0.172120
Si Si8 0.055116 0.060958 0.706287
O O1 0.012177 0.844049 0.532771
O O2 0.800323 0.878552 0.580640
O O3 0.971989 0.937737 0.459513
O O4 0.981639 0.919377 0.729260
O O5 0.871415 0.768925 0.428517
O O6 0.726844 0.800172 0.247547
O O7 0.295568 0.575655 0.662176
O O8 0.393691 0.492833 0.756856
O O9 0.351395 0.567473 0.934546
O O10 0.846293 0.348047 0.422034
O O11 0.933714 0.296829 0.203961
O O12 0.919658 0.252031 0.454384
O O13 0.080138 0.324050 0.400293
O O14 0.562867 0.427109 0.803806
O O15 0.854524 0.890517 0.273591
#
# Coordination Sequence:
#
# PCOD9429905 Si02
#       8
#     8   4   8   8   8   8   8   8
#     4  12  23  42  69 103 141 184 230 282 348 414
#     4  10  18  38  60 104 144 182 212 280 350 422
#     4  12  29  44  78  92 142 189 234 292 349 406
#     4  10  23  42  70  98 148 174 232 289 342 425
#     4  11  21  39  66 101 139 183 222 282 348 414
#     4  11  26  51  69 102 135 180 239 288 346 413
#     4  10  22  36  66 105 146 176 224 277 349 412
#     4  11  25  47  68 106 137 184 232 296 334 425
#
# _framework density 22.409327000000001
#
# number of rings (size 3 to 8) (size 9 to 14) (size 15 to 20)
#    0.000    1.067    4.000    4.000    7.467    1.600 
#    0.000    0.667    0.000    0.000    0.000    0.000 
#    0.000    0.000    0.000    0.000    0.000    0.000 
#
# Total GULP energy -335544.576499 kJ/mol
# GULP energy per Si atom -5592.409608 kJ/mol
# Density = 2.235832 g / cm^3
# Si number density = 22.409327 Si / 1000 Ang^3
#
#
#
# Elastic Constant Matrix: (Units=GPa)
#
#
# Indices 1 2 3 4 5 6 
#
# 1 24.0298 12.4439 14.7249 0.0000 0.0000 0.0000
# 2 12.4439 99.0951 -7.1584 0.0000 0.0000 0.0000
# 3 14.7249 -7.1584 43.7361 0.0000 0.0000 0.0000
# 4 0.0000 0.0000 0.0000 34.9195 0.0000 0.0000
# 5 0.0000 0.0000 0.0000 0.0000 20.7128 0.0000
# 6 0.0000 0.0000 0.0000 0.0000 0.0000 17.5506
#
#
#
# Elastic Compliance Matrix: (Units=1/GPa)
#
#
# Indices 1 2 3 4 5 6 
#
# 1 0.059456 -0.009019 -0.021494 0.000000 0.000000 0.000000
# 2 -0.009019 0.011580 0.004932 0.000000 0.000000 0.000000
# 3 -0.021494 0.004932 0.030908 0.000000 0.000000 0.000000
# 4 0.000000 0.000000 0.000000 0.028637 0.000000 0.000000
# 5 0.000000 0.000000 0.000000 0.000000 0.048279 0.000000
# 6 0.000000 0.000000 0.000000 0.000000 0.000000 0.056978
#
#
# Mechanical properties :
#
#
# Convention : Reuss Voigt Hill
#
# Bulk Modulus (GPa) = 19.69168 22.98688 21.33928
# Shear Modulus (GPa) = 16.45125 24.42662 20.43894
#
# Velocity S-wave (km/s) = 2.71241 3.30513 3.02333
# Velocity P-wave (km/s) = 4.31462 4.98449 4.66160
#
# Compressibility (1/GPa) = 0.05078286
#
# Stress axis : x y z
#
# Youngs Moduli (GPa) = 16.81909 86.35482 32.35407
#
# Poissons Ratio (x) = 0.77883 0.69541
# Poissons Ratio (y) = 0.15169 -0.15956
# Poissons Ratio (z) = 0.36150 -0.42588
#
# Static dielectric constant tensor:
#      x y z
#    x 1.896340 0.000000 0.000000 
#    y 0.000000 1.806150 0.000000 
#    z 0.000000 0.000000 1.852840 
# 
# From -- ./inp_files/2902.got.cif
#   From: 2010.05.17/outbox.cif.g08.bks.cpg/sg56_2_cif.got.tgz:2902.got - 2010.06.03 13:42:01.
