data_PCOD9429675
_publ_section_title
;
Structure prediction by ZEFSAII (Michael W. Deem and Ramdas Pophale) SiO2 
 PCOD9429675
Probable space group: P C C N
;
_chemical_formula_sum "Si O2"
_cell_formula_units_Z 60
_cell_length_a 24.704065
_cell_length_b 5.241094
_cell_length_c 27.411384
_cell_angle_alpha 90.000000
_cell_angle_beta 90.000000
_cell_angle_gamma 90.000000
_cell_volume 3549.125314
_symmetry_space_group_name_H-M "P C C N"
_symmetry_group_IT_number 56
_symmetry_cell_setting 'orthorhombic'
loop_
_space_group_symop_operation_xyz
x,y,z
1/2-x,1/2-y,z
1/2+x,-y,1/2-z
-x,1/2+y,1/2-z
-x,-y,-z
1/2+x,1/2+y,-z
1/2-x,y,1/2+z
x,1/2-y,1/2+z
loop_
_atom_site_type_symbol
_atom_site_label
_atom_site_fract_x
_atom_site_fract_y
_atom_site_fract_z
Si Si1 0.644198 0.958204 0.644485
Si Si2 0.512904 0.326508 0.313313
Si Si3 0.750000 0.750000 0.642017
Si Si4 0.441572 0.014707 0.524749
Si Si5 0.094336 0.158459 0.440771
Si Si6 0.468977 0.522130 0.577093
Si Si7 0.695967 0.155706 0.068113
Si Si8 0.446407 0.676217 0.790313
O O1 0.697795 0.849783 0.670525
O O2 0.607685 0.757057 0.614035
O O3 0.608186 0.117857 0.681166
O O4 0.669253 0.126528 0.601119
O O5 0.533778 0.398177 0.366573
O O6 0.554508 0.351922 0.268180
O O7 0.487991 0.042055 0.309996
O O8 0.467721 0.541541 0.301800
O O9 0.722342 0.543422 0.606384
O O10 0.405281 0.113918 0.480266
O O11 0.446933 0.242340 0.564297
O O12 0.500000 0.000000 0.500000
O O13 0.435225 0.736936 0.547837
O O14 0.033350 0.040880 0.438656
O O15 0.144213 0.977957 0.455844
O O16 0.750000 0.250000 0.039730
#
# Coordination Sequence:
#
# PCOD9429675 Si02
#       8
#     8   8   4   8   8   8   8   8
#     4  10  18  29  50  67  99 135 159 199 249 296
#     4  10  20  33  48  70  99 133 171 205 234 289
#     4   8  18  32  40  72  96 126 158 200 242 302
#     4  10  22  31  45  70  96 132 173 200 232 286
#     4  10  19  28  47  66  96 131 166 196 243 291
#     4  11  20  33  47  67 101 136 168 203 238 275
#     4   9  18  30  47  67  96 128 157 199 248 304
#     4  10  20  32  49  73  96 132 172 197 241 297
#
# _framework density 16.905574999999999
#
# number of rings (size 3 to 8) (size 9 to 14) (size 15 to 20)
#    0.000    2.133    1.333    3.200    9.333    0.000 
#    0.000    0.000    0.000    0.000    0.000    0.000 
#    0.000    9.600    0.000    0.000    0.000    0.000 
#
# Total GULP energy -334046.986640 kJ/mol
# GULP energy per Si atom -5567.449777 kJ/mol
# Density = 1.686710 g / cm^3
# Si number density = 16.905575 Si / 1000 Ang^3
#
#
#
# Elastic Constant Matrix: (Units=GPa)
#
#
# Indices 1 2 3 4 5 6 
#
# 1 79.8175 13.3068 16.3749 0.0000 0.0000 0.0000
# 2 13.3068 50.9989 -6.2073 0.0000 0.0000 0.0000
# 3 16.3749 -6.2073 65.2124 0.0000 0.0000 0.0000
# 4 0.0000 0.0000 0.0000 19.6082 0.0000 0.0000
# 5 0.0000 0.0000 0.0000 0.0000 9.4547 0.0000
# 6 0.0000 0.0000 0.0000 0.0000 0.0000 28.6283
#
#
#
# Elastic Compliance Matrix: (Units=1/GPa)
#
#
# Indices 1 2 3 4 5 6 
#
# 1 0.014021 -0.004135 -0.003914 0.000000 0.000000 0.000000
# 2 -0.004135 0.021057 0.003043 0.000000 0.000000 0.000000
# 3 -0.003914 0.003043 0.016607 0.000000 0.000000 0.000000
# 4 0.000000 0.000000 0.000000 0.050999 0.000000 0.000000
# 5 0.000000 0.000000 0.000000 0.000000 0.105768 0.000000
# 6 0.000000 0.000000 0.000000 0.000000 0.000000 0.034930
#
#
# Mechanical properties :
#
#
# Convention : Reuss Voigt Hill
#
# Bulk Modulus (GPa) = 23.99661 26.99751 25.49706
# Shear Modulus (GPa) = 18.70653 23.04185 20.87419
#
# Velocity S-wave (km/s) = 3.33006 3.69585 3.51772
# Velocity P-wave (km/s) = 5.38619 5.84950 5.62262
#
# Compressibility (1/GPa) = 0.04167255
#
# Stress axis : x y z
#
# Youngs Moduli (GPa) = 71.32191 47.48906 60.21557
#
# Poissons Ratio (x) = 0.19636 0.23570
# Poissons Ratio (y) = 0.29490 -0.18321
# Poissons Ratio (z) = 0.27917 -0.14449
#
# Static dielectric constant tensor:
#      x y z
#    x 1.628630 0.000000 0.000000 
#    y 0.000000 1.678840 0.000000 
#    z 0.000000 0.000000 1.582380 
# 
# From -- ./inp_files/21383.got.cif
#   From: 2010.05.17/outbox.cif.g08.bks.cpg/sg56_11_cif.got.tgz:21383.got - 2010.06.03 13:42:01.
