data_PCOD9429951
_publ_section_title
;
Structure prediction by ZEFSAII (Michael W. Deem and Ramdas Pophale) SiO2 
 PCOD9429951
Probable space group: P C C N
;
_chemical_formula_sum "Si O2"
_cell_formula_units_Z 36
_cell_length_a 8.622051
_cell_length_b 15.189897
_cell_length_c 9.744739
_cell_angle_alpha 90.000000
_cell_angle_beta 90.000000
_cell_angle_gamma 90.000000
_cell_volume 1276.249627
_symmetry_space_group_name_H-M "P C C N"
_symmetry_group_IT_number 56
_symmetry_cell_setting 'orthorhombic'
loop_
_space_group_symop_operation_xyz
x,y,z
1/2-x,1/2-y,z
1/2+x,-y,1/2-z
-x,1/2+y,1/2-z
-x,-y,-z
1/2+x,1/2+y,-z
1/2-x,y,1/2+z
x,1/2-y,1/2+z
loop_
_atom_site_type_symbol
_atom_site_label
_atom_site_fract_x
_atom_site_fract_y
_atom_site_fract_z
Si Si1 0.750000 0.750000 0.594610
Si Si2 0.700488 0.910136 0.000224
Si Si3 0.449734 0.857095 0.408766
Si Si4 0.000852 0.998124 0.288331
Si Si5 0.446049 0.693534 0.206968
O O1 0.864923 0.809922 0.504522
O O2 0.866135 0.697647 0.690877
O O3 0.872494 0.881365 0.955151
O O4 0.633658 0.981798 0.899148
O O5 0.632817 0.940411 0.146849
O O6 0.421311 0.953256 0.340685
O O7 0.413484 0.783034 0.292267
O O8 0.379207 0.822919 0.552664
O O9 0.076162 0.901880 0.273384
#
# Coordination Sequence:
#
# PCOD9429951 Si02
#       5
#     4   8   8   8   8
#     4  10  18  40  64 106 126 174 222 296 330 386
#     4  10  22  37  65  99 138 170 222 284 337 395
#     4  11  24  42  65 105 136 177 223 288 334 406
#     4  11  22  39  62 102 135 179 221 276 346 403
#     4  11  22  38  66  98 136 168 222 276 345 386
#
# _framework density 28.207646
#
# number of rings (size 3 to 8) (size 9 to 14) (size 15 to 20)
#    0.000    1.333    2.222    4.667    6.222    0.889 
#    0.000    0.000    0.000    1.333   11.556    0.000 
#    0.000    0.000    0.000    0.000    0.000    0.000 
#
# Total GULP energy -200633.340345 kJ/mol
# GULP energy per Si atom -5573.148343 kJ/mol
# Density = 2.814344 g / cm^3
# Si number density = 28.207646 Si / 1000 Ang^3
#
#
#
# Elastic Constant Matrix: (Units=GPa)
#
#
# Indices 1 2 3 4 5 6 
#
# 1 73.7907 24.2892 -0.2354 0.0000 0.0000 0.0000
# 2 24.2892 163.1832 35.8782 0.0000 0.0000 0.0000
# 3 -0.2354 35.8782 134.6406 0.0000 0.0000 0.0000
# 4 0.0000 0.0000 0.0000 46.7220 0.0000 0.0000
# 5 0.0000 0.0000 0.0000 0.0000 17.9285 0.0000
# 6 0.0000 0.0000 0.0000 0.0000 0.0000 53.6361
#
#
#
# Elastic Compliance Matrix: (Units=1/GPa)
#
#
# Indices 1 2 3 4 5 6 
#
# 1 0.014300 -0.002267 0.000629 0.000000 0.000000 0.000000
# 2 -0.002267 0.006869 -0.001834 0.000000 0.000000 0.000000
# 3 0.000629 -0.001834 0.007917 0.000000 0.000000 0.000000
# 4 0.000000 0.000000 0.000000 0.021403 0.000000 0.000000
# 5 0.000000 0.000000 0.000000 0.000000 0.055777 0.000000
# 6 0.000000 0.000000 0.000000 0.000000 0.000000 0.018644
#
#
# Mechanical properties :
#
#
# Convention : Reuss Voigt Hill
#
# Bulk Modulus (GPa) = 45.16364 54.60873 49.88618
# Shear Modulus (GPa) = 35.91049 44.43616 40.17332
#
# Velocity S-wave (km/s) = 3.57189 3.97334 3.77795
# Velocity P-wave (km/s) = 5.74953 6.36015 6.06253
#
# Compressibility (1/GPa) = 0.02214171
#
# Stress axis : x y z
#
# Youngs Moduli (GPa) = 69.93007 145.58607 126.30925
#
# Poissons Ratio (x) = 0.33002 -0.07945
# Poissons Ratio (y) = 0.15852 0.23169
# Poissons Ratio (z) = -0.04399 0.26705
#
# Static dielectric constant tensor:
#      x y z
#    x 2.339530 0.000000 0.000000 
#    y 0.000000 2.384380 0.000000 
#    z 0.000000 0.000000 2.420620 
# 
# From -- ./inp_files/6942.got.cif
#   From: 2010.05.17/outbox.cif.g08.bks.cpg/sg56_4_cif.got.tgz:6942.got - 2010.06.03 13:42:01.
