data_PCOD9429509
_publ_section_title
;
Structure prediction by ZEFSAII (Michael W. Deem and Ramdas Pophale) SiO2 
 PCOD9429509
Probable space group: P C C N
;
_chemical_formula_sum "Si O2"
_cell_formula_units_Z 40
_cell_length_a 11.698489
_cell_length_b 7.664520
_cell_length_c 19.208431
_cell_angle_alpha 90.000000
_cell_angle_beta 90.000000
_cell_angle_gamma 90.000000
_cell_volume 1722.291367
_symmetry_space_group_name_H-M "P C C N"
_symmetry_group_IT_number 56
_symmetry_cell_setting 'orthorhombic'
loop_
_space_group_symop_operation_xyz
x,y,z
1/2-x,1/2-y,z
1/2+x,-y,1/2-z
-x,1/2+y,1/2-z
-x,-y,-z
1/2+x,1/2+y,-z
1/2-x,y,1/2+z
x,1/2-y,1/2+z
loop_
_atom_site_type_symbol
_atom_site_label
_atom_site_fract_x
_atom_site_fract_y
_atom_site_fract_z
Si Si1 0.408535 0.832795 0.377501
Si Si2 0.938988 0.799572 0.159346
Si Si3 0.627748 0.051324 0.234690
Si Si4 0.082855 0.657509 0.527676
Si Si5 0.179715 0.080598 0.128506
O O1 0.361274 0.703612 0.320444
O O2 0.386882 0.757281 0.454658
O O3 0.547004 0.853634 0.368301
O O4 0.365296 0.032470 0.365781
O O5 0.887069 0.628451 0.192958
O O6 0.013939 0.750566 0.090433
O O7 0.018527 0.881256 0.220151
O O8 0.714038 0.006770 0.297936
O O9 0.185311 0.561162 0.567609
O O10 0.000000 0.500000 0.500000
O O11 0.250000 0.250000 0.113088
#
# Coordination Sequence:
#
# PCOD9429509 Si02
#       5
#     8   8   8   8   8
#     4   9  17  31  52  76 100 144 192 225 259 335
#     4   9  15  26  45  74 100 131 180 226 260 310
#     4  10  16  27  50  75 101 139 183 220 266 338
#     4   7  15  29  47  73 103 138 183 227 266 323
#     4   9  17  29  50  82 112 139 178 234 289 317
#
# _framework density 23.224874
#
# number of rings (size 3 to 8) (size 9 to 14) (size 15 to 20)
#    0.000    4.000    4.000    0.000    0.000    0.800 
#    0.000    0.000    0.000   30.000    0.000    8.400 
#    0.000    0.000    0.000    3.000    0.000    0.000 
#
# Total GULP energy -222825.028725 kJ/mol
# GULP energy per Si atom -5570.625718 kJ/mol
# Density = 2.317201 g / cm^3
# Si number density = 23.224874 Si / 1000 Ang^3
#
#
#
# Elastic Constant Matrix: (Units=GPa)
#
#
# Indices 1 2 3 4 5 6 
#
# 1 49.4997 21.5414 15.0298 0.0000 0.0000 0.0000
# 2 21.5414 67.1895 54.5091 0.0000 0.0000 0.0000
# 3 15.0298 54.5091 225.0493 0.0000 0.0000 0.0000
# 4 0.0000 0.0000 0.0000 17.6948 0.0000 0.0000
# 5 0.0000 0.0000 0.0000 0.0000 -3.1194 0.0000
# 6 0.0000 0.0000 0.0000 0.0000 0.0000 13.7629
#
#
#
# Elastic Compliance Matrix: (Units=1/GPa)
#
#
# Indices 1 2 3 4 5 6 
#
# 1 0.023496 -0.007791 0.000318 0.000000 0.000000 0.000000
# 2 -0.007791 0.021106 -0.004592 0.000000 0.000000 0.000000
# 3 0.000318 -0.004592 0.005534 0.000000 0.000000 0.000000
# 4 0.000000 0.000000 0.000000 0.056514 0.000000 0.000000
# 5 0.000000 0.000000 0.000000 0.000000 -0.320574 0.000000
# 6 0.000000 0.000000 0.000000 0.000000 0.000000 0.072659
#
#
# Mechanical properties :
#
#
# Convention : Reuss Voigt Hill
#
# Bulk Modulus (GPa) = 38.45102 58.21102 48.33102
# Shear Modulus (GPa) = -46.09754 22.37821 -11.85967
#
# Velocity S-wave (km/s) = -4.45998 3.10747 -2.26220
# Velocity P-wave (km/s) = 3.15119 6.16390 3.74591
#
# Compressibility (1/GPa) = 0.02600711
#
# Stress axis : x y z
#
# Youngs Moduli (GPa) = 42.56025 47.37920 180.68708
#
# Poissons Ratio (x) = 0.36913 -0.05743
# Poissons Ratio (y) = 0.33158 0.82969
# Poissons Ratio (z) = -0.01353 0.21756
#
# Static dielectric constant tensor:
#      x y z
#    x 1.964220 0.000000 0.000000 
#    y 0.000000 2.080250 0.000000 
#    z 0.000000 0.000000 1.953240 
# 
# From -- ./inp_files/16063.got.cif
#   From: 2010.05.17/outbox.cif.g08.bks.cpg/sg56_9_cif.got.tgz:16063.got - 2010.06.03 13:42:01.
