data_PCOD9429525
_publ_section_title
;
Structure prediction by ZEFSAII (Michael W. Deem and Ramdas Pophale) SiO2 
 PCOD9429525
Probable space group: P C C N
;
_chemical_formula_sum "Si O2"
_cell_formula_units_Z 60
_cell_length_a 27.540105
_cell_length_b 12.325967
_cell_length_c 8.501433
_cell_angle_alpha 90.000000
_cell_angle_beta 90.000000
_cell_angle_gamma 90.000000
_cell_volume 2885.883060
_symmetry_space_group_name_H-M "P C C N"
_symmetry_group_IT_number 56
_symmetry_cell_setting 'orthorhombic'
loop_
_space_group_symop_operation_xyz
x,y,z
1/2-x,1/2-y,z
1/2+x,-y,1/2-z
-x,1/2+y,1/2-z
-x,-y,-z
1/2+x,1/2+y,-z
1/2-x,y,1/2+z
x,1/2-y,1/2+z
loop_
_atom_site_type_symbol
_atom_site_label
_atom_site_fract_x
_atom_site_fract_y
_atom_site_fract_z
Si Si1 0.250000 0.250000 0.049770
Si Si2 0.061204 0.667184 0.397303
Si Si3 0.476605 0.157412 0.160085
Si Si4 0.345415 0.603560 0.313092
Si Si5 0.310180 0.128687 0.804132
Si Si6 0.579667 0.813352 0.159707
Si Si7 0.948323 0.481951 0.317782
Si Si8 0.369091 0.805637 0.126024
O O1 0.208361 0.197487 0.156590
O O2 0.272621 0.156754 0.941274
O O3 0.017951 0.747553 0.346263
O O4 0.046095 0.568437 0.509262
O O5 0.095349 0.636333 0.250594
O O6 0.095279 0.738520 0.511489
O O7 0.437738 0.194991 0.289788
O O8 0.505202 0.051503 0.215264
O O9 0.449573 0.150149 0.994406
O O10 0.314475 0.498740 0.266575
O O11 0.401040 0.572702 0.266038
O O12 0.337236 0.716878 0.221276
O O13 0.341562 0.619663 0.501125
O O14 0.363240 0.170189 0.857230
O O15 0.563548 0.892156 0.303109
#
# Coordination Sequence:
#
# PCOD9429525 Si02
#       8
#     4   8   8   8   8   8   8   8
#     4  10  22  46  78  80 112 146 186 258 330 384
#     4  10  16  30  51  72 112 165 214 213 272 317
#     4  12  19  35  50  74 121 165 192 240 276 321
#     4   9  18  33  60  90 123 152 205 236 281 360
#     4  10  22  44  65  94 107 147 200 253 318 363
#     4  11  24  35  55  82 119 146 203 253 279 341
#     4  10  20  35  49  77 115 169 205 239 273 328
#     4   9  15  30  55  84 119 163 187 240 271 334
#
# _framework density 20.790863000000002
#
# number of rings (size 3 to 8) (size 9 to 14) (size 15 to 20)
#    0.000    1.867    5.333    1.200    0.000    0.533 
#    0.000   12.000    0.000    2.400    0.000    0.000 
#    0.000    0.000    0.000    0.000    0.000    0.000 
#
# Total GULP energy -334935.845858 kJ/mol
# GULP energy per Si atom -5582.264098 kJ/mol
# Density = 2.074354 g / cm^3
# Si number density = 20.790863 Si / 1000 Ang^3
#
#
#
# Elastic Constant Matrix: (Units=GPa)
#
#
# Indices 1 2 3 4 5 6 
#
# 1 33.6090 20.9630 2.6786 0.0000 0.0000 0.0000
# 2 20.9630 40.6244 4.5592 0.0000 0.0000 0.0000
# 3 2.6786 4.5592 77.3034 0.0000 0.0000 0.0000
# 4 0.0000 0.0000 0.0000 21.3336 0.0000 0.0000
# 5 0.0000 0.0000 0.0000 0.0000 6.8024 0.0000
# 6 0.0000 0.0000 0.0000 0.0000 0.0000 31.0717
#
#
#
# Elastic Compliance Matrix: (Units=1/GPa)
#
#
# Indices 1 2 3 4 5 6 
#
# 1 0.043878 -0.022621 -0.000186 0.000000 0.000000 0.000000
# 2 -0.022621 0.036442 -0.001365 0.000000 0.000000 0.000000
# 3 -0.000186 -0.001365 0.013023 0.000000 0.000000 0.000000
# 4 0.000000 0.000000 0.000000 0.046874 0.000000 0.000000
# 5 0.000000 0.000000 0.000000 0.000000 0.147008 0.000000
# 6 0.000000 0.000000 0.000000 0.000000 0.000000 0.032184
#
#
# Mechanical properties :
#
#
# Convention : Reuss Voigt Hill
#
# Bulk Modulus (GPa) = 22.22343 23.10428 22.66385
# Shear Modulus (GPa) = 13.06321 20.06393 16.56357
#
# Velocity S-wave (km/s) = 2.50934 3.10987 2.82561
# Velocity P-wave (km/s) = 4.37127 4.90224 4.64434
#
# Compressibility (1/GPa) = 0.04499756
#
# Stress axis : x y z
#
# Youngs Moduli (GPa) = 22.79025 27.44089 76.78705
#
# Poissons Ratio (x) = 0.62075 0.01430
# Poissons Ratio (y) = 0.51554 0.10485
# Poissons Ratio (z) = 0.00424 0.03747
#
# Static dielectric constant tensor:
#      x y z
#    x 1.740720 0.000000 0.000000 
#    y 0.000000 1.799000 0.000000 
#    z 0.000000 0.000000 1.755690 
# 
# From -- ./inp_files/5198.got.cif
#   From: 2010.05.17/outbox.cif.g08.bks.cpg/sg56_3_cif.got.tgz:5198.got - 2010.06.03 13:42:01.
