data_PCOD9429046
_publ_section_title
;
Structure prediction by ZEFSAII (Michael W. Deem and Ramdas Pophale) SiO2 
 PCOD9429046
Probable space group: P B A M
;
_chemical_formula_sum "Si O2"
_cell_formula_units_Z 64
_cell_length_a 19.373184
_cell_length_b 19.221045
_cell_length_c 8.834534
_cell_angle_alpha 90.000000
_cell_angle_beta 90.000000
_cell_angle_gamma 90.000000
_cell_volume 3289.740529
_symmetry_space_group_name_H-M "P B A M"
_symmetry_group_IT_number 55
_symmetry_cell_setting 'orthorhombic'
loop_
_space_group_symop_operation_xyz
x,y,z
-x,-y,z
1/2+x,1/2-y,-z
1/2-x,1/2+y,-z
-x,-y,-z
x,y,-z
1/2-x,1/2+y,z
1/2+x,1/2-y,z
loop_
_atom_site_type_symbol
_atom_site_label
_atom_site_fract_x
_atom_site_fract_y
_atom_site_fract_z
Si Si1 0.265001 0.728346 0.828668
Si Si2 0.607127 0.535682 0.681769
Si Si3 0.370272 0.854058 0.826538
Si Si4 0.745131 0.043713 0.179722
Si Si5 0.369846 0.227047 0.324346
Si Si6 0.774795 0.398721 0.327059
Si Si7 0.537643 0.391674 0.682368
Si Si8 0.481803 0.755086 0.817849
O O1 0.323978 0.784579 0.831447
O O2 0.195311 0.761721 0.759514
O O3 0.278501 0.661217 0.725086
O O4 0.250918 0.704779 0.000000
O O5 0.612708 0.536839 0.500000
O O6 0.679513 0.558470 0.751733
O O7 0.587366 0.456040 0.726044
O O8 0.540532 0.582591 0.721228
O O9 0.319205 0.911141 0.757155
O O10 0.440785 0.823618 0.759444
O O11 0.385010 0.876758 0.000000
O O12 0.728926 0.963988 0.219360
O O13 0.748584 0.055999 0.000000
O O14 0.373401 0.247853 0.500000
O O15 0.346011 0.145625 0.318361
O O16 0.440514 0.241027 0.241575
O O17 0.762100 0.419785 0.500000
O O18 0.541071 0.384593 0.500000
O O19 0.549553 0.317559 0.759011
O O20 0.479136 0.755525 0.000000
#
# Coordination Sequence:
#
# PCOD9429046 Si02
#       8
#     8   8   8   8   8   8   8   8
#     4   9  17  35  61  85 113 149 192 239 288 347
#     4   9  20  38  57  81 117 155 189 233 291 354
#     4   9  22  39  54  84 122 151 191 246 299 347
#     4  11  22  37  59  84 116 154 194 243 294 347
#     4   9  20  37  57  83 113 145 189 237 284 346
#     4   9  20  37  57  83 113 145 189 237 284 346
#     4   9  20  38  57  81 117 155 189 233 291 354
#     4  11  22  37  59  84 116 154 194 243 294 347
#
# _framework density 19.454422000000001
#
# number of rings (size 3 to 8) (size 9 to 14) (size 15 to 20)
#    0.750    1.750    0.000    2.250    3.500    1.000 
#    0.000    8.125    0.000    3.750    0.000    0.000 
#    0.000    0.000    0.000    0.000    0.000    0.000 
#
# Total GULP energy -356591.343007 kJ/mol
# GULP energy per Si atom -5571.739734 kJ/mol
# Density = 1.941014 g / cm^3
# Si number density = 19.454422 Si / 1000 Ang^3
#
#
#
# Elastic Constant Matrix: (Units=GPa)
#
#
# Indices 1 2 3 4 5 6 
#
# 1 48.7097 -6.2605 12.1707 0.0000 0.0000 0.0000
# 2 -6.2605 40.8493 -4.6548 0.0000 0.0000 0.0000
# 3 12.1707 -4.6548 35.0968 0.0000 0.0000 0.0000
# 4 0.0000 0.0000 0.0000 12.8890 0.0000 0.0000
# 5 0.0000 0.0000 0.0000 0.0000 -25.2233 0.0000
# 6 0.0000 0.0000 0.0000 0.0000 0.0000 25.1107
#
#
#
# Elastic Compliance Matrix: (Units=1/GPa)
#
#
# Indices 1 2 3 4 5 6 
#
# 1 0.022752 0.002628 -0.007541 0.000000 0.000000 0.000000
# 2 0.002628 0.025159 0.002426 0.000000 0.000000 0.000000
# 3 -0.007541 0.002426 0.031429 0.000000 0.000000 0.000000
# 4 0.000000 0.000000 0.000000 0.077586 0.000000 0.000000
# 5 0.000000 0.000000 0.000000 0.000000 -0.039646 0.000000
# 6 0.000000 0.000000 0.000000 0.000000 0.000000 0.039824
#
#
# Mechanical properties :
#
#
# Convention : Reuss Voigt Hill
#
# Bulk Modulus (GPa) = 13.44729 14.12962 13.78845
# Shear Modulus (GPa) = 26.75681 10.78196 18.76939
#
# Velocity S-wave (km/s) = 3.71261 2.35673 3.10947
# Velocity P-wave (km/s) = 5.03042 3.83201 4.47155
#
# Compressibility (1/GPa) = 0.07436445
#
# Stress axis : x y z
#
# Youngs Moduli (GPa) = 43.95254 39.74669 31.81727
#
# Poissons Ratio (x) = -0.10444 0.23994
# Poissons Ratio (y) = -0.11549 -0.07718
# Poissons Ratio (z) = 0.33146 -0.09641
#
# Static dielectric constant tensor:
#      x y z
#    x 1.709200 0.000000 0.000000 
#    y 0.000000 1.699900 0.000000 
#    z 0.000000 0.000000 1.665960 
# 
# From -- ./inp_files/9139.got.cif
#   From: 2010.05.17/outbox.cif.g08.bks.cpg/sg55_5_cif.got.tgz:9139.got - 2010.06.03 13:27:54.
