data_PCOD9429550
_publ_section_title
;
Structure prediction by ZEFSAII (Michael W. Deem and Ramdas Pophale) SiO2 
 PCOD9429550
Probable space group: P C C N
;
_chemical_formula_sum "Si O2"
_cell_formula_units_Z 32
_cell_length_a 10.910898
_cell_length_b 28.422693
_cell_length_c 5.068201
_cell_angle_alpha 90.000000
_cell_angle_beta 90.000000
_cell_angle_gamma 90.000000
_cell_volume 1571.735818
_symmetry_space_group_name_H-M "P C C N"
_symmetry_group_IT_number 56
_symmetry_cell_setting 'orthorhombic'
loop_
_space_group_symop_operation_xyz
x,y,z
1/2-x,1/2-y,z
1/2+x,-y,1/2-z
-x,1/2+y,1/2-z
-x,-y,-z
1/2+x,1/2+y,-z
1/2-x,y,1/2+z
x,1/2-y,1/2+z
loop_
_atom_site_type_symbol
_atom_site_label
_atom_site_fract_x
_atom_site_fract_y
_atom_site_fract_z
Si Si1 0.828179 0.873969 0.068997
Si Si2 0.549805 0.539783 0.794168
Si Si3 0.822073 0.457904 0.073866
Si Si4 0.889252 0.770071 0.902778
O O1 0.709590 0.876376 0.874165
O O2 0.910697 0.916288 0.967193
O O3 0.883728 0.822906 0.004577
O O4 0.448441 0.553303 0.575450
O O5 0.659823 0.514118 0.632679
O O6 0.500000 0.500000 0.000000
O O7 0.780911 0.442157 0.364039
O O8 0.750000 0.750000 0.856903
O O9 0.948232 0.763631 0.619159
#
# Coordination Sequence:
#
# PCOD9429550 Si02
#       4
#     8   8   8   8
#     4  12  23  33  56  81 114 152 182 219 280 328
#     4  11  25  37  54  83 107 145 207 227 268 344
#     4  11  22  39  55  70 106 149 180 235 275 304
#     4  10  16  33  49  77 110 145 169 214 268 348
#
# _framework density 20.359656999999999
#
# number of rings (size 3 to 8) (size 9 to 14) (size 15 to 20)
#    0.000    1.000    7.500    1.500    7.000    0.000 
#    0.000    0.000    0.000    0.000    0.000    0.000 
#    0.000    6.000    0.000    0.000    0.000    0.000 
#
# Total GULP energy -178362.686842 kJ/mol
# GULP energy per Si atom -5573.833964 kJ/mol
# Density = 2.031332 g / cm^3
# Si number density = 20.359657 Si / 1000 Ang^3
#
#
#
# Elastic Constant Matrix: (Units=GPa)
#
#
# Indices 1 2 3 4 5 6 
#
# 1 22.7004 8.9074 11.2222 0.0000 0.0000 0.0000
# 2 8.9074 88.5632 -7.6742 0.0000 0.0000 0.0000
# 3 11.2222 -7.6742 110.4402 0.0000 0.0000 0.0000
# 4 0.0000 0.0000 0.0000 23.4349 0.0000 0.0000
# 5 0.0000 0.0000 0.0000 0.0000 25.1570 0.0000
# 6 0.0000 0.0000 0.0000 0.0000 0.0000 17.6141
#
#
#
# Elastic Compliance Matrix: (Units=1/GPa)
#
#
# Indices 1 2 3 4 5 6 
#
# 1 0.048795 -0.005370 -0.005331 0.000000 0.000000 0.000000
# 2 -0.005370 0.011951 0.001376 0.000000 0.000000 0.000000
# 3 -0.005331 0.001376 0.009692 0.000000 0.000000 0.000000
# 4 0.000000 0.000000 0.000000 0.042671 0.000000 0.000000
# 5 0.000000 0.000000 0.000000 0.000000 0.039750 0.000000
# 6 0.000000 0.000000 0.000000 0.000000 0.000000 0.056773
#
#
# Mechanical properties :
#
#
# Convention : Reuss Voigt Hill
#
# Bulk Modulus (GPa) = 19.30962 27.40161 23.35562
# Shear Modulus (GPa) = 20.36295 27.19109 23.77702
#
# Velocity S-wave (km/s) = 3.16596 3.65847 3.42109
# Velocity P-wave (km/s) = 4.78218 5.59766 5.20592
#
# Compressibility (1/GPa) = 0.05178765
#
# Stress axis : x y z
#
# Youngs Moduli (GPa) = 20.49406 83.67737 103.17763
#
# Poissons Ratio (x) = 0.44931 0.55007
# Poissons Ratio (y) = 0.11004 -0.14198
# Poissons Ratio (z) = 0.10926 -0.11514
#
# Static dielectric constant tensor:
#      x y z
#    x 1.865710 0.000000 0.000000 
#    y 0.000000 1.736770 0.000000 
#    z 0.000000 0.000000 1.832980 
# 
# From -- ./inp_files/257.got.cif
#   From: 2010.05.17/outbox.cif.g08.bks.cpg/sg56_1_cif.got.tgz:257.got - 2010.06.03 13:42:01.
