data_PCOD9429771
_publ_section_title
;
Structure prediction by ZEFSAII (Michael W. Deem and Ramdas Pophale) SiO2 
 PCOD9429771
Probable space group: P C C N
;
_chemical_formula_sum "Si O2"
_cell_formula_units_Z 52
_cell_length_a 20.044147
_cell_length_b 9.294665
_cell_length_c 15.557771
_cell_angle_alpha 90.000000
_cell_angle_beta 90.000000
_cell_angle_gamma 90.000000
_cell_volume 2898.469237
_symmetry_space_group_name_H-M "P C C N"
_symmetry_group_IT_number 56
_symmetry_cell_setting 'orthorhombic'
loop_
_space_group_symop_operation_xyz
x,y,z
1/2-x,1/2-y,z
1/2+x,-y,1/2-z
-x,1/2+y,1/2-z
-x,-y,-z
1/2+x,1/2+y,-z
1/2-x,y,1/2+z
x,1/2-y,1/2+z
loop_
_atom_site_type_symbol
_atom_site_label
_atom_site_fract_x
_atom_site_fract_y
_atom_site_fract_z
Si Si1 0.596804 0.469067 0.452483
Si Si2 0.476663 0.718722 0.827330
Si Si3 0.250000 0.750000 0.783096
Si Si4 0.137941 0.552691 0.866210
Si Si5 0.592046 0.738923 0.184022
Si Si6 0.486909 0.254158 0.487676
Si Si7 0.138405 0.531610 0.238061
O O1 0.646752 0.456788 0.531481
O O2 0.555593 0.319707 0.450390
O O3 0.551062 0.603403 0.478939
O O4 0.624205 0.502411 0.360112
O O5 0.431103 0.860235 0.846342
O O6 0.536892 0.749585 0.760918
O O7 0.425923 0.608972 0.781378
O O8 0.500602 0.668603 0.923091
O O9 0.199075 0.645401 0.832420
O O10 0.299845 0.640036 0.737068
O O11 0.126451 0.394058 0.828462
O O12 0.555019 0.698976 0.093904
O O13 0.644490 0.616017 0.209461
#
# Coordination Sequence:
#
# PCOD9429771 Si02
#       7
#     8   8   4   8   8   8   8
#     4   9  16  32  56  83 108 148 178 220 278 334
#     4  10  18  33  55  89 119 140 173 226 280 337
#     4  10  24  42  54  76 104 150 194 234 274 316
#     4   9  21  37  58  76 111 149 185 226 271 327
#     4  11  19  32  59  86 111 143 178 231 280 330
#     4   9  17  30  53  86 121 141 171 215 289 341
#     4  11  21  34  58  82 113 149 186 228 274 326
#
# _framework density 17.940505000000002
#
# number of rings (size 3 to 8) (size 9 to 14) (size 15 to 20)
#    0.000    2.154    3.077    1.846    0.000    1.846 
#    0.000    0.000    3.385    1.846    0.000    0.000 
#    0.000    0.000    0.000    0.000    0.000    0.000 
#
# Total GULP energy -289552.173719 kJ/mol
# GULP energy per Si atom -5568.311033 kJ/mol
# Density = 1.789967 g / cm^3
# Si number density = 17.940505 Si / 1000 Ang^3
#
#
#
# Elastic Constant Matrix: (Units=GPa)
#
#
# Indices 1 2 3 4 5 6 
#
# 1 46.5788 13.2459 27.2102 0.0000 0.0000 0.0000
# 2 13.2459 77.5471 33.1781 0.0000 0.0000 0.0000
# 3 27.2102 33.1781 126.2807 0.0000 0.0000 0.0000
# 4 0.0000 0.0000 0.0000 21.3262 0.0000 0.0000
# 5 0.0000 0.0000 0.0000 0.0000 3.0817 0.0000
# 6 0.0000 0.0000 0.0000 0.0000 0.0000 17.5785
#
#
#
# Elastic Compliance Matrix: (Units=1/GPa)
#
#
# Indices 1 2 3 4 5 6 
#
# 1 0.024891 -0.002205 -0.004784 0.000000 0.000000 0.000000
# 2 -0.002205 0.014724 -0.003393 0.000000 0.000000 0.000000
# 3 -0.004784 -0.003393 0.009841 0.000000 0.000000 0.000000
# 4 0.000000 0.000000 0.000000 0.046891 0.000000 0.000000
# 5 0.000000 0.000000 0.000000 0.000000 0.324498 0.000000
# 6 0.000000 0.000000 0.000000 0.000000 0.000000 0.056888
#
#
# Mechanical properties :
#
#
# Convention : Reuss Voigt Hill
#
# Bulk Modulus (GPa) = 34.85364 44.18612 39.51988
# Shear Modulus (GPa) = 9.84136 20.18211 15.01173
#
# Velocity S-wave (km/s) = 2.34467 3.35766 2.89580
# Velocity P-wave (km/s) = 5.17682 6.30195 5.76689
#
# Compressibility (1/GPa) = 0.02869141
#
# Stress axis : x y z
#
# Youngs Moduli (GPa) = 40.17571 67.91713 101.61318
#
# Poissons Ratio (x) = 0.14974 0.48612
# Poissons Ratio (y) = 0.08858 0.34481
# Poissons Ratio (z) = 0.19220 0.23047
#
# Static dielectric constant tensor:
#      x y z
#    x 1.637810 0.000000 0.000000 
#    y 0.000000 1.643430 0.000000 
#    z 0.000000 0.000000 1.629060 
# 
# From -- ./inp_files/10811.got.cif
#   From: 2010.05.17/outbox.cif.g08.bks.cpg/sg56_6_cif.got.tgz:10811.got - 2010.06.03 13:42:01.
