data_PCOD9429671
_publ_section_title
;
Structure prediction by ZEFSAII (Michael W. Deem and Ramdas Pophale) SiO2 
 PCOD9429671
Probable space group: P C C N
;
_chemical_formula_sum "Si O2"
_cell_formula_units_Z 60
_cell_length_a 28.238446
_cell_length_b 9.078715
_cell_length_c 8.182961
_cell_angle_alpha 90.000000
_cell_angle_beta 90.000000
_cell_angle_gamma 90.000000
_cell_volume 2097.855919
_symmetry_space_group_name_H-M "P C C N"
_symmetry_group_IT_number 56
_symmetry_cell_setting 'orthorhombic'
loop_
_space_group_symop_operation_xyz
x,y,z
1/2-x,1/2-y,z
1/2+x,-y,1/2-z
-x,1/2+y,1/2-z
-x,-y,-z
1/2+x,1/2+y,-z
1/2-x,y,1/2+z
x,1/2-y,1/2+z
loop_
_atom_site_type_symbol
_atom_site_label
_atom_site_fract_x
_atom_site_fract_y
_atom_site_fract_z
Si Si1 0.273144 0.574757 0.213926
Si Si2 0.920864 0.100315 0.541456
Si Si3 0.524232 0.670457 0.401161
Si Si4 0.178179 0.922200 0.572531
Si Si5 0.250000 0.250000 0.269917
Si Si6 0.151263 0.273546 0.237965
Si Si7 0.063827 0.415094 0.418038
Si Si8 0.870885 0.059381 0.880608
O O1 0.295489 0.582177 0.395952
O O2 0.219488 0.635184 0.195422
O O3 0.260456 0.402238 0.177099
O O4 0.317053 0.614891 0.095181
O O5 0.875126 0.144985 0.432778
O O6 0.898844 0.109869 0.720809
O O7 0.971626 0.176279 0.527796
O O8 0.956790 0.664906 0.422999
O O9 0.524587 0.595347 0.222881
O O10 0.560629 0.565580 0.499661
O O11 0.163192 0.090213 0.617964
O O12 0.198867 0.272414 0.349565
O O13 0.105355 0.320046 0.335801
O O14 0.140634 0.114368 0.162414
O O15 0.092712 0.559298 0.468894
#
# Coordination Sequence:
#
# PCOD9429671 Si02
#       8
#     8   8   8   8   4   8   8   8
#     4   9  20  27  45  68 101 135 175 205 251 314
#     4  10  20  38  50  72 103 142 179 226 267 308
#     4  11  22  34  55  71  99 140 186 224 271 309
#     4  10  19  33  46  71 104 139 174 211 254 308
#     4   8  18  24  34  60  94 130 174 190 230 268
#     4  10  18  29  44  67 101 145 173 213 236 304
#     4  12  20  33  52  74 101 139 184 226 265 316
#     4  10  20  32  49  72 105 139 179 214 266 313
#
# _framework density 28.600628
#
# number of rings (size 3 to 8) (size 9 to 14) (size 15 to 20)
#    0.000    1.867    4.000    0.000    7.467    2.667 
#    0.000    0.000    0.000    0.000    0.000    0.000 
#    0.000   12.800    0.000    0.000    0.000    0.000 
#
# Total GULP energy -335289.960624 kJ/mol
# GULP energy per Si atom -5588.166010 kJ/mol
# Density = 2.853553 g / cm^3
# Si number density = 28.600628 Si / 1000 Ang^3
#
#
#
# Elastic Constant Matrix: (Units=GPa)
#
#
# Indices 1 2 3 4 5 6 
#
# 1 255.1575 57.5993 32.6339 0.0000 0.0000 0.0000
# 2 57.5993 65.4007 21.0632 0.0000 0.0000 0.0000
# 3 32.6339 21.0632 104.7041 0.0000 0.0000 0.0000
# 4 0.0000 0.0000 0.0000 34.6815 0.0000 0.0000
# 5 0.0000 0.0000 0.0000 0.0000 32.8200 0.0000
# 6 0.0000 0.0000 0.0000 0.0000 0.0000 67.5397
#
#
#
# Elastic Compliance Matrix: (Units=1/GPa)
#
#
# Indices 1 2 3 4 5 6 
#
# 1 0.004941 -0.004122 -0.000711 0.000000 0.000000 0.000000
# 2 -0.004122 0.019789 -0.002696 0.000000 0.000000 0.000000
# 3 -0.000711 -0.002696 0.010315 0.000000 0.000000 0.000000
# 4 0.000000 0.000000 0.000000 0.028834 0.000000 0.000000
# 5 0.000000 0.000000 0.000000 0.000000 0.030469 0.000000
# 6 0.000000 0.000000 0.000000 0.000000 0.000000 0.014806
#
#
# Mechanical properties :
#
#
# Convention : Reuss Voigt Hill
#
# Bulk Modulus (GPa) = 50.03431 71.98390 61.00910
# Shear Modulus (GPa) = 38.20466 47.93929 43.07197
#
# Velocity S-wave (km/s) = 3.65882 4.09854 3.88491
# Velocity P-wave (km/s) = 5.94823 6.90077 6.44213
#
# Compressibility (1/GPa) = 0.01998629
#
# Stress axis : x y z
#
# Youngs Moduli (GPa) = 202.40342 50.53220 96.95017
#
# Poissons Ratio (x) = 0.20832 0.06889
# Poissons Ratio (y) = 0.83439 0.26139
# Poissons Ratio (z) = 0.14382 0.13624
#
# Static dielectric constant tensor:
#      x y z
#    x 2.208010 0.000000 0.000000 
#    y 0.000000 2.417700 0.000000 
#    z 0.000000 0.000000 2.247030 
# 
# From -- ./inp_files/5022.got.cif
#   From: 2010.05.17/outbox.cif.g08.bks.cpg/sg56_3_cif.got.tgz:5022.got - 2010.06.03 13:42:01.
