data_PCOD9429385
_publ_section_title
;
Structure prediction by ZEFSAII (Michael W. Deem and Ramdas Pophale) SiO2 
 PCOD9429385
Probable space group: P B A M
;
_chemical_formula_sum "Si O2"
_cell_formula_units_Z 48
_cell_length_a 18.000000
_cell_length_b 15.000000
_cell_length_c 9.000000
_cell_angle_alpha 90.000000
_cell_angle_beta 90.000000
_cell_angle_gamma 90.000000
_cell_volume 2430.000000
_symmetry_space_group_name_H-M "P B A M"
_symmetry_group_IT_number 55
_symmetry_cell_setting 'orthorhombic'
loop_
_space_group_symop_operation_xyz
x,y,z
-x,-y,z
1/2+x,1/2-y,-z
1/2-x,1/2+y,-z
-x,-y,-z
x,y,-z
1/2-x,1/2+y,z
1/2+x,1/2-y,z
loop_
_atom_site_type_symbol
_atom_site_label
_atom_site_fract_x
_atom_site_fract_y
_atom_site_fract_z
Si Si1 0.700031 0.037014 0.676106
Si Si2 0.550826 0.747003 0.826291
Si Si3 0.951808 0.589415 0.827714
Si Si4 0.053229 0.075170 0.825442
Si Si5 0.782549 0.877609 0.821328
Si Si6 0.292203 0.288597 0.676304
O O1 0.697142 0.019468 0.500000
O O2 0.621942 0.075093 0.733280
O O3 0.762323 0.112124 0.705559
O O4 0.722115 0.948263 0.764112
O O5 0.505699 0.832718 0.771738
O O6 0.493521 0.665507 0.819501
O O7 0.625265 0.726054 0.737815
O O8 0.571086 0.761845 0.000000
O O9 0.000000 0.500000 0.827403
O O10 0.931438 0.610471 0.000000
O O11 0.136096 0.090301 0.766607
O O12 0.064185 0.050823 0.000000
O O13 0.000000 0.000000 0.756630
O O14 0.761543 0.781938 0.756083
O O15 0.782584 0.873564 0.000000
O O16 0.290180 0.273439 0.500000
#
# Coordination Sequence:
#
# PCOD9429385 Si02
#       6
#     8   8   8   8   8   8
#     4  11  24  40  59  86 121 159 195 235 288 350
#     4  10  20  36  59  85 113 147 192 241 286 339
#     4  10  21  37  58  85 114 147 193 244 289 338
#     4   9  18  33  55  84 113 142 183 236 288 336
#     4  11  22  38  63  89 115 152 196 243 292 340
#     4  11  24  40  58  85 122 158 193 235 287 349
#
# _framework density 19.753086
#
# number of rings (size 3 to 8) (size 9 to 14) (size 15 to 20)
#    0.000    1.667    0.000    4.500    0.000    7.667 
#    0.000    1.667    0.000    4.500    0.000    0.000 
#    0.000    0.000    0.000    0.000    0.000    0.000 
#
# Total GULP energy -268230.360424 kJ/mol
# GULP energy per Si atom -5588.132509 kJ/mol
# Density = 1.970813 g / cm^3
# Si number density = 19.753086 Si / 1000 Ang^3
#
#
#
# Elastic Constant Matrix: (Units=GPa)
#
#
# Indices 1 2 3 4 5 6 
#
# 1 59.7156 -24.5841 2.6037 0.0000 0.0000 0.0000
# 2 -24.5841 31.1845 6.9596 0.0000 0.0000 0.0000
# 3 2.6037 6.9596 35.6830 0.0000 0.0000 0.0000
# 4 0.0000 0.0000 0.0000 33.9609 0.0000 0.0000
# 5 0.0000 0.0000 0.0000 0.0000 4.0318 0.0000
# 6 0.0000 0.0000 0.0000 0.0000 0.0000 29.4058
#
#
#
# Elastic Compliance Matrix: (Units=1/GPa)
#
#
# Indices 1 2 3 4 5 6 
#
# 1 0.026030 0.021898 -0.006170 0.000000 0.000000 0.000000
# 2 0.021898 0.051948 -0.011730 0.000000 0.000000 0.000000
# 3 -0.006170 -0.011730 0.030763 0.000000 0.000000 0.000000
# 4 0.000000 0.000000 0.000000 0.029446 0.000000 0.000000
# 5 0.000000 0.000000 0.000000 0.000000 0.248028 0.000000
# 6 0.000000 0.000000 0.000000 0.000000 0.000000 0.034007
#
#
# Mechanical properties :
#
#
# Convention : Reuss Voigt Hill
#
# Bulk Modulus (GPa) = 8.56634 10.72682 9.64658
# Shear Modulus (GPa) = 11.08309 22.91996 17.00153
#
# Velocity S-wave (km/s) = 2.37129 3.41005 2.93696
# Velocity P-wave (km/s) = 3.44143 4.57677 4.04909
#
# Compressibility (1/GPa) = 0.11673595
#
# Stress axis : x y z
#
# Youngs Moduli (GPa) = 38.41715 19.25005 32.50709
#
# Poissons Ratio (x) = -0.42153 0.20058
# Poissons Ratio (y) = -0.84125 0.38130
# Poissons Ratio (z) = 0.23704 0.22580
#
# Static dielectric constant tensor:
#      x y z
#    x 1.667650 0.000000 0.000000 
#    y 0.000000 1.677190 0.000000 
#    z 0.000000 0.000000 1.671790 
# 
# From -- ./inp_files/7417.got.cif
#   From: 2010.05.17/outbox.ucp.g08.bks.cvg/sg55_4_cif.got.tgz:7417.got - 2010.06.11 16:36:00.
