data_PCOD9429650
_publ_section_title
;
Structure prediction by ZEFSAII (Michael W. Deem and Ramdas Pophale) SiO2 
 PCOD9429650
Probable space group: P C C N
;
_chemical_formula_sum "Si O2"
_cell_formula_units_Z 44
_cell_length_a 8.619680
_cell_length_b 13.925298
_cell_length_c 17.751719
_cell_angle_alpha 90.000000
_cell_angle_beta 90.000000
_cell_angle_gamma 90.000000
_cell_volume 2130.767459
_symmetry_space_group_name_H-M "P C C N"
_symmetry_group_IT_number 56
_symmetry_cell_setting 'orthorhombic'
loop_
_space_group_symop_operation_xyz
x,y,z
1/2-x,1/2-y,z
1/2+x,-y,1/2-z
-x,1/2+y,1/2-z
-x,-y,-z
1/2+x,1/2+y,-z
1/2-x,y,1/2+z
x,1/2-y,1/2+z
loop_
_atom_site_type_symbol
_atom_site_label
_atom_site_fract_x
_atom_site_fract_y
_atom_site_fract_z
Si Si1 0.602769 0.712906 0.531527
Si Si2 0.822963 0.086449 0.411707
Si Si3 0.750000 0.250000 0.810109
Si Si4 0.856924 0.344842 0.539088
Si Si5 0.000161 0.801313 0.812306
Si Si6 0.829283 0.626497 0.868615
O O1 0.750000 0.750000 0.577978
O O2 0.483455 0.641774 0.571689
O O3 0.508823 0.806361 0.503303
O O4 0.668441 0.660648 0.456164
O O5 0.716450 0.159618 0.364003
O O6 0.734254 0.075614 0.491905
O O7 0.849076 0.986843 0.370658
O O8 0.605729 0.211133 0.760922
O O9 0.750000 0.250000 0.538165
O O10 0.901556 0.359902 0.625317
O O11 0.969050 0.690535 0.836461
O O12 0.827506 0.846399 0.822389
#
# Coordination Sequence:
#
# PCOD9429650 Si02
#       6
#     8   8   4   8   8   8
#     4  10  17  37  62  90 118 154 199 256 317 364
#     4  11  23  38  62  93 126 153 209 269 311 364
#     4  12  24  40  60  84 128 170 198 258 324 374
#     4   9  16  35  60  83 113 156 200 250 303 367
#     4  10  21  40  64  82 122 171 204 246 316 385
#     4  10  21  40  64  88 118 161 215 254 303 376
#
# _framework density 20.649837000000002
#
# number of rings (size 3 to 8) (size 9 to 14) (size 15 to 20)
#    0.000    1.818    7.273    0.545    0.000    2.182 
#    3.273    0.000    0.000    0.000    0.000    0.000 
#    0.000    0.000    0.000    0.000    0.000    0.000 
#
# Total GULP energy -245017.070975 kJ/mol
# GULP energy per Si atom -5568.569795 kJ/mol
# Density = 2.060284 g / cm^3
# Si number density = 20.649837 Si / 1000 Ang^3
#
#
#
# Elastic Constant Matrix: (Units=GPa)
#
#
# Indices 1 2 3 4 5 6 
#
# 1 94.9762 -2.1050 27.9892 0.0000 0.0000 0.0000
# 2 -2.1050 64.6222 9.0589 0.0000 0.0000 0.0000
# 3 27.9892 9.0589 69.0235 0.0000 0.0000 0.0000
# 4 0.0000 0.0000 0.0000 4.5473 0.0000 0.0000
# 5 0.0000 0.0000 0.0000 0.0000 5.1768 0.0000
# 6 0.0000 0.0000 0.0000 0.0000 0.0000 12.0879
#
#
#
# Elastic Compliance Matrix: (Units=1/GPa)
#
#
# Indices 1 2 3 4 5 6 
#
# 1 0.012034 0.001096 -0.005024 0.000000 0.000000 0.000000
# 2 0.001096 0.015864 -0.002527 0.000000 0.000000 0.000000
# 3 -0.005024 -0.002527 0.016856 0.000000 0.000000 0.000000
# 4 0.000000 0.000000 0.000000 0.219912 0.000000 0.000000
# 5 0.000000 0.000000 0.000000 0.000000 0.193171 0.000000
# 6 0.000000 0.000000 0.000000 0.000000 0.000000 0.082728
#
#
# Mechanical properties :
#
#
# Convention : Reuss Voigt Hill
#
# Bulk Modulus (GPa) = 31.40048 33.16758 32.28403
# Shear Modulus (GPa) = 8.86385 17.27429 13.06907
#
# Velocity S-wave (km/s) = 2.07407 2.89543 2.51846
# Velocity P-wave (km/s) = 4.57983 5.22253 4.91170
#
# Compressibility (1/GPa) = 0.03184665
#
# Stress axis : x y z
#
# Youngs Moduli (GPa) = 83.10009 63.03401 59.32430
#
# Poissons Ratio (x) = -0.06910 0.29802
# Poissons Ratio (y) = -0.09109 0.14989
# Poissons Ratio (z) = 0.41746 0.15926
#
# Static dielectric constant tensor:
#      x y z
#    x 1.815350 0.000000 0.000000 
#    y 0.000000 1.724950 0.000000 
#    z 0.000000 0.000000 1.783610 
# 
# From -- ./inp_files/14678.got.cif
#   From: 2010.05.17/outbox.cif.g08.bks.cpg/sg56_8_cif.got.tgz:14678.got - 2010.06.03 13:42:01.
