data_PCOD9429591
_publ_section_title
;
Structure prediction by ZEFSAII (Michael W. Deem and Ramdas Pophale) SiO2 
 PCOD9429591
Probable space group: P C C N
;
_chemical_formula_sum "Si O2"
_cell_formula_units_Z 48
_cell_length_a 27.061154
_cell_length_b 16.215382
_cell_length_c 5.178056
_cell_angle_alpha 90.000000
_cell_angle_beta 90.000000
_cell_angle_gamma 90.000000
_cell_volume 2272.166958
_symmetry_space_group_name_H-M "P C C N"
_symmetry_group_IT_number 56
_symmetry_cell_setting 'orthorhombic'
loop_
_space_group_symop_operation_xyz
x,y,z
1/2-x,1/2-y,z
1/2+x,-y,1/2-z
-x,1/2+y,1/2-z
-x,-y,-z
1/2+x,1/2+y,-z
1/2-x,y,1/2+z
x,1/2-y,1/2+z
loop_
_atom_site_type_symbol
_atom_site_label
_atom_site_fract_x
_atom_site_fract_y
_atom_site_fract_z
Si Si1 0.188262 0.299266 0.544217
Si Si2 0.857796 0.024028 0.702188
Si Si3 0.430681 0.299154 0.082557
Si Si4 0.768698 0.377921 0.206837
Si Si5 0.531924 0.522119 0.749534
Si Si6 0.194954 0.032352 0.785788
O O1 0.199719 0.272285 0.835638
O O2 0.128681 0.310355 0.558217
O O3 0.210210 0.381449 0.414091
O O4 0.825428 0.105330 0.638976
O O5 0.916219 0.025450 0.707485
O O6 0.836102 0.961895 0.481432
O O7 0.840868 0.003284 0.992447
O O8 0.444331 0.228747 0.292611
O O9 0.452602 0.383066 0.197646
O O10 0.762009 0.337341 0.481336
O O11 0.739551 0.467014 0.251512
O O12 0.500000 0.500000 0.500000
O O13 0.500000 0.500000 0.000000
#
# Coordination Sequence:
#
# PCOD9429591 Si02
#       6
#     8   8   8   8   8   8
#     4  10  19  28  46  68  91 127 171 218 255 292
#     4  10  19  32  49  66  96 126 162 212 260 309
#     4  10  21  36  54  73  99 139 180 217 268 325
#     4   8  16  28  46  65  83 124 164 198 245 319
#     4  12  24  36  54  80 105 132 179 232 277 315
#     4  10  17  30  49  65  90 121 169 203 251 305
#
# _framework density 21.125209000000002
#
# number of rings (size 3 to 8) (size 9 to 14) (size 15 to 20)
#    0.000    2.000    1.667    3.000    4.667    0.000 
#    0.000    0.000    0.000   29.000    0.000    0.000 
#    0.000    0.000    0.000    0.000    0.000  525.000 
#
# Total GULP energy -267629.118211 kJ/mol
# GULP energy per Si atom -5575.606629 kJ/mol
# Density = 2.107713 g / cm^3
# Si number density = 21.125209 Si / 1000 Ang^3
#
#
#
# Elastic Constant Matrix: (Units=GPa)
#
#
# Indices 1 2 3 4 5 6 
#
# 1 145.0304 21.7596 42.3879 0.0000 0.0000 0.0000
# 2 21.7596 58.7256 8.3650 0.0000 0.0000 0.0000
# 3 42.3879 8.3650 144.6599 0.0000 0.0000 0.0000
# 4 0.0000 0.0000 0.0000 5.9537 0.0000 0.0000
# 5 0.0000 0.0000 0.0000 0.0000 24.2267 0.0000
# 6 0.0000 0.0000 0.0000 0.0000 0.0000 18.8047
#
#
#
# Elastic Compliance Matrix: (Units=1/GPa)
#
#
# Indices 1 2 3 4 5 6 
#
# 1 0.007923 -0.002627 -0.002170 0.000000 0.000000 0.000000
# 2 -0.002627 0.018041 -0.000274 0.000000 0.000000 0.000000
# 3 -0.002170 -0.000274 0.007564 0.000000 0.000000 0.000000
# 4 0.000000 0.000000 0.000000 0.167962 0.000000 0.000000
# 5 0.000000 0.000000 0.000000 0.000000 0.041277 0.000000
# 6 0.000000 0.000000 0.000000 0.000000 0.000000 0.053178
#
#
# Mechanical properties :
#
#
# Convention : Reuss Voigt Hill
#
# Bulk Modulus (GPa) = 42.75661 54.82674 48.79168
# Shear Modulus (GPa) = 15.92960 28.19059 22.06009
#
# Velocity S-wave (km/s) = 2.74899 3.65698 3.23500
# Velocity P-wave (km/s) = 5.50994 6.62125 6.09099
#
# Compressibility (1/GPa) = 0.02338820
#
# Stress axis : x y z
#
# Youngs Moduli (GPa) = 126.20877 55.43051 132.19868
#
# Poissons Ratio (x) = 0.14560 0.28684
# Poissons Ratio (y) = 0.33152 0.03616
# Poissons Ratio (z) = 0.27385 0.01516
#
# Static dielectric constant tensor:
#      x y z
#    x 1.764820 0.000000 0.000000 
#    y 0.000000 1.841970 0.000000 
#    z 0.000000 0.000000 1.812460 
# 
# From -- ./inp_files/1202.got.cif
#   From: 2010.05.17/outbox.cif.g08.bks.cpg/sg56_1_cif.got.tgz:1202.got - 2010.06.03 13:42:01.
