data_PCOD9429890
_publ_section_title
;
Structure prediction by ZEFSAII (Michael W. Deem and Ramdas Pophale) SiO2 
 PCOD9429890
Probable space group: P C C N
;
_chemical_formula_sum "Si O2"
_cell_formula_units_Z 64
_cell_length_a 13.411791
_cell_length_b 10.705082
_cell_length_c 22.085251
_cell_angle_alpha 90.000000
_cell_angle_beta 90.000000
_cell_angle_gamma 90.000000
_cell_volume 3170.874948
_symmetry_space_group_name_H-M "P C C N"
_symmetry_group_IT_number 56
_symmetry_cell_setting 'orthorhombic'
loop_
_space_group_symop_operation_xyz
x,y,z
1/2-x,1/2-y,z
1/2+x,-y,1/2-z
-x,1/2+y,1/2-z
-x,-y,-z
1/2+x,1/2+y,-z
1/2-x,y,1/2+z
x,1/2-y,1/2+z
loop_
_atom_site_type_symbol
_atom_site_label
_atom_site_fract_x
_atom_site_fract_y
_atom_site_fract_z
Si Si1 0.209918 0.119829 0.765806
Si Si2 0.363292 0.751121 0.453677
Si Si3 0.089546 0.516295 0.369544
Si Si4 0.952286 0.995120 0.565943
Si Si5 0.938242 0.518662 0.815151
Si Si6 0.597057 0.003583 0.279779
Si Si7 0.641046 0.238462 0.831568
Si Si8 0.480412 0.223217 0.436180
O O1 0.250000 0.250000 0.791056
O O2 0.169565 0.033326 0.820176
O O3 0.300410 0.070109 0.724470
O O4 0.114876 0.130643 0.720306
O O5 0.250000 0.750000 0.478572
O O6 0.378385 0.856163 0.402123
O O7 0.377677 0.610322 0.428754
O O8 0.451192 0.776771 0.503230
O O9 0.073678 0.406284 0.419728
O O10 0.984147 0.529428 0.332072
O O11 0.039204 0.025965 0.614435
O O12 0.915928 0.851225 0.569562
O O13 0.000000 0.000000 0.500000
O O14 0.042162 0.486892 0.783777
O O15 0.870757 0.397307 0.803405
O O16 0.623605 0.149304 0.285748
O O17 0.750000 0.250000 0.858939
O O18 0.558972 0.256367 0.882322
#
# Coordination Sequence:
#
# PCOD9429890 Si02
#       8
#     8   8   8   8   8   8   8   8
#     4  11  25  39  59  91 126 166 213 256 320 386
#     4  11  23  39  64  99 126 164 217 270 317 376
#     4  10  24  42  62  92 125 172 211 261 324 380
#     4   9  21  40  64  90 123 160 206 259 323 367
#     4  10  22  37  61  85 119 163 200 257 316 378
#     4  10  23  38  57  85 122 159 203 255 313 378
#     4  10  18  37  60  86 112 154 212 254 305 372
#     4   9  20  41  67  85 126 166 209 256 330 387
#
# _framework density 20.183703000000001
#
# number of rings (size 3 to 8) (size 9 to 14) (size 15 to 20)
#    0.000    2.000    1.250    0.750   10.500    1.000 
#    0.000    0.000    0.000    0.000    0.000    0.000 
#    0.000    0.000    0.000    0.000    0.000    0.000 
#
# Total GULP energy -356569.818003 kJ/mol
# GULP energy per Si atom -5571.403406 kJ/mol
# Density = 2.013776 g / cm^3
# Si number density = 20.183703 Si / 1000 Ang^3
#
#
#
# Elastic Constant Matrix: (Units=GPa)
#
#
# Indices 1 2 3 4 5 6 
#
# 1 40.3207 22.0969 3.3450 0.0000 0.0000 0.0000
# 2 22.0969 96.3872 27.9134 0.0000 0.0000 0.0000
# 3 3.3450 27.9134 83.8317 0.0000 0.0000 0.0000
# 4 0.0000 0.0000 0.0000 -10.5540 0.0000 0.0000
# 5 0.0000 0.0000 0.0000 0.0000 5.5670 0.0000
# 6 0.0000 0.0000 0.0000 0.0000 0.0000 10.5105
#
#
#
# Elastic Compliance Matrix: (Units=1/GPa)
#
#
# Indices 1 2 3 4 5 6 
#
# 1 0.028464 -0.006858 0.001148 0.000000 0.000000 0.000000
# 2 -0.006858 0.013134 -0.004100 0.000000 0.000000 0.000000
# 3 0.001148 -0.004100 0.013248 0.000000 0.000000 0.000000
# 4 0.000000 0.000000 0.000000 -0.094751 0.000000 0.000000
# 5 0.000000 0.000000 0.000000 0.000000 0.179630 0.000000
# 6 0.000000 0.000000 0.000000 0.000000 0.000000 0.095143
#
#
# Mechanical properties :
#
#
# Convention : Reuss Voigt Hill
#
# Bulk Modulus (GPa) = 28.38750 36.36112 32.37431
# Shear Modulus (GPa) = 18.78073 12.25033 15.51553
#
# Velocity S-wave (km/s) = 3.05370 2.46629 2.77558
# Velocity P-wave (km/s) = 5.15059 5.11511 5.13288
#
# Compressibility (1/GPa) = 0.03522678
#
# Stress axis : x y z
#
# Youngs Moduli (GPa) = 35.13187 76.13693 75.48354
#
# Poissons Ratio (x) = 0.52213 -0.08663
# Poissons Ratio (y) = 0.24093 0.30946
# Poissons Ratio (z) = -0.04032 0.31214
#
# Static dielectric constant tensor:
#      x y z
#    x 1.635490 0.000000 0.000000 
#    y 0.000000 1.777810 0.000000 
#    z 0.000000 0.000000 1.712900 
# 
# From -- ./inp_files/21009.got.cif
#   From: 2010.05.17/outbox.cif.g08.bks.cpg/sg56_11_cif.got.tgz:21009.got - 2010.06.03 13:42:01.
