data_PCOD9429623
_publ_section_title
;
Structure prediction by ZEFSAII (Michael W. Deem and Ramdas Pophale) SiO2 
 PCOD9429623
Probable space group: P C C N
;
_chemical_formula_sum "Si O2"
_cell_formula_units_Z 48
_cell_length_a 15.296160
_cell_length_b 13.190264
_cell_length_c 10.865298
_cell_angle_alpha 90.000000
_cell_angle_beta 90.000000
_cell_angle_gamma 90.000000
_cell_volume 2192.186747
_symmetry_space_group_name_H-M "P C C N"
_symmetry_group_IT_number 56
_symmetry_cell_setting 'orthorhombic'
loop_
_space_group_symop_operation_xyz
x,y,z
1/2-x,1/2-y,z
1/2+x,-y,1/2-z
-x,1/2+y,1/2-z
-x,-y,-z
1/2+x,1/2+y,-z
1/2-x,y,1/2+z
x,1/2-y,1/2+z
loop_
_atom_site_type_symbol
_atom_site_label
_atom_site_fract_x
_atom_site_fract_y
_atom_site_fract_z
Si Si1 0.936243 0.450798 0.212889
Si Si2 0.928844 0.845013 0.589765
Si Si3 0.188550 0.904805 0.075706
Si Si4 0.924201 0.420055 0.643766
Si Si5 0.452185 0.243433 0.152354
Si Si6 0.365218 0.672040 0.614577
O O1 0.914258 0.535828 0.111789
O O2 0.851338 0.446708 0.298742
O O3 0.020614 0.495314 0.286122
O O4 0.972235 0.339902 0.180257
O O5 0.895028 0.802056 0.459675
O O6 0.910907 0.781571 0.716879
O O7 0.034499 0.839963 0.579453
O O8 0.161213 0.786000 0.081722
O O9 0.292150 0.902043 0.059681
O O10 0.136531 0.956122 0.965190
O O11 0.865885 0.356353 0.740603
O O12 0.998879 0.342363 0.599173
#
# Coordination Sequence:
#
# PCOD9429623 Si02
#       6
#     8   8   8   8   8   8
#     4  10  19  31  50  74 106 144 189 220 272 323
#     4  10  20  33  51  77 107 148 181 227 275 323
#     4  11  18  32  50  74 109 148 176 225 270 335
#     4  10  20  33  50  76 108 148 183 221 279 324
#     4  10  17  34  48  73 109 136 187 224 267 323
#     4   9  20  30  47  76 105 141 179 215 273 323
#
# _framework density 21.895944
#
# number of rings (size 3 to 8) (size 9 to 14) (size 15 to 20)
#    0.000    2.333    5.000    1.000    0.000    5.333 
#    0.000    0.000    0.000    0.000    0.000   18.667 
#    0.000   42.667    0.000    0.000    0.000    0.000 
#
# Total GULP energy -267476.767541 kJ/mol
# GULP energy per Si atom -5572.432657 kJ/mol
# Density = 2.184611 g / cm^3
# Si number density = 21.895944 Si / 1000 Ang^3
#
#
#
# Elastic Constant Matrix: (Units=GPa)
#
#
# Indices 1 2 3 4 5 6 
#
# 1 29.7927 6.6781 12.8227 0.0000 0.0000 0.0000
# 2 6.6781 58.4329 20.5959 0.0000 0.0000 0.0000
# 3 12.8227 20.5959 84.2238 0.0000 0.0000 0.0000
# 4 0.0000 0.0000 0.0000 14.2584 0.0000 0.0000
# 5 0.0000 0.0000 0.0000 0.0000 2.2983 0.0000
# 6 0.0000 0.0000 0.0000 0.0000 0.0000 14.4174
#
#
#
# Elastic Compliance Matrix: (Units=1/GPa)
#
#
# Indices 1 2 3 4 5 6 
#
# 1 0.036225 -0.002403 -0.004927 0.000000 0.000000 0.000000
# 2 -0.002403 0.018887 -0.004253 0.000000 0.000000 0.000000
# 3 -0.004927 -0.004253 0.013663 0.000000 0.000000 0.000000
# 4 0.000000 0.000000 0.000000 0.070134 0.000000 0.000000
# 5 0.000000 0.000000 0.000000 0.000000 0.435100 0.000000
# 6 0.000000 0.000000 0.000000 0.000000 0.000000 0.069361
#
#
# Mechanical properties :
#
#
# Convention : Reuss Voigt Hill
#
# Bulk Modulus (GPa) = 21.92576 28.07142 24.99859
# Shear Modulus (GPa) = 7.33418 15.01834 11.17626
#
# Velocity S-wave (km/s) = 1.83217 2.62180 2.26171
# Velocity P-wave (km/s) = 3.80935 4.69184 4.27343
#
# Compressibility (1/GPa) = 0.04560846
#
# Stress axis : x y z
#
# Youngs Moduli (GPa) = 27.60548 52.94567 73.18905
#
# Poissons Ratio (x) = 0.12724 0.36063
# Poissons Ratio (y) = 0.06634 0.31126
# Poissons Ratio (z) = 0.13602 0.22517
#
# Static dielectric constant tensor:
#      x y z
#    x 1.770020 0.000000 0.000000 
#    y 0.000000 1.819650 0.000000 
#    z 0.000000 0.000000 1.941690 
# 
# From -- ./inp_files/8300.got.cif
#   From: 2010.05.17/outbox.cif.g08.bks.cpg/sg56_5_cif.got.tgz:8300.got - 2010.06.03 13:42:01.
