data_PCOD9429005
_publ_section_title
;
Structure prediction by ZEFSAII (Michael W. Deem and Ramdas Pophale) SiO2 
 PCOD9429005
Probable space group: P B A M
;
_chemical_formula_sum "Si O2"
_cell_formula_units_Z 48
_cell_length_a 10.458621
_cell_length_b 16.034499
_cell_length_c 14.960213
_cell_angle_alpha 90.000000
_cell_angle_beta 90.000000
_cell_angle_gamma 90.000000
_cell_volume 2508.808989
_symmetry_space_group_name_H-M "P B A M"
_symmetry_group_IT_number 55
_symmetry_cell_setting 'orthorhombic'
loop_
_space_group_symop_operation_xyz
x,y,z
-x,-y,z
1/2+x,1/2-y,-z
1/2-x,1/2+y,-z
-x,-y,-z
x,y,-z
1/2-x,1/2+y,z
1/2+x,1/2-y,z
loop_
_atom_site_type_symbol
_atom_site_label
_atom_site_fract_x
_atom_site_fract_y
_atom_site_fract_z
Si Si1 0.787466 0.784573 0.105307
Si Si2 0.152830 0.018713 0.095530
Si Si3 0.197993 0.472279 0.399132
Si Si4 0.439487 0.135903 0.605152
Si Si5 0.107085 0.930610 0.260552
Si Si6 0.969772 0.253495 0.783156
O O1 0.822885 0.883312 0.106203
O O2 0.649825 0.775218 0.152387
O O3 0.896242 0.736601 0.163267
O O4 0.785431 0.759459 0.000000
O O5 0.194912 0.964882 0.179413
O O6 0.207298 0.991930 0.000000
O O7 0.000000 0.000000 0.092866
O O8 0.241761 0.479764 0.500000
O O9 0.168654 0.567324 0.369500
O O10 0.301893 0.423963 0.343746
O O11 0.068591 0.418833 0.397421
O O12 0.419069 0.164434 0.500000
O O13 0.455390 0.199992 0.687290
O O14 0.043016 0.844473 0.236282
O O15 0.000000 0.000000 0.278601
#
# Coordination Sequence:
#
# PCOD9429005 Si02
#       6
#     8   8   8   8   8   8
#     4  11  23  39  60  90 125 162 204 255 308 365
#     4   9  17  34  57  80 110 156 203 241 294 361
#     4   9  19  39  61  83 116 159 202 246 306 372
#     4   9  20  39  63  85 115 160 203 249 310 372
#     4  11  21  35  57  85 120 154 204 247 300 359
#     4  12  23  38  62  93 126 160 207 257 311 367
#
# _framework density 19.132584000000001
#
# number of rings (size 3 to 8) (size 9 to 14) (size 15 to 20)
#    0.000    1.833    3.333    3.500    0.000    1.667 
#    0.000    0.833    0.000    0.000    0.000   10.500 
#    0.000    0.000    0.000    0.000    0.000    0.000 
#
# Total GULP energy -267397.614477 kJ/mol
# GULP energy per Si atom -5570.783635 kJ/mol
# Density = 1.908904 g / cm^3
# Si number density = 19.132584 Si / 1000 Ang^3
#
#
#
# Elastic Constant Matrix: (Units=GPa)
#
#
# Indices 1 2 3 4 5 6 
#
# 1 45.5242 5.6097 23.5437 0.0000 0.0000 0.0000
# 2 5.6097 54.1940 31.7766 0.0000 0.0000 0.0000
# 3 23.5437 31.7766 102.3370 0.0000 0.0000 0.0000
# 4 0.0000 0.0000 0.0000 98.0566 0.0000 0.0000
# 5 0.0000 0.0000 0.0000 0.0000 34.5597 0.0000
# 6 0.0000 0.0000 0.0000 0.0000 0.0000 14.3265
#
#
#
# Elastic Compliance Matrix: (Units=1/GPa)
#
#
# Indices 1 2 3 4 5 6 
#
# 1 0.024973 0.000958 -0.006043 0.000000 0.000000 0.000000
# 2 0.000958 0.022596 -0.007237 0.000000 0.000000 0.000000
# 3 -0.006043 -0.007237 0.013409 0.000000 0.000000 0.000000
# 4 0.000000 0.000000 0.000000 0.010198 0.000000 0.000000
# 5 0.000000 0.000000 0.000000 0.000000 0.028935 0.000000
# 6 0.000000 0.000000 0.000000 0.000000 0.000000 0.069801
#
#
# Mechanical properties :
#
#
# Convention : Reuss Voigt Hill
#
# Bulk Modulus (GPa) = 27.52114 35.99058 31.75586
# Shear Modulus (GPa) = 24.19340 38.79691 31.49515
#
# Velocity S-wave (km/s) = 3.55986 4.50799 4.06168
# Velocity P-wave (km/s) = 5.59575 6.77849 6.21532
#
# Compressibility (1/GPa) = 0.03633571
#
# Stress axis : x y z
#
# Youngs Moduli (GPa) = 40.04248 44.25492 74.57694
#
# Poissons Ratio (x) = -0.04241 0.45066
# Poissons Ratio (y) = -0.03837 0.53970
# Poissons Ratio (z) = 0.24197 0.32026
#
# Static dielectric constant tensor:
#      x y z
#    x 1.666050 0.000000 0.000000 
#    y 0.000000 1.664740 0.000000 
#    z 0.000000 0.000000 1.738370 
# 
# From -- ./inp_files/18257.got.cif
#   From: 2010.05.17/outbox.cif.g08.bks.cpg/sg55_10_cif.got.tgz:18257.got - 2010.06.03 13:27:54.
