data_PCOD9429308
_publ_section_title
;
Structure prediction by ZEFSAII (Michael W. Deem and Ramdas Pophale) SiO2 
 PCOD9429308
Probable space group: P B A M
;
_chemical_formula_sum "Si O2"
_cell_formula_units_Z 56
_cell_length_a 21.000000
_cell_length_b 15.000000
_cell_length_c 9.000000
_cell_angle_alpha 90.000000
_cell_angle_beta 90.000000
_cell_angle_gamma 90.000000
_cell_volume 2835.000000
_symmetry_space_group_name_H-M "P B A M"
_symmetry_group_IT_number 55
_symmetry_cell_setting 'orthorhombic'
loop_
_space_group_symop_operation_xyz
x,y,z
-x,-y,z
1/2+x,1/2-y,-z
1/2-x,1/2+y,-z
-x,-y,-z
x,y,-z
1/2-x,1/2+y,z
1/2+x,1/2-y,z
loop_
_atom_site_type_symbol
_atom_site_label
_atom_site_fract_x
_atom_site_fract_y
_atom_site_fract_z
Si Si1 0.085382 0.354935 0.175890
Si Si2 0.840194 0.481730 0.176211
Si Si3 0.876075 0.820488 0.672071
Si Si4 0.572935 0.511962 0.318952
Si Si5 0.955279 0.375655 0.674467
Si Si6 0.727962 0.832765 0.327652
Si Si7 0.620746 0.701063 0.323004
O O1 0.146776 0.415424 0.215458
O O2 0.093203 0.253876 0.225917
O O3 0.024619 0.392527 0.262125
O O4 0.075151 0.362397 0.000000
O O5 0.902256 0.429529 0.235859
O O6 0.783105 0.427256 0.249060
O O7 0.835852 0.474411 0.000000
O O8 0.898067 0.809368 0.500000
O O9 0.890823 0.921266 0.718771
O O10 0.800721 0.806200 0.676838
O O11 0.500000 0.500000 0.270992
O O12 0.572459 0.517609 0.500000
O O13 0.603909 0.603812 0.262315
O O14 0.951382 0.396612 0.500000
O O15 0.937158 0.270983 0.693102
O O16 0.708861 0.845955 0.500000
O O17 0.682045 0.755388 0.264351
O O18 0.631606 0.689404 0.500000
#
# Coordination Sequence:
#
# PCOD9429308 Si02
#       7
#     8   8   8   8   8   8   8
#     4  11  23  36  51  75 109 146 179 215 267 325
#     4  10  21  36  54  77 108 145 178 211 261 325
#     4  10  21  35  54  79 104 136 181 228 268 313
#     4   9  16  28  49  76 102 130 169 217 269 320
#     4  10  19  33  56  83 108 136 174 221 269 317
#     4   9  19  35  54  79 106 134 176 224 268 318
#     4   8  15  29  50  75 103 132 163 209 268 321
#
# _framework density 19.753086
#
# number of rings (size 3 to 8) (size 9 to 14) (size 15 to 20)
#    0.000    2.429    0.000    3.429    0.000    8.000 
#    0.000    2.857    0.000    7.286    0.000    0.000 
#    0.000    0.000    0.000    0.000    0.000    0.000 
#
# Total GULP energy -312237.781413 kJ/mol
# GULP energy per Si atom -5575.674668 kJ/mol
# Density = 1.970813 g / cm^3
# Si number density = 19.753086 Si / 1000 Ang^3
#
#
#
# Elastic Constant Matrix: (Units=GPa)
#
#
# Indices 1 2 3 4 5 6 
#
# 1 42.2979 7.5984 7.3021 0.0000 0.0000 0.0000
# 2 7.5984 88.2606 1.4823 0.0000 0.0000 0.0000
# 3 7.3021 1.4823 13.1312 0.0000 0.0000 0.0000
# 4 0.0000 0.0000 0.0000 1.2349 0.0000 0.0000
# 5 0.0000 0.0000 0.0000 0.0000 -21.4437 0.0000
# 6 0.0000 0.0000 0.0000 0.0000 0.0000 16.4677
#
#
#
# Elastic Compliance Matrix: (Units=1/GPa)
#
#
# Indices 1 2 3 4 5 6 
#
# 1 0.026514 -0.002039 -0.014514 0.000000 0.000000 0.000000
# 2 -0.002039 0.011508 -0.000165 0.000000 0.000000 0.000000
# 3 -0.014514 -0.000165 0.084244 0.000000 0.000000 0.000000
# 4 0.000000 0.000000 0.000000 0.809758 0.000000 0.000000
# 5 0.000000 0.000000 0.000000 0.000000 -0.046634 0.000000
# 6 0.000000 0.000000 0.000000 0.000000 0.000000 0.060725
#
#
# Mechanical properties :
#
#
# Convention : Reuss Voigt Hill
#
# Bulk Modulus (GPa) = 11.25742 19.60614 15.43178
# Shear Modulus (GPa) = 4.95461 7.73892 6.34677
#
# Velocity S-wave (km/s) = 1.58547 1.98150 1.79444
# Velocity P-wave (km/s) = 3.01049 3.89644 3.48176
#
# Compressibility (1/GPa) = 0.08883031
#
# Stress axis : x y z
#
# Youngs Moduli (GPa) = 37.71637 86.89322 11.87028
#
# Poissons Ratio (x) = 0.17716 0.17228
# Poissons Ratio (y) = 0.07690 0.00196
# Poissons Ratio (z) = 0.54741 0.01436
#
# Static dielectric constant tensor:
#      x y z
#    x 1.718580 0.000000 0.000000 
#    y 0.000000 1.727900 0.000000 
#    z 0.000000 0.000000 1.666470 
# 
# From -- ./inp_files/8786.got.cif
#   From: 2010.05.17/outbox.ucp.g08.bks.cvg/sg55_5_cif.got.tgz:8786.got - 2010.06.11 16:36:00.
