data_PCOD9429209
_publ_section_title
;
Structure prediction by ZEFSAII (Michael W. Deem and Ramdas Pophale) SiO2 
 PCOD9429209
Probable space group: P B A M
;
_chemical_formula_sum "Si O2"
_cell_formula_units_Z 48
_cell_length_a 14.632672
_cell_length_b 8.667342
_cell_length_c 18.152818
_cell_angle_alpha 90.000000
_cell_angle_beta 90.000000
_cell_angle_gamma 90.000000
_cell_volume 2302.256059
_symmetry_space_group_name_H-M "P B A M"
_symmetry_group_IT_number 55
_symmetry_cell_setting 'orthorhombic'
loop_
_space_group_symop_operation_xyz
x,y,z
-x,-y,z
1/2+x,1/2-y,-z
1/2-x,1/2+y,-z
-x,-y,-z
x,y,-z
1/2-x,1/2+y,z
1/2+x,1/2-y,z
loop_
_atom_site_type_symbol
_atom_site_label
_atom_site_fract_x
_atom_site_fract_y
_atom_site_fract_z
Si Si1 0.699083 0.194111 0.500000
Si Si2 0.115300 0.647810 0.500000
Si Si3 0.098140 0.927909 0.875231
Si Si4 0.963522 0.333875 0.340537
Si Si5 0.225662 0.996704 0.000000
Si Si6 0.873963 0.289279 0.000000
Si Si7 0.855255 0.825453 0.340941
Si Si8 0.305038 0.350047 0.276019
O O1 0.808092 0.219257 0.500000
O O2 0.663758 0.273893 0.574985
O O3 0.667754 0.016505 0.500000
O O4 0.054667 0.658996 0.427627
O O5 0.162258 0.032223 0.928813
O O6 0.079327 0.776598 0.926761
O O7 0.159674 0.889119 0.805156
O O8 0.000000 0.000000 0.856652
O O9 0.868785 0.288389 0.304312
O O10 0.000000 0.500000 0.316593
O O11 0.038869 0.204396 0.324552
O O12 0.221419 0.809497 0.000000
O O13 0.330663 0.044505 0.000000
O O14 0.796601 0.711206 0.288798
O O15 0.824192 0.999128 0.325495
#
# Coordination Sequence:
#
# PCOD9429209 Si02
#       8
#     4   4   8   8   4   4   8   8
#     4  12  23  44  65  90 122 169 224 278 336 400
#     4  12  24  43  68  90 125 173 223 286 338 396
#     4   9  20  39  66  92 133 173 215 262 329 393
#     4  12  24  44  64  91 128 171 218 275 334 395
#     4   8  18  34  64  96 124 168 214 253 305 387
#     4   8  18  34  64  96 124 168 214 253 311 383
#     4  12  25  42  64  93 129 167 223 272 337 404
#     4  12  26  42  66  99 130 172 215 277 338 395
#
# _framework density 20.849114
#
# number of rings (size 3 to 8) (size 9 to 14) (size 15 to 20)
#    1.000    0.000    3.333    5.250    2.333    0.000 
#    0.000    1.667    0.000    1.000    0.000    0.000 
#    0.000    0.000    0.000    0.000    0.000    0.000 
#
# Total GULP energy -267812.623690 kJ/mol
# GULP energy per Si atom -5579.429660 kJ/mol
# Density = 2.080166 g / cm^3
# Si number density = 20.849114 Si / 1000 Ang^3
#
#
#
# Elastic Constant Matrix: (Units=GPa)
#
#
# Indices 1 2 3 4 5 6 
#
# 1 64.5053 7.1654 16.2063 0.0000 0.0000 0.0000
# 2 7.1654 64.3212 6.2720 0.0000 0.0000 0.0000
# 3 16.2063 6.2720 120.7606 0.0000 0.0000 0.0000
# 4 0.0000 0.0000 0.0000 8.1721 0.0000 0.0000
# 5 0.0000 0.0000 0.0000 0.0000 0.0575 0.0000
# 6 0.0000 0.0000 0.0000 0.0000 0.0000 46.4080
#
#
#
# Elastic Compliance Matrix: (Units=1/GPa)
#
#
# Indices 1 2 3 4 5 6 
#
# 1 0.016206 -0.001601 -0.002092 0.000000 0.000000 0.000000
# 2 -0.001601 0.015784 -0.000605 0.000000 0.000000 0.000000
# 3 -0.002092 -0.000605 0.008593 0.000000 0.000000 0.000000
# 4 0.000000 0.000000 0.000000 0.122367 0.000000 0.000000
# 5 0.000000 0.000000 0.000000 0.000000 17.390020 0.000000
# 6 0.000000 0.000000 0.000000 0.000000 0.000000 0.021548
#
#
# Mechanical properties :
#
#
# Convention : Reuss Voigt Hill
#
# Bulk Modulus (GPa) = 31.26232 34.31937 32.79085
# Shear Modulus (GPa) = 0.28419 25.59041 12.93730
#
# Velocity S-wave (km/s) = 0.36960 3.50724 2.49373
# Velocity P-wave (km/s) = 3.89990 5.73564 4.90443
#
# Compressibility (1/GPa) = 0.03198739
#
# Stress axis : x y z
#
# Youngs Moduli (GPa) = 61.70551 63.35387 116.37413
#
# Poissons Ratio (x) = 0.10145 0.24342
# Poissons Ratio (y) = 0.09881 0.07039
# Poissons Ratio (z) = 0.12907 0.03832
#
# Static dielectric constant tensor:
#      x y z
#    x 1.743350 0.000000 0.000000 
#    y 0.000000 1.762930 0.000000 
#    z 0.000000 0.000000 1.684130 
# 
# From -- ./inp_files/21563.got.cif
#   From: 2010.05.17/outbox.cif.g08.bks.cpg/sg55_11_cif.got.tgz:21563.got - 2010.06.03 13:27:54.
