data_PCOD9429257
_publ_section_title
;
Structure prediction by ZEFSAII (Michael W. Deem and Ramdas Pophale) SiO2 
 PCOD9429257
Probable space group: P B A M
;
_chemical_formula_sum "Si O2"
_cell_formula_units_Z 48
_cell_length_a 9.000000
_cell_length_b 30.000000
_cell_length_c 9.000000
_cell_angle_alpha 90.000000
_cell_angle_beta 90.000000
_cell_angle_gamma 90.000000
_cell_volume 2430.000000
_symmetry_space_group_name_H-M "P B A M"
_symmetry_group_IT_number 55
_symmetry_cell_setting 'orthorhombic'
loop_
_space_group_symop_operation_xyz
x,y,z
-x,-y,z
1/2+x,1/2-y,-z
1/2-x,1/2+y,-z
-x,-y,-z
x,y,-z
1/2-x,1/2+y,z
1/2+x,1/2-y,z
loop_
_atom_site_type_symbol
_atom_site_label
_atom_site_fract_x
_atom_site_fract_y
_atom_site_fract_z
Si Si1 0.170609 0.727789 0.819982
Si Si2 0.334801 0.386957 0.321296
Si Si3 0.099246 0.560354 0.180203
Si Si4 0.502764 0.147662 0.319592
Si Si5 0.790228 0.522582 0.319134
Si Si6 0.982971 0.804394 0.680995
O O1 0.329592 0.711809 0.755273
O O2 0.048707 0.692432 0.760590
O O3 0.115687 0.773542 0.744409
O O4 0.173571 0.730322 0.000000
O O5 0.337203 0.386839 0.500000
O O6 0.173638 0.365384 0.282415
O O7 0.329444 0.439181 0.279225
O O8 0.468680 0.354777 0.275277
O O9 0.221060 0.525996 0.245331
O O10 0.103696 0.609236 0.251918
O O11 0.942930 0.542150 0.248646
O O12 0.096611 0.560614 0.000000
O O13 0.489238 0.150177 0.500000
O O14 0.802775 0.519428 0.500000
O O15 0.973563 0.800869 0.500000
#
# Coordination Sequence:
#
# PCOD9429257 Si02
#       6
#     8   8   8   8   8   8
#     4  12  25  40  57  84 115 143 178 230 283 328
#     4   8  17  32  55  82 107 137 184 231 266 312
#     4  10  17  26  43  74 110 143 178 224 275 323
#     4  10  19  35  57  81 108 146 188 228 273 330
#     4   9  15  27  46  72 105 143 184 227 268 318
#     4  11  22  40  62  83 108 146 187 224 270 335
#
# _framework density 19.753086
#
# number of rings (size 3 to 8) (size 9 to 14) (size 15 to 20)
#    0.000    2.000    0.000    7.500    0.000    1.333 
#    0.000    9.167    0.000    1.000    0.000    7.000 
#    0.000    0.000    0.000    0.000    0.000    0.000 
#
# Total GULP energy -267734.230021 kJ/mol
# GULP energy per Si atom -5577.796459 kJ/mol
# Density = 1.970813 g / cm^3
# Si number density = 19.753086 Si / 1000 Ang^3
#
#
#
# Elastic Constant Matrix: (Units=GPa)
#
#
# Indices 1 2 3 4 5 6 
#
# 1 19.5033 -39.7837 -4.0522 0.0000 0.0000 0.0000
# 2 -39.7837 29.5007 -4.4405 0.0000 0.0000 0.0000
# 3 -4.0522 -4.4405 126.7982 0.0000 0.0000 0.0000
# 4 0.0000 0.0000 0.0000 24.8723 0.0000 0.0000
# 5 0.0000 0.0000 0.0000 0.0000 18.6150 0.0000
# 6 0.0000 0.0000 0.0000 0.0000 0.0000 16.5238
#
#
#
# Elastic Compliance Matrix: (Units=1/GPa)
#
#
# Indices 1 2 3 4 5 6 
#
# 1 -0.028615 -0.038932 -0.002278 0.000000 0.000000 0.000000
# 2 -0.038932 -0.018892 -0.001906 0.000000 0.000000 0.000000
# 3 -0.002278 -0.001906 0.007747 0.000000 0.000000 0.000000
# 4 0.000000 0.000000 0.000000 0.040205 0.000000 0.000000
# 5 0.000000 0.000000 0.000000 0.000000 0.053720 0.000000
# 6 0.000000 0.000000 0.000000 0.000000 0.000000 0.060519
#
#
# Mechanical properties :
#
#
# Convention : Reuss Voigt Hill
#
# Bulk Modulus (GPa) = -7.93713 8.80550 0.43419
# Shear Modulus (GPa) = 31.46258 26.94080 29.20169
#
# Velocity S-wave (km/s) = 3.99531 3.69708 3.84908
# Velocity P-wave (km/s) = 4.15409 4.76361 4.46925
#
# Compressibility (1/GPa) = -0.12599012
#
# Stress axis : x y z
#
# Youngs Moduli (GPa) = -34.94697 -52.93377 129.08198
#
# Poissons Ratio (x) = -2.06081 0.29403
# Poissons Ratio (y) = -1.36055 0.24600
# Poissons Ratio (z) = -0.07960 -0.10088
#
# Static dielectric constant tensor:
#      x y z
#    x 1.709760 0.000000 0.000000 
#    y 0.000000 1.815480 0.000000 
#    z 0.000000 0.000000 1.646310 
# 
# From -- ./inp_files/2856.got.cif
#   From: 2010.05.17/outbox.ucp.g08.bks.cvg/sg55_2_cif.got.tgz:2856.got - 2010.06.11 16:36:00.
