data_PCOD9429906
_publ_section_title
;
Structure prediction by ZEFSAII (Michael W. Deem and Ramdas Pophale) SiO2 
 PCOD9429906
Probable space group: P C C N
;
_chemical_formula_sum "Si O2"
_cell_formula_units_Z 60
_cell_length_a 16.970494
_cell_length_b 12.336780
_cell_length_c 13.404301
_cell_angle_alpha 90.000000
_cell_angle_beta 90.000000
_cell_angle_gamma 90.000000
_cell_volume 2806.341226
_symmetry_space_group_name_H-M "P C C N"
_symmetry_group_IT_number 56
_symmetry_cell_setting 'orthorhombic'
loop_
_space_group_symop_operation_xyz
x,y,z
1/2-x,1/2-y,z
1/2+x,-y,1/2-z
-x,1/2+y,1/2-z
-x,-y,-z
1/2+x,1/2+y,-z
1/2-x,y,1/2+z
x,1/2-y,1/2+z
loop_
_atom_site_type_symbol
_atom_site_label
_atom_site_fract_x
_atom_site_fract_y
_atom_site_fract_z
Si Si1 0.319495 0.969374 0.313585
Si Si2 0.615035 0.248427 0.684483
Si Si3 0.250000 0.250000 0.563670
Si Si4 0.885572 0.642240 0.815335
Si Si5 0.873083 0.922996 0.984917
Si Si6 0.035455 0.325168 0.805047
Si Si7 0.646768 0.487233 0.761420
Si Si8 0.500329 0.260150 0.525485
O O1 0.317564 0.840195 0.305355
O O2 0.231441 0.010942 0.289650
O O3 0.375589 0.025118 0.231382
O O4 0.356947 0.002069 0.420040
O O5 0.538544 0.190895 0.732910
O O6 0.627808 0.362172 0.738446
O O7 0.588043 0.260311 0.569559
O O8 0.304675 0.323428 0.632960
O O9 0.308873 0.173442 0.504139
O O10 0.905636 0.727853 0.727966
O O11 0.951133 0.662878 0.899080
O O12 0.956386 0.858066 0.977151
O O13 0.856684 0.982912 0.879382
O O14 0.081097 0.436205 0.787884
O O15 0.006955 0.307358 0.916227
#
# Coordination Sequence:
#
# PCOD9429906 Si02
#       8
#     8   8   4   8   8   8   8   8
#     4  12  26  44  70 100 142 188 220 285 346 423
#     4  11  28  47  65  97 147 182 234 275 341 427
#     4  10  18  38  60 108 134 162 224 284 342 392
#     4  10  19  38  64  99 138 162 222 290 339 390
#     4  11  23  40  74 100 136 174 234 283 357 402
#     4  11  23  43  74  99 132 180 229 301 338 398
#     4  12  26  47  67 103 140 183 229 285 346 419
#     4  10  23  41  67 107 128 174 231 286 343 403
#
# _framework density 21.380151000000001
#
# number of rings (size 3 to 8) (size 9 to 14) (size 15 to 20)
#    0.000    1.067    6.667    0.400    9.333    1.600 
#    2.400    1.333    0.000    0.000    0.000    0.000 
#    0.000    0.000    0.000    0.000    0.000    0.000 
#
# Total GULP energy -335247.618841 kJ/mol
# GULP energy per Si atom -5587.460314 kJ/mol
# Density = 2.133149 g / cm^3
# Si number density = 21.380151 Si / 1000 Ang^3
#
#
#
# Elastic Constant Matrix: (Units=GPa)
#
#
# Indices 1 2 3 4 5 6 
#
# 1 26.7889 -9.9596 -14.7030 0.0000 0.0000 0.0000
# 2 -9.9596 95.6805 1.7683 0.0000 0.0000 0.0000
# 3 -14.7030 1.7683 89.2578 0.0000 0.0000 0.0000
# 4 0.0000 0.0000 0.0000 0.9563 0.0000 0.0000
# 5 0.0000 0.0000 0.0000 0.0000 15.7009 0.0000
# 6 0.0000 0.0000 0.0000 0.0000 0.0000 27.6240
#
#
#
# Elastic Compliance Matrix: (Units=1/GPa)
#
#
# Indices 1 2 3 4 5 6 
#
# 1 0.042754 0.004322 0.006957 0.000000 0.000000 0.000000
# 2 0.004322 0.010892 0.000496 0.000000 0.000000 0.000000
# 3 0.006957 0.000496 0.012340 0.000000 0.000000 0.000000
# 4 0.000000 0.000000 0.000000 1.045733 0.000000 0.000000
# 5 0.000000 0.000000 0.000000 0.000000 0.063691 0.000000
# 6 0.000000 0.000000 0.000000 0.000000 0.000000 0.036200
#
#
# Mechanical properties :
#
#
# Convention : Reuss Voigt Hill
#
# Bulk Modulus (GPa) = 11.16872 18.43763 14.80317
# Shear Modulus (GPa) = 4.10541 24.49768 14.30154
#
# Velocity S-wave (km/s) = 1.38721 3.38866 2.58915
# Velocity P-wave (km/s) = 2.79303 4.89419 3.98460
#
# Compressibility (1/GPa) = 0.08953579
#
# Stress axis : x y z
#
# Youngs Moduli (GPa) = 23.38958 91.80930 81.03944
#
# Poissons Ratio (x) = -0.39678 -0.56380
# Poissons Ratio (y) = -0.10108 -0.04021
# Poissons Ratio (z) = -0.16272 -0.04555
#
# Static dielectric constant tensor:
#      x y z
#    x 1.819550 0.000000 0.000000 
#    y 0.000000 1.795210 0.000000 
#    z 0.000000 0.000000 1.756160 
# 
# From -- ./inp_files/12821.got.cif
#   From: 2010.05.17/outbox.cif.g08.bks.cpg/sg56_7_cif.got.tgz:12821.got - 2010.06.03 13:42:01.
