data_PCOD9429240
_publ_section_title
;
Structure prediction by ZEFSAII (Michael W. Deem and Ramdas Pophale) SiO2 
 PCOD9429240
Probable space group: P B A M
;
_chemical_formula_sum "Si O2"
_cell_formula_units_Z 48
_cell_length_a 16.711501
_cell_length_b 18.562940
_cell_length_c 7.440334
_cell_angle_alpha 90.000000
_cell_angle_beta 90.000000
_cell_angle_gamma 90.000000
_cell_volume 2308.100164
_symmetry_space_group_name_H-M "P B A M"
_symmetry_group_IT_number 55
_symmetry_cell_setting 'orthorhombic'
loop_
_space_group_symop_operation_xyz
x,y,z
-x,-y,z
1/2+x,1/2-y,-z
1/2-x,1/2+y,-z
-x,-y,-z
x,y,-z
1/2-x,1/2+y,z
1/2+x,1/2-y,z
loop_
_atom_site_type_symbol
_atom_site_label
_atom_site_fract_x
_atom_site_fract_y
_atom_site_fract_z
Si Si1 0.921340 0.287007 0.720389
Si Si2 0.748896 0.946196 0.786213
Si Si3 0.749120 0.278525 0.296080
Si Si4 0.581090 0.468862 0.792663
Si Si5 0.922504 0.800316 0.280832
Si Si6 0.426631 0.047489 0.715464
O O1 0.918638 0.287056 0.500000
O O2 0.834985 0.257386 0.783665
O O3 0.930268 0.369882 0.779857
O O4 0.998159 0.241514 0.774467
O O5 0.746111 0.866279 0.701337
O O6 0.829742 0.984885 0.719419
O O7 0.662608 0.981212 0.755058
O O8 0.758069 0.935345 0.000000
O O9 0.747625 0.250890 0.500000
O O10 0.661231 0.264733 0.217617
O O11 0.500000 0.500000 0.708671
O O12 0.574995 0.382401 0.784077
O O13 0.582022 0.493858 0.000000
O O14 0.919788 0.802011 0.500000
O O15 0.433696 0.050274 0.500000
O O16 0.500000 0.000000 0.784348
#
# Coordination Sequence:
#
# PCOD9429240 Si02
#       6
#     8   8   8   8   8   8
#     4   8  14  26  43  63  86 110 138 173 212 251
#     4   9  16  27  45  65  84 111 148 183 214 255
#     4   8  14  26  43  60  82 113 144 173 211 260
#     4   9  18  32  47  63  87 118 147 178 221 266
#     4   9  16  27  45  66  85 109 144 182 215 252
#     4   9  17  30  47  66  90 119 147 176 215 262
#
# _framework density 20.796323000000001
#
# number of rings (size 3 to 8) (size 9 to 14) (size 15 to 20)
#    0.000    3.333    0.000    1.500    0.000    1.333 
#    0.000    5.000    0.000    4.000    0.000    0.000 
#    0.000    0.000    0.000    0.000    0.000    0.000 
#
# Total GULP energy -267253.540149 kJ/mol
# GULP energy per Si atom -5567.782086 kJ/mol
# Density = 2.074899 g / cm^3
# Si number density = 20.796323 Si / 1000 Ang^3
#
#
#
# Elastic Constant Matrix: (Units=GPa)
#
#
# Indices 1 2 3 4 5 6 
#
# 1 266.5369 51.7399 -5.4492 0.0000 0.0000 0.0000
# 2 51.7399 20.4690 -5.8491 0.0000 0.0000 0.0000
# 3 -5.4492 -5.8491 70.1122 0.0000 0.0000 0.0000
# 4 0.0000 0.0000 0.0000 10.5776 0.0000 0.0000
# 5 0.0000 0.0000 0.0000 0.0000 10.2693 0.0000
# 6 0.0000 0.0000 0.0000 0.0000 0.0000 39.3974
#
#
#
# Elastic Compliance Matrix: (Units=1/GPa)
#
#
# Indices 1 2 3 4 5 6 
#
# 1 0.007436 -0.019086 -0.001014 0.000000 0.000000 0.000000
# 2 -0.019086 0.099036 0.006779 0.000000 0.000000 0.000000
# 3 -0.001014 0.006779 0.014750 0.000000 0.000000 0.000000
# 4 0.000000 0.000000 0.000000 0.094539 0.000000 0.000000
# 5 0.000000 0.000000 0.000000 0.000000 0.097377 0.000000
# 6 0.000000 0.000000 0.000000 0.000000 0.000000 0.025382
#
#
# Mechanical properties :
#
#
# Convention : Reuss Voigt Hill
#
# Bulk Modulus (GPa) = 10.57326 48.66681 29.62004
# Shear Modulus (GPa) = 12.60427 33.16064 22.88245
#
# Velocity S-wave (km/s) = 2.46454 3.99751 3.32069
# Velocity P-wave (km/s) = 3.63234 6.69023 5.38298
#
# Compressibility (1/GPa) = 0.09457818
#
# Stress axis : x y z
#
# Youngs Moduli (GPa) = 134.47907 10.09730 67.79880
#
# Poissons Ratio (x) = 0.19272 0.06877
# Poissons Ratio (y) = 2.56670 -0.45959
# Poissons Ratio (z) = 0.13641 -0.06845
#
# Static dielectric constant tensor:
#      x y z
#    x 1.831980 0.000000 0.000000 
#    y 0.000000 1.683740 0.000000 
#    z 0.000000 0.000000 1.775810 
# 
# From -- ./inp_files/5814.got.cif
#   From: 2010.05.17/outbox.cif.g08.bks.cpg/sg55_3_cif.got.tgz:5814.got - 2010.06.03 13:27:54.
