data_PCOD9429238
_publ_section_title
;
Structure prediction by ZEFSAII (Michael W. Deem and Ramdas Pophale) SiO2 
 PCOD9429238
Probable space group: P B A M
;
_chemical_formula_sum "Si O2"
_cell_formula_units_Z 48
_cell_length_a 29.263533
_cell_length_b 8.001911
_cell_length_c 7.406584
_cell_angle_alpha 90.000000
_cell_angle_beta 90.000000
_cell_angle_gamma 90.000000
_cell_volume 1734.356718
_symmetry_space_group_name_H-M "P B A M"
_symmetry_group_IT_number 55
_symmetry_cell_setting 'orthorhombic'
loop_
_space_group_symop_operation_xyz
x,y,z
-x,-y,z
1/2+x,1/2-y,-z
1/2-x,1/2+y,-z
-x,-y,-z
x,y,-z
1/2-x,1/2+y,z
1/2+x,1/2-y,z
loop_
_atom_site_type_symbol
_atom_site_label
_atom_site_fract_x
_atom_site_fract_y
_atom_site_fract_z
Si Si1 0.176583 0.224852 0.217575
Si Si2 0.010948 0.266722 0.283738
Si Si3 0.845547 0.237395 0.784202
Si Si4 0.569873 0.550170 0.284363
Si Si5 0.902924 0.553090 0.215117
Si Si6 0.262499 0.054814 0.218915
O O1 0.127772 0.291578 0.287032
O O2 0.210568 0.078734 0.284415
O O3 0.209207 0.387274 0.252670
O O4 0.171737 0.204595 0.000000
O O5 0.007421 0.264195 0.500000
O O6 0.043343 0.425106 0.246833
O O7 0.961582 0.205158 0.215125
O O8 0.044341 0.115412 0.218737
O O9 0.876835 0.074723 0.755814
O O10 0.879028 0.385721 0.714906
O O11 0.795799 0.294252 0.718745
O O12 0.841221 0.246700 0.000000
O O13 0.566320 0.545842 0.500000
O O14 0.896834 0.549607 0.000000
O O15 0.258913 0.062176 0.000000
#
# Coordination Sequence:
#
# PCOD9429238 Si02
#       6
#     8   8   8   8   8   8
#     4   8  14  25  41  63  92 122 150 182 221 266
#     4   9  19  35  51  67  90 121 157 195 233 275
#     4   9  18  31  47  71 100 124 150 189 233 274
#     4   9  19  35  51  67  90 121 157 195 233 275
#     4   9  18  31  47  71 100 124 150 189 233 274
#     4   8  14  25  41  63  92 122 150 182 221 266
#
# _framework density 27.675967
#
# number of rings (size 3 to 8) (size 9 to 14) (size 15 to 20)
#    0.000    3.333    0.000    3.000    0.000    4.000 
#    0.000    8.333    0.000    1.000    0.000    0.000 
#    0.000    0.000    0.000    0.000    0.000    0.000 
#
# Total GULP energy -268048.272167 kJ/mol
# GULP energy per Si atom -5584.339003 kJ/mol
# Density = 2.761298 g / cm^3
# Si number density = 27.675967 Si / 1000 Ang^3
#
#
#
# Elastic Constant Matrix: (Units=GPa)
#
#
# Indices 1 2 3 4 5 6 
#
# 1 200.5615 -17.7238 -17.0795 0.0000 0.0000 0.0000
# 2 -17.7238 38.8874 -13.7906 0.0000 0.0000 0.0000
# 3 -17.0795 -13.7906 91.9905 0.0000 0.0000 0.0000
# 4 0.0000 0.0000 0.0000 10.4825 0.0000 0.0000
# 5 0.0000 0.0000 0.0000 0.0000 -38.7375 0.0000
# 6 0.0000 0.0000 0.0000 0.0000 0.0000 54.7808
#
#
#
# Elastic Compliance Matrix: (Units=1/GPa)
#
#
# Indices 1 2 3 4 5 6 
#
# 1 0.005370 0.002958 0.001441 0.000000 0.000000 0.000000
# 2 0.002958 0.028789 0.004865 0.000000 0.000000 0.000000
# 3 0.001441 0.004865 0.011867 0.000000 0.000000 0.000000
# 4 0.000000 0.000000 0.000000 0.095397 0.000000 0.000000
# 5 0.000000 0.000000 0.000000 0.000000 -0.025815 0.000000
# 6 0.000000 0.000000 0.000000 0.000000 0.000000 0.018255
#
#
# Mechanical properties :
#
#
# Convention : Reuss Voigt Hill
#
# Bulk Modulus (GPa) = 15.49070 26.02794 20.75932
# Shear Modulus (GPa) = 36.53542 30.64072 33.58807
#
# Velocity S-wave (km/s) = 3.63728 3.33096 3.48748
# Velocity P-wave (km/s) = 4.82173 4.92124 4.87174
#
# Compressibility (1/GPa) = 0.06455485
#
# Stress axis : x y z
#
# Youngs Moduli (GPa) = 186.21568 34.73549 84.26375
#
# Poissons Ratio (x) = -0.10276 -0.12139
# Poissons Ratio (y) = -0.55090 -0.40996
# Poissons Ratio (z) = -0.26825 -0.16899
#
# Static dielectric constant tensor:
#      x y z
#    x 2.143220 0.000000 0.000000 
#    y 0.000000 2.379960 0.000000 
#    z 0.000000 0.000000 2.041400 
# 
# From -- ./inp_files/2755.got.cif
#   From: 2010.05.17/outbox.cif.g08.bks.cpg/sg55_2_cif.got.tgz:2755.got - 2010.06.03 13:27:54.
