data_PCOD9429129
_publ_section_title
;
Structure prediction by ZEFSAII (Michael W. Deem and Ramdas Pophale) SiO2 
 PCOD9429129
Probable space group: P B A M
;
_chemical_formula_sum "Si O2"
_cell_formula_units_Z 40
_cell_length_a 13.680060
_cell_length_b 8.625470
_cell_length_c 14.698203
_cell_angle_alpha 90.000000
_cell_angle_beta 90.000000
_cell_angle_gamma 90.000000
_cell_volume 1734.343082
_symmetry_space_group_name_H-M "P B A M"
_symmetry_group_IT_number 55
_symmetry_cell_setting 'orthorhombic'
loop_
_space_group_symop_operation_xyz
x,y,z
-x,-y,z
1/2+x,1/2-y,-z
1/2-x,1/2+y,-z
-x,-y,-z
x,y,-z
1/2-x,1/2+y,z
1/2+x,1/2-y,z
loop_
_atom_site_type_symbol
_atom_site_label
_atom_site_fract_x
_atom_site_fract_y
_atom_site_fract_z
Si Si1 0.053003 0.646128 0.838957
Si Si2 0.110426 0.543636 0.639042
Si Si3 0.213938 0.866576 0.102631
Si Si4 0.791035 0.781557 0.399719
Si Si5 0.634500 0.336284 0.206194
O O1 0.098963 0.577913 0.746055
O O2 0.134846 0.728874 0.896833
O O3 0.000000 0.500000 0.884230
O O4 0.974911 0.776108 0.808165
O O5 0.174486 0.687686 0.603866
O O6 0.176971 0.396158 0.614582
O O7 0.000000 0.500000 0.607762
O O8 0.298677 0.802872 0.167228
O O9 0.162812 0.015372 0.146866
O O10 0.247143 0.897815 0.000000
O O11 0.825380 0.831468 0.500000
O O12 0.839400 0.863067 0.311809
#
# Coordination Sequence:
#
# PCOD9429129 Si02
#       5
#     8   8   8   8   8
#     4  11  23  45  73 101 140 196 238 306 386 441
#     4  11  24  48  71 108 145 197 245 309 377 442
#     4  12  27  45  74 105 143 195 247 311 379 453
#     4  12  25  44  76 109 145 198 250 304 374 457
#     4  12  24  46  70 105 149 186 246 308 375 444
#
# _framework density 23.063486000000001
#
# number of rings (size 3 to 8) (size 9 to 14) (size 15 to 20)
#    0.000    0.400    6.000    4.200    0.000    4.400 
#    0.000    1.000    0.000    3.600    0.000    0.000 
#    0.000    0.000    0.000    0.000    0.000    0.000 
#
# Total GULP energy -223735.403121 kJ/mol
# GULP energy per Si atom -5593.385078 kJ/mol
# Density = 2.301099 g / cm^3
# Si number density = 23.063486 Si / 1000 Ang^3
#
#
#
# Elastic Constant Matrix: (Units=GPa)
#
#
# Indices 1 2 3 4 5 6 
#
# 1 129.5277 44.1912 25.3226 0.0000 0.0000 0.0000
# 2 44.1912 87.1701 14.9691 0.0000 0.0000 0.0000
# 3 25.3226 14.9691 145.0997 0.0000 0.0000 0.0000
# 4 0.0000 0.0000 0.0000 23.3467 0.0000 0.0000
# 5 0.0000 0.0000 0.0000 0.0000 -1.1781 0.0000
# 6 0.0000 0.0000 0.0000 0.0000 0.0000 62.3295
#
#
#
# Elastic Compliance Matrix: (Units=1/GPa)
#
#
# Indices 1 2 3 4 5 6 
#
# 1 0.009531 -0.004628 -0.001186 0.000000 0.000000 0.000000
# 2 -0.004628 0.013926 -0.000629 0.000000 0.000000 0.000000
# 3 -0.001186 -0.000629 0.007164 0.000000 0.000000 0.000000
# 4 0.000000 0.000000 0.000000 0.042833 0.000000 0.000000
# 5 0.000000 0.000000 0.000000 0.000000 -0.848806 0.000000
# 6 0.000000 0.000000 0.000000 0.000000 0.000000 0.016044
#
#
# Mechanical properties :
#
#
# Convention : Reuss Voigt Hill
#
# Bulk Modulus (GPa) = 56.38634 58.97371 57.68003
# Shear Modulus (GPa) = -6.75209 35.38726 14.31758
#
# Velocity S-wave (km/s) = -1.71288 3.92132 2.49427
# Velocity P-wave (km/s) = 4.53756 6.79176 5.77570
#
# Compressibility (1/GPa) = 0.01773479
#
# Stress axis : x y z
#
# Youngs Moduli (GPa) = 104.91829 71.80744 139.59338
#
# Poissons Ratio (x) = 0.33234 0.16554
# Poissons Ratio (y) = 0.48559 0.08780
# Poissons Ratio (z) = 0.12442 0.04516
#
# Static dielectric constant tensor:
#      x y z
#    x 1.884970 0.000000 0.000000 
#    y 0.000000 1.890310 0.000000 
#    z 0.000000 0.000000 1.853490 
# 
# From -- ./inp_files/18743.got.cif
#   From: 2010.05.17/outbox.cif.g08.bks.cpg/sg55_10_cif.got.tgz:18743.got - 2010.06.03 13:27:54.
