data_PCOD9429828
_publ_section_title
;
Structure prediction by ZEFSAII (Michael W. Deem and Ramdas Pophale) SiO2 
 PCOD9429828
Probable space group: P C C N
;
_chemical_formula_sum "Si O2"
_cell_formula_units_Z 48
_cell_length_a 13.343968
_cell_length_b 22.935646
_cell_length_c 9.320138
_cell_angle_alpha 90.000000
_cell_angle_beta 90.000000
_cell_angle_gamma 90.000000
_cell_volume 2852.451780
_symmetry_space_group_name_H-M "P C C N"
_symmetry_group_IT_number 56
_symmetry_cell_setting 'orthorhombic'
loop_
_space_group_symop_operation_xyz
x,y,z
1/2-x,1/2-y,z
1/2+x,-y,1/2-z
-x,1/2+y,1/2-z
-x,-y,-z
1/2+x,1/2+y,-z
1/2-x,y,1/2+z
x,1/2-y,1/2+z
loop_
_atom_site_type_symbol
_atom_site_label
_atom_site_fract_x
_atom_site_fract_y
_atom_site_fract_z
Si Si1 0.045166 0.929033 0.161423
Si Si2 0.131699 0.000964 0.405914
Si Si3 0.146891 0.811490 0.530584
Si Si4 0.447531 0.572521 0.646813
Si Si5 0.138431 0.807999 0.182753
Si Si6 0.363808 0.510047 0.901539
O O1 0.062970 0.860659 0.148959
O O2 0.936033 0.954844 0.126317
O O3 0.079569 0.948607 0.318309
O O4 0.119885 0.966518 0.061471
O O5 0.248479 0.003654 0.374634
O O6 0.064654 0.056862 0.367490
O O7 0.111322 0.980463 0.567460
O O8 0.081310 0.866614 0.577548
O O9 0.152434 0.804175 0.356835
O O10 0.256418 0.822092 0.602164
O O11 0.108176 0.753106 0.610027
O O12 0.407871 0.563561 0.807311
#
# Coordination Sequence:
#
# PCOD9429828 Si02
#       6
#     8   8   8   8   8   8
#     4  10  21  33  50  80 103 138 170 210 253 310
#     4  10  18  35  51  78 102 137 165 213 254 305
#     4  11  22  35  52  77 101 141 170 215 254 310
#     4  10  21  31  54  76 105 133 174 203 258 306
#     4  11  22  35  53  75 105 136 177 208 262 301
#     4  10  20  33  53  76 108 135 171 207 258 302
#
# _framework density 16.827629000000002
#
# number of rings (size 3 to 8) (size 9 to 14) (size 15 to 20)
#    0.000    1.667    1.667    5.000    4.667    0.000 
#    0.000    0.000    0.000    1.000    0.000    2.333 
#    0.000    0.000    0.000    0.000    0.000    0.000 
#
# Total GULP energy -267523.455418 kJ/mol
# GULP energy per Si atom -5573.405321 kJ/mol
# Density = 1.678933 g / cm^3
# Si number density = 16.827629 Si / 1000 Ang^3
#
#
#
# Elastic Constant Matrix: (Units=GPa)
#
#
# Indices 1 2 3 4 5 6 
#
# 1 101.3079 57.7041 11.8742 0.0000 0.0000 0.0000
# 2 57.7041 112.9489 28.7224 0.0000 0.0000 0.0000
# 3 11.8742 28.7224 62.1543 0.0000 0.0000 0.0000
# 4 0.0000 0.0000 0.0000 22.5549 0.0000 0.0000
# 5 0.0000 0.0000 0.0000 0.0000 16.6009 0.0000
# 6 0.0000 0.0000 0.0000 0.0000 0.0000 20.5586
#
#
#
# Elastic Compliance Matrix: (Units=1/GPa)
#
#
# Indices 1 2 3 4 5 6 
#
# 1 0.013950 -0.007308 0.000712 0.000000 0.000000 0.000000
# 2 -0.007308 0.013861 -0.005009 0.000000 0.000000 0.000000
# 3 0.000712 -0.005009 0.018268 0.000000 0.000000 0.000000
# 4 0.000000 0.000000 0.000000 0.044336 0.000000 0.000000
# 5 0.000000 0.000000 0.000000 0.000000 0.060238 0.000000
# 6 0.000000 0.000000 0.000000 0.000000 0.000000 0.048641
#
#
# Mechanical properties :
#
#
# Convention : Reuss Voigt Hill
#
# Bulk Modulus (GPa) = 43.72826 52.55695 48.14261
# Shear Modulus (GPa) = 21.72712 23.81691 22.77201
#
# Velocity S-wave (km/s) = 3.59717 3.76619 3.68265
# Velocity P-wave (km/s) = 6.57991 7.08608 6.83768
#
# Compressibility (1/GPa) = 0.02286851
#
# Stress axis : x y z
#
# Youngs Moduli (GPa) = 71.68473 72.14540 54.74120
#
# Poissons Ratio (x) = 0.52723 -0.03898
# Poissons Ratio (y) = 0.52387 0.27421
# Poissons Ratio (z) = -0.05104 0.36139
#
# Static dielectric constant tensor:
#      x y z
#    x 1.556990 0.000000 0.000000 
#    y 0.000000 1.573750 0.000000 
#    z 0.000000 0.000000 1.595380 
# 
# From -- ./inp_files/3478.got.cif
#   From: 2010.05.17/outbox.cif.g08.bks.cpg/sg56_2_cif.got.tgz:3478.got - 2010.06.03 13:42:01.
