data_PCOD9429236
_publ_section_title
;
Structure prediction by ZEFSAII (Michael W. Deem and Ramdas Pophale) SiO2 
 PCOD9429236
Probable space group: P B A M
;
_chemical_formula_sum "Si O2"
_cell_formula_units_Z 56
_cell_length_a 14.541945
_cell_length_b 8.111035
_cell_length_c 20.686723
_cell_angle_alpha 90.000000
_cell_angle_beta 90.000000
_cell_angle_gamma 90.000000
_cell_volume 2440.003630
_symmetry_space_group_name_H-M "P B A M"
_symmetry_group_IT_number 55
_symmetry_cell_setting 'orthorhombic'
loop_
_space_group_symop_operation_xyz
x,y,z
-x,-y,z
1/2+x,1/2-y,-z
1/2-x,1/2+y,-z
-x,-y,-z
x,y,-z
1/2-x,1/2+y,z
1/2+x,1/2-y,z
loop_
_atom_site_type_symbol
_atom_site_label
_atom_site_fract_x
_atom_site_fract_y
_atom_site_fract_z
Si Si1 0.603758 0.328743 0.847959
Si Si2 0.604906 0.371355 0.703806
Si Si3 0.729333 0.045563 0.299658
Si Si4 0.293793 0.021585 0.842522
Si Si5 0.446786 0.177451 0.926144
Si Si6 0.349805 0.061529 0.430668
Si Si7 0.474103 0.730449 0.570538
O O1 0.563658 0.345699 0.775032
O O2 0.685300 0.461341 0.858401
O O3 0.518649 0.306630 0.895791
O O4 0.663364 0.159324 0.852588
O O5 0.660952 0.541830 0.705705
O O6 0.550368 0.355097 0.637558
O O7 0.677742 0.218840 0.700331
O O8 0.696568 0.951989 0.234766
O O9 0.709146 0.954650 0.366923
O O10 0.356584 0.145678 0.883289
O O11 0.500000 0.000000 0.925816
O O12 0.423669 0.218089 0.000000
O O13 0.299719 0.067646 0.500000
O O14 0.419978 0.213386 0.427775
O O15 0.413577 0.898337 0.430081
O O16 0.454172 0.652939 0.500000
#
# Coordination Sequence:
#
# PCOD9429236 Si02
#       7
#     8   8   8   8   8   8   8
#     4   9  18  32  50  72  98 126 157 195 236 278
#     4   9  17  28  44  65  88 114 147 183 223 268
#     4   9  17  28  44  65  88 114 147 183 223 268
#     4   9  18  32  50  72  98 126 157 195 236 278
#     4   9  18  32  51  75  98 124 160 195 231 279
#     4   8  14  24  39  61  86 111 144 186 224 257
#     4   8  14  24  39  61  86 111 144 186 224 257
#
# _framework density 22.950786000000001
#
# number of rings (size 3 to 8) (size 9 to 14) (size 15 to 20)
#    0.000    3.286    0.000    0.857    2.000    1.143 
#    0.000    0.714    0.000    1.714    0.000    2.000 
#    0.000    0.000    0.000    0.000    0.000    0.000 
#
# Total GULP energy -312324.195809 kJ/mol
# GULP energy per Si atom -5577.217782 kJ/mol
# Density = 2.289855 g / cm^3
# Si number density = 22.950786 Si / 1000 Ang^3
#
#
#
# Elastic Constant Matrix: (Units=GPa)
#
#
# Indices 1 2 3 4 5 6 
#
# 1 49.5886 32.5937 41.2912 0.0000 0.0000 0.0000
# 2 32.5937 63.1415 49.1581 0.0000 0.0000 0.0000
# 3 41.2912 49.1581 130.8567 0.0000 0.0000 0.0000
# 4 0.0000 0.0000 0.0000 -58.1726 0.0000 0.0000
# 5 0.0000 0.0000 0.0000 0.0000 29.4107 0.0000
# 6 0.0000 0.0000 0.0000 0.0000 0.0000 36.3617
#
#
#
# Elastic Compliance Matrix: (Units=1/GPa)
#
#
# Indices 1 2 3 4 5 6 
#
# 1 0.033303 -0.012734 -0.005725 0.000000 0.000000 0.000000
# 2 -0.012734 0.027253 -0.006220 0.000000 0.000000 0.000000
# 3 -0.005725 -0.006220 0.011785 0.000000 0.000000 0.000000
# 4 0.000000 0.000000 0.000000 -0.017190 0.000000 0.000000
# 5 0.000000 0.000000 0.000000 0.000000 0.034001 0.000000
# 6 0.000000 0.000000 0.000000 0.000000 0.000000 0.027501
#
#
# Mechanical properties :
#
#
# Convention : Reuss Voigt Hill
#
# Bulk Modulus (GPa) = 43.50941 54.40810 48.95875
# Shear Modulus (GPa) = 28.78999 9.55620 19.17310
#
# Velocity S-wave (km/s) = 3.54563 2.04275 2.89347
# Velocity P-wave (km/s) = 5.98003 5.41495 5.70449
#
# Compressibility (1/GPa) = 0.02298353
#
# Stress axis : x y z
#
# Youngs Moduli (GPa) = 30.02774 36.69305 84.85369
#
# Poissons Ratio (x) = 0.46724 0.48577
# Poissons Ratio (y) = 0.38237 0.52778
# Poissons Ratio (z) = 0.17190 0.22823
#
# Static dielectric constant tensor:
#      x y z
#    x 1.849060 0.000000 0.000000 
#    y 0.000000 1.904740 0.000000 
#    z 0.000000 0.000000 1.845070 
# 
# From -- ./inp_files/22979.got.cif
#   From: 2010.05.17/outbox.cif.g08.bks.cpg/sg55_12_cif.got.tgz:22979.got - 2010.06.03 13:27:54.
