data_PCOD9429022
_publ_section_title
;
Structure prediction by ZEFSAII (Michael W. Deem and Ramdas Pophale) SiO2 
 PCOD9429022
Probable space group: P B A M
;
_chemical_formula_sum "Si O2"
_cell_formula_units_Z 56
_cell_length_a 15.540304
_cell_length_b 11.413268
_cell_length_c 15.507455
_cell_angle_alpha 90.000000
_cell_angle_beta 90.000000
_cell_angle_gamma 90.000000
_cell_volume 2750.489903
_symmetry_space_group_name_H-M "P B A M"
_symmetry_group_IT_number 55
_symmetry_cell_setting 'orthorhombic'
loop_
_space_group_symop_operation_xyz
x,y,z
-x,-y,z
1/2+x,1/2-y,-z
1/2-x,1/2+y,-z
-x,-y,-z
x,y,-z
1/2-x,1/2+y,z
1/2+x,1/2-y,z
loop_
_atom_site_type_symbol
_atom_site_label
_atom_site_fract_x
_atom_site_fract_y
_atom_site_fract_z
Si Si1 0.945943 0.677265 0.733609
Si Si2 0.635508 0.026292 0.599372
Si Si3 0.910756 0.939068 0.725230
Si Si4 0.821646 0.095038 0.403730
Si Si5 0.136339 0.703358 0.708383
Si Si6 0.224236 0.309924 0.158248
Si Si7 0.818167 0.951052 0.097355
O O1 0.937369 0.593785 0.651706
O O2 0.920419 0.805327 0.703758
O O3 0.870447 0.654739 0.803955
O O4 0.046536 0.683330 0.759589
O O5 0.616420 0.994351 0.500000
O O6 0.718959 0.111148 0.596997
O O7 0.658851 0.916882 0.660764
O O8 0.886331 0.954892 0.825100
O O9 0.840507 0.995702 0.665090
O O10 0.000000 0.000000 0.707613
O O11 0.846792 0.060958 0.500000
O O12 0.873864 0.206182 0.370302
O O13 0.208624 0.765946 0.767492
O O14 0.217276 0.184875 0.106023
O O15 0.259429 0.431549 0.115572
O O16 0.850901 0.962944 0.000000
#
# Coordination Sequence:
#
# PCOD9429022 Si02
#       7
#     8   8   8   8   8   8   8
#     4  11  22  38  64  88 122 168 217 260 328 383
#     4  11  24  39  57  87 126 168 220 273 321 385
#     4  11  21  41  60  90 125 165 214 270 324 383
#     4  11  23  39  60  88 122 169 214 262 317 379
#     4  12  22  41  64  88 123 172 213 265 323 389
#     4  11  22  42  67  94 132 168 217 273 330 396
#     4  11  23  40  67  97 128 171 219 269 336 399
#
# _framework density 20.360009000000002
#
# number of rings (size 3 to 8) (size 9 to 14) (size 15 to 20)
#    0.000    0.857    4.286    3.857    0.000    2.857 
#    0.000    0.000    0.000    3.429    0.000    0.000 
#    0.000    0.000    0.000    0.000    0.000    0.000 
#
# Total GULP energy -311913.894781 kJ/mol
# GULP energy per Si atom -5569.890978 kJ/mol
# Density = 2.031367 g / cm^3
# Si number density = 20.360009 Si / 1000 Ang^3
#
#
#
# Elastic Constant Matrix: (Units=GPa)
#
#
# Indices 1 2 3 4 5 6 
#
# 1 89.8932 10.8841 25.8869 0.0000 0.0000 0.0000
# 2 10.8841 90.6704 21.7179 0.0000 0.0000 0.0000
# 3 25.8869 21.7179 103.4442 0.0000 0.0000 0.0000
# 4 0.0000 0.0000 0.0000 13.7696 0.0000 0.0000
# 5 0.0000 0.0000 0.0000 0.0000 22.0726 0.0000
# 6 0.0000 0.0000 0.0000 0.0000 0.0000 24.9047
#
#
#
# Elastic Compliance Matrix: (Units=1/GPa)
#
#
# Indices 1 2 3 4 5 6 
#
# 1 0.012038 -0.000762 -0.002853 0.000000 0.000000 0.000000
# 2 -0.000762 0.011661 -0.002258 0.000000 0.000000 0.000000
# 3 -0.002853 -0.002258 0.010855 0.000000 0.000000 0.000000
# 4 0.000000 0.000000 0.000000 0.072624 0.000000 0.000000
# 5 0.000000 0.000000 0.000000 0.000000 0.045305 0.000000
# 6 0.000000 0.000000 0.000000 0.000000 0.000000 0.040153
#
#
# Mechanical properties :
#
#
# Convention : Reuss Voigt Hill
#
# Bulk Modulus (GPa) = 43.84016 44.55396 44.19706
# Shear Modulus (GPa) = 23.58675 27.18395 25.38535
#
# Velocity S-wave (km/s) = 3.40734 3.65795 3.53487
# Velocity P-wave (km/s) = 6.08763 6.30646 6.19801
#
# Compressibility (1/GPa) = 0.02281014
#
# Stress axis : x y z
#
# Youngs Moduli (GPa) = 83.07012 85.75475 92.12439
#
# Poissons Ratio (x) = 0.06533 0.26279
# Poissons Ratio (y) = 0.06328 0.20798
# Poissons Ratio (z) = 0.23696 0.19360
#
# Static dielectric constant tensor:
#      x y z
#    x 1.772470 0.000000 0.000000 
#    y 0.000000 1.767650 0.000000 
#    z 0.000000 0.000000 1.710460 
# 
# From -- ./inp_files/18415.got.cif
#   From: 2010.05.17/outbox.cif.g08.bks.cpg/sg55_10_cif.got.tgz:18415.got - 2010.06.03 13:27:54.
