data_PCOD9429233
_publ_section_title
;
Structure prediction by ZEFSAII (Michael W. Deem and Ramdas Pophale) SiO2 
 PCOD9429233
Probable space group: P B A M
;
_chemical_formula_sum "Si O2"
_cell_formula_units_Z 56
_cell_length_a 19.969692
_cell_length_b 18.167907
_cell_length_c 7.417655
_cell_angle_alpha 90.000000
_cell_angle_beta 90.000000
_cell_angle_gamma 90.000000
_cell_volume 2691.180919
_symmetry_space_group_name_H-M "P B A M"
_symmetry_group_IT_number 55
_symmetry_cell_setting 'orthorhombic'
loop_
_space_group_symop_operation_xyz
x,y,z
-x,-y,z
1/2+x,1/2-y,-z
1/2-x,1/2+y,-z
-x,-y,-z
x,y,-z
1/2-x,1/2+y,z
1/2+x,1/2-y,z
loop_
_atom_site_type_symbol
_atom_site_label
_atom_site_fract_x
_atom_site_fract_y
_atom_site_fract_z
Si Si1 0.392506 0.617862 0.221245
Si Si2 0.572646 0.984696 0.291986
Si Si3 0.245719 0.164504 0.203628
Si Si4 0.390274 0.182464 0.780379
Si Si5 0.461602 0.329228 0.220223
Si Si6 0.857595 0.047546 0.216024
Si Si7 0.283495 0.998967 0.713885
O O1 0.328525 0.665551 0.284094
O O2 0.464180 0.648092 0.277543
O O3 0.381661 0.533196 0.279385
O O4 0.390510 0.617899 0.000000
O O5 0.568428 0.009559 0.500000
O O6 0.586064 0.897260 0.283989
O O7 0.641873 0.019892 0.218862
O O8 0.500000 0.000000 0.208639
O O9 0.313864 0.197033 0.283293
O O10 0.261977 0.076664 0.199149
O O11 0.240597 0.193407 0.000000
O O12 0.438606 0.248151 0.725280
O O13 0.388159 0.179294 0.000000
O O14 0.406480 0.388596 0.281121
O O15 0.461677 0.330347 0.000000
O O16 0.778807 0.055172 0.258153
O O17 0.863048 0.046654 0.000000
O O18 0.288802 0.012858 0.500000
#
# Coordination Sequence:
#
# PCOD9429233 Si02
#       7
#     8   8   8   8   8   8   8
#     4   8  13  23  42  64  84 114 154 183 206 251
#     4   9  18  33  51  67  85 114 150 185 223 269
#     4   8  14  26  44  62  81 109 144 179 216 259
#     4   9  17  29  45  67  92 115 144 186 229 263
#     4   9  16  26  42  66  94 120 148 183 221 262
#     4   9  16  27  44  65  90 120 151 182 217 260
#     4   9  16  27  45  66  85 107 140 181 219 257
#
# _framework density 20.808709
#
# number of rings (size 3 to 8) (size 9 to 14) (size 15 to 20)
#    0.000    3.286    0.000    1.714    0.000    2.571 
#    0.000    2.143    0.000   13.714    0.000    4.000 
#    0.000    0.000    0.000    0.000    0.000    0.000 
#
# Total GULP energy -311974.614051 kJ/mol
# GULP energy per Si atom -5570.975251 kJ/mol
# Density = 2.076135 g / cm^3
# Si number density = 20.808709 Si / 1000 Ang^3
#
#
#
# Elastic Constant Matrix: (Units=GPa)
#
#
# Indices 1 2 3 4 5 6 
#
# 1 229.4166 50.6977 -3.1946 0.0000 0.0000 0.0000
# 2 50.6977 36.3309 -5.9402 0.0000 0.0000 0.0000
# 3 -3.1946 -5.9402 72.2550 0.0000 0.0000 0.0000
# 4 0.0000 0.0000 0.0000 3.6407 0.0000 0.0000
# 5 0.0000 0.0000 0.0000 0.0000 -11.8579 0.0000
# 6 0.0000 0.0000 0.0000 0.0000 0.0000 18.7989
#
#
#
# Elastic Compliance Matrix: (Units=1/GPa)
#
#
# Indices 1 2 3 4 5 6 
#
# 1 0.006317 -0.008889 -0.000451 0.000000 0.000000 0.000000
# 2 -0.008889 0.040407 0.002929 0.000000 0.000000 0.000000
# 3 -0.000451 0.002929 0.014061 0.000000 0.000000 0.000000
# 4 0.000000 0.000000 0.000000 0.274674 0.000000 0.000000
# 5 0.000000 0.000000 0.000000 0.000000 -0.084332 0.000000
# 6 0.000000 0.000000 0.000000 0.000000 0.000000 0.053195
#
#
# Mechanical properties :
#
#
# Convention : Reuss Voigt Hill
#
# Bulk Modulus (GPa) = 20.84961 46.79202 33.82081
# Shear Modulus (GPa) = 15.00909 21.87898 18.44404
#
# Velocity S-wave (km/s) = 2.68860 3.24610 2.98041
# Velocity P-wave (km/s) = 4.43615 6.04856 5.30399
#
# Compressibility (1/GPa) = 0.04796253
#
# Stress axis : x y z
#
# Youngs Moduli (GPa) = 158.30697 24.74809 71.12017
#
# Poissons Ratio (x) = 0.21998 0.03211
# Poissons Ratio (y) = 1.40713 -0.20831
# Poissons Ratio (z) = 0.07147 -0.07249
#
# Static dielectric constant tensor:
#      x y z
#    x 1.801030 0.000000 0.000000 
#    y 0.000000 1.683500 0.000000 
#    z 0.000000 0.000000 1.815600 
# 
# From -- ./inp_files/7888.got.cif
#   From: 2010.05.17/outbox.cif.g08.bks.cpg/sg55_4_cif.got.tgz:7888.got - 2010.06.03 13:27:54.
