data_PCOD9429621
_publ_section_title
;
Structure prediction by ZEFSAII (Michael W. Deem and Ramdas Pophale) SiO2 
 PCOD9429621
Probable space group: P C C N
;
_chemical_formula_sum "Si O2"
_cell_formula_units_Z 56
_cell_length_a 14.594547
_cell_length_b 10.614746
_cell_length_c 16.920720
_cell_angle_alpha 90.000000
_cell_angle_beta 90.000000
_cell_angle_gamma 90.000000
_cell_volume 2621.314107
_symmetry_space_group_name_H-M "P C C N"
_symmetry_group_IT_number 56
_symmetry_cell_setting 'orthorhombic'
loop_
_space_group_symop_operation_xyz
x,y,z
1/2-x,1/2-y,z
1/2+x,-y,1/2-z
-x,1/2+y,1/2-z
-x,-y,-z
1/2+x,1/2+y,-z
1/2-x,y,1/2+z
x,1/2-y,1/2+z
loop_
_atom_site_type_symbol
_atom_site_label
_atom_site_fract_x
_atom_site_fract_y
_atom_site_fract_z
Si Si1 0.335843 0.338102 0.577459
Si Si2 0.606323 0.467039 0.006525
Si Si3 0.338980 0.841000 0.648997
Si Si4 0.536661 0.216415 0.063949
Si Si5 0.251748 0.385596 0.406617
Si Si6 0.889423 0.036331 0.688545
Si Si7 0.443160 0.906151 0.105584
O O1 0.250000 0.250000 0.607032
O O2 0.429162 0.255830 0.577011
O O3 0.311035 0.368560 0.486533
O O4 0.371252 0.474521 0.612800
O O5 0.660809 0.436730 0.925712
O O6 0.500000 0.500000 0.000000
O O7 0.602169 0.331417 0.046438
O O8 0.655173 0.568355 0.060927
O O9 0.250000 0.750000 0.658342
O O10 0.368338 0.926348 0.722495
O O11 0.412695 0.731601 0.633468
O O12 0.575448 0.158161 0.143089
O O13 0.541265 0.120982 0.988601
O O14 0.250000 0.250000 0.366274
O O15 0.296780 0.486940 0.350732
O O16 0.969030 0.940337 0.659482
#
# Coordination Sequence:
#
# PCOD9429621 Si02
#       7
#     8   8   8   8   8   8   8
#     4  10  17  33  65 101 124 161 222 278 334 394
#     4  11  25  42  69 101 136 173 242 282 339 412
#     4  11  27  44  66 102 145 183 223 300 355 412
#     4  10  20  38  67  98 125 175 227 281 333 408
#     4  11  22  38  70 100 130 175 228 288 333 416
#     4  11  23  43  69  97 136 182 224 273 360 415
#     4  10  20  43  65  93 138 176 228 281 336 410
#
# _framework density 21.363330999999999
#
# number of rings (size 3 to 8) (size 9 to 14) (size 15 to 20)
#    0.000    1.429    2.857    3.429    6.000    1.143 
#    0.000    2.143    0.000    0.000    0.000    0.000 
#    0.000    0.000    0.000    0.000    0.000    0.000 
#
# Total GULP energy -312145.679440 kJ/mol
# GULP energy per Si atom -5574.029990 kJ/mol
# Density = 2.131471 g / cm^3
# Si number density = 21.363331 Si / 1000 Ang^3
#
#
#
# Elastic Constant Matrix: (Units=GPa)
#
#
# Indices 1 2 3 4 5 6 
#
# 1 81.5041 14.9563 18.5085 0.0000 0.0000 0.0000
# 2 14.9563 45.1345 0.8392 0.0000 0.0000 0.0000
# 3 18.5085 0.8392 25.0967 0.0000 0.0000 0.0000
# 4 0.0000 0.0000 0.0000 -72.2730 0.0000 0.0000
# 5 0.0000 0.0000 0.0000 0.0000 8.5084 0.0000
# 6 0.0000 0.0000 0.0000 0.0000 0.0000 15.8954
#
#
#
# Elastic Compliance Matrix: (Units=1/GPa)
#
#
# Indices 1 2 3 4 5 6 
#
# 1 0.015799 -0.005022 -0.011483 0.000000 0.000000 0.000000
# 2 -0.005022 0.023766 0.002909 0.000000 0.000000 0.000000
# 3 -0.011483 0.002909 0.048217 0.000000 0.000000 0.000000
# 4 0.000000 0.000000 0.000000 -0.013836 0.000000 0.000000
# 5 0.000000 0.000000 0.000000 0.000000 0.117530 0.000000
# 6 0.000000 0.000000 0.000000 0.000000 0.000000 0.062911
#
#
# Mechanical properties :
#
#
# Convention : Reuss Voigt Hill
#
# Bulk Modulus (GPa) = 16.50455 24.48259 20.49357
# Shear Modulus (GPa) = 16.56858 -1.74507 7.41175
#
# Velocity S-wave (km/s) = 2.78791 -0.90478 1.86465
# Velocity P-wave (km/s) = 4.25508 3.22389 3.77486
#
# Compressibility (1/GPa) = 0.06058937
#
# Stress axis : x y z
#
# Youngs Moduli (GPa) = 63.29702 42.07700 20.73942
#
# Poissons Ratio (x) = 0.21130 0.23816
# Poissons Ratio (y) = 0.31786 -0.06033
# Poissons Ratio (z) = 0.72686 -0.12239
#
# Static dielectric constant tensor:
#      x y z
#    x 1.888190 0.000000 0.000000 
#    y 0.000000 1.863560 0.000000 
#    z 0.000000 0.000000 1.749020 
# 
# From -- ./inp_files/12266.got.cif
#   From: 2010.05.17/outbox.cif.g08.bks.cpg/sg56_7_cif.got.tgz:12266.got - 2010.06.03 13:42:01.
