data_PCOD9429404
_publ_section_title
;
Structure prediction by ZEFSAII (Michael W. Deem and Ramdas Pophale) SiO2 
 PCOD9429404
Probable space group: P B A M
;
_chemical_formula_sum "Si O2"
_cell_formula_units_Z 64
_cell_length_a 30.000000
_cell_length_b 12.000000
_cell_length_c 9.000000
_cell_angle_alpha 90.000000
_cell_angle_beta 90.000000
_cell_angle_gamma 90.000000
_cell_volume 3240.000000
_symmetry_space_group_name_H-M "P B A M"
_symmetry_group_IT_number 55
_symmetry_cell_setting 'orthorhombic'
loop_
_space_group_symop_operation_xyz
x,y,z
-x,-y,z
1/2+x,1/2-y,-z
1/2-x,1/2+y,-z
-x,-y,-z
x,y,-z
1/2-x,1/2+y,z
1/2+x,1/2-y,z
loop_
_atom_site_type_symbol
_atom_site_label
_atom_site_fract_x
_atom_site_fract_y
_atom_site_fract_z
Si Si1 0.018377 0.874902 0.177505
Si Si2 0.676109 0.832550 0.822648
Si Si3 0.764517 0.757963 0.328502
Si Si4 0.376164 0.377591 0.823313
Si Si5 0.145258 0.098792 0.326724
Si Si6 0.313600 0.924038 0.169968
Si Si7 0.012656 0.368444 0.322751
Si Si8 0.403930 0.785417 0.168426
O O1 0.071285 0.884784 0.198360
O O2 0.005610 0.751866 0.250520
O O3 0.008658 0.866475 0.000000
O O4 0.000000 0.000000 0.225794
O O5 0.725293 0.796998 0.776897
O O6 0.641608 0.741102 0.768070
O O7 0.670595 0.957832 0.769545
O O8 0.671284 0.835915 0.000000
O O9 0.750755 0.760127 0.500000
O O10 0.807816 0.836855 0.311377
O O11 0.778822 0.635321 0.276618
O O12 0.351773 0.475851 0.737255
O O13 0.367051 0.388599 0.000000
O O14 0.133417 0.099214 0.500000
O O15 0.107274 0.164697 0.235225
O O16 0.356771 0.846889 0.162234
O O17 0.295975 0.934775 0.000000
O O18 0.005527 0.361251 0.500000
O O19 0.063832 0.354535 0.273968
O O20 0.000000 0.500000 0.279472
O O21 0.421400 0.778664 0.000000
#
# Coordination Sequence:
#
# PCOD9429404 Si02
#       8
#     8   8   8   8   8   8   8   8
#     4  10  22  41  66  95 124 158 206 258 310 369
#     4  10  22  38  57  83 116 154 195 245 296 344
#     4  10  22  38  57  84 116 153 196 241 291 350
#     4  10  22  38  60  89 122 154 196 249 298 351
#     4  10  21  38  60  87 121 157 195 240 294 356
#     4   9  20  38  60  85 113 149 195 243 295 349
#     4  11  25  41  60  91 129 165 202 247 305 372
#     4  10  20  37  64  90 115 152 200 245 294 351
#
# _framework density 19.753086
#
# number of rings (size 3 to 8) (size 9 to 14) (size 15 to 20)
#    0.000    2.000    0.000    2.250    3.500    5.750 
#    0.000    0.000    0.000    0.000    0.000    0.000 
#    0.000    0.000    0.000    0.000    0.000    0.000 
#
# Total GULP energy -356500.082181 kJ/mol
# GULP energy per Si atom -5570.313784 kJ/mol
# Density = 1.970813 g / cm^3
# Si number density = 19.753086 Si / 1000 Ang^3
#
#
#
# Elastic Constant Matrix: (Units=GPa)
#
#
# Indices 1 2 3 4 5 6 
#
# 1 6.2019 11.9722 2.9809 0.0000 0.0000 0.0000
# 2 11.9722 143.2701 29.9022 0.0000 0.0000 0.0000
# 3 2.9809 29.9022 4.7921 0.0000 0.0000 0.0000
# 4 0.0000 0.0000 0.0000 23.8378 0.0000 0.0000
# 5 0.0000 0.0000 0.0000 0.0000 -2.3904 0.0000
# 6 0.0000 0.0000 0.0000 0.0000 0.0000 20.5356
#
#
#
# Elastic Compliance Matrix: (Units=1/GPa)
#
#
# Indices 1 2 3 4 5 6 
#
# 1 0.186500 -0.028538 0.062061 0.000000 0.000000 0.000000
# 2 -0.028538 -0.018720 0.134561 0.000000 0.000000 0.000000
# 3 0.062061 0.134561 -0.669567 0.000000 0.000000 0.000000
# 4 0.000000 0.000000 0.000000 0.041950 0.000000 0.000000
# 5 0.000000 0.000000 0.000000 0.000000 -0.418333 0.000000
# 6 0.000000 0.000000 0.000000 0.000000 0.000000 0.048696
#
#
# Mechanical properties :
#
#
# Convention : Reuss Voigt Hill
#
# Bulk Modulus (GPa) = -6.03797 27.10831 10.53517
# Shear Modulus (GPa) = -4.09551 15.69050 5.79749
#
# Velocity S-wave (km/s) = -1.44148 2.82145 1.71504
# Velocity P-wave (km/s) = 2.41533 4.93634 3.04414
#
# Compressibility (1/GPa) = -0.16561869
#
# Stress axis : x y z
#
# Youngs Moduli (GPa) = 5.36192 -53.41896 -1.49350
#
# Poissons Ratio (x) = -1.52445 0.09269
# Poissons Ratio (y) = 0.15302 0.20097
# Poissons Ratio (z) = -0.33277 7.18810
#
# Static dielectric constant tensor:
#      x y z
#    x 1.728420 0.000000 0.000000 
#    y 0.000000 1.691430 0.000000 
#    z 0.000000 0.000000 1.681620 
# 
# From -- ./inp_files/10730.got.cif
#   From: 2010.05.17/outbox.ucp.g08.bks.cvg/sg55_6_cif.got.tgz:10730.got - 2010.06.11 16:36:00.
