data_PCOD9429013
_publ_section_title
;
Structure prediction by ZEFSAII (Michael W. Deem and Ramdas Pophale) SiO2 
 PCOD9429013
Probable space group: P B A M
;
_chemical_formula_sum "Si O2"
_cell_formula_units_Z 30
_cell_length_a 5.147253
_cell_length_b 30.814711
_cell_length_c 9.974284
_cell_angle_alpha 90.000000
_cell_angle_beta 90.000000
_cell_angle_gamma 90.000000
_cell_volume 1582.032293
_symmetry_space_group_name_H-M "P B A M"
_symmetry_group_IT_number 55
_symmetry_cell_setting 'orthorhombic'
loop_
_space_group_symop_operation_xyz
x,y,z
-x,-y,z
1/2+x,1/2-y,-z
1/2-x,1/2+y,-z
-x,-y,-z
x,y,-z
1/2-x,1/2+y,z
1/2+x,1/2-y,z
loop_
_atom_site_type_symbol
_atom_site_label
_atom_site_fract_x
_atom_site_fract_y
_atom_site_fract_z
Si Si1 0.000000 0.000000 0.500000
Si Si2 0.818583 0.629143 0.656039
Si Si3 0.326341 0.574144 0.283151
Si Si4 0.249709 0.530295 0.000000
Si Si5 0.479882 0.775598 0.663311
O O1 0.098252 0.034698 0.617577
O O2 0.741117 0.633964 0.500000
O O3 0.574570 0.605920 0.723711
O O4 0.895408 0.676633 0.708785
O O5 0.073068 0.599129 0.663084
O O6 0.257307 0.557641 0.135702
O O7 0.500000 0.500000 0.000000
O O8 0.000000 0.500000 0.000000
O O9 0.483182 0.777106 0.500000
O O10 0.763483 0.759456 0.704455
#
# Coordination Sequence:
#
# PCOD9429013 Si02
#       5
#     2   8   8   4   8
#     4  12  24  40  64  86 120 152 204 242 312 340
#     4  11  21  37  58  91 121 151 197 248 296 350
#     4  12  25  39  61  86 119 160 197 248 293 351
#     4  12  26  44  60  82 116 160 210 240 288 350
#     4   9  17  30  52  82 120 153 181 229 299 359
#
# _framework density 18.962948000000001
#
# number of rings (size 3 to 8) (size 9 to 14) (size 15 to 20)
#    0.000    1.067    4.000    3.200    0.000    5.333 
#    0.000    0.000    0.000    0.000    0.000   18.667 
#    0.000    0.000    0.000    0.000    0.000    0.000 
#
# Total GULP energy -167053.612564 kJ/mol
# GULP energy per Si atom -5568.453752 kJ/mol
# Density = 1.891979 g / cm^3
# Si number density = 18.962948 Si / 1000 Ang^3
#
#
#
# Elastic Constant Matrix: (Units=GPa)
#
#
# Indices 1 2 3 4 5 6 
#
# 1 60.5317 -15.7993 -16.7974 0.0000 0.0000 0.0000
# 2 -15.7993 44.4171 24.2604 0.0000 0.0000 0.0000
# 3 -16.7974 24.2604 73.5266 0.0000 0.0000 0.0000
# 4 0.0000 0.0000 0.0000 9.2055 0.0000 0.0000
# 5 0.0000 0.0000 0.0000 0.0000 27.3697 0.0000
# 6 0.0000 0.0000 0.0000 0.0000 0.0000 26.6331
#
#
#
# Elastic Compliance Matrix: (Units=1/GPa)
#
#
# Indices 1 2 3 4 5 6 
#
# 1 0.018586 0.005235 0.002519 0.000000 0.000000 0.000000
# 2 0.005235 0.028938 -0.008352 0.000000 0.000000 0.000000
# 3 0.002519 -0.008352 0.016932 0.000000 0.000000 0.000000
# 4 0.000000 0.000000 0.000000 0.108631 0.000000 0.000000
# 5 0.000000 0.000000 0.000000 0.000000 0.036537 0.000000
# 6 0.000000 0.000000 0.000000 0.000000 0.000000 0.037547
#
#
# Mechanical properties :
#
#
# Convention : Reuss Voigt Hill
#
# Bulk Modulus (GPa) = 15.80809 17.97809 16.89309
# Shear Modulus (GPa) = 18.55609 25.09576 21.82592
#
# Velocity S-wave (km/s) = 3.13156 3.64182 3.39629
# Velocity P-wave (km/s) = 4.62925 5.21392 4.93026
#
# Compressibility (1/GPa) = 0.06325875
#
# Stress axis : x y z
#
# Youngs Moduli (GPa) = 53.80506 34.55664 59.06075
#
# Poissons Ratio (x) = -0.18092 -0.14875
# Poissons Ratio (y) = -0.28169 0.49329
# Poissons Ratio (z) = -0.13551 0.28862
#
# Static dielectric constant tensor:
#      x y z
#    x 1.648390 0.000000 0.000000 
#    y 0.000000 1.675360 0.000000 
#    z 0.000000 0.000000 1.673780 
# 
# From -- ./inp_files/1333.got.cif
#   From: 2010.05.17/outbox.cif.g08.bks.cpg/sg55_1_cif.got.tgz:1333.got - 2010.06.03 13:27:54.
