data_PCOD9429581
_publ_section_title
;
Structure prediction by ZEFSAII (Michael W. Deem and Ramdas Pophale) SiO2 
 PCOD9429581
Probable space group: P C C N
;
_chemical_formula_sum "Si O2"
_cell_formula_units_Z 56
_cell_length_a 5.464261
_cell_length_b 23.650359
_cell_length_c 21.182388
_cell_angle_alpha 90.000000
_cell_angle_beta 90.000000
_cell_angle_gamma 90.000000
_cell_volume 2737.436738
_symmetry_space_group_name_H-M "P C C N"
_symmetry_group_IT_number 56
_symmetry_cell_setting 'orthorhombic'
loop_
_space_group_symop_operation_xyz
x,y,z
1/2-x,1/2-y,z
1/2+x,-y,1/2-z
-x,1/2+y,1/2-z
-x,-y,-z
1/2+x,1/2+y,-z
1/2-x,y,1/2+z
x,1/2-y,1/2+z
loop_
_atom_site_type_symbol
_atom_site_label
_atom_site_fract_x
_atom_site_fract_y
_atom_site_fract_z
Si Si1 0.751713 0.509981 0.586972
Si Si2 0.250674 0.982451 0.055358
Si Si3 0.238260 0.686805 0.252115
Si Si4 0.245511 0.385161 0.099822
Si Si5 0.253972 0.816562 0.404837
Si Si6 0.677362 0.506206 0.216277
Si Si7 0.737768 0.873916 0.747075
O O1 0.748003 0.477177 0.520154
O O2 0.495671 0.541357 0.584994
O O3 0.776878 0.473686 0.650885
O O4 0.004198 0.543290 0.582440
O O5 0.251403 0.050119 0.073528
O O6 0.250000 0.750000 0.228430
O O7 0.245209 0.686903 0.328509
O O8 0.481625 0.654723 0.232451
O O9 0.979599 0.661037 0.234363
O O10 0.492276 0.350466 0.080074
O O11 0.240445 0.388286 0.177101
O O12 0.997268 0.351205 0.079560
O O13 0.250000 0.750000 0.426641
O O14 0.393699 0.510607 0.235731
O O15 0.755155 0.570212 0.205989
#
# Coordination Sequence:
#
# PCOD9429581 Si02
#       7
#     8   8   8   8   8   8   8
#     4  10  21  36  52  73 101 131 169 208 245 288
#     4  10  20  35  54  73  96 132 172 208 241 287
#     4   9  17  30  46  67  96 127 162 205 249 294
#     4  10  17  28  46  68  94 124 160 196 240 292
#     4   9  17  27  42  67  97 123 151 195 248 294
#     4  12  23  35  52  76 109 141 167 206 255 304
#     4  10  19  29  46  72  98 128 163 200 250 305
#
# _framework density 20.457091999999999
#
# number of rings (size 3 to 8) (size 9 to 14) (size 15 to 20)
#    0.000    2.000    0.000    5.143    0.000    5.714 
#    0.000    0.000    0.000    0.000    0.000    6.000 
#    0.000    0.000    0.000    0.000    0.000    0.000 
#
# Total GULP energy -311934.033594 kJ/mol
# GULP energy per Si atom -5570.250600 kJ/mol
# Density = 2.041053 g / cm^3
# Si number density = 20.457092 Si / 1000 Ang^3
#
#
#
# Elastic Constant Matrix: (Units=GPa)
#
#
# Indices 1 2 3 4 5 6 
#
# 1 188.4314 49.2027 7.0771 0.0000 0.0000 0.0000
# 2 49.2027 115.8575 -0.7773 0.0000 0.0000 0.0000
# 3 7.0771 -0.7773 56.4079 0.0000 0.0000 0.0000
# 4 0.0000 0.0000 0.0000 11.2089 0.0000 0.0000
# 5 0.0000 0.0000 0.0000 0.0000 29.1451 0.0000
# 6 0.0000 0.0000 0.0000 0.0000 0.0000 31.2200
#
#
#
# Elastic Compliance Matrix: (Units=1/GPa)
#
#
# Indices 1 2 3 4 5 6 
#
# 1 0.006004 -0.002555 -0.000788 0.000000 0.000000 0.000000
# 2 -0.002555 0.009719 0.000454 0.000000 0.000000 0.000000
# 3 -0.000788 0.000454 0.017833 0.000000 0.000000 0.000000
# 4 0.000000 0.000000 0.000000 0.089215 0.000000 0.000000
# 5 0.000000 0.000000 0.000000 0.000000 0.034311 0.000000
# 6 0.000000 0.000000 0.000000 0.000000 0.000000 0.032031
#
#
# Mechanical properties :
#
#
# Convention : Reuss Voigt Hill
#
# Bulk Modulus (GPa) = 35.99912 52.41130 44.20521
# Shear Modulus (GPa) = 24.49172 34.66109 29.57640
#
# Velocity S-wave (km/s) = 3.46385 4.12069 3.80646
# Velocity P-wave (km/s) = 5.79942 6.95096 6.40114
#
# Compressibility (1/GPa) = 0.02777846
#
# Stress axis : x y z
#
# Youngs Moduli (GPa) = 166.56312 102.88705 56.07519
#
# Poissons Ratio (x) = 0.26287 0.04421
# Poissons Ratio (y) = 0.42556 -0.02549
# Poissons Ratio (z) = 0.13133 -0.04676
#
# Static dielectric constant tensor:
#      x y z
#    x 1.808830 0.000000 0.000000 
#    y 0.000000 1.756400 0.000000 
#    z 0.000000 0.000000 1.752760 
# 
# From -- ./inp_files/17629.got.cif
#   From: 2010.05.17/outbox.cif.g08.bks.cpg/sg56_9_cif.got.tgz:17629.got - 2010.06.03 13:42:01.
