data_PCOD9429590
_publ_section_title
;
Structure prediction by ZEFSAII (Michael W. Deem and Ramdas Pophale) SiO2 
 PCOD9429590
Probable space group: P C C N
;
_chemical_formula_sum "Si O2"
_cell_formula_units_Z 48
_cell_length_a 26.769463
_cell_length_b 24.645645
_cell_length_c 5.094775
_cell_angle_alpha 90.000000
_cell_angle_beta 90.000000
_cell_angle_gamma 90.000000
_cell_volume 3361.281281
_symmetry_space_group_name_H-M "P C C N"
_symmetry_group_IT_number 56
_symmetry_cell_setting 'orthorhombic'
loop_
_space_group_symop_operation_xyz
x,y,z
1/2-x,1/2-y,z
1/2+x,-y,1/2-z
-x,1/2+y,1/2-z
-x,-y,-z
1/2+x,1/2+y,-z
1/2-x,y,1/2+z
x,1/2-y,1/2+z
loop_
_atom_site_type_symbol
_atom_site_label
_atom_site_fract_x
_atom_site_fract_y
_atom_site_fract_z
Si Si1 0.220069 0.322830 0.042642
Si Si2 0.888972 0.966561 0.233940
Si Si3 0.020042 0.532537 0.251515
Si Si4 0.720168 0.953777 0.926952
Si Si5 0.610477 0.783904 0.092556
Si Si6 0.929345 0.900656 0.732627
O O1 0.264108 0.308596 0.838344
O O2 0.169298 0.298268 0.930826
O O3 0.214634 0.388230 0.055437
O O4 0.831412 0.974828 0.305757
O O5 0.910968 0.930120 0.468927
O O6 0.920683 0.022668 0.234406
O O7 0.900429 0.931587 0.970587
O O8 0.000000 0.500000 0.500000
O O9 0.988941 0.588263 0.258661
O O10 0.000000 0.500000 0.000000
O O11 0.763681 0.969058 0.720545
O O12 0.598600 0.736533 0.299978
O O13 0.584213 0.838140 0.197500
#
# Coordination Sequence:
#
# PCOD9429590 Si02
#       6
#     8   8   8   8   8   8
#     4  10  21  33  44  53  73 104 143 181 213 241
#     4  10  17  30  49  63  82 104 132 170 209 252
#     4   8  16  28  46  67  78  98 127 164 215 250
#     4  10  19  28  43  63  81 108 135 164 210 249
#     4  12  24  33  44  58  76 107 141 176 221 246
#     4  10  19  32  46  61  83 101 133 180 209 254
#
# _framework density 14.280268
#
# number of rings (size 3 to 8) (size 9 to 14) (size 15 to 20)
#    0.000    2.000    1.667    3.000    4.667    2.000 
#    0.000    0.000    0.000    0.000    0.000    0.000 
#    0.000    0.000    0.000    0.000    0.000    5.000 
#
# Total GULP energy -267321.143695 kJ/mol
# GULP energy per Si atom -5569.190494 kJ/mol
# Density = 1.424777 g / cm^3
# Si number density = 14.280268 Si / 1000 Ang^3
#
#
#
# Elastic Constant Matrix: (Units=GPa)
#
#
# Indices 1 2 3 4 5 6 
#
# 1 71.1989 38.0259 1.7663 0.0000 0.0000 0.0000
# 2 38.0259 35.4733 7.2963 0.0000 0.0000 0.0000
# 3 1.7663 7.2963 82.8436 0.0000 0.0000 0.0000
# 4 0.0000 0.0000 0.0000 13.7113 0.0000 0.0000
# 5 0.0000 0.0000 0.0000 0.0000 17.9817 0.0000
# 6 0.0000 0.0000 0.0000 0.0000 0.0000 24.1566
#
#
#
# Elastic Compliance Matrix: (Units=1/GPa)
#
#
# Indices 1 2 3 4 5 6 
#
# 1 0.033349 -0.036259 0.002482 0.000000 0.000000 0.000000
# 2 -0.036259 0.068134 -0.005228 0.000000 0.000000 0.000000
# 3 0.002482 -0.005228 0.012478 0.000000 0.000000 0.000000
# 4 0.000000 0.000000 0.000000 0.072933 0.000000 0.000000
# 5 0.000000 0.000000 0.000000 0.000000 0.055612 0.000000
# 6 0.000000 0.000000 0.000000 0.000000 0.000000 0.041396
#
#
# Mechanical properties :
#
#
# Convention : Reuss Voigt Hill
#
# Bulk Modulus (GPa) = 27.81472 31.52144 29.66808
# Shear Modulus (GPa) = 13.37272 20.66508 17.01890
#
# Velocity S-wave (km/s) = 3.06346 3.80821 3.45596
# Velocity P-wave (km/s) = 5.65978 6.43879 6.06181
#
# Compressibility (1/GPa) = 0.03595219
#
# Stress axis : x y z
#
# Youngs Moduli (GPa) = 29.98600 14.67699 80.13829
#
# Poissons Ratio (x) = 0.53218 -0.19894
# Poissons Ratio (y) = 1.08727 0.41894
# Poissons Ratio (z) = -0.07444 0.07673
#
# Static dielectric constant tensor:
#      x y z
#    x 1.520850 0.000000 0.000000 
#    y 0.000000 1.480290 0.000000 
#    z 0.000000 0.000000 1.490550 
# 
# From -- ./inp_files/1071.got.cif
#   From: 2010.05.17/outbox.cif.g08.bks.cpg/sg56_1_cif.got.tgz:1071.got - 2010.06.03 13:42:01.
