data_PCOD9429231
_publ_section_title
;
Structure prediction by ZEFSAII (Michael W. Deem and Ramdas Pophale) SiO2 
 PCOD9429231
Probable space group: P B A M
;
_chemical_formula_sum "Si O2"
_cell_formula_units_Z 56
_cell_length_a 7.902610
_cell_length_b 34.031892
_cell_length_c 7.298507
_cell_angle_alpha 90.000000
_cell_angle_beta 90.000000
_cell_angle_gamma 90.000000
_cell_volume 1962.866093
_symmetry_space_group_name_H-M "P B A M"
_symmetry_group_IT_number 55
_symmetry_cell_setting 'orthorhombic'
loop_
_space_group_symop_operation_xyz
x,y,z
-x,-y,z
1/2+x,1/2-y,-z
1/2-x,1/2+y,-z
-x,-y,-z
x,y,-z
1/2-x,1/2+y,z
1/2+x,1/2-y,z
loop_
_atom_site_type_symbol
_atom_site_label
_atom_site_fract_x
_atom_site_fract_y
_atom_site_fract_z
Si Si1 0.632820 0.616613 0.778792
Si Si2 0.262433 0.260652 0.222754
Si Si3 0.145166 0.453309 0.288318
Si Si4 0.157601 0.025025 0.724009
Si Si5 0.166308 0.598527 0.719143
Si Si6 0.953991 0.669662 0.217240
Si Si7 0.909114 0.814292 0.221964
O O1 0.682752 0.573021 0.716355
O O2 0.471724 0.642452 0.713278
O O3 0.799174 0.641717 0.719392
O O4 0.630231 0.616349 0.000000
O O5 0.425688 0.286852 0.263742
O O6 0.102776 0.287488 0.283658
O O7 0.236971 0.215871 0.286686
O O8 0.262785 0.257500 0.000000
O O9 0.098978 0.458383 0.500000
O O10 0.187443 0.496586 0.219434
O O11 0.998155 0.425972 0.209408
O O12 0.152554 0.025313 0.500000
O O13 0.184473 0.069757 0.785935
O O14 0.000000 0.000000 0.789904
O O15 0.168749 0.597280 0.500000
O O16 0.124365 0.643872 0.759802
O O17 0.940612 0.673574 0.000000
O O18 0.896977 0.817568 0.000000
#
# Coordination Sequence:
#
# PCOD9429231 Si02
#       7
#     8   8   8   8   8   8   8
#     4   8  14  25  41  61  84 107 131 163 203 240
#     4   8  13  22  37  56  77 102 132 163 193 228
#     4   9  16  27  45  65  80  99 134 173 199 227
#     4   9  17  29  44  61  82 108 134 161 198 242
#     4   9  16  27  45  65  80  99 134 173 199 227
#     4   8  14  25  41  61  84 107 131 163 203 240
#     4   8  13  22  37  56  77 102 132 163 193 228
#
# _framework density 28.529709
#
# number of rings (size 3 to 8) (size 9 to 14) (size 15 to 20)
#    0.000    3.571    0.000    2.143    0.000    1.714 
#    0.000    2.143    0.000    7.714    0.000    0.000 
#    0.000    0.000    0.000    0.000    0.000    0.000 
#
# Total GULP energy -312861.559652 kJ/mol
# GULP energy per Si atom -5586.813565 kJ/mol
# Density = 2.846477 g / cm^3
# Si number density = 28.529709 Si / 1000 Ang^3
#
#
#
# Elastic Constant Matrix: (Units=GPa)
#
#
# Indices 1 2 3 4 5 6 
#
# 1 65.7835 -5.0589 -5.7082 0.0000 0.0000 0.0000
# 2 -5.0589 255.7416 -1.1736 0.0000 0.0000 0.0000
# 3 -5.7082 -1.1736 123.7175 0.0000 0.0000 0.0000
# 4 0.0000 0.0000 0.0000 2.9531 0.0000 0.0000
# 5 0.0000 0.0000 0.0000 0.0000 -83.0425 0.0000
# 6 0.0000 0.0000 0.0000 0.0000 0.0000 54.1100
#
#
#
# Elastic Compliance Matrix: (Units=1/GPa)
#
#
# Indices 1 2 3 4 5 6 
#
# 1 0.015286 0.000306 0.000708 0.000000 0.000000 0.000000
# 2 0.000306 0.003916 0.000051 0.000000 0.000000 0.000000
# 3 0.000708 0.000051 0.008116 0.000000 0.000000 0.000000
# 4 0.000000 0.000000 0.000000 0.338623 0.000000 0.000000
# 5 0.000000 0.000000 0.000000 0.000000 -0.012042 0.000000
# 6 0.000000 0.000000 0.000000 0.000000 0.000000 0.018481
#
#
# Mechanical properties :
#
#
# Convention : Reuss Voigt Hill
#
# Bulk Modulus (GPa) = 33.95691 46.81789 40.38740
# Shear Modulus (GPa) = 13.15558 25.28302 19.21930
#
# Velocity S-wave (km/s) = 2.14970 2.98014 2.59831
# Velocity P-wave (km/s) = 4.25320 5.31860 4.81546
#
# Compressibility (1/GPa) = 0.02944909
#
# Stress axis : x y z
#
# Youngs Moduli (GPa) = 65.41788 255.33143 123.21199
#
# Poissons Ratio (x) = -0.07804 -0.08726
# Poissons Ratio (y) = -0.01999 -0.00632
# Poissons Ratio (z) = -0.04633 -0.01309
#
# Static dielectric constant tensor:
#      x y z
#    x 2.391960 0.000000 0.000000 
#    y 0.000000 2.189310 0.000000 
#    z 0.000000 0.000000 2.091770 
# 
# From -- ./inp_files/13615.got.cif
#   From: 2010.05.17/outbox.cif.g08.bks.cpg/sg55_7_cif.got.tgz:13615.got - 2010.06.03 13:27:54.
