data_PCOD9429649
_publ_section_title
;
Structure prediction by ZEFSAII (Michael W. Deem and Ramdas Pophale) SiO2 
 PCOD9429649
Probable space group: P C C N
;
_chemical_formula_sum "Si O2"
_cell_formula_units_Z 40
_cell_length_a 11.834796
_cell_length_b 9.588591
_cell_length_c 17.798563
_cell_angle_alpha 90.000000
_cell_angle_beta 90.000000
_cell_angle_gamma 90.000000
_cell_volume 2019.763458
_symmetry_space_group_name_H-M "P C C N"
_symmetry_group_IT_number 56
_symmetry_cell_setting 'orthorhombic'
loop_
_space_group_symop_operation_xyz
x,y,z
1/2-x,1/2-y,z
1/2+x,-y,1/2-z
-x,1/2+y,1/2-z
-x,-y,-z
1/2+x,1/2+y,-z
1/2-x,y,1/2+z
x,1/2-y,1/2+z
loop_
_atom_site_type_symbol
_atom_site_label
_atom_site_fract_x
_atom_site_fract_y
_atom_site_fract_z
Si Si1 0.359535 0.160879 0.924089
Si Si2 0.448411 0.859466 0.536875
Si Si3 0.983129 0.983134 0.182840
Si Si4 0.879735 0.737423 0.252628
Si Si5 0.276291 0.605526 0.911345
O O1 0.250000 0.250000 0.949659
O O2 0.466664 0.227866 0.966276
O O3 0.374306 0.192196 0.835269
O O4 0.325967 0.999051 0.929668
O O5 0.338085 0.845461 0.487426
O O6 0.500000 0.000000 0.500000
O O7 0.439162 0.896510 0.624647
O O8 0.049023 0.121314 0.204827
O O9 0.867158 0.020247 0.138576
O O10 0.944824 0.884922 0.251226
O O11 0.750000 0.750000 0.279061
O O12 0.250000 0.750000 0.869703
#
# Coordination Sequence:
#
# PCOD9429649 Si02
#       5
#     8   8   8   8   8
#     4  10  17  37  62  77 114 161 184 234 300 351
#     4   9  18  37  57  83 110 149 194 239 288 351
#     4  10  21  37  60  84 115 153 199 239 295 359
#     4  10  20  38  57  86 119 155 193 244 298 349
#     4  11  22  37  60  87 116 154 202 239 300 363
#
# _framework density 19.804300000000001
#
# number of rings (size 3 to 8) (size 9 to 14) (size 15 to 20)
#    0.000    2.000    8.000    0.000    2.800    0.800 
#    7.200    4.000    0.000    0.000    0.000    0.000 
#    0.000    0.000    0.000    0.000    0.000    0.000 
#
# Total GULP energy -222830.682244 kJ/mol
# GULP energy per Si atom -5570.767056 kJ/mol
# Density = 1.975922 g / cm^3
# Si number density = 19.804300 Si / 1000 Ang^3
#
#
#
# Elastic Constant Matrix: (Units=GPa)
#
#
# Indices 1 2 3 4 5 6 
#
# 1 55.2945 63.2774 18.8233 0.0000 0.0000 0.0000
# 2 63.2774 134.2203 13.9892 0.0000 0.0000 0.0000
# 3 18.8233 13.9892 18.1672 0.0000 0.0000 0.0000
# 4 0.0000 0.0000 0.0000 23.8292 0.0000 0.0000
# 5 0.0000 0.0000 0.0000 0.0000 3.6444 0.0000
# 6 0.0000 0.0000 0.0000 0.0000 0.0000 52.8694
#
#
#
# Elastic Compliance Matrix: (Units=1/GPa)
#
#
# Indices 1 2 3 4 5 6 
#
# 1 0.060555 -0.023929 -0.044316 0.000000 0.000000 0.000000
# 2 -0.023929 0.017557 0.011275 0.000000 0.000000 0.000000
# 3 -0.044316 0.011275 0.092279 0.000000 0.000000 0.000000
# 4 0.000000 0.000000 0.000000 0.041965 0.000000 0.000000
# 5 0.000000 0.000000 0.000000 0.000000 0.274395 0.000000
# 6 0.000000 0.000000 0.000000 0.000000 0.000000 0.018915
#
#
# Mechanical properties :
#
#
# Convention : Reuss Voigt Hill
#
# Bulk Modulus (GPa) = 17.71500 44.42907 31.07203
# Shear Modulus (GPa) = 7.83180 23.50808 15.66994
#
# Velocity S-wave (km/s) = 1.99077 3.44905 2.81595
# Velocity P-wave (km/s) = 3.77474 6.19226 5.12800
#
# Compressibility (1/GPa) = 0.05644933
#
# Stress axis : x y z
#
# Youngs Moduli (GPa) = 16.51394 56.95821 10.83675
#
# Poissons Ratio (x) = 1.36298 0.48024
# Poissons Ratio (y) = 0.39517 -0.12218
# Poissons Ratio (z) = 0.73182 -0.64218
#
# Static dielectric constant tensor:
#      x y z
#    x 2.312210 0.000000 0.000000 
#    y 0.000000 1.803150 0.000000 
#    z 0.000000 0.000000 1.717630 
# 
# From -- ./inp_files/15415.got.cif
#   From: 2010.05.17/outbox.cif.g08.bks.cpg/sg56_8_cif.got.tgz:15415.got - 2010.06.03 13:42:01.
