data_PCOD9429917
_publ_section_title
;
Structure prediction by ZEFSAII (Michael W. Deem and Ramdas Pophale) SiO2 
 PCOD9429917
Probable space group: P C C N
;
_chemical_formula_sum "Si O2"
_cell_formula_units_Z 64
_cell_length_a 10.309561
_cell_length_b 19.971682
_cell_length_c 15.044893
_cell_angle_alpha 90.000000
_cell_angle_beta 90.000000
_cell_angle_gamma 90.000000
_cell_volume 3097.732544
_symmetry_space_group_name_H-M "P C C N"
_symmetry_group_IT_number 56
_symmetry_cell_setting 'orthorhombic'
loop_
_space_group_symop_operation_xyz
x,y,z
1/2-x,1/2-y,z
1/2+x,-y,1/2-z
-x,1/2+y,1/2-z
-x,-y,-z
1/2+x,1/2+y,-z
1/2-x,y,1/2+z
x,1/2-y,1/2+z
loop_
_atom_site_type_symbol
_atom_site_label
_atom_site_fract_x
_atom_site_fract_y
_atom_site_fract_z
Si Si1 0.964435 0.872602 0.247205
Si Si2 0.112490 0.220035 0.472044
Si Si3 0.404395 0.265016 0.158659
Si Si4 0.995014 0.859193 0.689571
Si Si5 0.444593 0.413140 0.560325
Si Si6 0.224040 0.573801 0.670725
Si Si7 0.762457 0.959106 0.685084
Si Si8 0.207851 0.960784 0.484812
O O1 0.101537 0.884818 0.203496
O O2 0.958598 0.798365 0.286749
O O3 0.952276 0.918222 0.334737
O O4 0.844516 0.899992 0.189326
O O5 0.250000 0.250000 0.442188
O O6 0.057033 0.265163 0.553778
O O7 0.133089 0.150699 0.525765
O O8 0.030155 0.197640 0.386281
O O9 0.250000 0.250000 0.159783
O O10 0.448591 0.328969 0.215702
O O11 0.140820 0.887005 0.686880
O O12 0.898687 0.921307 0.668899
O O13 0.373605 0.476932 0.522784
O O14 0.594645 0.406566 0.531608
O O15 0.227710 0.504450 0.726489
O O16 0.204790 0.561411 0.565920
O O17 0.732902 0.011805 0.606176
#
# Coordination Sequence:
#
# PCOD9429917 Si02
#       8
#     8   8   8   8   8   8   8   8
#     4  11  23  40  64  96 137 166 223 281 322 388
#     4  10  21  36  67 102 123 162 229 281 321 392
#     4  10  22  42  68 100 122 169 226 283 327 389
#     4  12  23  43  69  95 133 177 218 269 344 395
#     4  10  18  38  63  93 127 177 221 263 326 403
#     4  12  25  40  64  99 139 176 216 272 334 403
#     4  12  23  40  68 102 129 177 227 276 323 401
#     4  11  20  37  65  93 129 181 221 256 338 401
#
# _framework density 20.660271999999999
#
# number of rings (size 3 to 8) (size 9 to 14) (size 15 to 20)
#    0.000    1.000    6.250    1.875    0.000    1.000 
#    0.000    1.250    0.000    1.500    0.000    0.000 
#    0.000    0.000    0.000    0.000    0.000    0.000 
#
# Total GULP energy -357106.775003 kJ/mol
# GULP energy per Si atom -5579.793359 kJ/mol
# Density = 2.061325 g / cm^3
# Si number density = 20.660272 Si / 1000 Ang^3
#
#
#
# Elastic Constant Matrix: (Units=GPa)
#
#
# Indices 1 2 3 4 5 6 
#
# 1 80.7245 8.0478 5.3837 0.0000 0.0000 0.0000
# 2 8.0478 34.9505 10.3027 0.0000 0.0000 0.0000
# 3 5.3837 10.3027 63.7762 0.0000 0.0000 0.0000
# 4 0.0000 0.0000 0.0000 35.3444 0.0000 0.0000
# 5 0.0000 0.0000 0.0000 0.0000 21.3059 0.0000
# 6 0.0000 0.0000 0.0000 0.0000 0.0000 31.6657
#
#
#
# Elastic Compliance Matrix: (Units=1/GPa)
#
#
# Indices 1 2 3 4 5 6 
#
# 1 0.012703 -0.002739 -0.000630 0.000000 0.000000 0.000000
# 2 -0.002739 0.030633 -0.004717 0.000000 0.000000 0.000000
# 3 -0.000630 -0.004717 0.016495 0.000000 0.000000 0.000000
# 4 0.000000 0.000000 0.000000 0.028293 0.000000 0.000000
# 5 0.000000 0.000000 0.000000 0.000000 0.046935 0.000000
# 6 0.000000 0.000000 0.000000 0.000000 0.000000 0.031580
#
#
# Mechanical properties :
#
#
# Convention : Reuss Voigt Hill
#
# Bulk Modulus (GPa) = 22.90524 25.21329 24.05927
# Shear Modulus (GPa) = 25.33373 28.04433 26.68903
#
# Velocity S-wave (km/s) = 3.50552 3.68829 3.59807
# Velocity P-wave (km/s) = 5.24362 5.51074 5.37884
#
# Compressibility (1/GPa) = 0.04365813
#
# Stress axis : x y z
#
# Youngs Moduli (GPa) = 78.72211 32.64427 60.62420
#
# Poissons Ratio (x) = 0.08942 0.03818
# Poissons Ratio (y) = 0.21565 0.28599
# Poissons Ratio (z) = 0.04958 0.15400
#
# Static dielectric constant tensor:
#      x y z
#    x 1.732760 0.000000 0.000000 
#    y 0.000000 1.763330 0.000000 
#    z 0.000000 0.000000 1.822340 
# 
# From -- ./inp_files/11063.got.cif
#   From: 2010.05.17/outbox.cif.g08.bks.cpg/sg56_6_cif.got.tgz:11063.got - 2010.06.03 13:42:01.
