data_PCOD9429755
_publ_section_title
;
Structure prediction by ZEFSAII (Michael W. Deem and Ramdas Pophale) SiO2 
 PCOD9429755
Probable space group: P C C N
;
_chemical_formula_sum "Si O2"
_cell_formula_units_Z 36
_cell_length_a 18.586950
_cell_length_b 4.992087
_cell_length_c 18.734534
_cell_angle_alpha 90.000000
_cell_angle_beta 90.000000
_cell_angle_gamma 90.000000
_cell_volume 1738.333786
_symmetry_space_group_name_H-M "P C C N"
_symmetry_group_IT_number 56
_symmetry_cell_setting 'orthorhombic'
loop_
_space_group_symop_operation_xyz
x,y,z
1/2-x,1/2-y,z
1/2+x,-y,1/2-z
-x,1/2+y,1/2-z
-x,-y,-z
1/2+x,1/2+y,-z
1/2-x,y,1/2+z
x,1/2-y,1/2+z
loop_
_atom_site_type_symbol
_atom_site_label
_atom_site_fract_x
_atom_site_fract_y
_atom_site_fract_z
Si Si1 0.365372 0.631902 0.586291
Si Si2 0.198632 0.501304 0.236268
Si Si3 0.670997 0.887191 0.610268
Si Si4 0.250000 0.750000 0.986683
Si Si5 0.572944 0.844736 0.483585
O O1 0.347557 0.590707 0.668691
O O2 0.292773 0.557322 0.541249
O O3 0.427283 0.429437 0.560889
O O4 0.382036 0.937535 0.563746
O O5 0.250000 0.250000 0.217908
O O6 0.154028 0.424389 0.307063
O O7 0.250000 0.750000 0.256594
O O8 0.750000 0.750000 0.607557
O O9 0.610438 0.769084 0.559126
O O10 0.688301 0.158443 0.567645
O O11 0.500000 0.000000 0.500000
#
# Coordination Sequence:
#
# PCOD9429755 Si02
#       5
#     8   8   8   4   8
#     4  11  22  37  61  86 120 152 199 245 301 351
#     4  11  22  35  56  92 123 148 189 251 309 355
#     4  10  20  36  58  85 119 153 197 246 305 352
#     4  10  18  32  60  86 114 152 190 246 296 348
#     4  11  24  41  61  86 120 163 207 244 294 364
#
# _framework density 20.709486999999999
#
# number of rings (size 3 to 8) (size 9 to 14) (size 15 to 20)
#    0.000    1.333    4.444    2.000    3.111    0.000 
#    0.000    2.222    0.000    0.000    0.000    0.000 
#    0.000    0.000    0.000    0.000    0.000    0.000 
#
# Total GULP energy -200617.673754 kJ/mol
# GULP energy per Si atom -5572.713160 kJ/mol
# Density = 2.066235 g / cm^3
# Si number density = 20.709487 Si / 1000 Ang^3
#
#
#
# Elastic Constant Matrix: (Units=GPa)
#
#
# Indices 1 2 3 4 5 6 
#
# 1 45.3491 -4.6522 24.3761 0.0000 0.0000 0.0000
# 2 -4.6522 73.8988 4.9706 0.0000 0.0000 0.0000
# 3 24.3761 4.9706 175.7617 0.0000 0.0000 0.0000
# 4 0.0000 0.0000 0.0000 23.0944 0.0000 0.0000
# 5 0.0000 0.0000 0.0000 0.0000 11.7926 0.0000
# 6 0.0000 0.0000 0.0000 0.0000 0.0000 31.9634
#
#
#
# Elastic Compliance Matrix: (Units=1/GPa)
#
#
# Indices 1 2 3 4 5 6 
#
# 1 0.024049 0.001742 -0.003385 0.000000 0.000000 0.000000
# 2 0.001742 0.013684 -0.000629 0.000000 0.000000 0.000000
# 3 -0.003385 -0.000629 0.006177 0.000000 0.000000 0.000000
# 4 0.000000 0.000000 0.000000 0.043301 0.000000 0.000000
# 5 0.000000 0.000000 0.000000 0.000000 0.084799 0.000000
# 6 0.000000 0.000000 0.000000 0.000000 0.000000 0.031286
#
#
# Mechanical properties :
#
#
# Convention : Reuss Voigt Hill
#
# Bulk Modulus (GPa) = 25.40215 38.26652 31.83433
# Shear Modulus (GPa) = 22.62852 31.39109 27.00980
#
# Velocity S-wave (km/s) = 3.30913 3.89753 3.61532
# Velocity P-wave (km/s) = 5.18585 6.22673 5.72998
#
# Compressibility (1/GPa) = 0.03936675
#
# Stress axis : x y z
#
# Youngs Moduli (GPa) = 41.58163 73.07833 161.89877
#
# Poissons Ratio (x) = -0.12727 0.54796
# Poissons Ratio (y) = -0.07242 0.10176
# Poissons Ratio (z) = 0.14074 0.04593
#
# Static dielectric constant tensor:
#      x y z
#    x 1.807520 0.000000 0.000000 
#    y 0.000000 1.862590 0.000000 
#    z 0.000000 0.000000 1.726160 
# 
# From -- ./inp_files/9507.got.cif
#   From: 2010.05.17/outbox.cif.g08.bks.cpg/sg56_5_cif.got.tgz:9507.got - 2010.06.03 13:42:01.
