data_PCOD9429000
_publ_section_title
;
Structure prediction by ZEFSAII (Michael W. Deem and Ramdas Pophale) SiO2 
 PCOD9429000
Probable space group: P B A M
;
_chemical_formula_sum "Si O2"
_cell_formula_units_Z 64
_cell_length_a 27.937822
_cell_length_b 9.612354
_cell_length_c 14.465129
_cell_angle_alpha 90.000000
_cell_angle_beta 90.000000
_cell_angle_gamma 90.000000
_cell_volume 3884.584863
_symmetry_space_group_name_H-M "P B A M"
_symmetry_group_IT_number 55
_symmetry_cell_setting 'orthorhombic'
loop_
_space_group_symop_operation_xyz
x,y,z
-x,-y,z
1/2+x,1/2-y,-z
1/2-x,1/2+y,-z
-x,-y,-z
x,y,-z
1/2-x,1/2+y,z
1/2+x,1/2-y,z
loop_
_atom_site_type_symbol
_atom_site_label
_atom_site_fract_x
_atom_site_fract_y
_atom_site_fract_z
Si Si1 0.550256 0.581513 0.898845
Si Si2 0.055433 0.541643 0.301603
Si Si3 0.549798 0.914812 0.898685
Si Si4 0.296586 0.164278 0.612677
Si Si5 0.294228 0.843279 0.611903
Si Si6 0.056612 0.033518 0.704604
Si Si7 0.901314 0.715690 0.391299
Si Si8 0.898920 0.210909 0.391319
O O1 0.500000 0.500000 0.903414
O O2 0.542061 0.747849 0.888033
O O3 0.572960 0.516288 0.806693
O O4 0.573933 0.561639 0.000000
O O5 0.074013 0.534178 0.195922
O O6 0.084315 0.442975 0.370562
O O7 0.062590 0.697082 0.337077
O O8 0.000000 0.500000 0.303070
O O9 0.500000 0.000000 0.901497
O O10 0.572878 0.936158 0.000000
O O11 0.295767 0.162634 0.500000
O O12 0.250988 0.253802 0.644244
O O13 0.346337 0.238355 0.638848
O O14 0.294187 0.003832 0.643909
O O15 0.291366 0.849312 0.500000
O O16 0.345163 0.772065 0.631643
O O17 0.088378 0.946237 0.632642
O O18 0.066971 0.191500 0.677263
O O19 0.000000 0.000000 0.695843
O O20 0.909211 0.746817 0.500000
O O21 0.903173 0.235021 0.500000
#
# Coordination Sequence:
#
# PCOD9429000 Si02
#       8
#     8   8   8   8   8   8   8   8
#     4   9  18  33  51  70  95 127 165 214 264 299
#     4  11  21  33  50  71  99 140 172 208 246 291
#     4   9  18  32  51  73  94 123 167 217 263 298
#     4   9  18  32  51  71  93 124 165 213 261 300
#     4   9  18  33  51  71  93 124 165 213 263 297
#     4  11  23  35  48  72 102 142 178 208 243 291
#     4  11  23  36  49  70 105 140 176 212 243 292
#     4  11  21  34  49  70 101 136 176 208 242 296
#
# _framework density 16.475377000000002
#
# number of rings (size 3 to 8) (size 9 to 14) (size 15 to 20)
#    0.000    2.000    2.500    1.500    7.000    3.000 
#    0.000    0.000    0.000    0.000    0.000    0.000 
#    0.000    6.000    0.000    0.000    0.000    0.000 
#
# Total GULP energy -356418.764220 kJ/mol
# GULP energy per Si atom -5569.043191 kJ/mol
# Density = 1.643788 g / cm^3
# Si number density = 16.475377 Si / 1000 Ang^3
#
#
#
# Elastic Constant Matrix: (Units=GPa)
#
#
# Indices 1 2 3 4 5 6 
#
# 1 58.9328 6.9853 15.6310 0.0000 0.0000 0.0000
# 2 6.9853 41.8727 3.4578 0.0000 0.0000 0.0000
# 3 15.6310 3.4578 76.6273 0.0000 0.0000 0.0000
# 4 0.0000 0.0000 0.0000 22.9898 0.0000 0.0000
# 5 0.0000 0.0000 0.0000 0.0000 -1.8228 0.0000
# 6 0.0000 0.0000 0.0000 0.0000 0.0000 24.6090
#
#
#
# Elastic Compliance Matrix: (Units=1/GPa)
#
#
# Indices 1 2 3 4 5 6 
#
# 1 0.018249 -0.002747 -0.003599 0.000000 0.000000 0.000000
# 2 -0.002747 0.024385 -0.000540 0.000000 0.000000 0.000000
# 3 -0.003599 -0.000540 0.013809 0.000000 0.000000 0.000000
# 4 0.000000 0.000000 0.000000 0.043497 0.000000 0.000000
# 5 0.000000 0.000000 0.000000 0.000000 -0.548600 0.000000
# 6 0.000000 0.000000 0.000000 0.000000 0.000000 0.040636
#
#
# Mechanical properties :
#
#
# Convention : Reuss Voigt Hill
#
# Bulk Modulus (GPa) = 23.43528 25.50901 24.47214
# Shear Modulus (GPa) = -13.15684 19.24578 3.04447
#
# Velocity S-wave (km/s) = -2.82897 3.42154 1.36085
# Velocity P-wave (km/s) = 1.89328 5.57906 4.16596
#
# Compressibility (1/GPa) = 0.04267071
#
# Stress axis : x y z
#
# Youngs Moduli (GPa) = 54.79893 41.00921 72.41860
#
# Poissons Ratio (x) = 0.11266 0.26060
# Poissons Ratio (y) = 0.15054 0.03911
# Poissons Ratio (z) = 0.19719 0.02214
#
# Static dielectric constant tensor:
#      x y z
#    x 1.541230 0.000000 0.000000 
#    y 0.000000 1.553380 0.000000 
#    z 0.000000 0.000000 1.580520 
# 
# From -- ./inp_files/20207.got.cif
#   From: 2010.05.17/outbox.cif.g08.bks.cpg/sg55_11_cif.got.tgz:20207.got - 2010.06.03 13:27:54.
