data_PCOD9429891
_publ_section_title
;
Structure prediction by ZEFSAII (Michael W. Deem and Ramdas Pophale) SiO2 
 PCOD9429891
Probable space group: P C C N
;
_chemical_formula_sum "Si O2"
_cell_formula_units_Z 64
_cell_length_a 8.672290
_cell_length_b 16.064365
_cell_length_c 24.253955
_cell_angle_alpha 90.000000
_cell_angle_beta 90.000000
_cell_angle_gamma 90.000000
_cell_volume 3378.935665
_symmetry_space_group_name_H-M "P C C N"
_symmetry_group_IT_number 56
_symmetry_cell_setting 'orthorhombic'
loop_
_space_group_symop_operation_xyz
x,y,z
1/2-x,1/2-y,z
1/2+x,-y,1/2-z
-x,1/2+y,1/2-z
-x,-y,-z
1/2+x,1/2+y,-z
1/2-x,y,1/2+z
x,1/2-y,1/2+z
loop_
_atom_site_type_symbol
_atom_site_label
_atom_site_fract_x
_atom_site_fract_y
_atom_site_fract_z
Si Si1 0.924417 0.652010 0.391180
Si Si2 0.943226 0.093054 0.994398
Si Si3 0.067479 0.235542 0.918949
Si Si4 0.563660 0.652736 0.390808
Si Si5 0.565386 0.585371 0.774381
Si Si6 0.561553 0.915049 0.774692
Si Si7 0.860118 0.331093 0.002753
Si Si8 0.437636 0.249298 0.291266
O O1 0.743611 0.634891 0.403178
O O2 0.938879 0.749139 0.375283
O O3 0.977100 0.599444 0.338426
O O4 0.016347 0.635089 0.446812
O O5 0.024135 0.147082 0.946556
O O6 0.760294 0.098604 0.985247
O O7 0.000000 0.000000 0.000000
O O8 0.250000 0.250000 0.922957
O O9 0.018766 0.243088 0.855376
O O10 0.977928 0.303261 0.955580
O O11 0.515241 0.599049 0.338213
O O12 0.454662 0.644081 0.443301
O O13 0.751928 0.583811 0.772945
O O14 0.501629 0.499918 0.750354
O O15 0.512671 0.665571 0.738742
O O16 0.510236 0.833432 0.740710
O O17 0.750000 0.250000 0.012121
O O18 0.250000 0.250000 0.289293
#
# Coordination Sequence:
#
# PCOD9429891 Si02
#       8
#     8   8   8   8   8   8   8   8
#     4  10  19  36  65  82 115 157 195 237 297 355
#     4  11  24  39  57  89 120 150 192 253 305 343
#     4  10  20  39  62  81 114 163 201 229 291 369
#     4  10  18  37  63  87 110 153 200 239 286 361
#     4  10  21  39  58  89 120 153 196 244 291 351
#     4  10  21  38  60  88 119 154 197 243 291 350
#     4  10  20  37  59  85 115 146 193 247 293 350
#     4   9  19  38  62  82 116 162 194 229 294 357
#
# _framework density 18.940875999999999
#
# number of rings (size 3 to 8) (size 9 to 14) (size 15 to 20)
#    0.000    2.000    3.750    0.750    1.750    1.000 
#    9.000    3.125    0.000    0.000    0.000    0.000 
#    0.000    0.000    0.000    0.000    0.000    0.000 
#
# Total GULP energy -357191.615673 kJ/mol
# GULP energy per Si atom -5581.118995 kJ/mol
# Density = 1.889777 g / cm^3
# Si number density = 18.940876 Si / 1000 Ang^3
#
#
#
# Elastic Constant Matrix: (Units=GPa)
#
#
# Indices 1 2 3 4 5 6 
#
# 1 46.0071 12.0562 26.2109 0.0000 0.0000 0.0000
# 2 12.0562 87.2897 23.9763 0.0000 0.0000 0.0000
# 3 26.2109 23.9763 104.4259 0.0000 0.0000 0.0000
# 4 0.0000 0.0000 0.0000 12.7716 0.0000 0.0000
# 5 0.0000 0.0000 0.0000 0.0000 10.1966 0.0000
# 6 0.0000 0.0000 0.0000 0.0000 0.0000 31.6303
#
#
#
# Elastic Compliance Matrix: (Units=1/GPa)
#
#
# Indices 1 2 3 4 5 6 
#
# 1 0.025653 -0.001894 -0.006004 0.000000 0.000000 0.000000
# 2 -0.001894 0.012367 -0.002364 0.000000 0.000000 0.000000
# 3 -0.006004 -0.002364 0.011626 0.000000 0.000000 0.000000
# 4 0.000000 0.000000 0.000000 0.078299 0.000000 0.000000
# 5 0.000000 0.000000 0.000000 0.000000 0.098072 0.000000
# 6 0.000000 0.000000 0.000000 0.000000 0.000000 0.031615
#
#
# Mechanical properties :
#
#
# Convention : Reuss Voigt Hill
#
# Bulk Modulus (GPa) = 34.33871 40.24549 37.29210
# Shear Modulus (GPa) = 17.36941 22.61833 19.99387
#
# Velocity S-wave (km/s) = 3.03154 3.45940 3.25251
# Velocity P-wave (km/s) = 5.51565 6.10334 5.81692
#
# Compressibility (1/GPa) = 0.02912165
#
# Stress axis : x y z
#
# Youngs Moduli (GPa) = 38.98236 80.85997 86.01432
#
# Poissons Ratio (x) = 0.15314 0.51643
# Poissons Ratio (y) = 0.07383 0.20335
# Poissons Ratio (z) = 0.23405 0.19116
#
# Static dielectric constant tensor:
#      x y z
#    x 1.661160 0.000000 0.000000 
#    y 0.000000 1.685760 0.000000 
#    z 0.000000 0.000000 1.646300 
# 
# From -- ./inp_files/20645.got.cif
#   From: 2010.05.17/outbox.cif.g08.bks.cpg/sg56_11_cif.got.tgz:20645.got - 2010.06.03 13:42:01.
