data_PCOD9429082
_publ_section_title
;
Structure prediction by ZEFSAII (Michael W. Deem and Ramdas Pophale) SiO2 
 PCOD9429082
Probable space group: P B A M
;
_chemical_formula_sum "Si O2"
_cell_formula_units_Z 40
_cell_length_a 8.541627
_cell_length_b 20.082652
_cell_length_c 11.507992
_cell_angle_alpha 90.000000
_cell_angle_beta 90.000000
_cell_angle_gamma 90.000000
_cell_volume 1974.063945
_symmetry_space_group_name_H-M "P B A M"
_symmetry_group_IT_number 55
_symmetry_cell_setting 'orthorhombic'
loop_
_space_group_symop_operation_xyz
x,y,z
-x,-y,z
1/2+x,1/2-y,-z
1/2-x,1/2+y,-z
-x,-y,-z
x,y,-z
1/2-x,1/2+y,z
1/2+x,1/2-y,z
loop_
_atom_site_type_symbol
_atom_site_label
_atom_site_fract_x
_atom_site_fract_y
_atom_site_fract_z
Si Si1 0.648691 0.700594 0.762757
Si Si2 0.002949 0.251509 0.000000
Si Si3 0.762464 0.345933 0.000000
Si Si4 0.702577 0.931936 0.787515
Si Si5 0.162715 0.424589 0.858812
Si Si6 0.330226 0.678117 0.636602
O O1 0.561985 0.724063 0.879393
O O2 0.760169 0.641096 0.805059
O O3 0.511548 0.678040 0.675528
O O4 0.743571 0.761994 0.706181
O O5 0.179284 0.225552 0.000000
O O6 0.946777 0.327617 0.000000
O O7 0.717558 0.388444 0.889137
O O8 0.517790 0.927058 0.816926
O O9 0.750041 0.891879 0.673082
O O10 0.742111 0.009179 0.803522
O O11 0.177191 0.430067 0.000000
O O12 0.315955 0.689850 0.500000
#
# Coordination Sequence:
#
# PCOD9429082 Si02
#       6
#     8   4   4   8   8   8
#     4  12  24  41  67  98 131 167 217 277 336 390
#     4  12  22  35  61 105 129 157 213 276 338 393
#     4  12  22  36  63  98 142 167 204 276 336 395
#     4  11  22  42  66  98 136 174 214 266 332 398
#     4  11  23  39  68 104 136 167 208 271 348 409
#     4  12  27  47  66  91 131 183 230 269 315 390
#
# _framework density 20.262768999999999
#
# number of rings (size 3 to 8) (size 9 to 14) (size 15 to 20)
#    0.000    0.400    7.000    2.400    2.800    0.800 
#    0.000    8.000    0.000    0.000    0.000    0.000 
#    0.000    0.000    0.000    0.000    0.000    0.000 
#
# Total GULP energy -223469.041025 kJ/mol
# GULP energy per Si atom -5586.726026 kJ/mol
# Density = 2.021665 g / cm^3
# Si number density = 20.262769 Si / 1000 Ang^3
#
#
#
# Elastic Constant Matrix: (Units=GPa)
#
#
# Indices 1 2 3 4 5 6 
#
# 1 53.3884 15.9883 30.0999 0.0000 0.0000 0.0000
# 2 15.9883 105.2069 35.4970 0.0000 0.0000 0.0000
# 3 30.0999 35.4970 120.0633 0.0000 0.0000 0.0000
# 4 0.0000 0.0000 0.0000 17.6189 0.0000 0.0000
# 5 0.0000 0.0000 0.0000 0.0000 18.5575 0.0000
# 6 0.0000 0.0000 0.0000 0.0000 0.0000 32.8947
#
#
#
# Elastic Compliance Matrix: (Units=1/GPa)
#
#
# Indices 1 2 3 4 5 6 
#
# 1 0.022069 -0.001652 -0.005044 0.000000 0.000000 0.000000
# 2 -0.001652 0.010682 -0.002744 0.000000 0.000000 0.000000
# 3 -0.005044 -0.002744 0.010405 0.000000 0.000000 0.000000
# 4 0.000000 0.000000 0.000000 0.056757 0.000000 0.000000
# 5 0.000000 0.000000 0.000000 0.000000 0.053887 0.000000
# 6 0.000000 0.000000 0.000000 0.000000 0.000000 0.030400
#
#
# Mechanical properties :
#
#
# Convention : Reuss Voigt Hill
#
# Bulk Modulus (GPa) = 41.19378 49.09213 45.14295
# Shear Modulus (GPa) = 23.67733 26.95244 25.31489
#
# Velocity S-wave (km/s) = 3.42206 3.65107 3.53842
# Velocity P-wave (km/s) = 5.99899 6.48492 6.24668
#
# Compressibility (1/GPa) = 0.02427551
#
# Stress axis : x y z
#
# Youngs Moduli (GPa) = 45.31175 93.61585 96.10911
#
# Poissons Ratio (x) = 0.15464 0.48481
# Poissons Ratio (y) = 0.07485 0.26372
# Poissons Ratio (z) = 0.22857 0.25688
#
# Static dielectric constant tensor:
#      x y z
#    x 1.772000 0.000000 0.000000 
#    y 0.000000 1.745470 0.000000 
#    z 0.000000 0.000000 1.694210 
# 
# From -- ./inp_files/12099.got.cif
#   From: 2010.05.17/outbox.cif.g08.bks.cpg/sg55_7_cif.got.tgz:12099.got - 2010.06.03 13:27:54.
