data_PCOD9429983
_publ_section_title
;
Structure prediction by ZEFSAII (Michael W. Deem and Ramdas Pophale) SiO2 
 PCOD9429983
Probable space group: P C C N
;
_chemical_formula_sum "Si O2"
_cell_formula_units_Z 64
_cell_length_a 4.983280
_cell_length_b 29.598874
_cell_length_c 22.248272
_cell_angle_alpha 90.000000
_cell_angle_beta 90.000000
_cell_angle_gamma 90.000000
_cell_volume 3281.608480
_symmetry_space_group_name_H-M "P C C N"
_symmetry_group_IT_number 56
_symmetry_cell_setting 'orthorhombic'
loop_
_space_group_symop_operation_xyz
x,y,z
1/2-x,1/2-y,z
1/2+x,-y,1/2-z
-x,1/2+y,1/2-z
-x,-y,-z
1/2+x,1/2+y,-z
1/2-x,y,1/2+z
x,1/2-y,1/2+z
loop_
_atom_site_type_symbol
_atom_site_label
_atom_site_fract_x
_atom_site_fract_y
_atom_site_fract_z
Si Si1 0.357847 0.113632 0.632468
Si Si2 0.338044 0.301536 0.865834
Si Si3 0.661596 0.346037 0.420970
Si Si4 0.185939 0.371877 0.263093
Si Si5 0.302903 0.517997 0.448386
Si Si6 0.187494 0.009064 0.128158
Si Si7 0.667068 0.121297 0.053269
Si Si8 0.307929 0.582579 0.682667
O O1 0.261366 0.134754 0.694397
O O2 0.398678 0.059803 0.646077
O O3 0.627987 0.134566 0.605758
O O4 0.130176 0.118724 0.581135
O O5 0.250000 0.250000 0.864062
O O6 0.634647 0.310380 0.891123
O O7 0.304012 0.326121 0.801752
O O8 0.138447 0.329475 0.908759
O O9 0.696550 0.351722 0.491800
O O10 0.708210 0.392171 0.382489
O O11 0.393951 0.407536 0.293421
O O12 0.890586 0.391844 0.272144
O O13 0.500000 0.500000 0.500000
O O14 0.504331 0.514387 0.392114
O O15 0.249094 0.570010 0.462765
O O16 0.021049 0.496778 0.426414
O O17 0.203528 0.968275 0.174867
#
# Coordination Sequence:
#
# PCOD9429983 Si02
#       8
#     8   8   8   8   8   8   8   8
#     4  10  21  35  51  76 111 152 190 214 253 317
#     4  10  21  38  61  84 104 129 166 219 277 328
#     4  10  20  35  57  84 108 134 170 218 275 324
#     4  10  21  36  55  78 105 140 181 225 268 320
#     4  10  19  30  46  69 103 145 186 222 254 301
#     4  10  20  31  46  72 105 145 186 225 264 298
#     4  10  20  34  53  77 108 145 178 215 262 315
#     4  10  20  33  52  78 107 140 185 234 273 305
#
# _framework density 19.502632999999999
#
# number of rings (size 3 to 8) (size 9 to 14) (size 15 to 20)
#    0.000    2.000    0.000    3.750    0.000    5.000 
#    0.000    0.000    0.000    4.500    0.000    0.000 
#    0.000    0.000    0.000    0.000    0.000    0.000 
#
# Total GULP energy -357000.050920 kJ/mol
# GULP energy per Si atom -5578.125796 kJ/mol
# Density = 1.945824 g / cm^3
# Si number density = 19.502633 Si / 1000 Ang^3
#
#
#
# Elastic Constant Matrix: (Units=GPa)
#
#
# Indices 1 2 3 4 5 6 
#
# 1 64.6081 -8.6964 -14.9053 0.0000 0.0000 0.0000
# 2 -8.6964 30.5949 17.7713 0.0000 0.0000 0.0000
# 3 -14.9053 17.7713 76.3980 0.0000 0.0000 0.0000
# 4 0.0000 0.0000 0.0000 8.1338 0.0000 0.0000
# 5 0.0000 0.0000 0.0000 0.0000 20.8037 0.0000
# 6 0.0000 0.0000 0.0000 0.0000 0.0000 15.1033
#
#
#
# Elastic Compliance Matrix: (Units=1/GPa)
#
#
# Indices 1 2 3 4 5 6 
#
# 1 0.016484 0.003257 0.002458 0.000000 0.000000 0.000000
# 2 0.003257 0.038435 -0.008305 0.000000 0.000000 0.000000
# 3 0.002458 -0.008305 0.015501 0.000000 0.000000 0.000000
# 4 0.000000 0.000000 0.000000 0.122944 0.000000 0.000000
# 5 0.000000 0.000000 0.000000 0.000000 0.048068 0.000000
# 6 0.000000 0.000000 0.000000 0.000000 0.000000 0.066211
#
#
# Mechanical properties :
#
#
# Convention : Reuss Voigt Hill
#
# Bulk Modulus (GPa) = 15.32786 17.77113 16.54949
# Shear Modulus (GPa) = 14.94465 20.63692 17.79078
#
# Velocity S-wave (km/s) = 2.77120 3.25647 3.02358
# Velocity P-wave (km/s) = 4.25627 4.82404 4.54902
#
# Compressibility (1/GPa) = 0.06524070
#
# Stress axis : x y z
#
# Youngs Moduli (GPa) = 60.66667 26.01787 64.51269
#
# Poissons Ratio (x) = -0.08475 -0.15859
# Poissons Ratio (y) = -0.19762 0.53578
# Poissons Ratio (z) = -0.14913 0.21608
#
# Static dielectric constant tensor:
#      x y z
#    x 1.694160 0.000000 0.000000 
#    y 0.000000 1.671490 0.000000 
#    z 0.000000 0.000000 1.715850 
# 
# From -- ./inp_files/17710.got.cif
#   From: 2010.05.17/outbox.cif.g08.bks.cpg/sg56_9_cif.got.tgz:17710.got - 2010.06.03 13:42:01.
