data_PCOD9429061
_publ_section_title
;
Structure prediction by ZEFSAII (Michael W. Deem and Ramdas Pophale) SiO2 
 PCOD9429061
Probable space group: P B A M
;
_chemical_formula_sum "Si O2"
_cell_formula_units_Z 48
_cell_length_a 9.617294
_cell_length_b 13.828554
_cell_length_c 15.920633
_cell_angle_alpha 90.000000
_cell_angle_beta 90.000000
_cell_angle_gamma 90.000000
_cell_volume 2117.337034
_symmetry_space_group_name_H-M "P B A M"
_symmetry_group_IT_number 55
_symmetry_cell_setting 'orthorhombic'
loop_
_space_group_symop_operation_xyz
x,y,z
-x,-y,z
1/2+x,1/2-y,-z
1/2-x,1/2+y,-z
-x,-y,-z
x,y,-z
1/2-x,1/2+y,z
1/2+x,1/2-y,z
loop_
_atom_site_type_symbol
_atom_site_label
_atom_site_fract_x
_atom_site_fract_y
_atom_site_fract_z
Si Si1 0.065309 0.636130 0.597200
Si Si2 0.493578 0.882809 0.099809
Si Si3 0.538791 0.635362 0.411616
Si Si4 0.320180 0.589525 0.719337
Si Si5 0.253369 0.746815 0.830437
Si Si6 0.284272 0.894857 0.687328
O O1 0.071306 0.600288 0.500000
O O2 0.032948 0.749632 0.590477
O O3 0.206308 0.621940 0.649054
O O4 0.942107 0.599443 0.657883
O O5 0.613135 0.808800 0.137550
O O6 0.347241 0.825016 0.118462
O O7 0.500000 0.000000 0.126437
O O8 0.515244 0.884927 0.000000
O O9 0.478616 0.603133 0.500000
O O10 0.459280 0.595125 0.332873
O O11 0.697509 0.605447 0.398785
O O12 0.341710 0.654054 0.801134
O O13 0.264006 0.485002 0.742134
O O14 0.239347 0.802397 0.741298
#
# Coordination Sequence:
#
# PCOD9429061 Si02
#       6
#     8   8   8   8   8   8
#     4  11  22  40  61  86 127 179 234 292 344 392
#     4  11  26  49  79 111 141 180 225 270 340 428
#     4  11  22  39  57  82 126 174 224 283 337 390
#     4  12  24  39  63  93 125 174 228 276 341 405
#     4  12  23  46  71 104 144 180 216 290 345 408
#     4  12  24  39  63  93 125 174 228 276 341 405
#
# _framework density 22.669986999999999
#
# number of rings (size 3 to 8) (size 9 to 14) (size 15 to 20)
#    0.000    0.500    3.333    5.500    0.000    6.667 
#    0.000    2.500    0.000    6.000    0.000    0.000 
#    0.000    0.000    0.000    0.000    0.000    0.000 
#
# Total GULP energy -267522.811534 kJ/mol
# GULP energy per Si atom -5573.391907 kJ/mol
# Density = 2.261839 g / cm^3
# Si number density = 22.669987 Si / 1000 Ang^3
#
#
#
# Elastic Constant Matrix: (Units=GPa)
#
#
# Indices 1 2 3 4 5 6 
#
# 1 91.5934 34.3891 28.7524 0.0000 0.0000 0.0000
# 2 34.3891 136.6206 7.7247 0.0000 0.0000 0.0000
# 3 28.7524 7.7247 62.6659 0.0000 0.0000 0.0000
# 4 0.0000 0.0000 0.0000 15.7303 0.0000 0.0000
# 5 0.0000 0.0000 0.0000 0.0000 35.1325 0.0000
# 6 0.0000 0.0000 0.0000 0.0000 0.0000 31.9513
#
#
#
# Elastic Compliance Matrix: (Units=1/GPa)
#
#
# Indices 1 2 3 4 5 6 
#
# 1 0.014008 -0.003185 -0.006035 0.000000 0.000000 0.000000
# 2 -0.003185 0.008095 0.000463 0.000000 0.000000 0.000000
# 3 -0.006035 0.000463 0.018669 0.000000 0.000000 0.000000
# 4 0.000000 0.000000 0.000000 0.063572 0.000000 0.000000
# 5 0.000000 0.000000 0.000000 0.000000 0.028464 0.000000
# 6 0.000000 0.000000 0.000000 0.000000 0.000000 0.031298
#
#
# Mechanical properties :
#
#
# Convention : Reuss Voigt Hill
#
# Bulk Modulus (GPa) = 42.99165 48.06805 45.52985
# Shear Modulus (GPa) = 26.40328 31.23038 28.81683
#
# Velocity S-wave (km/s) = 3.41644 3.71564 3.56918
# Velocity P-wave (km/s) = 5.87946 6.29741 6.09202
#
# Compressibility (1/GPa) = 0.02326033
#
# Stress axis : x y z
#
# Youngs Moduli (GPa) = 71.38848 123.53335 53.56396
#
# Poissons Ratio (x) = 0.39342 0.32323
# Poissons Ratio (y) = 0.22735 -0.02482
# Poissons Ratio (z) = 0.43079 -0.05724
#
# Static dielectric constant tensor:
#      x y z
#    x 1.869520 0.000000 0.000000 
#    y 0.000000 1.833450 0.000000 
#    z 0.000000 0.000000 1.812910 
# 
# From -- ./inp_files/20760.got.cif
#   From: 2010.05.17/outbox.cif.g08.bks.cpg/sg55_11_cif.got.tgz:20760.got - 2010.06.03 13:27:54.
