data_PCOD9429312
_publ_section_title
;
Structure prediction by ZEFSAII (Michael W. Deem and Ramdas Pophale) SiO2 
 PCOD9429312
Probable space group: P B A M
;
_chemical_formula_sum "Si O2"
_cell_formula_units_Z 40
_cell_length_a 12.000000
_cell_length_b 18.000000
_cell_length_c 9.000000
_cell_angle_alpha 90.000000
_cell_angle_beta 90.000000
_cell_angle_gamma 90.000000
_cell_volume 1944.000000
_symmetry_space_group_name_H-M "P B A M"
_symmetry_group_IT_number 55
_symmetry_cell_setting 'orthorhombic'
loop_
_space_group_symop_operation_xyz
x,y,z
-x,-y,z
1/2+x,1/2-y,-z
1/2-x,1/2+y,-z
-x,-y,-z
x,y,-z
1/2-x,1/2+y,z
1/2+x,1/2-y,z
loop_
_atom_site_type_symbol
_atom_site_label
_atom_site_fract_x
_atom_site_fract_y
_atom_site_fract_z
Si Si1 0.769368 0.575891 0.674865
Si Si2 0.876121 0.790588 0.319670
Si Si3 0.247063 0.583515 0.178876
Si Si4 0.634580 0.719275 0.675891
Si Si5 0.004032 0.409585 0.828449
O O1 0.781443 0.558719 0.500000
O O2 0.750959 0.501674 0.768924
O O3 0.666477 0.632188 0.692331
O O4 0.888735 0.610054 0.729390
O O5 0.877969 0.786919 0.500000
O O6 0.846228 0.872492 0.258728
O O7 0.756391 0.752340 0.270236
O O8 0.004513 0.768489 0.270127
O O9 0.121039 0.612777 0.221539
O O10 0.253644 0.589004 0.000000
O O11 0.631135 0.737985 0.500000
O O12 0.000000 0.500000 0.828450
O O13 0.020873 0.385893 0.000000
#
# Coordination Sequence:
#
# PCOD9429312 Si02
#       5
#     8   8   8   8   8
#     4  10  19  33  57  89 117 150 195 241 290 347
#     4  10  21  40  62  85 115 153 191 238 291 345
#     4  10  21  37  56  84 119 155 193 239 290 343
#     4   9  21  38  60  88 118 148 189 242 294 341
#     4   8  16  31  50  77 116 152 183 229 284 333
#
# _framework density 20.576132000000001
#
# number of rings (size 3 to 8) (size 9 to 14) (size 15 to 20)
#    0.000    2.600    0.000    2.400    2.800    5.200 
#    0.000    9.000    0.000    0.000    0.000    0.000 
#    0.000    0.000    0.000    0.000    0.000    0.000 
#
# Total GULP energy -222709.467774 kJ/mol
# GULP energy per Si atom -5567.736694 kJ/mol
# Density = 2.052930 g / cm^3
# Si number density = 20.576132 Si / 1000 Ang^3
#
#
#
# Elastic Constant Matrix: (Units=GPa)
#
#
# Indices 1 2 3 4 5 6 
#
# 1 166.3701 38.0349 13.2328 0.0000 0.0000 0.0000
# 2 38.0349 40.2587 -4.4123 0.0000 0.0000 0.0000
# 3 13.2328 -4.4123 20.1520 0.0000 0.0000 0.0000
# 4 0.0000 0.0000 0.0000 -0.7903 0.0000 0.0000
# 5 0.0000 0.0000 0.0000 0.0000 28.2349 0.0000
# 6 0.0000 0.0000 0.0000 0.0000 0.0000 41.7232
#
#
#
# Elastic Compliance Matrix: (Units=1/GPa)
#
#
# Indices 1 2 3 4 5 6 
#
# 1 0.008693 -0.009055 -0.007691 0.000000 0.000000 0.000000
# 2 -0.009055 0.034883 0.013584 0.000000 0.000000 0.000000
# 3 -0.007691 0.013584 0.057647 0.000000 0.000000 0.000000
# 4 0.000000 0.000000 0.000000 -1.265279 0.000000 0.000000
# 5 0.000000 0.000000 0.000000 0.000000 0.035417 0.000000
# 6 0.000000 0.000000 0.000000 0.000000 0.000000 0.023967
#
#
# Mechanical properties :
#
#
# Convention : Reuss Voigt Hill
#
# Bulk Modulus (GPa) = 10.53754 35.61018 23.07386
# Shear Modulus (GPa) = -4.68729 25.82857 10.57064
#
# Velocity S-wave (km/s) = -1.51095 3.54682 2.26903
# Velocity P-wave (km/s) = 1.44513 5.84101 4.25475
#
# Compressibility (1/GPa) = 0.09489883
#
# Stress axis : x y z
#
# Youngs Moduli (GPa) = 115.04041 28.66705 17.34693
#
# Poissons Ratio (x) = 0.25959 0.13341
# Poissons Ratio (y) = 1.04173 -0.23564
# Poissons Ratio (z) = 0.88474 -0.38941
#
# Static dielectric constant tensor:
#      x y z
#    x 1.758010 0.000000 0.000000 
#    y 0.000000 1.846390 0.000000 
#    z 0.000000 0.000000 1.694150 
# 
# From -- ./inp_files/3640.got.cif
#   From: 2010.05.17/outbox.ucp.g08.bks.cvg/sg55_2_cif.got.tgz:3640.got - 2010.06.11 16:36:00.
