data_PCOD9429971
_publ_section_title
;
Structure prediction by ZEFSAII (Michael W. Deem and Ramdas Pophale) SiO2 
 PCOD9429971
Probable space group: P C C N
;
_chemical_formula_sum "Si O2"
_cell_formula_units_Z 60
_cell_length_a 20.227835
_cell_length_b 11.266078
_cell_length_c 10.879459
_cell_angle_alpha 90.000000
_cell_angle_beta 90.000000
_cell_angle_gamma 90.000000
_cell_volume 2479.302144
_symmetry_space_group_name_H-M "P C C N"
_symmetry_group_IT_number 56
_symmetry_cell_setting 'orthorhombic'
loop_
_space_group_symop_operation_xyz
x,y,z
1/2-x,1/2-y,z
1/2+x,-y,1/2-z
-x,1/2+y,1/2-z
-x,-y,-z
1/2+x,1/2+y,-z
1/2-x,y,1/2+z
x,1/2-y,1/2+z
loop_
_atom_site_type_symbol
_atom_site_label
_atom_site_fract_x
_atom_site_fract_y
_atom_site_fract_z
Si Si1 0.163659 0.588410 0.648266
Si Si2 0.510666 0.387236 0.207496
Si Si3 0.064618 0.955506 0.366782
Si Si4 0.107487 0.296508 0.836812
Si Si5 0.101330 0.822250 0.582385
Si Si6 0.696341 0.504823 0.315029
Si Si7 0.250000 0.250000 0.225598
Si Si8 0.106996 0.463217 0.425588
O O1 0.120503 0.581248 0.770559
O O2 0.146781 0.707887 0.574972
O O3 0.238525 0.574610 0.687274
O O4 0.141226 0.484944 0.555544
O O5 0.499032 0.508925 0.287276
O O6 0.440444 0.320088 0.217079
O O7 0.559222 0.312200 0.293450
O O8 0.547821 0.439958 0.090212
O O9 0.056118 0.854161 0.466702
O O10 0.087641 0.086404 0.413172
O O11 0.185476 0.293935 0.802975
O O12 0.088605 0.173499 0.901661
O O13 0.147338 0.937307 0.595271
O O14 0.720439 0.637537 0.346676
O O15 0.659569 0.510160 0.183611
#
# Coordination Sequence:
#
# PCOD9429971 Si02
#       8
#     8   8   8   8   8   8   4   8
#     4  12  26  43  68 108 133 186 233 295 347 420
#     4   9  22  45  65 102 138 185 231 282 360 418
#     4  10  24  44  67  98 138 181 234 284 355 416
#     4   9  21  41  71  99 141 180 230 298 346 423
#     4  11  25  42  69 100 138 192 227 289 352 430
#     4  10  23  44  67 100 138 176 234 285 357 416
#     4  10  18  44  70 102 132 180 232 294 354 410
#     4  10  24  43  71 104 139 182 238 295 356 427
#
# _framework density 24.200358000000001
#
# number of rings (size 3 to 8) (size 9 to 14) (size 15 to 20)
#    0.800    1.067    1.333    0.800    7.467    1.600 
#    2.400    2.000    0.000    0.000    0.000    0.000 
#    0.000    0.000    0.000    0.000    0.000    0.000 
#
# Total GULP energy -334971.771365 kJ/mol
# GULP energy per Si atom -5582.862856 kJ/mol
# Density = 2.414528 g / cm^3
# Si number density = 24.200358 Si / 1000 Ang^3
#
#
#
# Elastic Constant Matrix: (Units=GPa)
#
#
# Indices 1 2 3 4 5 6 
#
# 1 102.1460 37.0744 14.3730 0.0000 0.0000 0.0000
# 2 37.0744 36.3503 14.0352 0.0000 0.0000 0.0000
# 3 14.3730 14.0352 51.5971 0.0000 0.0000 0.0000
# 4 0.0000 0.0000 0.0000 17.6036 0.0000 0.0000
# 5 0.0000 0.0000 0.0000 0.0000 12.2535 0.0000
# 6 0.0000 0.0000 0.0000 0.0000 0.0000 19.1011
#
#
#
# Elastic Compliance Matrix: (Units=1/GPa)
#
#
# Indices 1 2 3 4 5 6 
#
# 1 0.015544 -0.015846 -0.000020 0.000000 0.000000 0.000000
# 2 -0.015846 0.046893 -0.008341 0.000000 0.000000 0.000000
# 3 -0.000020 -0.008341 0.021655 0.000000 0.000000 0.000000
# 4 0.000000 0.000000 0.000000 0.056807 0.000000 0.000000
# 5 0.000000 0.000000 0.000000 0.000000 0.081609 0.000000
# 6 0.000000 0.000000 0.000000 0.000000 0.000000 0.052353
#
#
# Mechanical properties :
#
#
# Convention : Reuss Voigt Hill
#
# Bulk Modulus (GPa) = 28.02860 35.67319 31.85089
# Shear Modulus (GPa) = 14.91789 18.09903 16.50846
#
# Velocity S-wave (km/s) = 2.48550 2.73771 2.61465
# Velocity P-wave (km/s) = 4.45466 4.97656 4.72283
#
# Compressibility (1/GPa) = 0.03567785
#
# Stress axis : x y z
#
# Youngs Moduli (GPa) = 64.33290 21.32526 46.17790
#
# Poissons Ratio (x) = 0.33793 0.00091
# Poissons Ratio (y) = 1.01944 0.38519
# Poissons Ratio (z) = 0.00126 0.17788
#
# Static dielectric constant tensor:
#      x y z
#    x 1.915870 0.000000 0.000000 
#    y 0.000000 1.967090 0.000000 
#    z 0.000000 0.000000 1.930250 
# 
# From -- ./inp_files/8685.got.cif
#   From: 2010.05.17/outbox.cif.g08.bks.cpg/sg56_5_cif.got.tgz:8685.got - 2010.06.03 13:42:01.
