data_PCOD9429606
_publ_section_title
;
Structure prediction by ZEFSAII (Michael W. Deem and Ramdas Pophale) SiO2 
 PCOD9429606
Probable space group: P C C N
;
_chemical_formula_sum "Si O2"
_cell_formula_units_Z 60
_cell_length_a 5.008202
_cell_length_b 31.730269
_cell_length_c 20.641683
_cell_angle_alpha 90.000000
_cell_angle_beta 90.000000
_cell_angle_gamma 90.000000
_cell_volume 3280.202803
_symmetry_space_group_name_H-M "P C C N"
_symmetry_group_IT_number 56
_symmetry_cell_setting 'orthorhombic'
loop_
_space_group_symop_operation_xyz
x,y,z
1/2-x,1/2-y,z
1/2+x,-y,1/2-z
-x,1/2+y,1/2-z
-x,-y,-z
1/2+x,1/2+y,-z
1/2-x,y,1/2+z
x,1/2-y,1/2+z
loop_
_atom_site_type_symbol
_atom_site_label
_atom_site_fract_x
_atom_site_fract_y
_atom_site_fract_z
Si Si1 0.223855 0.584810 0.822732
Si Si2 0.365438 0.838646 0.908036
Si Si3 0.250000 0.250000 0.912781
Si Si4 0.416062 0.185662 0.808237
Si Si5 0.846060 0.794706 0.963870
Si Si6 0.590437 0.206665 0.226801
Si Si7 0.276895 0.095991 0.771044
Si Si8 0.380781 0.005055 0.792612
O O1 0.182201 0.613397 0.885975
O O2 0.502836 0.594694 0.786961
O O3 0.192332 0.534916 0.836375
O O4 0.001165 0.594935 0.767767
O O5 0.599472 0.826898 0.957900
O O6 0.442499 0.816915 0.840344
O O7 0.097133 0.816052 0.931274
O O8 0.414070 0.217445 0.868730
O O9 0.088015 0.220555 0.963143
O O10 0.705841 0.183954 0.776017
O O11 0.317861 0.137544 0.813928
O O12 0.197462 0.205950 0.759776
O O13 0.750000 0.750000 0.932411
O O14 0.750000 0.250000 0.215515
O O15 0.316639 0.052907 0.811369
O O16 0.687501 0.001985 0.770096
#
# Coordination Sequence:
#
# PCOD9429606 Si02
#       8
#     8   8   4   8   8   8   8   8
#     4  10  18  30  49  78 108 128 161 200 253 318
#     4  12  20  36  54  77 102 132 173 212 259 306
#     4  10  26  42  50  70 100 140 192 208 256 284
#     4  12  21  36  54  75 104 137 170 215 246 314
#     4  10  24  38  52  66  99 141 179 214 245 298
#     4  12  22  32  52  79 103 129 164 210 273 300
#     4  10  17  32  48  78 105 136 160 196 255 311
#     4   8  16  27  46  70 108 137 152 186 246 318
#
# _framework density 18.291550999999998
#
# number of rings (size 3 to 8) (size 9 to 14) (size 15 to 20)
#    0.400    1.067    4.000    2.800    0.000    2.133 
#    0.000    0.000    0.000    0.000    0.000    1.867 
#    0.000    0.000    0.000    0.000    0.000    0.000 
#
# Total GULP energy -334327.534514 kJ/mol
# GULP energy per Si atom -5572.125575 kJ/mol
# Density = 1.824992 g / cm^3
# Si number density = 18.291551 Si / 1000 Ang^3
#
#
#
# Elastic Constant Matrix: (Units=GPa)
#
#
# Indices 1 2 3 4 5 6 
#
# 1 86.9221 -2.6504 7.8019 0.0000 0.0000 0.0000
# 2 -2.6504 128.4150 24.0692 0.0000 0.0000 0.0000
# 3 7.8019 24.0692 42.4907 0.0000 0.0000 0.0000
# 4 0.0000 0.0000 0.0000 1.7454 0.0000 0.0000
# 5 0.0000 0.0000 0.0000 0.0000 6.2341 0.0000
# 6 0.0000 0.0000 0.0000 0.0000 0.0000 22.1234
#
#
#
# Elastic Compliance Matrix: (Units=1/GPa)
#
#
# Indices 1 2 3 4 5 6 
#
# 1 0.011757 0.000724 -0.002569 0.000000 0.000000 0.000000
# 2 0.000724 0.008757 -0.005093 0.000000 0.000000 0.000000
# 3 -0.002569 -0.005093 0.026891 0.000000 0.000000 0.000000
# 4 0.000000 0.000000 0.000000 0.572939 0.000000 0.000000
# 5 0.000000 0.000000 0.000000 0.000000 0.160408 0.000000
# 6 0.000000 0.000000 0.000000 0.000000 0.000000 0.045201
#
#
# Mechanical properties :
#
#
# Convention : Reuss Voigt Hill
#
# Bulk Modulus (GPa) = 29.82481 35.14105 32.48293
# Shear Modulus (GPa) = 5.87539 21.26105 13.56822
#
# Velocity S-wave (km/s) = 1.79417 3.41301 2.72651
# Velocity P-wave (km/s) = 4.54232 5.89787 5.26391
#
# Compressibility (1/GPa) = 0.03352913
#
# Stress axis : x y z
#
# Youngs Moduli (GPa) = 85.05413 114.19609 37.18648
#
# Poissons Ratio (x) = -0.08270 0.09553
# Poissons Ratio (y) = -0.06159 0.18940
# Poissons Ratio (z) = 0.21851 0.58164
#
# Static dielectric constant tensor:
#      x y z
#    x 1.656770 0.000000 0.000000 
#    y 0.000000 1.721130 0.000000 
#    z 0.000000 0.000000 1.610680 
# 
# From -- ./inp_files/17732.got.cif
#   From: 2010.05.17/outbox.cif.g08.bks.cpg/sg56_9_cif.got.tgz:17732.got - 2010.06.03 13:42:01.
