data_PCOD9429408
_publ_section_title
;
Structure prediction by ZEFSAII (Michael W. Deem and Ramdas Pophale) SiO2 
 PCOD9429408
Probable space group: P B A M
;
_chemical_formula_sum "Si O2"
_cell_formula_units_Z 48
_cell_length_a 15.000000
_cell_length_b 18.000000
_cell_length_c 9.000000
_cell_angle_alpha 90.000000
_cell_angle_beta 90.000000
_cell_angle_gamma 90.000000
_cell_volume 2430.000000
_symmetry_space_group_name_H-M "P B A M"
_symmetry_group_IT_number 55
_symmetry_cell_setting 'orthorhombic'
loop_
_space_group_symop_operation_xyz
x,y,z
-x,-y,z
1/2+x,1/2-y,-z
1/2-x,1/2+y,-z
-x,-y,-z
x,y,-z
1/2-x,1/2+y,z
1/2+x,1/2-y,z
loop_
_atom_site_type_symbol
_atom_site_label
_atom_site_fract_x
_atom_site_fract_y
_atom_site_fract_z
Si Si1 0.722800 0.490261 0.176073
Si Si2 0.401717 0.016191 0.670190
Si Si3 0.063933 0.928297 0.671712
Si Si4 0.602887 0.806209 0.334385
Si Si5 0.298173 0.671643 0.675226
Si Si6 0.970509 0.789688 0.173170
O O1 0.822238 0.510659 0.227157
O O2 0.654844 0.546265 0.252865
O O3 0.703552 0.407282 0.239426
O O4 0.712611 0.489964 0.000000
O O5 0.393060 0.987497 0.500000
O O6 0.394881 0.105055 0.662053
O O7 0.500000 0.000000 0.726407
O O8 0.076654 0.906848 0.500000
O O9 0.018023 0.862960 0.762678
O O10 0.000000 0.000000 0.674811
O O11 0.576483 0.779963 0.500000
O O12 0.705185 0.785754 0.304193
O O13 0.536677 0.776646 0.212196
O O14 0.308156 0.655349 0.500000
O O15 0.379482 0.718276 0.737012
O O16 0.953176 0.796998 0.000000
#
# Coordination Sequence:
#
# PCOD9429408 Si02
#       6
#     8   8   8   8   8   8
#     4  11  21  34  57  88 120 149 184 240 297 343
#     4   9  19  39  65  88 113 154 202 240 279 341
#     4  11  22  37  60  85 114 154 196 237 281 347
#     4   9  20  39  61  84 113 152 197 239 281 343
#     4  10  20  38  62  83 109 153 199 233 278 346
#     4  12  24  37  58  87 120 152 187 242 300 348
#
# _framework density 19.753086
#
# number of rings (size 3 to 8) (size 9 to 14) (size 15 to 20)
#    0.000    1.667    1.667    5.000    0.000    4.333 
#    3.000    0.000    0.000    0.000    0.000    0.000 
#    0.000    0.000    0.000    0.000    0.000    0.000 
#
# Total GULP energy -268012.750997 kJ/mol
# GULP energy per Si atom -5583.598979 kJ/mol
# Density = 1.970813 g / cm^3
# Si number density = 19.753086 Si / 1000 Ang^3
#
#
#
# Elastic Constant Matrix: (Units=GPa)
#
#
# Indices 1 2 3 4 5 6 
#
# 1 130.8312 15.9740 54.2088 0.0000 0.0000 0.0000
# 2 15.9740 -4.1526 0.3991 0.0000 0.0000 0.0000
# 3 54.2088 0.3991 23.0044 0.0000 0.0000 0.0000
# 4 0.0000 0.0000 0.0000 20.6320 0.0000 0.0000
# 5 0.0000 0.0000 0.0000 0.0000 3.9128 0.0000
# 6 0.0000 0.0000 0.0000 0.0000 0.0000 13.2907
#
#
#
# Elastic Compliance Matrix: (Units=1/GPa)
#
#
# Indices 1 2 3 4 5 6 
#
# 1 0.017414 0.062937 -0.042126 0.000000 0.000000 0.000000
# 2 0.062937 -0.012939 -0.148084 0.000000 0.000000 0.000000
# 3 -0.042126 -0.148084 0.145307 0.000000 0.000000 0.000000
# 4 0.000000 0.000000 0.000000 0.048468 0.000000 0.000000
# 5 0.000000 0.000000 0.000000 0.000000 0.255573 0.000000
# 6 0.000000 0.000000 0.000000 0.000000 0.000000 0.075241
#
#
# Mechanical properties :
#
#
# Convention : Reuss Voigt Hill
#
# Bulk Modulus (GPa) = -9.54518 32.31631 11.38557
# Shear Modulus (GPa) = 6.67835 12.84051 9.75943
#
# Velocity S-wave (km/s) = 1.84072 2.55238 2.22518
# Velocity P-wave (km/s) = 0.57014 5.00817 3.51829
#
# Compressibility (1/GPa) = -0.10476494
#
# Stress axis : x y z
#
# Youngs Moduli (GPa) = 57.42650 -77.28464 6.88200
#
# Poissons Ratio (x) = 4.86409 0.28991
# Poissons Ratio (y) = -3.61427 1.01912
# Poissons Ratio (z) = 2.41915 -11.44464
#
# Static dielectric constant tensor:
#      x y z
#    x 1.748930 0.000000 0.000000 
#    y 0.000000 1.694500 0.000000 
#    z 0.000000 0.000000 1.660800 
# 
# From -- ./inp_files/5680.got.cif
#   From: 2010.05.17/outbox.ucp.g08.bks.cvg/sg55_3_cif.got.tgz:5680.got - 2010.06.11 16:36:00.
