data_PCOD9429587
_publ_section_title
;
Structure prediction by ZEFSAII (Michael W. Deem and Ramdas Pophale) SiO2 
 PCOD9429587
Probable space group: P C C N
;
_chemical_formula_sum "Si O2"
_cell_formula_units_Z 48
_cell_length_a 15.738900
_cell_length_b 7.895047
_cell_length_c 17.433881
_cell_angle_alpha 90.000000
_cell_angle_beta 90.000000
_cell_angle_gamma 90.000000
_cell_volume 2166.322812
_symmetry_space_group_name_H-M "P C C N"
_symmetry_group_IT_number 56
_symmetry_cell_setting 'orthorhombic'
loop_
_space_group_symop_operation_xyz
x,y,z
1/2-x,1/2-y,z
1/2+x,-y,1/2-z
-x,1/2+y,1/2-z
-x,-y,-z
1/2+x,1/2+y,-z
1/2-x,y,1/2+z
x,1/2-y,1/2+z
loop_
_atom_site_type_symbol
_atom_site_label
_atom_site_fract_x
_atom_site_fract_y
_atom_site_fract_z
Si Si1 0.584356 0.793861 0.832472
Si Si2 0.173054 0.861417 0.317010
Si Si3 0.621364 0.302537 0.906786
Si Si4 0.049575 0.861070 0.449180
Si Si5 0.970528 0.164821 0.279574
Si Si6 0.256484 0.999734 0.161660
O O1 0.525541 0.761561 0.905454
O O2 0.559303 0.669206 0.764540
O O3 0.547858 0.973007 0.800484
O O4 0.681312 0.840704 0.844058
O O5 0.250000 0.750000 0.351184
O O6 0.117072 0.936270 0.387136
O O7 0.221825 0.963182 0.248162
O O8 0.103689 0.739694 0.275094
O O9 0.536870 0.279982 0.855496
O O10 0.681048 0.151309 0.871049
O O11 0.672379 0.474044 0.890017
O O12 0.600776 0.259234 0.993294
O O13 0.000000 0.000000 0.500000
#
# Coordination Sequence:
#
# PCOD9429587 Si02
#       6
#     8   8   8   8   8   8
#     4  10  18  31  52  80 115 142 193 234 285 343
#     4  10  17  29  48  73 104 138 191 227 275 330
#     4   9  16  30  47  74 112 140 178 233 287 322
#     4  11  20  27  47  84 114 139 176 246 294 326
#     4   9  17  30  51  75 110 143 180 240 274 339
#     4   9  15  30  47  70 107 143 184 230 270 331
#
# _framework density 22.157361999999999
#
# number of rings (size 3 to 8) (size 9 to 14) (size 15 to 20)
#    0.000    2.333    8.333    0.000    2.333    0.000 
#    0.000    0.000    0.000   13.000    0.000    0.000 
#   30.000    0.000    0.000    0.000    0.000    0.000 
#
# Total GULP energy -267428.914542 kJ/mol
# GULP energy per Si atom -5571.435720 kJ/mol
# Density = 2.210693 g / cm^3
# Si number density = 22.157362 Si / 1000 Ang^3
#
#
#
# Elastic Constant Matrix: (Units=GPa)
#
#
# Indices 1 2 3 4 5 6 
#
# 1 138.2051 34.6556 65.3415 0.0000 0.0000 0.0000
# 2 34.6556 27.6002 20.0654 0.0000 0.0000 0.0000
# 3 65.3415 20.0654 134.0082 0.0000 0.0000 0.0000
# 4 0.0000 0.0000 0.0000 18.1017 0.0000 0.0000
# 5 0.0000 0.0000 0.0000 0.0000 20.4181 0.0000
# 6 0.0000 0.0000 0.0000 0.0000 0.0000 49.1193
#
#
#
# Elastic Compliance Matrix: (Units=1/GPa)
#
#
# Indices 1 2 3 4 5 6 
#
# 1 0.012316 -0.012454 -0.004140 0.000000 0.000000 0.000000
# 2 -0.012454 0.053252 -0.001901 0.000000 0.000000 0.000000
# 3 -0.004140 -0.001901 0.009766 0.000000 0.000000 0.000000
# 4 0.000000 0.000000 0.000000 0.055243 0.000000 0.000000
# 5 0.000000 0.000000 0.000000 0.000000 0.048976 0.000000
# 6 0.000000 0.000000 0.000000 0.000000 0.000000 0.020359
#
#
# Mechanical properties :
#
#
# Convention : Reuss Voigt Hill
#
# Bulk Modulus (GPa) = 26.08098 59.99316 43.03707
# Shear Modulus (GPa) = 20.02533 29.51123 24.76828
#
# Velocity S-wave (km/s) = 3.00955 3.65347 3.34703
# Velocity P-wave (km/s) = 4.88599 6.70312 5.86535
#
# Compressibility (1/GPa) = 0.03834212
#
# Stress axis : x y z
#
# Youngs Moduli (GPa) = 81.19401 18.77877 102.39920
#
# Poissons Ratio (x) = 0.23388 0.42398
# Poissons Ratio (y) = 1.01122 0.19464
# Poissons Ratio (z) = 0.33618 0.03569
#
# Static dielectric constant tensor:
#      x y z
#    x 1.920640 0.000000 0.000000 
#    y 0.000000 1.949580 0.000000 
#    z 0.000000 0.000000 1.863560 
# 
# From -- ./inp_files/16244.got.cif
#   From: 2010.05.17/outbox.cif.g08.bks.cpg/sg56_9_cif.got.tgz:16244.got - 2010.06.03 13:42:01.
