data_PCOD9429491
_publ_section_title
;
Structure prediction by ZEFSAII (Michael W. Deem and Ramdas Pophale) SiO2 
 PCOD9429491
Probable space group: P C C N
;
_chemical_formula_sum "Si O2"
_cell_formula_units_Z 48
_cell_length_a 31.173133
_cell_length_b 11.002850
_cell_length_c 5.305436
_cell_angle_alpha 90.000000
_cell_angle_beta 90.000000
_cell_angle_gamma 90.000000
_cell_volume 1819.729036
_symmetry_space_group_name_H-M "P C C N"
_symmetry_group_IT_number 56
_symmetry_cell_setting 'orthorhombic'
loop_
_space_group_symop_operation_xyz
x,y,z
1/2-x,1/2-y,z
1/2+x,-y,1/2-z
-x,1/2+y,1/2-z
-x,-y,-z
1/2+x,1/2+y,-z
1/2-x,y,1/2+z
x,1/2-y,1/2+z
loop_
_atom_site_type_symbol
_atom_site_label
_atom_site_fract_x
_atom_site_fract_y
_atom_site_fract_z
Si Si1 0.275636 0.905432 0.817868
Si Si2 0.592581 0.826605 0.179273
Si Si3 0.503069 0.668551 0.809268
Si Si4 0.126757 0.623946 0.735206
Si Si5 0.192990 0.324989 0.759931
Si Si6 0.089622 0.603214 0.236301
O O1 0.244040 0.875350 0.588329
O O2 0.282640 0.050058 0.802539
O O3 0.323204 0.851626 0.777831
O O4 0.587863 0.714449 0.386939
O O5 0.548624 0.895129 0.260303
O O6 0.642413 0.854681 0.224507
O O7 0.500246 0.769117 0.583893
O O8 0.460628 0.588128 0.774086
O O9 0.117316 0.559278 0.471593
O O10 0.101309 0.752116 0.719712
O O11 0.107268 0.554622 0.974326
O O12 0.201760 0.267286 0.488173
#
# Coordination Sequence:
#
# PCOD9429491 Si02
#       6
#     8   8   8   8   8   8
#     4  12  26  42  59  82 110 144 186 240 292 334
#     4   8  16  27  49  81 109 138 172 223 263 322
#     4  10  14  25  48  83 110 139 190 214 251 311
#     4  10  20  35  54  80 113 146 189 225 277 316
#     4  10  21  40  62  85 108 142 181 231 291 338
#     4  10  17  33  55  81 110 154 189 217 255 326
#
# _framework density 26.377554
#
# number of rings (size 3 to 8) (size 9 to 14) (size 15 to 20)
#    0.000    2.000    3.333    2.000    0.000    2.000 
#    0.000   10.000    0.000    2.000    0.000    0.000 
#    0.000    0.000    0.000    0.000    0.000    0.000 
#
# Total GULP energy -268830.700561 kJ/mol
# GULP energy per Si atom -5600.639595 kJ/mol
# Density = 2.631752 g / cm^3
# Si number density = 26.377554 Si / 1000 Ang^3
#
#
#
# Elastic Constant Matrix: (Units=GPa)
#
#
# Indices 1 2 3 4 5 6 
#
# 1 189.0155 3.9545 11.0116 0.0000 0.0000 0.0000
# 2 3.9545 67.3407 -9.8026 0.0000 0.0000 0.0000
# 3 11.0116 -9.8026 147.4199 0.0000 0.0000 0.0000
# 4 0.0000 0.0000 0.0000 54.6220 0.0000 0.0000
# 5 0.0000 0.0000 0.0000 0.0000 -7.9022 0.0000
# 6 0.0000 0.0000 0.0000 0.0000 0.0000 18.8804
#
#
#
# Elastic Compliance Matrix: (Units=1/GPa)
#
#
# Indices 1 2 3 4 5 6 
#
# 1 0.005323 -0.000374 -0.000422 0.000000 0.000000 0.000000
# 2 -0.000374 0.015021 0.001027 0.000000 0.000000 0.000000
# 3 -0.000422 0.001027 0.006883 0.000000 0.000000 0.000000
# 4 0.000000 0.000000 0.000000 0.018308 0.000000 0.000000
# 5 0.000000 0.000000 0.000000 0.000000 -0.126547 0.000000
# 6 0.000000 0.000000 0.000000 0.000000 0.000000 0.052965
#
#
# Mechanical properties :
#
#
# Convention : Reuss Voigt Hill
#
# Bulk Modulus (GPa) = 36.11686 46.01145 41.06415
# Shear Modulus (GPa) = -259.36006 39.69422 -109.83292
#
# Velocity S-wave (km/s) = -9.92671 3.88345 -6.45981
# Velocity P-wave (km/s) = 10.84730 6.13103 6.32750
#
# Compressibility (1/GPa) = 0.02768790
#
# Stress axis : x y z
#
# Youngs Moduli (GPa) = 187.86363 66.57219 145.28173
#
# Poissons Ratio (x) = 0.02490 0.06138
# Poissons Ratio (y) = 0.07028 -0.14917
# Poissons Ratio (z) = 0.07937 -0.06835
#
# Static dielectric constant tensor:
#      x y z
#    x 2.016240 0.000000 0.000000 
#    y 0.000000 2.239570 0.000000 
#    z 0.000000 0.000000 2.079330 
# 
# From -- ./inp_files/1211.got.cif
#   From: 2010.05.17/outbox.cif.g08.bks.cpg/sg56_1_cif.got.tgz:1211.got - 2010.06.03 13:42:01.
