data_PCOD9429425
_publ_section_title
;
Structure prediction by ZEFSAII (Michael W. Deem and Ramdas Pophale) SiO2 
 PCOD9429425
Probable space group: P B A M
;
_chemical_formula_sum "Si O2"
_cell_formula_units_Z 64
_cell_length_a 15.000000
_cell_length_b 24.000000
_cell_length_c 9.000000
_cell_angle_alpha 90.000000
_cell_angle_beta 90.000000
_cell_angle_gamma 90.000000
_cell_volume 3240.000000
_symmetry_space_group_name_H-M "P B A M"
_symmetry_group_IT_number 55
_symmetry_cell_setting 'orthorhombic'
loop_
_space_group_symop_operation_xyz
x,y,z
-x,-y,z
1/2+x,1/2-y,-z
1/2-x,1/2+y,-z
-x,-y,-z
x,y,-z
1/2-x,1/2+y,z
1/2+x,1/2-y,z
loop_
_atom_site_type_symbol
_atom_site_label
_atom_site_fract_x
_atom_site_fract_y
_atom_site_fract_z
Si Si1 0.357563 0.610596 0.821918
Si Si2 0.503154 0.758957 0.829575
Si Si3 0.443798 0.114850 0.823075
Si Si4 0.728556 0.662231 0.677844
Si Si5 0.710300 0.954908 0.323074
Si Si6 0.203983 0.232184 0.830153
Si Si7 0.378112 0.926152 0.678541
Si Si8 0.036211 0.854914 0.675464
O O1 0.303398 0.559667 0.754032
O O2 0.309889 0.669153 0.773622
O O3 0.458229 0.614640 0.763910
O O4 0.356331 0.610047 0.000000
O O5 0.540519 0.819630 0.792615
O O6 0.395467 0.758436 0.829377
O O7 0.528851 0.710492 0.716652
O O8 0.529658 0.744327 0.000000
O O9 0.359629 0.089890 0.739283
O O10 0.530240 0.081856 0.765080
O O11 0.433336 0.108479 0.000000
O O12 0.728271 0.667124 0.500000
O O13 0.735992 0.724014 0.743852
O O14 0.812403 0.624354 0.719902
O O15 0.637202 0.631191 0.719913
O O16 0.719067 0.950344 0.500000
O O17 0.670552 0.015706 0.288798
O O18 0.235646 0.228310 0.000000
O O19 0.394775 0.924089 0.500000
O O20 0.023874 0.863357 0.500000
#
# Coordination Sequence:
#
# PCOD9429425 Si02
#       8
#     8   8   8   8   8   8   8   8
#     4  10  22  41  60  83 116 153 193 242 294 346
#     4   9  19  35  53  80 117 154 187 226 281 342
#     4  11  22  37  58  86 119 156 194 237 291 350
#     4  10  21  36  57  86 116 149 192 237 288 343
#     4  11  24  40  60  84 113 154 200 244 295 349
#     4   9  18  34  55  80 111 147 185 228 281 339
#     4  10  22  41  60  83 118 155 195 246 293 343
#     4  10  21  36  57  86 117 151 191 238 290 346
#
# _framework density 19.753086
#
# number of rings (size 3 to 8) (size 9 to 14) (size 15 to 20)
#    0.000    2.000    1.250    2.625    1.750    7.000 
#    0.000    0.625    0.000    3.750    0.000    0.000 
#    0.000    0.000    0.000    0.000    0.000    0.000 
#
# Total GULP energy -357409.033521 kJ/mol
# GULP energy per Si atom -5584.516149 kJ/mol
# Density = 1.970813 g / cm^3
# Si number density = 19.753086 Si / 1000 Ang^3
#
#
#
# Elastic Constant Matrix: (Units=GPa)
#
#
# Indices 1 2 3 4 5 6 
#
# 1 60.2298 -22.2231 10.9039 0.0000 0.0000 0.0000
# 2 -22.2231 6.1164 -0.1211 0.0000 0.0000 0.0000
# 3 10.9039 -0.1211 23.5123 0.0000 0.0000 0.0000
# 4 0.0000 0.0000 0.0000 24.5684 0.0000 0.0000
# 5 0.0000 0.0000 0.0000 0.0000 77.3495 0.0000
# 6 0.0000 0.0000 0.0000 0.0000 0.0000 7.8436
#
#
#
# Elastic Compliance Matrix: (Units=1/GPa)
#
#
# Indices 1 2 3 4 5 6 
#
# 1 -0.039726 -0.143990 0.017681 0.000000 0.000000 0.000000
# 2 -0.143990 -0.358387 0.064930 0.000000 0.000000 0.000000
# 3 0.017681 0.064930 0.034666 0.000000 0.000000 0.000000
# 4 0.000000 0.000000 0.000000 0.040703 0.000000 0.000000
# 5 0.000000 0.000000 0.000000 0.000000 0.012928 0.000000
# 6 0.000000 0.000000 0.000000 0.000000 0.000000 0.127492
#
#
# Mechanical properties :
#
#
# Convention : Reuss Voigt Hill
#
# Bulk Modulus (GPa) = -2.05674 7.44198 2.69262
# Shear Modulus (GPa) = -22.55953 28.70556 3.07302
#
# Velocity S-wave (km/s) = -3.38313 3.81625 1.24864
# Velocity P-wave (km/s) = 4.03785 4.81601 1.85604
#
# Compressibility (1/GPa) = -0.48620612
#
# Stress axis : x y z
#
# Youngs Moduli (GPa) = -25.17227 -2.79028 28.84697
#
# Poissons Ratio (x) = -0.40177 -0.51005
# Poissons Ratio (y) = -3.62455 -1.87302
# Poissons Ratio (z) = 0.44508 0.18117
#
# Static dielectric constant tensor:
#      x y z
#    x 1.736440 0.000000 0.000000 
#    y 0.000000 1.672750 0.000000 
#    z 0.000000 0.000000 1.662800 
# 
# From -- ./inp_files/6561.got.cif
#   From: 2010.05.17/outbox.ucp.g08.bks.cvg/sg55_4_cif.got.tgz:6561.got - 2010.06.11 16:36:00.
