data_PCOD9429202
_publ_section_title
;
Structure prediction by ZEFSAII (Michael W. Deem and Ramdas Pophale) SiO2 
 PCOD9429202
Probable space group: P B A M
;
_chemical_formula_sum "Si O2"
_cell_formula_units_Z 48
_cell_length_a 16.439408
_cell_length_b 9.227650
_cell_length_c 15.415286
_cell_angle_alpha 90.000000
_cell_angle_beta 90.000000
_cell_angle_gamma 90.000000
_cell_volume 2338.454232
_symmetry_space_group_name_H-M "P B A M"
_symmetry_group_IT_number 55
_symmetry_cell_setting 'orthorhombic'
loop_
_space_group_symop_operation_xyz
x,y,z
-x,-y,z
1/2+x,1/2-y,-z
1/2-x,1/2+y,-z
-x,-y,-z
x,y,-z
1/2-x,1/2+y,z
1/2+x,1/2-y,z
loop_
_atom_site_type_symbol
_atom_site_label
_atom_site_fract_x
_atom_site_fract_y
_atom_site_fract_z
Si Si1 0.718096 0.548343 0.698394
Si Si2 0.667303 0.825368 0.601967
Si Si3 0.572475 0.395191 0.801983
Si Si4 0.852639 0.342529 0.906842
Si Si5 0.536088 0.844525 0.259296
Si Si6 0.192511 0.331642 0.137458
O O1 0.685854 0.660575 0.627955
O O2 0.764741 0.421444 0.649435
O O3 0.643821 0.486401 0.755891
O O4 0.780756 0.628828 0.763692
O O5 0.665099 0.849157 0.500000
O O6 0.584252 0.861410 0.651770
O O7 0.500000 0.500000 0.835303
O O8 0.528507 0.284437 0.735807
O O9 0.618888 0.283564 0.865768
O O10 0.904464 0.307911 0.821331
O O11 0.771195 0.246773 0.901645
O O12 0.829433 0.512614 0.901614
O O13 0.893619 0.314781 0.000000
O O14 0.500000 0.000000 0.235943
#
# Coordination Sequence:
#
# PCOD9429202 Si02
#       6
#     8   8   8   8   8   8
#     4  12  21  44  71  95 132 182 225 273 328 403
#     4  12  25  43  69  99 130 174 230 280 331 399
#     4  12  22  39  71  97 131 178 216 271 341 402
#     4  12  25  43  70  99 133 177 230 279 325 396
#     4  12  24  43  67  95 135 179 216 274 344 403
#     4  12  21  44  70  96 132 176 228 271 331 394
#
# _framework density 20.52638
#
# number of rings (size 3 to 8) (size 9 to 14) (size 15 to 20)
#    0.000    0.000   10.000    1.000    0.000    0.667 
#    0.000    2.500    0.000    3.500    0.000    0.000 
#    0.000    0.000    0.000    0.000    0.000    0.000 
#
# Total GULP energy -268284.969554 kJ/mol
# GULP energy per Si atom -5589.270199 kJ/mol
# Density = 2.047966 g / cm^3
# Si number density = 20.526380 Si / 1000 Ang^3
#
#
#
# Elastic Constant Matrix: (Units=GPa)
#
#
# Indices 1 2 3 4 5 6 
#
# 1 58.0871 23.5960 1.8346 0.0000 0.0000 0.0000
# 2 23.5960 105.1599 7.0521 0.0000 0.0000 0.0000
# 3 1.8346 7.0521 95.1236 0.0000 0.0000 0.0000
# 4 0.0000 0.0000 0.0000 60.8495 0.0000 0.0000
# 5 0.0000 0.0000 0.0000 0.0000 -21.5582 0.0000
# 6 0.0000 0.0000 0.0000 0.0000 0.0000 40.7482
#
#
#
# Elastic Compliance Matrix: (Units=1/GPa)
#
#
# Indices 1 2 3 4 5 6 
#
# 1 0.018942 -0.004247 -0.000050 0.000000 0.000000 0.000000
# 2 -0.004247 0.010509 -0.000697 0.000000 0.000000 0.000000
# 3 -0.000050 -0.000697 0.010565 0.000000 0.000000 0.000000
# 4 0.000000 0.000000 0.000000 0.016434 0.000000 0.000000
# 5 0.000000 0.000000 0.000000 0.000000 -0.046386 0.000000
# 6 0.000000 0.000000 0.000000 0.000000 0.000000 0.024541
#
#
# Mechanical properties :
#
#
# Convention : Reuss Voigt Hill
#
# Bulk Modulus (GPa) = 33.30290 35.92622 34.61456
# Shear Modulus (GPa) = 91.56850 31.06708 61.31779
#
# Velocity S-wave (km/s) = 6.68633 3.89462 5.47152
# Velocity P-wave (km/s) = 8.71028 6.14529 7.53769
#
# Compressibility (1/GPa) = 0.03002741
#
# Stress axis : x y z
#
# Youngs Moduli (GPa) = 52.79191 95.15633 94.64949
#
# Poissons Ratio (x) = 0.40412 0.00478
# Poissons Ratio (y) = 0.22420 0.06599
# Poissons Ratio (z) = 0.00267 0.06634
#
# Static dielectric constant tensor:
#      x y z
#    x 1.761260 0.000000 0.000000 
#    y 0.000000 1.763890 0.000000 
#    z 0.000000 0.000000 1.712270 
# 
# From -- ./inp_files/19346.got.cif
#   From: 2010.05.17/outbox.cif.g08.bks.cpg/sg55_10_cif.got.tgz:19346.got - 2010.06.03 13:27:54.
