data_PCOD9429808
_publ_section_title
;
Structure prediction by ZEFSAII (Michael W. Deem and Ramdas Pophale) SiO2 
 PCOD9429808
Probable space group: P C C N
;
_chemical_formula_sum "Si O2"
_cell_formula_units_Z 48
_cell_length_a 16.314792
_cell_length_b 8.328845
_cell_length_c 14.078569
_cell_angle_alpha 90.000000
_cell_angle_beta 90.000000
_cell_angle_gamma 90.000000
_cell_volume 1913.043454
_symmetry_space_group_name_H-M "P C C N"
_symmetry_group_IT_number 56
_symmetry_cell_setting 'orthorhombic'
loop_
_space_group_symop_operation_xyz
x,y,z
1/2-x,1/2-y,z
1/2+x,-y,1/2-z
-x,1/2+y,1/2-z
-x,-y,-z
1/2+x,1/2+y,-z
1/2-x,y,1/2+z
x,1/2-y,1/2+z
loop_
_atom_site_type_symbol
_atom_site_label
_atom_site_fract_x
_atom_site_fract_y
_atom_site_fract_z
Si Si1 0.060340 0.471626 0.130570
Si Si2 0.354156 0.629347 0.784730
Si Si3 0.673467 0.462234 0.798504
Si Si4 0.613790 0.359496 0.552191
Si Si5 0.157756 0.183084 0.039645
Si Si6 0.334807 0.332378 0.361377
O O1 0.077931 0.513848 0.239722
O O2 0.109054 0.312939 0.100504
O O3 0.968220 0.429620 0.101959
O O4 0.094195 0.612895 0.058984
O O5 0.267144 0.561424 0.742617
O O6 0.366474 0.796797 0.729547
O O7 0.360832 0.694236 0.893940
O O8 0.664637 0.514962 0.906778
O O9 0.632053 0.604364 0.737480
O O10 0.677748 0.500610 0.580110
O O11 0.250000 0.250000 0.034791
O O12 0.122900 0.206647 0.932815
O O13 0.250000 0.250000 0.336052
#
# Coordination Sequence:
#
# PCOD9429808 Si02
#       6
#     8   8   8   8   8   8
#     4  10  20  39  62  83 119 160 200 244 295 365
#     4  10  21  38  59  86 116 155 189 250 313 349
#     4  10  20  37  56  88 121 143 199 252 294 360
#     4   9  21  39  59  84 120 157 199 243 299 359
#     4  10  18  34  59  85 112 156 197 236 299 359
#     4   9  19  34  57  82 112 154 194 238 294 349
#
# _framework density 25.090909
#
# number of rings (size 3 to 8) (size 9 to 14) (size 15 to 20)
#    0.000    2.333    1.667    0.500    0.000    2.667 
#    6.000    1.667    0.000    4.000    0.000    0.000 
#    0.000    0.000    0.000    0.000    0.000    0.000 
#
# Total GULP energy -267399.444794 kJ/mol
# GULP energy per Si atom -5570.821767 kJ/mol
# Density = 2.503380 g / cm^3
# Si number density = 25.090909 Si / 1000 Ang^3
#
#
#
# Elastic Constant Matrix: (Units=GPa)
#
#
# Indices 1 2 3 4 5 6 
#
# 1 45.3469 20.4876 6.5985 0.0000 0.0000 0.0000
# 2 20.4876 81.9694 51.5317 0.0000 0.0000 0.0000
# 3 6.5985 51.5317 134.1659 0.0000 0.0000 0.0000
# 4 0.0000 0.0000 0.0000 122.2218 0.0000 0.0000
# 5 0.0000 0.0000 0.0000 0.0000 11.2078 0.0000
# 6 0.0000 0.0000 0.0000 0.0000 0.0000 17.7114
#
#
#
# Elastic Compliance Matrix: (Units=1/GPa)
#
#
# Indices 1 2 3 4 5 6 
#
# 1 0.025101 -0.007248 0.001549 0.000000 0.000000 0.000000
# 2 -0.007248 0.018176 -0.006625 0.000000 0.000000 0.000000
# 3 0.001549 -0.006625 0.009922 0.000000 0.000000 0.000000
# 4 0.000000 0.000000 0.000000 0.008182 0.000000 0.000000
# 5 0.000000 0.000000 0.000000 0.000000 0.089224 0.000000
# 6 0.000000 0.000000 0.000000 0.000000 0.000000 0.056461
#
#
# Mechanical properties :
#
#
# Convention : Reuss Voigt Hill
#
# Bulk Modulus (GPa) = 35.02327 46.52422 40.77374
# Shear Modulus (GPa) = 20.72715 42.41916 31.57315
#
# Velocity S-wave (km/s) = 2.87728 4.11617 3.55117
# Velocity P-wave (km/s) = 5.00272 6.41662 5.75327
#
# Compressibility (1/GPa) = 0.02855245
#
# Stress axis : x y z
#
# Youngs Moduli (GPa) = 39.83851 55.01756 100.78858
#
# Poissons Ratio (x) = 0.39876 -0.15615
# Poissons Ratio (y) = 0.28875 0.66770
# Poissons Ratio (z) = -0.06172 0.36448
#
# Static dielectric constant tensor:
#      x y z
#    x 2.099000 0.000000 0.000000 
#    y 0.000000 2.047170 0.000000 
#    z 0.000000 0.000000 2.071870 
# 
# From -- ./inp_files/12695.got.cif
#   From: 2010.05.17/outbox.cif.g08.bks.cpg/sg56_7_cif.got.tgz:12695.got - 2010.06.03 13:42:01.
