data_PCOD9429923
_publ_section_title
;
Structure prediction by ZEFSAII (Michael W. Deem and Ramdas Pophale) SiO2 
 PCOD9429923
Probable space group: P C C N
;
_chemical_formula_sum "Si O2"
_cell_formula_units_Z 44
_cell_length_a 8.218259
_cell_length_b 11.914826
_cell_length_c 22.763232
_cell_angle_alpha 90.000000
_cell_angle_beta 90.000000
_cell_angle_gamma 90.000000
_cell_volume 2228.955783
_symmetry_space_group_name_H-M "P C C N"
_symmetry_group_IT_number 56
_symmetry_cell_setting 'orthorhombic'
loop_
_space_group_symop_operation_xyz
x,y,z
1/2-x,1/2-y,z
1/2+x,-y,1/2-z
-x,1/2+y,1/2-z
-x,-y,-z
1/2+x,1/2+y,-z
1/2-x,y,1/2+z
x,1/2-y,1/2+z
loop_
_atom_site_type_symbol
_atom_site_label
_atom_site_fract_x
_atom_site_fract_y
_atom_site_fract_z
Si Si1 0.250000 0.750000 0.769586
Si Si2 0.415524 0.302902 0.296993
Si Si3 0.281463 0.975913 0.843975
Si Si4 0.750000 0.250000 0.959221
Si Si5 0.048365 0.350839 0.406132
Si Si6 0.750000 0.750000 0.488785
Si Si7 0.026147 0.896955 0.457418
O O1 0.417671 0.738091 0.732555
O O2 0.247372 0.863138 0.808247
O O3 0.250000 0.250000 0.269870
O O4 0.380507 0.434954 0.303871
O O5 0.423490 0.255305 0.363445
O O6 0.389658 0.938669 0.898955
O O7 0.124493 0.043193 0.871105
O O8 0.642364 0.338678 0.921898
O O9 0.634102 0.184535 0.003055
O O10 0.147239 0.329326 0.466407
O O11 0.639008 0.671493 0.449018
O O12 0.000000 0.000000 0.500000
#
# Coordination Sequence:
#
# PCOD9429923 Si02
#       7
#     4   8   8   4   8   4   8
#     4  12  28  44  68 100 130 172 224 290 338 392
#     4  10  23  45  70  91 125 174 228 277 336 393
#     4  11  23  43  65  95 139 166 222 283 330 399
#     4  10  22  34  66 100 124 174 224 242 332 410
#     4  10  18  41  66  94 128 170 220 266 318 407
#     4  10  18  38  64  94 132 172 212 260 324 400
#     4  11  21  40  62  95 133 174 210 265 328 390
#
# _framework density 19.740183999999999
#
# number of rings (size 3 to 8) (size 9 to 14) (size 15 to 20)
#    0.000    1.455    4.545    2.182    5.091    0.727 
#    4.909    0.000    0.000    0.000    0.000    0.000 
#    0.000    0.000    0.000    0.000    0.000    0.000 
#
# Total GULP energy -245337.559531 kJ/mol
# GULP energy per Si atom -5575.853626 kJ/mol
# Density = 1.969525 g / cm^3
# Si number density = 19.740184 Si / 1000 Ang^3
#
#
#
# Elastic Constant Matrix: (Units=GPa)
#
#
# Indices 1 2 3 4 5 6 
#
# 1 133.8927 43.5105 35.2013 0.0000 0.0000 0.0000
# 2 43.5105 120.7968 24.7502 0.0000 0.0000 0.0000
# 3 35.2013 24.7502 49.4815 0.0000 0.0000 0.0000
# 4 0.0000 0.0000 0.0000 22.2139 0.0000 0.0000
# 5 0.0000 0.0000 0.0000 0.0000 23.4222 0.0000
# 6 0.0000 0.0000 0.0000 0.0000 0.0000 26.3652
#
#
#
# Elastic Compliance Matrix: (Units=1/GPa)
#
#
# Indices 1 2 3 4 5 6 
#
# 1 0.009741 -0.002327 -0.005766 0.000000 0.000000 0.000000
# 2 -0.002327 0.009780 -0.003236 0.000000 0.000000 0.000000
# 3 -0.005766 -0.003236 0.025930 0.000000 0.000000 0.000000
# 4 0.000000 0.000000 0.000000 0.045017 0.000000 0.000000
# 5 0.000000 0.000000 0.000000 0.000000 0.042695 0.000000
# 6 0.000000 0.000000 0.000000 0.000000 0.000000 0.037929
#
#
# Mechanical properties :
#
#
# Convention : Reuss Voigt Hill
#
# Bulk Modulus (GPa) = 43.87400 56.78832 50.33116
# Shear Modulus (GPa) = 24.83291 27.78086 26.30689
#
# Velocity S-wave (km/s) = 3.55066 3.75550 3.65452
# Velocity P-wave (km/s) = 6.25168 6.90184 6.58479
#
# Compressibility (1/GPa) = 0.02279254
#
# Stress axis : x y z
#
# Youngs Moduli (GPa) = 102.66157 102.25279 38.56556
#
# Poissons Ratio (x) = 0.23797 0.22235
# Poissons Ratio (y) = 0.23892 0.12480
# Poissons Ratio (z) = 0.59190 0.33090
#
# Static dielectric constant tensor:
#      x y z
#    x 1.771320 0.000000 0.000000 
#    y 0.000000 1.683660 0.000000 
#    z 0.000000 0.000000 1.728270 
# 
# From -- ./inp_files/20446.got.cif
#   From: 2010.05.17/outbox.cif.g08.bks.cpg/sg56_11_cif.got.tgz:20446.got - 2010.06.03 13:42:01.
