data_PCOD9429198
_publ_section_title
;
Structure prediction by ZEFSAII (Michael W. Deem and Ramdas Pophale) SiO2 
 PCOD9429198
Probable space group: P B A M
;
_chemical_formula_sum "Si O2"
_cell_formula_units_Z 48
_cell_length_a 9.664688
_cell_length_b 12.664781
_cell_length_c 16.638985
_cell_angle_alpha 90.000000
_cell_angle_beta 90.000000
_cell_angle_gamma 90.000000
_cell_volume 2036.631015
_symmetry_space_group_name_H-M "P B A M"
_symmetry_group_IT_number 55
_symmetry_cell_setting 'orthorhombic'
loop_
_space_group_symop_operation_xyz
x,y,z
-x,-y,z
1/2+x,1/2-y,-z
1/2-x,1/2+y,-z
-x,-y,-z
x,y,-z
1/2-x,1/2+y,z
1/2+x,1/2-y,z
loop_
_atom_site_type_symbol
_atom_site_label
_atom_site_fract_x
_atom_site_fract_y
_atom_site_fract_z
Si Si1 0.351344 0.042632 0.235016
Si Si2 0.778283 0.043593 0.086415
Si Si3 0.014998 0.748215 0.255764
Si Si4 0.450673 0.675067 0.910235
Si Si5 0.421454 0.884935 0.587094
Si Si6 0.863969 0.054546 0.349752
O O1 0.371512 0.165751 0.223507
O O2 0.500000 0.000000 0.262874
O O3 0.323695 0.969700 0.158968
O O4 0.225007 0.026408 0.295501
O O5 0.888983 0.137172 0.093208
O O6 0.708920 0.049444 0.000000
O O7 0.864481 0.933764 0.089544
O O8 0.925566 0.768513 0.175043
O O9 0.080865 0.855699 0.289024
O O10 0.955064 0.690829 0.336556
O O11 0.428613 0.723706 0.000000
O O12 0.456552 0.835482 0.500000
O O13 0.256027 0.902956 0.592698
O O14 0.500000 0.000000 0.585614
O O15 0.000000 0.000000 0.385670
#
# Coordination Sequence:
#
# PCOD9429198 Si02
#       6
#     8   8   8   8   8   8
#     4  12  24  42  65 106 146 192 244 308 371 429
#     4   9  19  38  63  97 143 196 246 305 368 431
#     4  12  24  41  78 103 151 193 248 294 374 441
#     4   9  19  38  67 103 144 191 249 305 363 433
#     4  11  26  52  77 107 151 192 235 307 378 435
#     4  12  26  45  75 111 143 194 247 295 365 458
#
# _framework density 23.568335000000001
#
# number of rings (size 3 to 8) (size 9 to 14) (size 15 to 20)
#    0.000    1.167    5.000    2.000    4.667    2.000 
#    0.000    1.667    0.000    0.500    0.000    0.000 
#    0.000    0.000    0.000    0.000    0.000    0.000 
#
# Total GULP energy -267725.296262 kJ/mol
# GULP energy per Si atom -5577.610339 kJ/mol
# Density = 2.351469 g / cm^3
# Si number density = 23.568335 Si / 1000 Ang^3
#
#
#
# Elastic Constant Matrix: (Units=GPa)
#
#
# Indices 1 2 3 4 5 6 
#
# 1 108.6634 20.1953 27.1611 0.0000 0.0000 0.0000
# 2 20.1953 73.4965 21.4964 0.0000 0.0000 0.0000
# 3 27.1611 21.4964 182.6164 0.0000 0.0000 0.0000
# 4 0.0000 0.0000 0.0000 163.6793 0.0000 0.0000
# 5 0.0000 0.0000 0.0000 0.0000 18.8478 0.0000
# 6 0.0000 0.0000 0.0000 0.0000 0.0000 27.8934
#
#
#
# Elastic Compliance Matrix: (Units=1/GPa)
#
#
# Indices 1 2 3 4 5 6 
#
# 1 0.009945 -0.002382 -0.001199 0.000000 0.000000 0.000000
# 2 -0.002382 0.014662 -0.001372 0.000000 0.000000 0.000000
# 3 -0.001199 -0.001372 0.005816 0.000000 0.000000 0.000000
# 4 0.000000 0.000000 0.000000 0.006110 0.000000 0.000000
# 5 0.000000 0.000000 0.000000 0.000000 0.053056 0.000000
# 6 0.000000 0.000000 0.000000 0.000000 0.000000 0.035851
#
#
# Mechanical properties :
#
#
# Convention : Reuss Voigt Hill
#
# Bulk Modulus (GPa) = 48.73838 55.83132 52.28485
# Shear Modulus (GPa) = 35.16584 61.81235 48.48909
#
# Velocity S-wave (km/s) = 3.86694 5.12677 4.54076
# Velocity P-wave (km/s) = 6.37668 7.66718 7.05151
#
# Compressibility (1/GPa) = 0.02051771
#
# Stress axis : x y z
#
# Youngs Moduli (GPa) = 100.55216 68.20443 171.94804
#
# Poissons Ratio (x) = 0.16247 0.20612
# Poissons Ratio (y) = 0.23952 0.23584
# Poissons Ratio (z) = 0.12054 0.09355
#
# Static dielectric constant tensor:
#      x y z
#    x 1.902280 0.000000 0.000000 
#    y 0.000000 1.961360 0.000000 
#    z 0.000000 0.000000 1.965980 
# 
# From -- ./inp_files/20759.got.cif
#   From: 2010.05.17/outbox.cif.g08.bks.cpg/sg55_11_cif.got.tgz:20759.got - 2010.06.03 13:27:54.
