data_PCOD9429914
_publ_section_title
;
Structure prediction by ZEFSAII (Michael W. Deem and Ramdas Pophale) SiO2 
 PCOD9429914
Probable space group: P C C N
;
_chemical_formula_sum "Si O2"
_cell_formula_units_Z 64
_cell_length_a 17.350354
_cell_length_b 12.378639
_cell_length_c 14.907486
_cell_angle_alpha 90.000000
_cell_angle_beta 90.000000
_cell_angle_gamma 90.000000
_cell_volume 3201.736950
_symmetry_space_group_name_H-M "P C C N"
_symmetry_group_IT_number 56
_symmetry_cell_setting 'orthorhombic'
loop_
_space_group_symop_operation_xyz
x,y,z
1/2-x,1/2-y,z
1/2+x,-y,1/2-z
-x,1/2+y,1/2-z
-x,-y,-z
1/2+x,1/2+y,-z
1/2-x,y,1/2+z
x,1/2-y,1/2+z
loop_
_atom_site_type_symbol
_atom_site_label
_atom_site_fract_x
_atom_site_fract_y
_atom_site_fract_z
Si Si1 0.428545 0.626097 0.668619
Si Si2 0.640208 0.907584 0.908574
Si Si3 0.104355 0.384257 0.890773
Si Si4 0.196079 0.478076 0.630009
Si Si5 0.292784 0.919701 0.819952
Si Si6 0.839317 0.296132 0.451129
Si Si7 0.341163 0.272740 0.223644
Si Si8 0.863097 0.310680 0.648323
O O1 0.388345 0.523298 0.623513
O O2 0.517199 0.611670 0.643097
O O3 0.386177 0.727804 0.622134
O O4 0.416964 0.637587 0.775894
O O5 0.732494 0.921476 0.919262
O O6 0.620639 0.825199 0.828743
O O7 0.607119 0.868992 0.003024
O O8 0.154086 0.492900 0.869976
O O9 0.139807 0.291709 0.827179
O O10 0.225698 0.533074 0.722222
O O11 0.163271 0.577799 0.574860
O O12 0.142241 0.382477 0.667600
O O13 0.335753 0.805243 0.813343
O O14 0.211134 0.889357 0.862955
O O15 0.750000 0.250000 0.456934
O O16 0.883728 0.285240 0.545817
O O17 0.250000 0.250000 0.218972
#
# Coordination Sequence:
#
# PCOD9429914 Si02
#       8
#     8   8   8   8   8   8   8   8
#     4  12  25  39  62 101 127 164 204 266 322 374
#     4  11  21  41  63  88 125 163 209 255 310 379
#     4  11  25  41  64  92 131 169 205 256 323 378
#     4  10  19  37  65  91 123 157 211 268 300 360
#     4  10  18  38  62  92 125 162 207 259 306 373
#     4  12  20  35  64  96 126 161 208 263 320 371
#     4   9  23  43  64  90 122 171 215 256 301 370
#     4  11  21  36  65  95 125 164 209 258 319 374
#
# _framework density 19.989151
#
# number of rings (size 3 to 8) (size 9 to 14) (size 15 to 20)
#    0.000    1.250    5.000    1.875    0.000    3.500 
#    2.250    0.000    0.000    2.250    0.000    0.000 
#    0.000    0.000    0.000    0.000    0.000    0.000 
#
# Total GULP energy -357001.280247 kJ/mol
# GULP energy per Si atom -5578.145004 kJ/mol
# Density = 1.994365 g / cm^3
# Si number density = 19.989151 Si / 1000 Ang^3
#
#
#
# Elastic Constant Matrix: (Units=GPa)
#
#
# Indices 1 2 3 4 5 6 
#
# 1 29.1988 1.1758 6.4757 0.0000 0.0000 0.0000
# 2 1.1758 70.1511 23.2234 0.0000 0.0000 0.0000
# 3 6.4757 23.2234 88.4520 0.0000 0.0000 0.0000
# 4 0.0000 0.0000 0.0000 -3.0867 0.0000 0.0000
# 5 0.0000 0.0000 0.0000 0.0000 8.5395 0.0000
# 6 0.0000 0.0000 0.0000 0.0000 0.0000 4.1521
#
#
#
# Elastic Compliance Matrix: (Units=1/GPa)
#
#
# Indices 1 2 3 4 5 6 
#
# 1 0.034818 0.000285 -0.002624 0.000000 0.000000 0.000000
# 2 0.000285 0.015614 -0.004120 0.000000 0.000000 0.000000
# 3 -0.002624 -0.004120 0.012580 0.000000 0.000000 0.000000
# 4 0.000000 0.000000 0.000000 -0.323967 0.000000 0.000000
# 5 0.000000 0.000000 0.000000 0.000000 0.117102 0.000000
# 6 0.000000 0.000000 0.000000 0.000000 0.000000 0.240843
#
#
# Mechanical properties :
#
#
# Convention : Reuss Voigt Hill
#
# Bulk Modulus (GPa) = 19.96263 27.72795 23.84529
# Shear Modulus (GPa) = 39.49216 12.38278 25.93747
#
# Velocity S-wave (km/s) = 4.44968 2.49163 3.60610
# Velocity P-wave (km/s) = 6.03390 4.70948 5.41236
#
# Compressibility (1/GPa) = 0.05009360
#
# Stress axis : x y z
#
# Youngs Moduli (GPa) = 28.72038 64.04412 79.49435
#
# Poissons Ratio (x) = -0.01826 0.20859
# Poissons Ratio (y) = -0.00819 0.32755
# Poissons Ratio (z) = 0.07536 0.26389
#
# Static dielectric constant tensor:
#      x y z
#    x 1.811730 0.000000 0.000000 
#    y 0.000000 1.722510 0.000000 
#    z 0.000000 0.000000 1.738430 
# 
# From -- ./inp_files/12858.got.cif
#   From: 2010.05.17/outbox.cif.g08.bks.cpg/sg56_7_cif.got.tgz:12858.got - 2010.06.03 13:42:01.
