data_PCOD9429197
_publ_section_title
;
Structure prediction by ZEFSAII (Michael W. Deem and Ramdas Pophale) SiO2 
 PCOD9429197
Probable space group: P B A M
;
_chemical_formula_sum "Si O2"
_cell_formula_units_Z 40
_cell_length_a 14.488674
_cell_length_b 9.448093
_cell_length_c 13.347334
_cell_angle_alpha 90.000000
_cell_angle_beta 90.000000
_cell_angle_gamma 90.000000
_cell_volume 1827.121081
_symmetry_space_group_name_H-M "P B A M"
_symmetry_group_IT_number 55
_symmetry_cell_setting 'orthorhombic'
loop_
_space_group_symop_operation_xyz
x,y,z
-x,-y,z
1/2+x,1/2-y,-z
1/2-x,1/2+y,-z
-x,-y,-z
x,y,-z
1/2-x,1/2+y,z
1/2+x,1/2-y,z
loop_
_atom_site_type_symbol
_atom_site_label
_atom_site_fract_x
_atom_site_fract_y
_atom_site_fract_z
Si Si1 0.766819 0.085888 0.701521
Si Si2 0.000000 0.500000 0.655683
Si Si3 0.841402 0.822678 0.791359
Si Si4 0.950648 0.232496 0.778729
Si Si5 0.658167 0.098795 0.500000
Si Si6 0.214470 0.042803 0.000000
Si Si7 0.622872 0.758513 0.000000
O O1 0.696762 0.164228 0.777831
O O2 0.867662 0.144641 0.730546
O O3 0.735609 0.117289 0.589410
O O4 0.776574 0.918767 0.720578
O O5 0.952978 0.383486 0.725327
O O6 0.921655 0.570606 0.586844
O O7 0.829313 0.887001 0.901256
O O8 0.947911 0.831145 0.761898
O O9 0.933831 0.245831 0.897591
O O10 0.193066 0.876184 0.000000
O O11 0.319841 0.095721 0.000000
#
# Coordination Sequence:
#
# PCOD9429197 Si02
#       7
#     8   4   8   8   4   4   4
#     4  12  26  47  75 108 148 195 255 314 378 442
#     4  11  26  51  76 108 154 203 260 313 388 458
#     4  12  25  46  75 108 153 196 247 311 378 455
#     4  12  26  47  77 114 154 199 251 315 378 464
#     4  11  26  50  75 106 145 207 251 328 375 437
#     4  12  23  45  74 111 154 202 242 302 390 454
#     4  12  27  44  82 111 158 201 248 307 389 467
#
# _framework density 21.892365000000002
#
# number of rings (size 3 to 8) (size 9 to 14) (size 15 to 20)
#    0.000    0.200    6.000    2.400    0.000    6.800 
#    0.000    1.000    0.000    0.000    0.000    0.000 
#    0.000    0.000    0.000    0.000    0.000    0.000 
#
# Total GULP energy -222835.239707 kJ/mol
# GULP energy per Si atom -5570.880993 kJ/mol
# Density = 2.184254 g / cm^3
# Si number density = 21.892365 Si / 1000 Ang^3
#
#
#
# Elastic Constant Matrix: (Units=GPa)
#
#
# Indices 1 2 3 4 5 6 
#
# 1 140.3962 19.7555 40.0203 0.0000 0.0000 0.0000
# 2 19.7555 63.7860 29.6973 0.0000 0.0000 0.0000
# 3 40.0203 29.6973 151.2024 0.0000 0.0000 0.0000
# 4 0.0000 0.0000 0.0000 -11.2888 0.0000 0.0000
# 5 0.0000 0.0000 0.0000 0.0000 27.7722 0.0000
# 6 0.0000 0.0000 0.0000 0.0000 0.0000 24.4492
#
#
#
# Elastic Compliance Matrix: (Units=1/GPa)
#
#
# Indices 1 2 3 4 5 6 
#
# 1 0.007852 -0.001612 -0.001762 0.000000 0.000000 0.000000
# 2 -0.001612 0.017586 -0.003027 0.000000 0.000000 0.000000
# 3 -0.001762 -0.003027 0.007675 0.000000 0.000000 0.000000
# 4 0.000000 0.000000 0.000000 -0.088583 0.000000 0.000000
# 5 0.000000 0.000000 0.000000 0.000000 0.036007 0.000000
# 6 0.000000 0.000000 0.000000 0.000000 0.000000 0.040901
#
#
# Mechanical properties :
#
#
# Convention : Reuss Voigt Hill
#
# Bulk Modulus (GPa) = 49.23484 59.37009 54.30247
# Shear Modulus (GPa) = 121.92378 25.91395 73.91886
#
# Velocity S-wave (km/s) = 7.47083 3.44422 5.81704
# Velocity P-wave (km/s) = 9.84663 6.55705 8.36513
#
# Compressibility (1/GPa) = 0.02031082
#
# Stress axis : x y z
#
# Youngs Moduli (GPa) = 127.36201 56.86319 130.30088
#
# Poissons Ratio (x) = 0.09164 0.22954
# Poissons Ratio (y) = 0.20526 0.39448
# Poissons Ratio (z) = 0.22437 0.17215
#
# Static dielectric constant tensor:
#      x y z
#    x 1.804420 0.000000 0.000000 
#    y 0.000000 1.876800 0.000000 
#    z 0.000000 0.000000 1.758310 
# 
# From -- ./inp_files/18792.got.cif
#   From: 2010.05.17/outbox.cif.g08.bks.cpg/sg55_10_cif.got.tgz:18792.got - 2010.06.03 13:27:54.
