data_PCOD9429954
_publ_section_title
;
Structure prediction by ZEFSAII (Michael W. Deem and Ramdas Pophale) SiO2 
 PCOD9429954
Probable space group: P C C N
;
_chemical_formula_sum "Si O2"
_cell_formula_units_Z 60
_cell_length_a 30.738350
_cell_length_b 5.018099
_cell_length_c 18.002326
_cell_angle_alpha 90.000000
_cell_angle_beta 90.000000
_cell_angle_gamma 90.000000
_cell_volume 2776.824282
_symmetry_space_group_name_H-M "P C C N"
_symmetry_group_IT_number 56
_symmetry_cell_setting 'orthorhombic'
loop_
_space_group_symop_operation_xyz
x,y,z
1/2-x,1/2-y,z
1/2+x,-y,1/2-z
-x,1/2+y,1/2-z
-x,-y,-z
1/2+x,1/2+y,-z
1/2-x,y,1/2+z
x,1/2-y,1/2+z
loop_
_atom_site_type_symbol
_atom_site_label
_atom_site_fract_x
_atom_site_fract_y
_atom_site_fract_z
Si Si1 0.662036 0.052098 0.314383
Si Si2 0.469478 0.888831 0.065148
Si Si3 0.092669 0.118856 0.062141
Si Si4 0.982831 0.892254 0.714546
Si Si5 0.897028 0.285171 0.191009
Si Si6 0.205479 0.150666 0.803974
Si Si7 0.125214 0.193288 0.896815
Si Si8 0.250000 0.750000 0.188582
O O1 0.635091 0.256518 0.261366
O O2 0.707670 0.137556 0.353106
O O3 0.628153 0.945270 0.374566
O O4 0.679507 0.850086 0.250940
O O5 0.435349 0.122703 0.083310
O O6 0.502611 0.831411 0.131492
O O7 0.440916 0.626039 0.050770
O O8 0.500000 0.000000 0.000000
O O9 0.115814 0.172148 0.983299
O O10 0.938601 0.057568 0.721444
O O11 0.016985 0.114827 0.742907
O O12 0.879173 0.502063 0.130996
O O13 0.906051 0.009290 0.148887
O O14 0.250000 0.250000 0.841452
O O15 0.171716 0.082045 0.868410
O O16 0.225748 0.946329 0.745338
#
# Coordination Sequence:
#
# PCOD9429954 Si02
#       8
#     8   8   8   8   8   8   8   4
#     4  10  22  38  65  94 129 167 211 267 327 389
#     4  12  26  46  65  92 135 180 215 267 331 396
#     4  12  26  42  66  96 135 172 218 267 331 386
#     4  12  24  40  63  96 125 162 218 273 316 365
#     4  11  22  40  64  89 123 166 215 261 310 376
#     4   9  20  38  64  93 123 166 216 263 317 386
#     4  11  22  41  62  92 119 167 212 256 307 379
#     4  10  18  40  64  94 124 166 212 254 334 386
#
# _framework density 21.607417000000002
#
# number of rings (size 3 to 8) (size 9 to 14) (size 15 to 20)
#    0.000    1.067    1.333    6.000    1.867    1.067 
#    0.000    2.667    0.000    0.000    0.000    0.000 
#    0.000    0.000    0.000    0.000    0.000    0.000 
#
# Total GULP energy -334852.069166 kJ/mol
# GULP energy per Si atom -5580.867819 kJ/mol
# Density = 2.155824 g / cm^3
# Si number density = 21.607417 Si / 1000 Ang^3
#
#
#
# Elastic Constant Matrix: (Units=GPa)
#
#
# Indices 1 2 3 4 5 6 
#
# 1 108.1786 -2.2977 25.8474 0.0000 0.0000 0.0000
# 2 -2.2977 62.8763 -8.2598 0.0000 0.0000 0.0000
# 3 25.8474 -8.2598 71.0138 0.0000 0.0000 0.0000
# 4 0.0000 0.0000 0.0000 17.0032 0.0000 0.0000
# 5 0.0000 0.0000 0.0000 0.0000 8.6473 0.0000
# 6 0.0000 0.0000 0.0000 0.0000 0.0000 36.5053
#
#
#
# Elastic Compliance Matrix: (Units=1/GPa)
#
#
# Indices 1 2 3 4 5 6 
#
# 1 0.010125 -0.000116 -0.003699 0.000000 0.000000 0.000000
# 2 -0.000116 0.016152 0.001921 0.000000 0.000000 0.000000
# 3 -0.003699 0.001921 0.015651 0.000000 0.000000 0.000000
# 4 0.000000 0.000000 0.000000 0.058812 0.000000 0.000000
# 5 0.000000 0.000000 0.000000 0.000000 0.115642 0.000000
# 6 0.000000 0.000000 0.000000 0.000000 0.000000 0.027393
#
#
# Mechanical properties :
#
#
# Convention : Reuss Voigt Hill
#
# Bulk Modulus (GPa) = 26.21822 30.29429 28.25625
# Shear Modulus (GPa) = 19.21018 27.54977 23.37998
#
# Velocity S-wave (km/s) = 2.98494 3.57461 3.29300
# Velocity P-wave (km/s) = 4.90306 5.57565 5.25014
#
# Compressibility (1/GPa) = 0.03814142
#
# Stress axis : x y z
#
# Youngs Moduli (GPa) = 98.76256 61.91053 63.89167
#
# Poissons Ratio (x) = 0.00717 0.23633
# Poissons Ratio (y) = 0.01145 -0.12273
# Poissons Ratio (z) = 0.36531 -0.11892
#
# Static dielectric constant tensor:
#      x y z
#    x 1.971620 0.000000 0.000000 
#    y 0.000000 1.927640 0.000000 
#    z 0.000000 0.000000 1.753620 
# 
# From -- ./inp_files/17096.got.cif
#   From: 2010.05.17/outbox.cif.g08.bks.cpg/sg56_9_cif.got.tgz:17096.got - 2010.06.03 13:42:01.
