data_PCOD9429896
_publ_section_title
;
Structure prediction by ZEFSAII (Michael W. Deem and Ramdas Pophale) SiO2 
 PCOD9429896
Probable space group: P C C N
;
_chemical_formula_sum "Si O2"
_cell_formula_units_Z 40
_cell_length_a 8.673049
_cell_length_b 10.513560
_cell_length_c 19.436056
_cell_angle_alpha 90.000000
_cell_angle_beta 90.000000
_cell_angle_gamma 90.000000
_cell_volume 1772.269401
_symmetry_space_group_name_H-M "P C C N"
_symmetry_group_IT_number 56
_symmetry_cell_setting 'orthorhombic'
loop_
_space_group_symop_operation_xyz
x,y,z
1/2-x,1/2-y,z
1/2+x,-y,1/2-z
-x,1/2+y,1/2-z
-x,-y,-z
1/2+x,1/2+y,-z
1/2-x,y,1/2+z
x,1/2-y,1/2+z
loop_
_atom_site_type_symbol
_atom_site_label
_atom_site_fract_x
_atom_site_fract_y
_atom_site_fract_z
Si Si1 0.408122 0.270640 0.142427
Si Si2 0.375593 0.517643 0.793456
Si Si3 0.331436 0.609145 0.414338
Si Si4 0.175418 0.616738 0.679767
Si Si5 0.834661 0.509284 0.462720
O O1 0.250000 0.250000 0.182121
O O2 0.522208 0.356666 0.188191
O O3 0.499871 0.150241 0.111764
O O4 0.351301 0.358064 0.077923
O O5 0.249898 0.528135 0.854028
O O6 0.285528 0.523375 0.722566
O O7 0.499388 0.405169 0.797492
O O8 0.250000 0.750000 0.423120
O O9 0.297525 0.526862 0.482547
O O10 0.250000 0.750000 0.696578
O O11 0.178684 0.590841 0.599079
O O12 0.000000 0.500000 0.500000
#
# Coordination Sequence:
#
# PCOD9429896 Si02
#       5
#     8   8   8   8   8
#     4  10  22  38  63  92 128 178 224 273 346 416
#     4  10  23  40  61  92 129 174 224 274 338 416
#     4  10  18  37  65  87 127 174 217 269 336 404
#     4  11  23  39  68  98 133 178 225 280 348 405
#     4  11  20  37  65  96 128 168 222 285 331 416
#
# _framework density 22.569932999999999
#
# number of rings (size 3 to 8) (size 9 to 14) (size 15 to 20)
#    0.000    1.600    6.000    2.400    0.000    7.200 
#    0.000    0.000    0.000    1.200    0.000    0.000 
#    0.000    0.000    0.000    0.000    0.000    0.000 
#
# Total GULP energy -223298.471997 kJ/mol
# GULP energy per Si atom -5582.461800 kJ/mol
# Density = 2.251856 g / cm^3
# Si number density = 22.569933 Si / 1000 Ang^3
#
#
#
# Elastic Constant Matrix: (Units=GPa)
#
#
# Indices 1 2 3 4 5 6 
#
# 1 129.4894 36.5221 34.3213 0.0000 0.0000 0.0000
# 2 36.5221 86.3765 18.3782 0.0000 0.0000 0.0000
# 3 34.3213 18.3782 79.3812 0.0000 0.0000 0.0000
# 4 0.0000 0.0000 0.0000 18.4567 0.0000 0.0000
# 5 0.0000 0.0000 0.0000 0.0000 26.9919 0.0000
# 6 0.0000 0.0000 0.0000 0.0000 0.0000 34.6191
#
#
#
# Elastic Compliance Matrix: (Units=1/GPa)
#
#
# Indices 1 2 3 4 5 6 
#
# 1 0.009551 -0.003323 -0.003360 0.000000 0.000000 0.000000
# 2 -0.003323 0.013333 -0.001650 0.000000 0.000000 0.000000
# 3 -0.003360 -0.001650 0.014432 0.000000 0.000000 0.000000
# 4 0.000000 0.000000 0.000000 0.054181 0.000000 0.000000
# 5 0.000000 0.000000 0.000000 0.000000 0.037048 0.000000
# 6 0.000000 0.000000 0.000000 0.000000 0.000000 0.028886
#
#
# Mechanical properties :
#
#
# Convention : Reuss Voigt Hill
#
# Bulk Modulus (GPa) = 48.42701 52.63226 50.52964
# Shear Modulus (GPa) = 27.62725 29.74857 28.68791
#
# Velocity S-wave (km/s) = 3.50247 3.63445 3.56907
# Velocity P-wave (km/s) = 6.15300 6.40176 6.27861
#
# Compressibility (1/GPa) = 0.02064963
#
# Stress axis : x y z
#
# Youngs Moduli (GPa) = 104.70648 74.99910 69.28988
#
# Poissons Ratio (x) = 0.24925 0.23280
# Poissons Ratio (y) = 0.34797 0.11433
# Poissons Ratio (z) = 0.35180 0.12375
#
# Static dielectric constant tensor:
#      x y z
#    x 1.957210 0.000000 0.000000 
#    y 0.000000 1.941560 0.000000 
#    z 0.000000 0.000000 1.826970 
# 
# From -- ./inp_files/14449.got.cif
#   From: 2010.05.17/outbox.cif.g08.bks.cpg/sg56_8_cif.got.tgz:14449.got - 2010.06.03 13:42:01.
