data_PCOD9429788
_publ_section_title
;
Structure prediction by ZEFSAII (Michael W. Deem and Ramdas Pophale) SiO2 
 PCOD9429788
Probable space group: P C C N
;
_chemical_formula_sum "Si O2"
_cell_formula_units_Z 48
_cell_length_a 22.081410
_cell_length_b 6.444003
_cell_length_c 17.516695
_cell_angle_alpha 90.000000
_cell_angle_beta 90.000000
_cell_angle_gamma 90.000000
_cell_volume 2492.497341
_symmetry_space_group_name_H-M "P C C N"
_symmetry_group_IT_number 56
_symmetry_cell_setting 'orthorhombic'
loop_
_space_group_symop_operation_xyz
x,y,z
1/2-x,1/2-y,z
1/2+x,-y,1/2-z
-x,1/2+y,1/2-z
-x,-y,-z
1/2+x,1/2+y,-z
1/2-x,y,1/2+z
x,1/2-y,1/2+z
loop_
_atom_site_type_symbol
_atom_site_label
_atom_site_fract_x
_atom_site_fract_y
_atom_site_fract_z
Si Si1 0.170025 0.074853 0.313428
Si Si2 0.686561 0.637719 0.325787
Si Si3 0.439465 0.065864 0.915732
Si Si4 0.250000 0.250000 0.446064
Si Si5 0.750000 0.250000 0.281429
Si Si6 0.364383 0.353045 0.034314
Si Si7 0.041927 0.811478 0.029117
O O1 0.169796 0.277837 0.258607
O O2 0.102015 0.033133 0.341767
O O3 0.209882 0.112285 0.389059
O O4 0.205917 0.897773 0.267822
O O5 0.750000 0.750000 0.343077
O O6 0.704307 0.398078 0.327048
O O7 0.640442 0.717463 0.389012
O O8 0.504333 0.180505 0.908002
O O9 0.402528 0.220187 0.972572
O O10 0.447952 0.850539 0.960433
O O11 0.202314 0.374482 0.497762
O O12 0.396375 0.571871 0.050809
O O13 0.000000 0.000000 0.000000
#
# Coordination Sequence:
#
# PCOD9429788 Si02
#       7
#     8   8   8   4   4   8   8
#     4  10  20  34  55  82 118 151 192 231 288 365
#     4  10  20  37  52  82 122 154 184 228 291 362
#     4   9  20  35  58  89 105 147 202 241 290 346
#     4  10  18  34  52  88 116 138 188 230 284 362
#     4  10  20  32  54  78 124 158 184 222 300 366
#     4  10  20  34  58  83 116 149 186 240 290 346
#     4   9  19  37  59  79 113 144 187 250 293 331
#
# _framework density 19.257795000000002
#
# number of rings (size 3 to 8) (size 9 to 14) (size 15 to 20)
#    0.000    2.333    3.333    0.000    2.333    4.000 
#    0.000    0.000   11.000    0.000    0.000    0.000 
#    0.000    0.000    0.000    0.000    0.000    0.000 
#
# Total GULP energy -267346.028102 kJ/mol
# GULP energy per Si atom -5569.708919 kJ/mol
# Density = 1.921396 g / cm^3
# Si number density = 19.257795 Si / 1000 Ang^3
#
#
#
# Elastic Constant Matrix: (Units=GPa)
#
#
# Indices 1 2 3 4 5 6 
#
# 1 68.9324 29.5937 22.7767 0.0000 0.0000 0.0000
# 2 29.5937 97.3616 17.5146 0.0000 0.0000 0.0000
# 3 22.7767 17.5146 54.2917 0.0000 0.0000 0.0000
# 4 0.0000 0.0000 0.0000 6.5557 0.0000 0.0000
# 5 0.0000 0.0000 0.0000 0.0000 13.1174 0.0000
# 6 0.0000 0.0000 0.0000 0.0000 0.0000 32.2371
#
#
#
# Elastic Compliance Matrix: (Units=1/GPa)
#
#
# Indices 1 2 3 4 5 6 
#
# 1 0.018525 -0.004494 -0.006322 0.000000 0.000000 0.000000
# 2 -0.004494 0.011994 -0.001984 0.000000 0.000000 0.000000
# 3 -0.006322 -0.001984 0.021711 0.000000 0.000000 0.000000
# 4 0.000000 0.000000 0.000000 0.152538 0.000000 0.000000
# 5 0.000000 0.000000 0.000000 0.000000 0.076235 0.000000
# 6 0.000000 0.000000 0.000000 0.000000 0.000000 0.031020
#
#
# Mechanical properties :
#
#
# Convention : Reuss Voigt Hill
#
# Bulk Modulus (GPa) = 37.55051 40.03952 38.79501
# Shear Modulus (GPa) = 14.43005 20.42876 17.42940
#
# Velocity S-wave (km/s) = 2.74032 3.26053 3.01168
# Velocity P-wave (km/s) = 5.43633 5.91703 5.68176
#
# Compressibility (1/GPa) = 0.02663080
#
# Stress axis : x y z
#
# Youngs Moduli (GPa) = 53.98104 83.37678 46.05891
#
# Poissons Ratio (x) = 0.37465 0.29119
# Poissons Ratio (y) = 0.24256 0.09138
# Poissons Ratio (z) = 0.34127 0.16543
#
# Static dielectric constant tensor:
#      x y z
#    x 1.744290 0.000000 0.000000 
#    y 0.000000 1.686530 0.000000 
#    z 0.000000 0.000000 1.670260 
# 
# From -- ./inp_files/16954.got.cif
#   From: 2010.05.17/outbox.cif.g08.bks.cpg/sg56_9_cif.got.tgz:16954.got - 2010.06.03 13:42:01.
