data_PCOD9429881
_publ_section_title
;
Structure prediction by ZEFSAII (Michael W. Deem and Ramdas Pophale) SiO2 
 PCOD9429881
Probable space group: P C C N
;
_chemical_formula_sum "Si O2"
_cell_formula_units_Z 64
_cell_length_a 12.119186
_cell_length_b 18.747577
_cell_length_c 14.154189
_cell_angle_alpha 90.000000
_cell_angle_beta 90.000000
_cell_angle_gamma 90.000000
_cell_volume 3215.907787
_symmetry_space_group_name_H-M "P C C N"
_symmetry_group_IT_number 56
_symmetry_cell_setting 'orthorhombic'
loop_
_space_group_symop_operation_xyz
x,y,z
1/2-x,1/2-y,z
1/2+x,-y,1/2-z
-x,1/2+y,1/2-z
-x,-y,-z
1/2+x,1/2+y,-z
1/2-x,y,1/2+z
x,1/2-y,1/2+z
loop_
_atom_site_type_symbol
_atom_site_label
_atom_site_fract_x
_atom_site_fract_y
_atom_site_fract_z
Si Si1 0.484251 0.012267 0.203687
Si Si2 0.432525 0.848293 0.228861
Si Si3 0.641210 0.070873 0.336093
Si Si4 0.311685 0.324473 0.251726
Si Si5 0.218674 0.830179 0.545736
Si Si6 0.210880 0.042325 0.388297
Si Si7 0.759059 0.109435 0.145595
Si Si8 0.774292 0.928099 0.392770
O O1 0.520504 0.049723 0.301317
O O2 0.395845 0.059330 0.149408
O O3 0.438425 0.933977 0.223020
O O4 0.592464 0.992629 0.140858
O O5 0.555828 0.818105 0.236428
O O6 0.370456 0.829453 0.130828
O O7 0.359720 0.838602 0.324000
O O8 0.675285 0.123999 0.418677
O O9 0.689897 0.107668 0.242074
O O10 0.702788 0.996210 0.357151
O O11 0.250000 0.250000 0.268459
O O12 0.274141 0.389275 0.321199
O O13 0.280540 0.357239 0.149480
O O14 0.250000 0.750000 0.527984
O O15 0.190657 0.865090 0.445258
O O16 0.217208 0.067810 0.495182
O O17 0.289260 0.973556 0.374606
#
# Coordination Sequence:
#
# PCOD9429881 Si02
#       8
#     8   8   8   8   8   8   8   8
#     4  10  18  36  64  95 118 163 216 260 312 369
#     4  10  20  41  65  86 132 167 204 262 322 367
#     4  10  20  35  61  90 121 160 208 253 316 370
#     4  11  25  43  62  91 130 173 212 261 319 377
#     4  11  23  38  60  93 131 161 203 267 326 379
#     4  10  20  36  66  95 120 162 216 268 311 369
#     4  10  18  37  64  91 120 160 206 259 309 375
#     4  12  19  38  64  92 123 160 216 265 302 378
#
# _framework density 19.901067999999999
#
# number of rings (size 3 to 8) (size 9 to 14) (size 15 to 20)
#    0.000    1.500    7.500    0.375    0.000    6.500 
#    0.000    8.750    0.000    0.000    0.000    0.000 
#    0.000    0.000    0.000    0.000    0.000    0.000 
#
# Total GULP energy -356626.903075 kJ/mol
# GULP energy per Si atom -5572.295361 kJ/mol
# Density = 1.985577 g / cm^3
# Si number density = 19.901068 Si / 1000 Ang^3
#
#
#
# Elastic Constant Matrix: (Units=GPa)
#
#
# Indices 1 2 3 4 5 6 
#
# 1 58.9338 23.1316 27.3011 0.0000 0.0000 0.0000
# 2 23.1316 84.3109 3.2066 0.0000 0.0000 0.0000
# 3 27.3011 3.2066 73.9867 0.0000 0.0000 0.0000
# 4 0.0000 0.0000 0.0000 11.7327 0.0000 0.0000
# 5 0.0000 0.0000 0.0000 0.0000 14.8682 0.0000
# 6 0.0000 0.0000 0.0000 0.0000 0.0000 14.7316
#
#
#
# Elastic Compliance Matrix: (Units=1/GPa)
#
#
# Indices 1 2 3 4 5 6 
#
# 1 0.023182 -0.006045 -0.008292 0.000000 0.000000 0.000000
# 2 -0.006045 0.013457 0.001647 0.000000 0.000000 0.000000
# 3 -0.008292 0.001647 0.016504 0.000000 0.000000 0.000000
# 4 0.000000 0.000000 0.000000 0.085232 0.000000 0.000000
# 5 0.000000 0.000000 0.000000 0.000000 0.067258 0.000000
# 6 0.000000 0.000000 0.000000 0.000000 0.000000 0.067881
#
#
# Mechanical properties :
#
#
# Convention : Reuss Voigt Hill
#
# Bulk Modulus (GPa) = 36.01827 36.05667 36.03747
# Shear Modulus (GPa) = 16.22593 19.17262 17.69928
#
# Velocity S-wave (km/s) = 2.85850 3.10723 2.98545
# Velocity P-wave (km/s) = 5.38819 5.57050 5.48010
#
# Compressibility (1/GPa) = 0.02776368
#
# Stress axis : x y z
#
# Youngs Moduli (GPa) = 43.13649 74.31250 60.58996
#
# Poissons Ratio (x) = 0.44921 0.50243
# Poissons Ratio (y) = 0.26076 -0.09981
# Poissons Ratio (z) = 0.35770 -0.12242
#
# Static dielectric constant tensor:
#      x y z
#    x 1.819740 0.000000 0.000000 
#    y 0.000000 1.732740 0.000000 
#    z 0.000000 0.000000 1.737310 
# 
# From -- ./inp_files/11866.got.cif
#   From: 2010.05.17/outbox.cif.g08.bks.cpg/sg56_6_cif.got.tgz:11866.got - 2010.06.03 13:42:01.
