data_PCOD9429419
_publ_section_title
;
Structure prediction by ZEFSAII (Michael W. Deem and Ramdas Pophale) SiO2 
 PCOD9429419
Probable space group: P B A M
;
_chemical_formula_sum "Si O2"
_cell_formula_units_Z 48
_cell_length_a 24.000000
_cell_length_b 12.000000
_cell_length_c 9.000000
_cell_angle_alpha 90.000000
_cell_angle_beta 90.000000
_cell_angle_gamma 90.000000
_cell_volume 2592.000000
_symmetry_space_group_name_H-M "P B A M"
_symmetry_group_IT_number 55
_symmetry_cell_setting 'orthorhombic'
loop_
_space_group_symop_operation_xyz
x,y,z
-x,-y,z
1/2+x,1/2-y,-z
1/2-x,1/2+y,-z
-x,-y,-z
x,y,-z
1/2-x,1/2+y,z
1/2+x,1/2-y,z
loop_
_atom_site_type_symbol
_atom_site_label
_atom_site_fract_x
_atom_site_fract_y
_atom_site_fract_z
Si Si1 0.676100 0.392274 0.821359
Si Si2 0.469955 0.243940 0.322828
Si Si3 0.360586 0.378956 0.322538
Si Si4 0.582928 0.217394 0.178335
Si Si5 0.910274 0.460360 0.823482
Si Si6 0.700899 0.822570 0.823440
O O1 0.651771 0.502068 0.746905
O O2 0.637974 0.286251 0.783885
O O3 0.739628 0.369637 0.776439
O O4 0.675115 0.406637 0.000000
O O5 0.473408 0.240759 0.500000
O O6 0.421223 0.330040 0.279449
O O7 0.529088 0.271709 0.252519
O O8 0.450941 0.123395 0.261505
O O9 0.358070 0.383957 0.500000
O O10 0.316715 0.288522 0.261924
O O11 0.586243 0.088168 0.224230
O O12 0.576685 0.219256 0.000000
O O13 0.848140 0.412398 0.801208
O O14 0.922907 0.453984 0.000000
O O15 0.703309 0.797664 0.000000
#
# Coordination Sequence:
#
# PCOD9429419 Si02
#       6
#     8   8   8   8   8   8
#     4  10  22  37  58  85 112 146 187 232 276 329
#     4  10  21  37  56  79 110 149 188 226 273 329
#     4  10  22  39  57  79 112 149 186 227 275 333
#     4  10  21  35  54  84 115 142 182 232 279 325
#     4   9  18  34  57  84 111 142 179 228 281 325
#     4   9  19  36  61  84 108 143 184 229 277 329
#
# _framework density 18.518519000000001
#
# number of rings (size 3 to 8) (size 9 to 14) (size 15 to 20)
#    0.000    2.333    0.000    1.500    2.333    6.667 
#    0.000    3.333    0.000    0.000    0.000    0.000 
#    0.000    0.000    0.000    0.000    0.000    0.000 
#
# Total GULP energy -267987.453686 kJ/mol
# GULP energy per Si atom -5583.071952 kJ/mol
# Density = 1.847637 g / cm^3
# Si number density = 18.518519 Si / 1000 Ang^3
#
#
#
# Elastic Constant Matrix: (Units=GPa)
#
#
# Indices 1 2 3 4 5 6 
#
# 1 85.0384 9.6760 22.4107 0.0000 0.0000 0.0000
# 2 9.6760 -3.9917 1.6304 0.0000 0.0000 0.0000
# 3 22.4107 1.6304 4.2775 0.0000 0.0000 0.0000
# 4 0.0000 0.0000 0.0000 -3.0067 0.0000 0.0000
# 5 0.0000 0.0000 0.0000 0.0000 12.6293 0.0000
# 6 0.0000 0.0000 0.0000 0.0000 0.0000 2.6411
#
#
#
# Elastic Compliance Matrix: (Units=1/GPa)
#
#
# Indices 1 2 3 4 5 6 
#
# 1 -0.031155 -0.007658 0.166146 0.000000 0.000000 0.000000
# 2 -0.007658 -0.218655 0.123466 0.000000 0.000000 0.000000
# 3 0.166146 0.123466 -0.683758 0.000000 0.000000 0.000000
# 4 0.000000 0.000000 0.000000 -0.332588 0.000000 0.000000
# 5 0.000000 0.000000 0.000000 0.000000 0.079181 0.000000
# 6 0.000000 0.000000 0.000000 0.000000 0.000000 0.378631
#
#
# Mechanical properties :
#
#
# Convention : Reuss Voigt Hill
#
# Bulk Modulus (GPa) = -2.70519 16.97315 7.13398
# Shear Modulus (GPa) = -3.34343 5.89321 1.27489
#
# Velocity S-wave (km/s) = -1.34513 1.78584 0.83062
# Velocity P-wave (km/s) = 1.96887 3.66575 2.18646
#
# Compressibility (1/GPa) = -0.36965959
#
# Stress axis : x y z
#
# Youngs Moduli (GPa) = -32.09788 -4.57341 -1.46251
#
# Poissons Ratio (x) = -0.03502 0.24299
# Poissons Ratio (y) = -0.24582 0.18057
# Poissons Ratio (z) = 5.33294 0.56466
#
# Static dielectric constant tensor:
#      x y z
#    x 1.641620 0.000000 0.000000 
#    y 0.000000 1.606010 0.000000 
#    z 0.000000 0.000000 1.617270 
# 
# From -- ./inp_files/4050.got.cif
#   From: 2010.05.17/outbox.ucp.g08.bks.cvg/sg55_3_cif.got.tgz:4050.got - 2010.06.11 16:36:00.
