data_PCOD9429337
_publ_section_title
;
Structure prediction by ZEFSAII (Michael W. Deem and Ramdas Pophale) SiO2 
 PCOD9429337
Probable space group: P B A M
;
_chemical_formula_sum "Si O2"
_cell_formula_units_Z 64
_cell_length_a 15.000000
_cell_length_b 24.000000
_cell_length_c 9.000000
_cell_angle_alpha 90.000000
_cell_angle_beta 90.000000
_cell_angle_gamma 90.000000
_cell_volume 3240.000000
_symmetry_space_group_name_H-M "P B A M"
_symmetry_group_IT_number 55
_symmetry_cell_setting 'orthorhombic'
loop_
_space_group_symop_operation_xyz
x,y,z
-x,-y,z
1/2+x,1/2-y,-z
1/2-x,1/2+y,-z
-x,-y,-z
x,y,-z
1/2-x,1/2+y,z
1/2+x,1/2-y,z
loop_
_atom_site_type_symbol
_atom_site_label
_atom_site_fract_x
_atom_site_fract_y
_atom_site_fract_z
Si Si1 0.450014 0.324156 0.324866
Si Si2 0.604488 0.483394 0.324709
Si Si3 0.318981 0.123028 0.168175
Si Si4 0.372852 0.633002 0.825080
Si Si5 0.550515 0.949307 0.331484
Si Si6 0.793599 0.094702 0.680409
Si Si7 0.528357 0.784105 0.832813
Si Si8 0.895464 0.643487 0.670525
O O1 0.454440 0.332339 0.500000
O O2 0.545418 0.338795 0.257210
O O3 0.369954 0.362666 0.267247
O O4 0.434381 0.261078 0.279850
O O5 0.500000 0.500000 0.313231
O O6 0.619257 0.469526 0.500000
O O7 0.621382 0.431538 0.219644
O O8 0.669881 0.533767 0.281426
O O9 0.227040 0.149605 0.223758
O O10 0.359189 0.072274 0.260028
O O11 0.398469 0.167316 0.163842
O O12 0.301190 0.104224 0.000000
O O13 0.382902 0.642288 0.000000
O O14 0.572804 0.966384 0.500000
O O15 0.475747 0.901261 0.335580
O O16 0.500000 0.000000 0.253175
O O17 0.791960 0.095799 0.500000
O O18 0.695123 0.114346 0.726074
O O19 0.434718 0.808159 0.773809
O O20 0.519054 0.761791 0.000000
O O21 0.881362 0.663157 0.500000
#
# Coordination Sequence:
#
# PCOD9429337 Si02
#       8
#     8   8   8   8   8   8   8   8
#     4  11  22  39  60  83 109 145 189 233 284 337
#     4  10  19  36  59  82 114 153 188 230 279 328
#     4   9  21  39  56  77 113 153 186 224 277 335
#     4  11  23  38  56  85 118 150 190 232 275 333
#     4   9  18  31  52  83 112 142 186 234 276 321
#     4   9  19  35  57  84 113 146 186 229 275 330
#     4  10  21  40  60  80 109 146 185 233 285 332
#     4   9  18  35  56  81 113 146 183 229 276 329
#
# _framework density 19.753086
#
# number of rings (size 3 to 8) (size 9 to 14) (size 15 to 20)
#    0.000    2.250    1.250    1.125    1.750    3.000 
#    0.000    4.375    0.000    0.000    0.000    0.000 
#    0.000    0.000    0.000    0.000    0.000    0.000 
#
# Total GULP energy -356672.903993 kJ/mol
# GULP energy per Si atom -5573.014125 kJ/mol
# Density = 1.970813 g / cm^3
# Si number density = 19.753086 Si / 1000 Ang^3
#
#
#
# Elastic Constant Matrix: (Units=GPa)
#
#
# Indices 1 2 3 4 5 6 
#
# 1 66.7643 -14.5040 28.1110 0.0000 0.0000 0.0000
# 2 -14.5040 19.8902 4.2970 0.0000 0.0000 0.0000
# 3 28.1110 4.2970 25.9046 0.0000 0.0000 0.0000
# 4 0.0000 0.0000 0.0000 32.2143 0.0000 0.0000
# 5 0.0000 0.0000 0.0000 0.0000 13.3742 0.0000
# 6 0.0000 0.0000 0.0000 0.0000 0.0000 -20.3859
#
#
#
# Elastic Compliance Matrix: (Units=1/GPa)
#
#
# Indices 1 2 3 4 5 6 
#
# 1 0.058471 0.058440 -0.073145 0.000000 0.000000 0.000000
# 2 0.058440 0.110553 -0.081755 0.000000 0.000000 0.000000
# 3 -0.073145 -0.081755 0.131540 0.000000 0.000000 0.000000
# 4 0.000000 0.000000 0.000000 0.031042 0.000000 0.000000
# 5 0.000000 0.000000 0.000000 0.000000 0.074771 0.000000
# 6 0.000000 0.000000 0.000000 0.000000 0.000000 -0.049054
#
#
# Mechanical properties :
#
#
# Convention : Reuss Voigt Hill
#
# Bulk Modulus (GPa) = 9.29009 16.48524 12.88767
# Shear Modulus (GPa) = 8.53059 11.35088 9.94074
#
# Velocity S-wave (km/s) = 2.08038 2.39976 2.24576
# Velocity P-wave (km/s) = 3.23790 4.00528 3.64186
#
# Compressibility (1/GPa) = 0.10764157
#
# Stress axis : x y z
#
# Youngs Moduli (GPa) = 17.10240 9.04547 7.60225
#
# Poissons Ratio (x) = -0.52861 0.55607
# Poissons Ratio (y) = -0.99946 0.62152
# Poissons Ratio (z) = 1.25096 0.73952
#
# Static dielectric constant tensor:
#      x y z
#    x 1.630480 0.000000 0.000000 
#    y 0.000000 1.743190 0.000000 
#    z 0.000000 0.000000 1.687870 
# 
# From -- ./inp_files/6684.got.cif
#   From: 2010.05.17/outbox.ucp.g08.bks.cvg/sg55_4_cif.got.tgz:6684.got - 2010.06.11 16:36:00.
