data_PCOD9429767
_publ_section_title
;
Structure prediction by ZEFSAII (Michael W. Deem and Ramdas Pophale) SiO2 
 PCOD9429767
Probable space group: P C C N
;
_chemical_formula_sum "Si O2"
_cell_formula_units_Z 64
_cell_length_a 22.775999
_cell_length_b 18.477498
_cell_length_c 9.712955
_cell_angle_alpha 90.000000
_cell_angle_beta 90.000000
_cell_angle_gamma 90.000000
_cell_volume 4087.633744
_symmetry_space_group_name_H-M "P C C N"
_symmetry_group_IT_number 56
_symmetry_cell_setting 'orthorhombic'
loop_
_space_group_symop_operation_xyz
x,y,z
1/2-x,1/2-y,z
1/2+x,-y,1/2-z
-x,1/2+y,1/2-z
-x,-y,-z
1/2+x,1/2+y,-z
1/2-x,y,1/2+z
x,1/2-y,1/2+z
loop_
_atom_site_type_symbol
_atom_site_label
_atom_site_fract_x
_atom_site_fract_y
_atom_site_fract_z
Si Si1 0.130845 0.743609 0.838179
Si Si2 0.576086 0.478365 0.583318
Si Si3 0.994745 0.100193 0.352467
Si Si4 0.807697 0.401254 0.045312
Si Si5 0.429391 0.962811 0.388121
Si Si6 0.486719 0.588070 0.157111
Si Si7 0.309813 0.604973 0.786079
Si Si8 0.547013 0.240401 0.413610
O O1 0.163918 0.674464 0.901003
O O2 0.172328 0.813029 0.826326
O O3 0.103033 0.732223 0.688112
O O4 0.075377 0.760873 0.935840
O O5 0.551865 0.448451 0.438544
O O6 0.555602 0.560339 0.611958
O O7 0.644418 0.461847 0.584799
O O8 0.541376 0.429360 0.695134
O O9 0.975954 0.086955 0.195813
O O10 0.984745 0.183029 0.390940
O O11 0.747735 0.413686 0.126936
O O12 0.800977 0.398811 0.879272
O O13 0.439974 0.943716 0.546840
O O14 0.365211 0.943669 0.333484
O O15 0.453395 0.043275 0.360549
O O16 0.492740 0.672158 0.124015
#
# Coordination Sequence:
#
# PCOD9429767 Si02
#       8
#     8   8   8   8   8   8   8   8
#     4  12  21  34  50  72 108 135 172 208 243 296
#     4  10  19  34  51  74  96 133 176 209 256 300
#     4  10  18  33  54  70 102 132 165 216 257 298
#     4  12  25  37  50  73 100 144 179 211 249 297
#     4  10  19  36  47  74 102 134 164 218 251 291
#     4  10  20  29  56  74 100 132 169 203 262 305
#     4  12  25  37  51  69 106 140 179 213 246 295
#     4  12  18  32  53  80 101 136 167 206 253 314
#
# _framework density 15.656980000000001
#
# number of rings (size 3 to 8) (size 9 to 14) (size 15 to 20)
#    0.000    1.000    7.500    0.375    3.500    1.000 
#    0.000    0.000    0.000    0.000    0.000    0.875 
#    0.000    2.000    0.000    0.000    0.000    0.000 
#
# Total GULP energy -357084.755073 kJ/mol
# GULP energy per Si atom -5579.449298 kJ/mol
# Density = 1.562134 g / cm^3
# Si number density = 15.656980 Si / 1000 Ang^3
#
#
#
# Elastic Constant Matrix: (Units=GPa)
#
#
# Indices 1 2 3 4 5 6 
#
# 1 102.1468 53.8157 23.0984 0.0000 0.0000 0.0000
# 2 53.8157 75.5526 10.1551 0.0000 0.0000 0.0000
# 3 23.0984 10.1551 52.5883 0.0000 0.0000 0.0000
# 4 0.0000 0.0000 0.0000 17.6663 0.0000 0.0000
# 5 0.0000 0.0000 0.0000 0.0000 21.5422 0.0000
# 6 0.0000 0.0000 0.0000 0.0000 0.0000 23.3791
#
#
#
# Elastic Compliance Matrix: (Units=1/GPa)
#
#
# Indices 1 2 3 4 5 6 
#
# 1 0.016978 -0.011386 -0.005258 0.000000 0.000000 0.000000
# 2 -0.011386 0.021225 0.000903 0.000000 0.000000 0.000000
# 3 -0.005258 0.000903 0.021151 0.000000 0.000000 0.000000
# 4 0.000000 0.000000 0.000000 0.056605 0.000000 0.000000
# 5 0.000000 0.000000 0.000000 0.000000 0.046420 0.000000
# 6 0.000000 0.000000 0.000000 0.000000 0.000000 0.042773
#
#
# Mechanical properties :
#
#
# Convention : Reuss Voigt Hill
#
# Bulk Modulus (GPa) = 35.88169 44.93622 40.40896
# Shear Modulus (GPa) = 20.33128 22.06544 21.19836
#
# Velocity S-wave (km/s) = 3.60744 3.75814 3.68356
# Velocity P-wave (km/s) = 6.34970 6.89886 6.62997
#
# Compressibility (1/GPa) = 0.02786936
#
# Stress axis : x y z
#
# Youngs Moduli (GPa) = 58.90048 47.11435 47.27913
#
# Poissons Ratio (x) = 0.53646 0.24861
# Poissons Ratio (y) = 0.67066 -0.04267
# Poissons Ratio (z) = 0.30972 -0.04253
#
# Static dielectric constant tensor:
#      x y z
#    x 1.512300 0.000000 0.000000 
#    y 0.000000 1.543660 0.000000 
#    z 0.000000 0.000000 1.537160 
# 
# From -- ./inp_files/4571.got.cif
#   From: 2010.05.17/outbox.cif.g08.bks.cpg/sg56_3_cif.got.tgz:4571.got - 2010.06.03 13:42:01.
