data_PCOD9429975
_publ_section_title
;
Structure prediction by ZEFSAII (Michael W. Deem and Ramdas Pophale) SiO2 
 PCOD9429975
Probable space group: P C C N
;
_chemical_formula_sum "Si O2"
_cell_formula_units_Z 56
_cell_length_a 27.341235
_cell_length_b 15.735338
_cell_length_c 8.738453
_cell_angle_alpha 90.000000
_cell_angle_beta 90.000000
_cell_angle_gamma 90.000000
_cell_volume 3759.488481
_symmetry_space_group_name_H-M "P C C N"
_symmetry_group_IT_number 56
_symmetry_cell_setting 'orthorhombic'
loop_
_space_group_symop_operation_xyz
x,y,z
1/2-x,1/2-y,z
1/2+x,-y,1/2-z
-x,1/2+y,1/2-z
-x,-y,-z
1/2+x,1/2+y,-z
1/2-x,y,1/2+z
x,1/2-y,1/2+z
loop_
_atom_site_type_symbol
_atom_site_label
_atom_site_fract_x
_atom_site_fract_y
_atom_site_fract_z
Si Si1 0.242406 0.382620 0.820531
Si Si2 0.184721 0.290492 0.084996
Si Si3 0.982302 0.784584 0.605645
Si Si4 0.680934 0.585275 0.940696
Si Si5 0.484822 0.631108 0.905058
Si Si6 0.423305 0.341803 0.680969
Si Si7 0.075046 0.030774 0.953399
O O1 0.207591 0.325655 0.927914
O O2 0.277139 0.326560 0.709988
O O3 0.178520 0.311030 0.570588
O O4 0.280137 0.432954 0.926356
O O5 0.293305 0.439227 0.217513
O O6 0.132013 0.326976 0.128223
O O7 0.012257 0.837668 0.730278
O O8 0.013268 0.711990 0.518214
O O9 0.941238 0.734831 0.707033
O O10 0.956804 0.837985 0.470352
O O11 0.628330 0.548073 0.977429
O O12 0.441079 0.566572 0.939272
O O13 0.534681 0.579113 0.943147
O O14 0.427419 0.424782 0.786399
#
# Coordination Sequence:
#
# PCOD9429975 Si02
#       7
#     8   8   8   8   8   8   8
#     4  10  21  27  41  61  92 131 171 193 209 255
#     4  11  18  28  39  62  88 131 173 185 208 261
#     4   9  18  33  50  67  86 124 160 196 228 287
#     4  11  18  30  41  61  93 129 157 198 220 261
#     4   9  19  34  51  70  91 120 158 197 239 284
#     4  10  19  28  46  65  91 126 159 191 231 273
#     4  10  20  32  46  70  99 124 152 198 244 271
#
# _framework density 14.895644000000001
#
# number of rings (size 3 to 8) (size 9 to 14) (size 15 to 20)
#    0.000    2.000    1.429    6.000    4.000    0.571 
#    0.000    0.000    0.000    0.000    0.000    0.000 
#    0.000    3.429    0.000    0.000    0.000    0.000 
#
# Total GULP energy -312186.094828 kJ/mol
# GULP energy per Si atom -5574.751693 kJ/mol
# Density = 1.486174 g / cm^3
# Si number density = 14.895644 Si / 1000 Ang^3
#
#
#
# Elastic Constant Matrix: (Units=GPa)
#
#
# Indices 1 2 3 4 5 6 
#
# 1 86.2743 32.9767 32.4996 0.0000 0.0000 0.0000
# 2 32.9767 42.2086 22.8822 0.0000 0.0000 0.0000
# 3 32.4996 22.8822 98.7155 0.0000 0.0000 0.0000
# 4 0.0000 0.0000 0.0000 8.6897 0.0000 0.0000
# 5 0.0000 0.0000 0.0000 0.0000 18.7995 0.0000
# 6 0.0000 0.0000 0.0000 0.0000 0.0000 20.8379
#
#
#
# Elastic Compliance Matrix: (Units=1/GPa)
#
#
# Indices 1 2 3 4 5 6 
#
# 1 0.017232 -0.011880 -0.002919 0.000000 0.000000 0.000000
# 2 -0.011880 0.035288 -0.004268 0.000000 0.000000 0.000000
# 3 -0.002919 -0.004268 0.012081 0.000000 0.000000 0.000000
# 4 0.000000 0.000000 0.000000 0.115079 0.000000 0.000000
# 5 0.000000 0.000000 0.000000 0.000000 0.053193 0.000000
# 6 0.000000 0.000000 0.000000 0.000000 0.000000 0.047990
#
#
# Mechanical properties :
#
#
# Convention : Reuss Voigt Hill
#
# Bulk Modulus (GPa) = 37.78688 44.87950 41.33319
# Shear Modulus (GPa) = 15.25236 18.92140 17.08688
#
# Velocity S-wave (km/s) = 3.20339 3.56794 3.39057
# Velocity P-wave (km/s) = 6.25341 6.86792 6.56785
#
# Compressibility (1/GPa) = 0.02646422
#
# Stress axis : x y z
#
# Youngs Moduli (GPa) = 58.03308 28.33860 82.77715
#
# Poissons Ratio (x) = 0.33666 0.24165
# Poissons Ratio (y) = 0.68944 0.35333
# Poissons Ratio (z) = 0.16941 0.12096
#
# Static dielectric constant tensor:
#      x y z
#    x 1.493530 0.000000 0.000000 
#    y 0.000000 1.475590 0.000000 
#    z 0.000000 0.000000 1.540700 
# 
# From -- ./inp_files/4841.got.cif
#   From: 2010.05.17/outbox.cif.g08.bks.cpg/sg56_3_cif.got.tgz:4841.got - 2010.06.03 13:42:01.
