data_PCOD9429420
_publ_section_title
;
Structure prediction by ZEFSAII (Michael W. Deem and Ramdas Pophale) SiO2 
 PCOD9429420
Probable space group: P B A M
;
_chemical_formula_sum "Si O2"
_cell_formula_units_Z 48
_cell_length_a 24.000000
_cell_length_b 12.000000
_cell_length_c 9.000000
_cell_angle_alpha 90.000000
_cell_angle_beta 90.000000
_cell_angle_gamma 90.000000
_cell_volume 2592.000000
_symmetry_space_group_name_H-M "P B A M"
_symmetry_group_IT_number 55
_symmetry_cell_setting 'orthorhombic'
loop_
_space_group_symop_operation_xyz
x,y,z
-x,-y,z
1/2+x,1/2-y,-z
1/2-x,1/2+y,-z
-x,-y,-z
x,y,-z
1/2-x,1/2+y,z
1/2+x,1/2-y,z
loop_
_atom_site_type_symbol
_atom_site_label
_atom_site_fract_x
_atom_site_fract_y
_atom_site_fract_z
Si Si1 0.777292 0.880112 0.821002
Si Si2 0.383812 0.765066 0.178750
Si Si3 0.049918 0.074941 0.670318
Si Si4 0.660146 0.575623 0.668907
Si Si5 0.848136 0.311005 0.179274
Si Si6 0.565083 0.999808 0.818790
O O1 0.823598 0.786651 0.774110
O O2 0.713870 0.853414 0.779287
O O3 0.795825 0.997796 0.753370
O O4 0.779974 0.886672 0.000000
O O5 0.431500 0.681590 0.236764
O O6 0.401192 0.888894 0.227591
O O7 0.383359 0.764711 0.000000
O O8 0.035447 0.107055 0.500000
O O9 0.103970 0.996809 0.665464
O O10 0.000000 0.000000 0.732336
O O11 0.678150 0.597242 0.500000
O O12 0.647242 0.689275 0.752327
O O13 0.897914 0.393420 0.227351
O O14 0.849863 0.304707 0.000000
O O15 0.500000 0.000000 0.770680
O O16 0.564084 0.999732 0.000000
#
# Coordination Sequence:
#
# PCOD9429420 Si02
#       6
#     8   8   8   8   8   8
#     4   9  19  35  57  82 105 137 180 224 271 321
#     4   9  18  33  54  79 105 134 176 225 265 313
#     4   9  19  35  54  75 104 142 176 214 265 316
#     4  10  21  36  54  79 111 140 176 223 270 322
#     4  10  21  35  58  82 107 143 180 223 271 325
#     4   9  19  34  52  79 112 143 176 221 274 320
#
# _framework density 18.518519000000001
#
# number of rings (size 3 to 8) (size 9 to 14) (size 15 to 20)
#    0.000    2.667    0.000    0.500    4.667    1.667 
#    0.000    0.833    0.000    1.000    0.000    0.000 
#    0.000    0.000    0.000    0.000    0.000    0.000 
#
# Total GULP energy -267570.761821 kJ/mol
# GULP energy per Si atom -5574.390871 kJ/mol
# Density = 1.847637 g / cm^3
# Si number density = 18.518519 Si / 1000 Ang^3
#
#
#
# Elastic Constant Matrix: (Units=GPa)
#
#
# Indices 1 2 3 4 5 6 
#
# 1 68.6256 36.1037 15.9145 0.0000 0.0000 0.0000
# 2 36.1037 136.2241 23.3522 0.0000 0.0000 0.0000
# 3 15.9145 23.3522 4.2285 0.0000 0.0000 0.0000
# 4 0.0000 0.0000 0.0000 -17.8596 0.0000 0.0000
# 5 0.0000 0.0000 0.0000 0.0000 14.9675 0.0000
# 6 0.0000 0.0000 0.0000 0.0000 0.0000 8.0598
#
#
#
# Elastic Compliance Matrix: (Units=1/GPa)
#
#
# Indices 1 2 3 4 5 6 
#
# 1 -0.002773 -0.019778 0.119661 0.000000 0.000000 0.000000
# 2 -0.019778 -0.003334 0.092849 0.000000 0.000000 0.000000
# 3 0.119661 0.092849 -0.726632 0.000000 0.000000 0.000000
# 4 0.000000 0.000000 0.000000 -0.055992 0.000000 0.000000
# 5 0.000000 0.000000 0.000000 0.000000 0.066812 0.000000
# 6 0.000000 0.000000 0.000000 0.000000 0.000000 0.124072
#
#
# Mechanical properties :
#
#
# Convention : Reuss Voigt Hill
#
# Bulk Modulus (GPa) = -2.87956 39.97989 18.55017
# Shear Modulus (GPa) = -4.54930 9.94740 2.69905
#
# Velocity S-wave (km/s) = -1.56906 2.32019 1.20857
# Velocity P-wave (km/s) = 2.20022 5.36784 3.46213
#
# Compressibility (1/GPa) = -0.34727539
#
# Stress axis : x y z
#
# Youngs Moduli (GPa) = -360.65292 -299.94026 -1.37621
#
# Poissons Ratio (x) = -5.93220 0.16468
# Poissons Ratio (y) = -7.13297 0.12778
# Poissons Ratio (z) = 43.15597 27.84914
#
# Static dielectric constant tensor:
#      x y z
#    x 1.641230 0.000000 0.000000 
#    y 0.000000 1.631130 0.000000 
#    z 0.000000 0.000000 1.631080 
# 
# From -- ./inp_files/4068.got.cif
#   From: 2010.05.17/outbox.ucp.g08.bks.cvg/sg55_3_cif.got.tgz:4068.got - 2010.06.11 16:36:00.
