data_PCOD9429234
_publ_section_title
;
Structure prediction by ZEFSAII (Michael W. Deem and Ramdas Pophale) SiO2 
 PCOD9429234
Probable space group: P B A M
;
_chemical_formula_sum "Si O2"
_cell_formula_units_Z 40
_cell_length_a 6.943853
_cell_length_b 27.895414
_cell_length_c 8.584517
_cell_angle_alpha 90.000000
_cell_angle_beta 90.000000
_cell_angle_gamma 90.000000
_cell_volume 1662.835143
_symmetry_space_group_name_H-M "P B A M"
_symmetry_group_IT_number 55
_symmetry_cell_setting 'orthorhombic'
loop_
_space_group_symop_operation_xyz
x,y,z
-x,-y,z
1/2+x,1/2-y,-z
1/2-x,1/2+y,-z
-x,-y,-z
x,y,-z
1/2-x,1/2+y,z
1/2+x,1/2-y,z
loop_
_atom_site_type_symbol
_atom_site_label
_atom_site_fract_x
_atom_site_fract_y
_atom_site_fract_z
Si Si1 0.272405 0.985153 0.317535
Si Si2 0.303165 0.587878 0.686137
Si Si3 0.090886 0.183998 0.822098
Si Si4 0.462369 0.787353 0.178596
Si Si5 0.623023 0.112092 0.187057
O O1 0.227939 0.977831 0.500000
O O2 0.836367 0.966932 0.259926
O O3 0.252685 0.934051 0.234941
O O4 0.500000 0.000000 0.307772
O O5 0.305920 0.586802 0.500000
O O6 0.429710 0.632565 0.742675
O O7 0.086490 0.599799 0.742158
O O8 0.024784 0.234523 0.747782
O O9 0.321053 0.193383 0.827838
O O10 0.019529 0.179173 0.000000
O O11 0.338823 0.832567 0.239990
O O12 0.396690 0.778202 0.000000
O O13 0.610260 0.113786 0.000000
#
# Coordination Sequence:
#
# PCOD9429234 Si02
#       5
#     8   8   8   8   8
#     4   8  14  23  34  51  78 106 128 158 202 240
#     4   9  16  25  36  54  80 106 131 162 200 236
#     4   9  16  28  43  59  80 106 134 162 196 236
#     4   8  15  26  41  60  81 104 130 162 197 232
#     4   9  15  23  37  57  79 104 133 163 197 238
#
# _framework density 24.055302999999999
#
# number of rings (size 3 to 8) (size 9 to 14) (size 15 to 20)
#    0.000    3.400    0.000    3.600    0.000    4.400 
#    0.000    5.000    0.000    0.000    0.000    1.400 
#    0.000   11.200    0.000    0.000    0.000    0.000 
#
# Total GULP energy -223082.537232 kJ/mol
# GULP energy per Si atom -5577.063431 kJ/mol
# Density = 2.400055 g / cm^3
# Si number density = 24.055303 Si / 1000 Ang^3
#
#
#
# Elastic Constant Matrix: (Units=GPa)
#
#
# Indices 1 2 3 4 5 6 
#
# 1 75.4308 48.9073 6.0621 0.0000 0.0000 0.0000
# 2 48.9073 314.6231 62.3709 0.0000 0.0000 0.0000
# 3 6.0621 62.3709 30.1727 0.0000 0.0000 0.0000
# 4 0.0000 0.0000 0.0000 58.2759 0.0000 0.0000
# 5 0.0000 0.0000 0.0000 0.0000 -11.0422 0.0000
# 6 0.0000 0.0000 0.0000 0.0000 0.0000 58.0052
#
#
#
# Elastic Compliance Matrix: (Units=1/GPa)
#
#
# Indices 1 2 3 4 5 6 
#
# 1 0.014906 -0.002920 0.003041 0.000000 0.000000 0.000000
# 2 -0.002920 0.005957 -0.011728 0.000000 0.000000 0.000000
# 3 0.003041 -0.011728 0.056774 0.000000 0.000000 0.000000
# 4 0.000000 0.000000 0.000000 0.017160 0.000000 0.000000
# 5 0.000000 0.000000 0.000000 0.000000 -0.090561 0.000000
# 6 0.000000 0.000000 0.000000 0.000000 0.000000 0.017240
#
#
# Mechanical properties :
#
#
# Convention : Reuss Voigt Hill
#
# Bulk Modulus (GPa) = 18.37415 72.76747 45.57081
# Shear Modulus (GPa) = 79.58033 41.24019 60.41026
#
# Velocity S-wave (km/s) = 5.75796 4.14501 5.01673
# Velocity P-wave (km/s) = 7.20141 7.29547 7.24859
#
# Compressibility (1/GPa) = 0.05442429
#
# Stress axis : x y z
#
# Youngs Moduli (GPa) = 67.08700 167.86442 17.61371
#
# Poissons Ratio (x) = 0.49016 -0.05357
# Poissons Ratio (y) = 0.19589 0.20657
# Poissons Ratio (z) = -0.20402 1.96865
#
# Static dielectric constant tensor:
#      x y z
#    x 2.073030 0.000000 0.000000 
#    y 0.000000 2.015280 0.000000 
#    z 0.000000 0.000000 1.822810 
# 
# From -- ./inp_files/4155.got.cif
#   From: 2010.05.17/outbox.cif.g08.bks.cpg/sg55_3_cif.got.tgz:4155.got - 2010.06.03 13:27:54.
