data_PCOD9429482
_publ_section_title
;
Structure prediction by ZEFSAII (Michael W. Deem and Ramdas Pophale) SiO2 
 PCOD9429482
Probable space group: P B A M
;
_chemical_formula_sum "Si O2"
_cell_formula_units_Z 56
_cell_length_a 21.000000
_cell_length_b 9.000000
_cell_length_c 15.000000
_cell_angle_alpha 90.000000
_cell_angle_beta 90.000000
_cell_angle_gamma 90.000000
_cell_volume 2835.000000
_symmetry_space_group_name_H-M "P B A M"
_symmetry_group_IT_number 55
_symmetry_cell_setting 'orthorhombic'
loop_
_space_group_symop_operation_xyz
x,y,z
-x,-y,z
1/2+x,1/2-y,-z
1/2-x,1/2+y,-z
-x,-y,-z
x,y,-z
1/2-x,1/2+y,z
1/2+x,1/2-y,z
loop_
_atom_site_type_symbol
_atom_site_label
_atom_site_fract_x
_atom_site_fract_y
_atom_site_fract_z
Si Si1 0.251196 0.763208 0.711717
Si Si2 0.877083 0.192614 0.175335
Si Si3 0.800300 0.478002 0.600909
Si Si4 0.488988 0.820401 0.773730
Si Si5 0.365606 0.662250 0.164793
Si Si6 0.561647 0.103376 0.405319
Si Si7 0.663638 0.833821 0.000000
Si Si8 0.202576 0.319936 0.000000
O O1 0.189405 0.767176 0.775308
O O2 0.226506 0.682725 0.622660
O O3 0.315359 0.692907 0.754019
O O4 0.270506 0.925957 0.680143
O O5 0.942646 0.240242 0.223544
O O6 0.875661 0.015312 0.157444
O O7 0.876357 0.292669 0.086740
O O8 0.783824 0.521665 0.500000
O O9 0.876151 0.502432 0.609768
O O10 0.434364 0.745152 0.834123
O O11 0.454845 0.797212 0.678109
O O12 0.500000 0.000000 0.787249
O O13 0.327825 0.738504 0.084312
O O14 0.571095 0.182323 0.500000
O O15 0.500000 0.000000 0.411595
O O16 0.722962 0.719194 0.000000
O O17 0.688493 0.003571 0.000000
#
# Coordination Sequence:
#
# PCOD9429482 Si02
#       8
#     8   8   8   8   8   8   4   4
#     4  12  23  40  65  96 132 176 221 273 334 397
#     4  12  26  43  69  97 138 174 221 279 337 407
#     4  11  23  40  64  95 133 174 223 280 332 393
#     4  11  23  42  69  97 132 177 227 276 338 400
#     4  12  25  44  67  98 137 177 224 273 340 402
#     4   9  18  35  61  92 126 169 222 273 328 395
#     4  12  26  43  68 105 132 173 225 279 343 399
#     4  12  26  43  70  99 136 171 225 277 335 407
#
# _framework density 19.753086
#
# number of rings (size 3 to 8) (size 9 to 14) (size 15 to 20)
#    0.000    0.714    4.286    4.714    2.000    0.571 
#    0.000    3.571    0.000    0.857    0.000    0.000 
#    0.000    0.000    0.000    0.000    0.000    0.000 
#
# Total GULP energy -312223.350919 kJ/mol
# GULP energy per Si atom -5575.416981 kJ/mol
# Density = 1.970813 g / cm^3
# Si number density = 19.753086 Si / 1000 Ang^3
#
#
#
# Elastic Constant Matrix: (Units=GPa)
#
#
# Indices 1 2 3 4 5 6 
#
# 1 112.6615 17.2637 12.0096 0.0000 0.0000 0.0000
# 2 17.2637 93.9085 6.8777 0.0000 0.0000 0.0000
# 3 12.0096 6.8777 53.4904 0.0000 0.0000 0.0000
# 4 0.0000 0.0000 0.0000 26.1791 0.0000 0.0000
# 5 0.0000 0.0000 0.0000 0.0000 46.9761 0.0000
# 6 0.0000 0.0000 0.0000 0.0000 0.0000 33.6742
#
#
#
# Elastic Compliance Matrix: (Units=1/GPa)
#
#
# Indices 1 2 3 4 5 6 
#
# 1 0.009319 -0.001575 -0.001890 0.000000 0.000000 0.000000
# 2 -0.001575 0.011016 -0.001063 0.000000 0.000000 0.000000
# 3 -0.001890 -0.001063 0.019256 0.000000 0.000000 0.000000
# 4 0.000000 0.000000 0.000000 0.038198 0.000000 0.000000
# 5 0.000000 0.000000 0.000000 0.000000 0.021287 0.000000
# 6 0.000000 0.000000 0.000000 0.000000 0.000000 0.029696
#
#
# Mechanical properties :
#
#
# Convention : Reuss Voigt Hill
#
# Bulk Modulus (GPa) = 32.74819 36.92915 34.83867
# Shear Modulus (GPa) = 33.78233 36.29318 35.03776
#
# Velocity S-wave (km/s) = 4.13998 4.29107 4.21620
# Velocity P-wave (km/s) = 6.28230 6.57929 6.43251
#
# Compressibility (1/GPa) = 0.03053603
#
# Stress axis : x y z
#
# Youngs Moduli (GPa) = 107.30884 90.77710 51.93211
#
# Poissons Ratio (x) = 0.14295 0.09814
# Poissons Ratio (y) = 0.16898 0.05520
# Poissons Ratio (z) = 0.20279 0.09648
#
# Static dielectric constant tensor:
#      x y z
#    x 1.651830 0.000000 0.000000 
#    y 0.000000 1.730660 0.000000 
#    z 0.000000 0.000000 1.860560 
# 
# From -- ./inp_files/19776.got.cif
#   From: 2010.05.17/outbox.ucp.g08.bks.cvg/sg55_10_cif.got.tgz:19776.got - 2010.06.11 16:36:00.
