data_PCOD9429741
_publ_section_title
;
Structure prediction by ZEFSAII (Michael W. Deem and Ramdas Pophale) SiO2 
 PCOD9429741
Probable space group: P C C N
;
_chemical_formula_sum "Si O2"
_cell_formula_units_Z 48
_cell_length_a 8.659269
_cell_length_b 11.065289
_cell_length_c 23.142607
_cell_angle_alpha 90.000000
_cell_angle_beta 90.000000
_cell_angle_gamma 90.000000
_cell_volume 2217.462442
_symmetry_space_group_name_H-M "P C C N"
_symmetry_group_IT_number 56
_symmetry_cell_setting 'orthorhombic'
loop_
_space_group_symop_operation_xyz
x,y,z
1/2-x,1/2-y,z
1/2+x,-y,1/2-z
-x,1/2+y,1/2-z
-x,-y,-z
1/2+x,1/2+y,-z
1/2-x,y,1/2+z
x,1/2-y,1/2+z
loop_
_atom_site_type_symbol
_atom_site_label
_atom_site_fract_x
_atom_site_fract_y
_atom_site_fract_z
Si Si1 0.841029 0.134456 0.282071
Si Si2 0.468549 0.579802 0.596149
Si Si3 0.065144 0.463478 0.695545
Si Si4 0.287502 0.381173 0.852140
Si Si5 0.519581 0.679011 0.034684
Si Si6 0.820379 0.949090 0.931911
O O1 0.750000 0.250000 0.261591
O O2 0.880228 0.143100 0.349951
O O3 0.992769 0.122113 0.243624
O O4 0.717081 0.026429 0.279230
O O5 0.632182 0.549756 0.627100
O O6 0.480956 0.681057 0.546264
O O7 0.362998 0.469196 0.575050
O O8 0.920942 0.553202 0.683351
O O9 0.112628 0.420132 0.631688
O O10 0.250000 0.250000 0.825894
O O11 0.366450 0.351765 0.913182
O O12 0.382444 0.580970 0.045019
O O13 0.608892 0.646561 0.976226
#
# Coordination Sequence:
#
# PCOD9429741 Si02
#       6
#     8   8   8   8   8   8
#     4  11  21  36  59  83 114 152 194 237 286 349
#     4  10  18  32  55  80 106 145 191 234 282 340
#     4  10  21  36  56  85 115 149 192 237 288 344
#     4   9  17  31  53  81 110 143 189 235 282 342
#     4   9  17  31  51  76 105 141 184 231 279 338
#     4   9  18  32  50  75 108 143 186 234 282 336
#
# _framework density 21.646363999999998
#
# number of rings (size 3 to 8) (size 9 to 14) (size 15 to 20)
#    0.000    2.333    0.000    5.500    0.000    0.667 
#    0.000    5.000    0.000   12.000    0.000    0.000 
#    0.000    0.000    0.000    0.000    0.000    0.000 
#
# Total GULP energy -267709.610943 kJ/mol
# GULP energy per Si atom -5577.283561 kJ/mol
# Density = 2.159710 g / cm^3
# Si number density = 21.646364 Si / 1000 Ang^3
#
#
#
# Elastic Constant Matrix: (Units=GPa)
#
#
# Indices 1 2 3 4 5 6 
#
# 1 103.7577 11.5519 23.4193 0.0000 0.0000 0.0000
# 2 11.5519 21.6370 40.0065 0.0000 0.0000 0.0000
# 3 23.4193 40.0065 106.5487 0.0000 0.0000 0.0000
# 4 0.0000 0.0000 0.0000 348.3413 0.0000 0.0000
# 5 0.0000 0.0000 0.0000 0.0000 21.4526 0.0000
# 6 0.0000 0.0000 0.0000 0.0000 0.0000 18.2329
#
#
#
# Elastic Compliance Matrix: (Units=1/GPa)
#
#
# Indices 1 2 3 4 5 6 
#
# 1 0.010261 -0.004278 -0.000649 0.000000 0.000000 0.000000
# 2 -0.004278 0.152943 -0.056486 0.000000 0.000000 0.000000
# 3 -0.000649 -0.056486 0.030737 0.000000 0.000000 0.000000
# 4 0.000000 0.000000 0.000000 0.002871 0.000000 0.000000
# 5 0.000000 0.000000 0.000000 0.000000 0.046614 0.000000
# 6 0.000000 0.000000 0.000000 0.000000 0.000000 0.054846
#
#
# Mechanical properties :
#
#
# Convention : Reuss Voigt Hill
#
# Bulk Modulus (GPa) = 14.06186 42.43321 28.24754
# Shear Modulus (GPa) = 11.24091 88.06974 49.65532
#
# Velocity S-wave (km/s) = 2.28128 6.38545 4.79470
# Velocity P-wave (km/s) = 3.66733 8.60296 6.61287
#
# Compressibility (1/GPa) = 0.07111435
#
# Stress axis : x y z
#
# Youngs Moduli (GPa) = 97.45992 6.53836 32.53386
#
# Poissons Ratio (x) = 0.02797 0.02111
# Poissons Ratio (y) = 0.41698 1.83771
# Poissons Ratio (z) = 0.06323 0.36933
#
# Static dielectric constant tensor:
#      x y z
#    x 1.817380 0.000000 0.000000 
#    y 0.000000 1.866820 0.000000 
#    z 0.000000 0.000000 1.784280 
# 
# From -- ./inp_files/20511.got.cif
#   From: 2010.05.17/outbox.cif.g08.bks.cpg/sg56_11_cif.got.tgz:20511.got - 2010.06.03 13:42:01.
