data_PCOD9429134
_publ_section_title
;
Structure prediction by ZEFSAII (Michael W. Deem and Ramdas Pophale) SiO2 
 PCOD9429134
Probable space group: P B A M
;
_chemical_formula_sum "Si O2"
_cell_formula_units_Z 44
_cell_length_a 28.898375
_cell_length_b 7.618022
_cell_length_c 10.468369
_cell_angle_alpha 90.000000
_cell_angle_beta 90.000000
_cell_angle_gamma 90.000000
_cell_volume 2304.595278
_symmetry_space_group_name_H-M "P B A M"
_symmetry_group_IT_number 55
_symmetry_cell_setting 'orthorhombic'
loop_
_space_group_symop_operation_xyz
x,y,z
-x,-y,z
1/2+x,1/2-y,-z
1/2-x,1/2+y,-z
-x,-y,-z
x,y,-z
1/2-x,1/2+y,z
1/2+x,1/2-y,z
loop_
_atom_site_type_symbol
_atom_site_label
_atom_site_fract_x
_atom_site_fract_y
_atom_site_fract_z
Si Si1 0.386773 0.532349 0.347533
Si Si2 0.000000 0.500000 0.787874
Si Si3 0.310558 0.027016 0.353040
Si Si4 0.040780 0.139541 0.141775
Si Si5 0.092642 0.617128 0.348971
Si Si6 0.287377 0.439938 0.647075
O O1 0.390847 0.574695 0.500000
O O2 0.421406 0.632335 0.254079
O O3 0.400118 0.326170 0.332676
O O4 0.332628 0.545102 0.307046
O O5 0.982538 0.670258 0.861512
O O6 0.955837 0.439650 0.706679
O O7 0.313296 0.959746 0.500000
O O8 0.361984 0.014970 0.295587
O O9 0.301386 0.236494 0.357402
O O10 0.263466 0.953461 0.292037
O O11 0.059898 0.097512 0.000000
O O12 0.000000 0.000000 0.169687
O O13 0.092723 0.585066 0.500000
O O14 0.281423 0.500804 0.500000
#
# Coordination Sequence:
#
# PCOD9429134 Si02
#       6
#     8   4   8   8   8   8
#     4   9  18  35  56  81 110 144 180 225 278 329
#     4  12  22  36  56  80 105 146 195 230 269 324
#     4   8  14  25  41  68 107 143 172 213 265 323
#     4  11  24  41  58  79 108 145 184 226 272 326
#     4   9  18  31  49  79 116 146 180 227 279 325
#     4   8  14  25  45  71 104 139 173 213 265 321
#
# _framework density 19.092289000000001
#
# number of rings (size 3 to 8) (size 9 to 14) (size 15 to 20)
#    0.000    2.727    1.818    2.727    0.000    3.273 
#    0.000    3.636    0.000    0.000    0.000   12.727 
#    0.000    0.000    0.000    0.000    0.000    0.000 
#
# Total GULP energy -244995.130335 kJ/mol
# GULP energy per Si atom -5568.071144 kJ/mol
# Density = 1.904883 g / cm^3
# Si number density = 19.092289 Si / 1000 Ang^3
#
#
#
# Elastic Constant Matrix: (Units=GPa)
#
#
# Indices 1 2 3 4 5 6 
#
# 1 175.6400 27.6786 49.2419 0.0000 0.0000 0.0000
# 2 27.6786 45.4943 15.3452 0.0000 0.0000 0.0000
# 3 49.2419 15.3452 36.3838 0.0000 0.0000 0.0000
# 4 0.0000 0.0000 0.0000 16.1206 0.0000 0.0000
# 5 0.0000 0.0000 0.0000 0.0000 2.0046 0.0000
# 6 0.0000 0.0000 0.0000 0.0000 0.0000 36.4031
#
#
#
# Elastic Compliance Matrix: (Units=1/GPa)
#
#
# Indices 1 2 3 4 5 6 
#
# 1 0.009279 -0.001643 -0.011865 0.000000 0.000000 0.000000
# 2 -0.001643 0.025917 -0.008707 0.000000 0.000000 0.000000
# 3 -0.011865 -0.008707 0.047215 0.000000 0.000000 0.000000
# 4 0.000000 0.000000 0.000000 0.062032 0.000000 0.000000
# 5 0.000000 0.000000 0.000000 0.000000 0.498865 0.000000
# 6 0.000000 0.000000 0.000000 0.000000 0.000000 0.027470
#
#
# Mechanical properties :
#
#
# Convention : Reuss Voigt Hill
#
# Bulk Modulus (GPa) = 26.32899 49.11663 37.72281
# Shear Modulus (GPa) = 6.86936 21.92247 14.39592
#
# Velocity S-wave (km/s) = 1.89889 3.39224 2.74892
# Velocity P-wave (km/s) = 4.31602 6.41286 5.46593
#
# Compressibility (1/GPa) = 0.03798095
#
# Stress axis : x y z
#
# Youngs Moduli (GPa) = 107.77217 38.58421 21.17969
#
# Poissons Ratio (x) = 0.06340 0.25130
# Poissons Ratio (y) = 0.17709 0.18441
# Poissons Ratio (z) = 1.27871 0.33595
#
# Static dielectric constant tensor:
#      x y z
#    x 1.736180 0.000000 0.000000 
#    y 0.000000 1.723730 0.000000 
#    z 0.000000 0.000000 1.616820 
# 
# From -- ./inp_files/10443.got.cif
#   From: 2010.05.17/outbox.cif.g08.bks.cpg/sg55_6_cif.got.tgz:10443.got - 2010.06.03 13:27:54.
