data_PCOD9429683
_publ_section_title
;
Structure prediction by ZEFSAII (Michael W. Deem and Ramdas Pophale) SiO2 
 PCOD9429683
Probable space group: P C C N
;
_chemical_formula_sum "Si O2"
_cell_formula_units_Z 48
_cell_length_a 14.656986
_cell_length_b 18.461662
_cell_length_c 8.203844
_cell_angle_alpha 90.000000
_cell_angle_beta 90.000000
_cell_angle_gamma 90.000000
_cell_volume 2219.897193
_symmetry_space_group_name_H-M "P C C N"
_symmetry_group_IT_number 56
_symmetry_cell_setting 'orthorhombic'
loop_
_space_group_symop_operation_xyz
x,y,z
1/2-x,1/2-y,z
1/2+x,-y,1/2-z
-x,1/2+y,1/2-z
-x,-y,-z
1/2+x,1/2+y,-z
1/2-x,y,1/2+z
x,1/2-y,1/2+z
loop_
_atom_site_type_symbol
_atom_site_label
_atom_site_fract_x
_atom_site_fract_y
_atom_site_fract_z
Si Si1 0.559447 0.011237 0.167831
Si Si2 0.827541 0.696011 0.083518
Si Si3 0.461598 0.289567 0.145877
Si Si4 0.724347 0.957517 0.976909
Si Si5 0.610404 0.975057 0.662788
Si Si6 0.983113 0.151864 0.831998
O O1 0.573607 0.094493 0.225904
O O2 0.656371 0.979695 0.123415
O O3 0.500000 0.000000 0.000000
O O4 0.513745 0.014440 0.693777
O O5 0.750000 0.750000 0.149341
O O6 0.896720 0.669471 0.225483
O O7 0.780987 0.629632 0.988819
O O8 0.891899 0.743132 0.965753
O O9 0.516301 0.229038 0.246083
O O10 0.526505 0.334113 0.024497
O O11 0.826304 0.985656 0.007541
O O12 0.676122 0.986701 0.816220
O O13 0.580908 0.890285 0.673124
#
# Coordination Sequence:
#
# PCOD9429683 Si02
#       6
#     8   8   8   8   8   8
#     4   8  17  35  50  64 100 141 175 201 254 309
#     4  11  21  26  43  66 100 140 163 190 250 299
#     4  10  18  30  41  65  99 128 167 200 239 305
#     4  11  19  33  50  68 102 140 171 211 248 296
#     4   9  20  31  47  72  95 138 175 197 254 304
#     4   9  18  33  47  70  99 134 171 202 252 309
#
# _framework density 21.622623000000001
#
# number of rings (size 3 to 8) (size 9 to 14) (size 15 to 20)
#    1.000    1.333    1.667    2.500    4.667    0.000 
#    0.000    3.333    0.000    0.000    0.000    0.000 
#    0.000   45.333    0.000    0.000    0.000    0.000 
#
# Total GULP energy -267246.478390 kJ/mol
# GULP energy per Si atom -5567.634966 kJ/mol
# Density = 2.157341 g / cm^3
# Si number density = 21.622623 Si / 1000 Ang^3
#
#
#
# Elastic Constant Matrix: (Units=GPa)
#
#
# Indices 1 2 3 4 5 6 
#
# 1 60.7757 -3.9612 -9.1676 0.0000 0.0000 0.0000
# 2 -3.9612 49.1099 4.3506 0.0000 0.0000 0.0000
# 3 -9.1676 4.3506 60.3852 0.0000 0.0000 0.0000
# 4 0.0000 0.0000 0.0000 29.0413 0.0000 0.0000
# 5 0.0000 0.0000 0.0000 0.0000 27.6097 0.0000
# 6 0.0000 0.0000 0.0000 0.0000 0.0000 15.1246
#
#
#
# Elastic Compliance Matrix: (Units=1/GPa)
#
#
# Indices 1 2 3 4 5 6 
#
# 1 0.016903 0.001143 0.002484 0.000000 0.000000 0.000000
# 2 0.001143 0.020571 -0.001308 0.000000 0.000000 0.000000
# 3 0.002484 -0.001308 0.017032 0.000000 0.000000 0.000000
# 4 0.000000 0.000000 0.000000 0.034434 0.000000 0.000000
# 5 0.000000 0.000000 0.000000 0.000000 0.036219 0.000000
# 6 0.000000 0.000000 0.000000 0.000000 0.000000 0.066117
#
#
# Mechanical properties :
#
#
# Convention : Reuss Voigt Hill
#
# Bulk Modulus (GPa) = 16.90821 16.96829 16.93825
# Shear Modulus (GPa) = 24.23035 26.29171 25.26103
#
# Velocity S-wave (km/s) = 3.35117 3.49081 3.42170
# Velocity P-wave (km/s) = 4.77603 4.91041 4.84369
#
# Compressibility (1/GPa) = 0.05914285
#
# Stress axis : x y z
#
# Youngs Moduli (GPa) = 59.16062 48.61296 58.71399
#
# Poissons Ratio (x) = -0.05558 -0.14584
# Poissons Ratio (y) = -0.06764 0.07683
# Poissons Ratio (z) = -0.14694 0.06361
#
# Static dielectric constant tensor:
#      x y z
#    x 1.775340 0.000000 0.000000 
#    y 0.000000 1.839540 0.000000 
#    z 0.000000 0.000000 1.900710 
# 
# From -- ./inp_files/4520.got.cif
#   From: 2010.05.17/outbox.cif.g08.bks.cpg/sg56_3_cif.got.tgz:4520.got - 2010.06.03 13:42:01.
