data_PCOD9429332
_publ_section_title
;
Structure prediction by ZEFSAII (Michael W. Deem and Ramdas Pophale) SiO2 
 PCOD9429332
Probable space group: P B A M
;
_chemical_formula_sum "Si O2"
_cell_formula_units_Z 56
_cell_length_a 21.000000
_cell_length_b 15.000000
_cell_length_c 9.000000
_cell_angle_alpha 90.000000
_cell_angle_beta 90.000000
_cell_angle_gamma 90.000000
_cell_volume 2835.000000
_symmetry_space_group_name_H-M "P B A M"
_symmetry_group_IT_number 55
_symmetry_cell_setting 'orthorhombic'
loop_
_space_group_symop_operation_xyz
x,y,z
-x,-y,z
1/2+x,1/2-y,-z
1/2-x,1/2+y,-z
-x,-y,-z
x,y,-z
1/2-x,1/2+y,z
1/2+x,1/2-y,z
loop_
_atom_site_type_symbol
_atom_site_label
_atom_site_fract_x
_atom_site_fract_y
_atom_site_fract_z
Si Si1 0.575903 0.000691 0.673312
Si Si2 0.404538 0.519959 0.319504
Si Si3 0.401017 0.200404 0.681775
Si Si4 0.738119 0.464500 0.675508
Si Si5 0.491979 0.351038 0.319545
Si Si6 0.237851 0.745990 0.674255
Si Si7 0.174309 0.391183 0.175347
O O1 0.595241 0.007499 0.500000
O O2 0.597745 0.902648 0.729335
O O3 0.500000 0.000000 0.680196
O O4 0.605534 0.084813 0.757362
O O5 0.403871 0.523235 0.500000
O O6 0.332596 0.513299 0.271329
O O7 0.444185 0.432043 0.280746
O O8 0.440123 0.610325 0.269051
O O9 0.401097 0.197778 0.500000
O O10 0.461693 0.258387 0.731504
O O11 0.335908 0.251079 0.724679
O O12 0.744978 0.487486 0.500000
O O13 0.746904 0.358719 0.686447
O O14 0.786074 0.522694 0.769923
O O15 0.494169 0.345929 0.500000
O O16 0.240179 0.771071 0.500000
O O17 0.288206 0.806818 0.758694
O O18 0.171475 0.384656 0.000000
#
# Coordination Sequence:
#
# PCOD9429332 Si02
#       7
#     8   8   8   8   8   8   8
#     4  10  21  39  63  88 115 150 199 256 305 353
#     4   8  14  24  43  75 110 140 170 222 285 341
#     4   9  16  30  53  83 113 145 187 240 296 349
#     4  10  19  35  59  83 109 143 191 247 298 344
#     4   8  13  22  40  72 112 142 170 214 280 348
#     4  10  20  35  59  85 112 147 196 251 296 348
#     4  12  25  39  57  83 121 160 197 243 299 371
#
# _framework density 19.753086
#
# number of rings (size 3 to 8) (size 9 to 14) (size 15 to 20)
#    0.000    2.429    1.429    3.000    0.000    4.286 
#    0.000    4.286    0.000    0.000    0.000    8.000 
#    0.000    0.000    0.000    0.000    0.000    0.000 
#
# Total GULP energy -312233.905178 kJ/mol
# GULP energy per Si atom -5575.605450 kJ/mol
# Density = 1.970813 g / cm^3
# Si number density = 19.753086 Si / 1000 Ang^3
#
#
#
# Elastic Constant Matrix: (Units=GPa)
#
#
# Indices 1 2 3 4 5 6 
#
# 1 52.1472 -12.8116 6.7593 0.0000 0.0000 0.0000
# 2 -12.8116 30.1560 9.2996 0.0000 0.0000 0.0000
# 3 6.7593 9.2996 39.1161 0.0000 0.0000 0.0000
# 4 0.0000 0.0000 0.0000 18.1396 0.0000 0.0000
# 5 0.0000 0.0000 0.0000 0.0000 -0.1999 0.0000
# 6 0.0000 0.0000 0.0000 0.0000 0.0000 33.0586
#
#
#
# Elastic Compliance Matrix: (Units=1/GPa)
#
#
# Indices 1 2 3 4 5 6 
#
# 1 0.022968 0.011850 -0.006786 0.000000 0.000000 0.000000
# 2 0.011850 0.041899 -0.012009 0.000000 0.000000 0.000000
# 3 -0.006786 -0.012009 0.029593 0.000000 0.000000 0.000000
# 4 0.000000 0.000000 0.000000 0.055128 0.000000 0.000000
# 5 0.000000 0.000000 0.000000 0.000000 -5.002470 0.000000
# 6 0.000000 0.000000 0.000000 0.000000 0.000000 0.030249
#
#
# Mechanical properties :
#
#
# Convention : Reuss Voigt Hill
#
# Bulk Modulus (GPa) = 12.41165 14.21267 13.31216
# Shear Modulus (GPa) = -1.04561 18.07781 8.51610
#
# Velocity S-wave (km/s) = -0.72835 3.02849 2.07861
# Velocity P-wave (km/s) = 2.36426 4.40906 3.53762
#
# Compressibility (1/GPa) = 0.08056945
#
# Stress axis : x y z
#
# Youngs Moduli (GPa) = 43.53972 23.86700 33.79215
#
# Poissons Ratio (x) = -0.28283 0.22932
# Poissons Ratio (y) = -0.51596 0.40581
# Poissons Ratio (z) = 0.29547 0.28662
#
# Static dielectric constant tensor:
#      x y z
#    x 1.767140 0.000000 0.000000 
#    y 0.000000 1.700080 0.000000 
#    z 0.000000 0.000000 1.683360 
# 
# From -- ./inp_files/8707.got.cif
#   From: 2010.05.17/outbox.ucp.g08.bks.cvg/sg55_5_cif.got.tgz:8707.got - 2010.06.11 16:36:00.
