data_PCOD9429673
_publ_section_title
;
Structure prediction by ZEFSAII (Michael W. Deem and Ramdas Pophale) SiO2 
 PCOD9429673
Probable space group: P C C N
;
_chemical_formula_sum "Si O2"
_cell_formula_units_Z 64
_cell_length_a 7.969173
_cell_length_b 20.687081
_cell_length_c 14.469748
_cell_angle_alpha 90.000000
_cell_angle_beta 90.000000
_cell_angle_gamma 90.000000
_cell_volume 2385.467134
_symmetry_space_group_name_H-M "P C C N"
_symmetry_group_IT_number 56
_symmetry_cell_setting 'orthorhombic'
loop_
_space_group_symop_operation_xyz
x,y,z
1/2-x,1/2-y,z
1/2+x,-y,1/2-z
-x,1/2+y,1/2-z
-x,-y,-z
1/2+x,1/2+y,-z
1/2-x,y,1/2+z
x,1/2-y,1/2+z
loop_
_atom_site_type_symbol
_atom_site_label
_atom_site_fract_x
_atom_site_fract_y
_atom_site_fract_z
Si Si1 0.282923 0.478956 0.695768
Si Si2 0.513853 0.273473 0.463912
Si Si3 0.022624 0.223122 0.753622
Si Si4 0.719148 0.474457 0.514592
Si Si5 0.366021 0.853222 0.523119
Si Si6 0.393152 0.597855 0.235276
Si Si7 0.596027 0.898573 0.049989
Si Si8 0.118021 0.146620 0.245396
O O1 0.277223 0.504462 0.592018
O O2 0.448891 0.444144 0.731448
O O3 0.250056 0.545194 0.751491
O O4 0.149810 0.420674 0.696404
O O5 0.503778 0.248068 0.358380
O O6 0.513818 0.203576 0.510195
O O7 0.686450 0.314911 0.473063
O O8 0.374802 0.327045 0.491123
O O9 0.199221 0.183321 0.755841
O O10 0.016017 0.292860 0.705835
O O11 0.894311 0.168561 0.718097
O O12 0.852335 0.418881 0.534699
O O13 0.542647 0.434429 0.513670
O O14 0.726359 0.543029 0.565453
O O15 0.402417 0.880189 0.627282
O O16 0.549878 0.877540 0.154284
#
# Coordination Sequence:
#
# PCOD9429673 Si02
#       8
#     8   8   8   8   8   8   8   8
#     4  10  18  29  47  71  99 131 162 199 245 294
#     4   8  13  24  44  65  86 115 157 202 239 277
#     4   8  15  27  44  67  91 118 159 206 243 278
#     4   9  17  27  42  69 100 125 157 199 249 293
#     4   8  14  25  42  67  91 117 154 199 242 281
#     4   9  17  28  45  69  97 126 160 198 240 286
#     4   9  16  27  44  69  94 123 161 203 240 290
#     4   9  16  27  46  68  92 124 162 199 242 285
#
# _framework density 26.829125000000001
#
# number of rings (size 3 to 8) (size 9 to 14) (size 15 to 20)
#    0.000    3.250    0.000    0.750    0.000    1.000 
#    0.000    0.000    0.000   30.750    0.000   57.750 
#    0.000    0.000    0.000    0.000    0.000    0.000 
#
# Total GULP energy -356344.413785 kJ/mol
# GULP energy per Si atom -5567.881465 kJ/mol
# Density = 2.676806 g / cm^3
# Si number density = 26.829125 Si / 1000 Ang^3
#
#
#
# Elastic Constant Matrix: (Units=GPa)
#
#
# Indices 1 2 3 4 5 6 
#
# 1 58.3152 59.1556 15.5140 0.0000 0.0000 0.0000
# 2 59.1556 323.9861 33.3674 0.0000 0.0000 0.0000
# 3 15.5140 33.3674 65.3980 0.0000 0.0000 0.0000
# 4 0.0000 0.0000 0.0000 11.5076 0.0000 0.0000
# 5 0.0000 0.0000 0.0000 0.0000 0.0413 0.0000
# 6 0.0000 0.0000 0.0000 0.0000 0.0000 18.8937
#
#
#
# Elastic Compliance Matrix: (Units=1/GPa)
#
#
# Indices 1 2 3 4 5 6 
#
# 1 0.021701 -0.003622 -0.003300 0.000000 0.000000 0.000000
# 2 -0.003622 0.003862 -0.001111 0.000000 0.000000 0.000000
# 3 -0.003300 -0.001111 0.016641 0.000000 0.000000 0.000000
# 4 0.000000 0.000000 0.000000 0.086899 0.000000 0.000000
# 5 0.000000 0.000000 0.000000 0.000000 24.206373 0.000000
# 6 0.000000 0.000000 0.000000 0.000000 0.000000 0.052928
#
#
# Mechanical properties :
#
#
# Convention : Reuss Voigt Hill
#
# Bulk Modulus (GPa) = 38.26003 73.75257 56.00630
# Shear Modulus (GPa) = 0.20481 28.73268 14.46874
#
# Velocity S-wave (km/s) = 0.27659 3.27609 2.32479
# Velocity P-wave (km/s) = 3.79389 6.46991 5.30346
#
# Compressibility (1/GPa) = 0.02613693
#
# Stress axis : x y z
#
# Youngs Moduli (GPa) = 46.08162 258.90538 60.09330
#
# Poissons Ratio (x) = 0.93786 0.19829
# Poissons Ratio (y) = 0.16693 0.06679
# Poissons Ratio (z) = 0.15205 0.28774
#
# Static dielectric constant tensor:
#      x y z
#    x 2.375210 0.000000 0.000000 
#    y 0.000000 2.215100 0.000000 
#    z 0.000000 0.000000 2.199020 
# 
# From -- ./inp_files/18871.got.cif
#   From: 2010.05.17/outbox.cif.g08.bks.cpg/sg56_10_cif.got.tgz:18871.got - 2010.06.03 13:42:01.
