data_PCOD9429973
_publ_section_title
;
Structure prediction by ZEFSAII (Michael W. Deem and Ramdas Pophale) SiO2 
 PCOD9429973
Probable space group: P C C N
;
_chemical_formula_sum "Si O2"
_cell_formula_units_Z 56
_cell_length_a 11.114335
_cell_length_b 11.876299
_cell_length_c 18.943874
_cell_angle_alpha 90.000000
_cell_angle_beta 90.000000
_cell_angle_gamma 90.000000
_cell_volume 2500.537674
_symmetry_space_group_name_H-M "P C C N"
_symmetry_group_IT_number 56
_symmetry_cell_setting 'orthorhombic'
loop_
_space_group_symop_operation_xyz
x,y,z
1/2-x,1/2-y,z
1/2+x,-y,1/2-z
-x,1/2+y,1/2-z
-x,-y,-z
1/2+x,1/2+y,-z
1/2-x,y,1/2+z
x,1/2-y,1/2+z
loop_
_atom_site_type_symbol
_atom_site_label
_atom_site_fract_x
_atom_site_fract_y
_atom_site_fract_z
Si Si1 0.840502 0.600073 0.731856
Si Si2 0.401377 0.947175 0.548883
Si Si3 0.875283 0.695333 0.873296
Si Si4 0.016943 0.278113 0.988630
Si Si5 0.750000 0.250000 0.824628
Si Si6 0.750000 0.750000 0.104228
Si Si7 0.349703 0.946116 0.071638
Si Si8 0.108927 0.540791 0.711921
O O1 0.873577 0.698277 0.788823
O O2 0.807901 0.656208 0.656720
O O3 0.718305 0.532424 0.754394
O O4 0.967691 0.531183 0.733132
O O5 0.435839 0.816931 0.547356
O O6 0.266847 0.965492 0.522838
O O7 0.397327 0.989854 0.628876
O O8 0.500000 0.000000 0.500000
O O9 0.750000 0.750000 0.895734
O O10 0.878375 0.562288 0.890403
O O11 0.969795 0.746802 0.928091
O O12 0.142380 0.284718 0.947555
O O13 0.952484 0.394431 0.975008
O O14 0.687388 0.151088 0.871429
O O15 0.653083 0.327635 0.782922
#
# Coordination Sequence:
#
# PCOD9429973 Si02
#       8
#     8   8   8   8   4   4   8   8
#     4  12  26  45  69 106 139 187 241 296 366 432
#     4  11  22  41  72  99 138 185 234 291 366 424
#     4  12  25  43  66 102 146 181 228 307 361 414
#     4  12  24  44  68 103 139 185 246 288 359 434
#     4  10  18  44  74  94 136 192 234 280 362 432
#     4  12  26  40  72 100 140 182 244 296 354 448
#     4  11  21  43  69  99 132 188 235 287 357 434
#     4  11  25  46  73 102 143 192 236 299 358 440
#
# _framework density 22.395184
#
# number of rings (size 3 to 8) (size 9 to 14) (size 15 to 20)
#    0.000    0.571    8.571    1.286    2.000    1.143 
#    2.571    0.000    0.000    0.000    0.000    0.000 
#    0.000    0.000    0.000    0.000    0.000    0.000 
#
# Total GULP energy -312311.097691 kJ/mol
# GULP energy per Si atom -5576.983887 kJ/mol
# Density = 2.234421 g / cm^3
# Si number density = 22.395184 Si / 1000 Ang^3
#
#
#
# Elastic Constant Matrix: (Units=GPa)
#
#
# Indices 1 2 3 4 5 6 
#
# 1 98.9150 8.2137 31.8576 0.0000 0.0000 0.0000
# 2 8.2137 62.7128 9.9397 0.0000 0.0000 0.0000
# 3 31.8576 9.9397 74.8505 0.0000 0.0000 0.0000
# 4 0.0000 0.0000 0.0000 21.0920 0.0000 0.0000
# 5 0.0000 0.0000 0.0000 0.0000 22.1695 0.0000
# 6 0.0000 0.0000 0.0000 0.0000 0.0000 48.0824
#
#
#
# Elastic Compliance Matrix: (Units=1/GPa)
#
#
# Indices 1 2 3 4 5 6 
#
# 1 0.011751 -0.000762 -0.004900 0.000000 0.000000 0.000000
# 2 -0.000762 0.016338 -0.001845 0.000000 0.000000 0.000000
# 3 -0.004900 -0.001845 0.015691 0.000000 0.000000 0.000000
# 4 0.000000 0.000000 0.000000 0.047411 0.000000 0.000000
# 5 0.000000 0.000000 0.000000 0.000000 0.045107 0.000000
# 6 0.000000 0.000000 0.000000 0.000000 0.000000 0.020798
#
#
# Mechanical properties :
#
#
# Convention : Reuss Voigt Hill
#
# Bulk Modulus (GPa) = 34.76534 37.38893 36.07713
# Shear Modulus (GPa) = 27.51796 30.69994 29.10895
#
# Velocity S-wave (km/s) = 3.50915 3.70649 3.60917
# Velocity P-wave (km/s) = 5.65474 5.92019 5.78899
#
# Compressibility (1/GPa) = 0.02876428
#
# Stress axis : x y z
#
# Youngs Moduli (GPa) = 85.09744 61.20697 63.73236
#
# Poissons Ratio (x) = 0.04667 0.31231
# Poissons Ratio (y) = 0.06488 0.11759
# Poissons Ratio (z) = 0.41700 0.11293
#
# Static dielectric constant tensor:
#      x y z
#    x 1.858450 0.000000 0.000000 
#    y 0.000000 1.838100 0.000000 
#    z 0.000000 0.000000 1.863930 
# 
# From -- ./inp_files/18771.got.cif
#   From: 2010.05.17/outbox.cif.g08.bks.cpg/sg56_10_cif.got.tgz:18771.got - 2010.06.03 13:42:01.
