data_PCOD9429800
_publ_section_title
;
Structure prediction by ZEFSAII (Michael W. Deem and Ramdas Pophale) SiO2 
 PCOD9429800
Probable space group: P C C N
;
_chemical_formula_sum "Si O2"
_cell_formula_units_Z 60
_cell_length_a 19.192745
_cell_length_b 9.513928
_cell_length_c 13.790835
_cell_angle_alpha 90.000000
_cell_angle_beta 90.000000
_cell_angle_gamma 90.000000
_cell_volume 2518.184324
_symmetry_space_group_name_H-M "P C C N"
_symmetry_group_IT_number 56
_symmetry_cell_setting 'orthorhombic'
loop_
_space_group_symop_operation_xyz
x,y,z
1/2-x,1/2-y,z
1/2+x,-y,1/2-z
-x,1/2+y,1/2-z
-x,-y,-z
1/2+x,1/2+y,-z
1/2-x,y,1/2+z
x,1/2-y,1/2+z
loop_
_atom_site_type_symbol
_atom_site_label
_atom_site_fract_x
_atom_site_fract_y
_atom_site_fract_z
Si Si1 0.515762 0.198802 0.344860
Si Si2 0.139447 0.733922 0.276735
Si Si3 0.750000 0.750000 0.732676
Si Si4 0.665621 0.987220 0.288047
Si Si5 0.925568 0.270944 0.035823
Si Si6 0.592131 0.912876 0.086350
Si Si7 0.082849 0.222589 0.093474
Si Si8 0.379892 0.084345 0.276338
O O1 0.563276 0.199267 0.250232
O O2 0.572441 0.203916 0.430242
O O3 0.474976 0.345800 0.360174
O O4 0.451188 0.090454 0.340130
O O5 0.137672 0.730531 0.393448
O O6 0.140369 0.572728 0.248230
O O7 0.186041 0.850415 0.223725
O O8 0.772906 0.877236 0.802193
O O9 0.685470 0.828237 0.679206
O O10 0.642073 0.949702 0.176653
O O11 0.610190 0.927441 0.366207
O O12 0.924702 0.440331 0.034184
O O13 0.000630 0.218694 0.074256
O O14 0.612049 0.798257 0.003929
O O15 0.099419 0.326941 0.181883
#
# Coordination Sequence:
#
# PCOD9429800 Si02
#       8
#     8   8   4   8   8   8   8   8
#     4  11  20  34  59  93 122 156 191 237 303 371
#     4  11  23  37  59  92 126 157 188 252 321 351
#     4  10  22  44  62  80 110 158 224 250 284 358
#     4  10  22  40  60  84 118 155 205 253 292 359
#     4  10  20  32  58  89 131 154 189 232 302 375
#     4  10  18  35  58  89 120 162 188 237 299 357
#     4  10  18  34  58  83 120 154 195 234 284 359
#     4  11  22  37  62  84 123 162 202 251 294 355
#
# _framework density 23.826692000000001
#
# number of rings (size 3 to 8) (size 9 to 14) (size 15 to 20)
#    0.000    1.600    4.000    3.200    3.733    1.067 
#    2.400    2.667    0.000    0.000    0.000    5.600 
#    0.000    0.000    0.000    0.000    0.000    0.000 
#
# Total GULP energy -334222.545425 kJ/mol
# GULP energy per Si atom -5570.375757 kJ/mol
# Density = 2.377246 g / cm^3
# Si number density = 23.826692 Si / 1000 Ang^3
#
#
#
# Elastic Constant Matrix: (Units=GPa)
#
#
# Indices 1 2 3 4 5 6 
#
# 1 32.3313 24.4490 2.5234 0.0000 0.0000 0.0000
# 2 24.4490 194.6258 9.0678 0.0000 0.0000 0.0000
# 3 2.5234 9.0678 71.7133 0.0000 0.0000 0.0000
# 4 0.0000 0.0000 0.0000 31.5564 0.0000 0.0000
# 5 0.0000 0.0000 0.0000 0.0000 2.1246 0.0000
# 6 0.0000 0.0000 0.0000 0.0000 0.0000 28.5628
#
#
#
# Elastic Compliance Matrix: (Units=1/GPa)
#
#
# Indices 1 2 3 4 5 6 
#
# 1 0.034208 -0.004266 -0.000664 0.000000 0.000000 0.000000
# 2 -0.004266 0.005701 -0.000571 0.000000 0.000000 0.000000
# 3 -0.000664 -0.000571 0.014040 0.000000 0.000000 0.000000
# 4 0.000000 0.000000 0.000000 0.031689 0.000000 0.000000
# 5 0.000000 0.000000 0.000000 0.000000 0.470682 0.000000
# 6 0.000000 0.000000 0.000000 0.000000 0.000000 0.035011
#
#
# Mechanical properties :
#
#
# Convention : Reuss Voigt Hill
#
# Bulk Modulus (GPa) = 23.28505 41.19452 32.23979
# Shear Modulus (GPa) = 8.10836 29.95743 19.03290
#
# Velocity S-wave (km/s) = 1.84674 3.54970 2.82938
# Velocity P-wave (km/s) = 3.78697 5.84185 4.92282
#
# Compressibility (1/GPa) = 0.04294602
#
# Stress axis : x y z
#
# Youngs Moduli (GPa) = 29.23308 175.42059 71.22531
#
# Poissons Ratio (x) = 0.74839 0.04731
# Poissons Ratio (y) = 0.12472 0.04065
# Poissons Ratio (z) = 0.01942 0.10011
#
# Static dielectric constant tensor:
#      x y z
#    x 2.068360 0.000000 0.000000 
#    y 0.000000 1.966310 0.000000 
#    z 0.000000 0.000000 1.998150 
# 
# From -- ./inp_files/13235.got.cif
#   From: 2010.05.17/outbox.cif.g08.bks.cpg/sg56_7_cif.got.tgz:13235.got - 2010.06.03 13:42:01.
