data_PCOD9429744
_publ_section_title
;
Structure prediction by ZEFSAII (Michael W. Deem and Ramdas Pophale) SiO2 
 PCOD9429744
Probable space group: P C C N
;
_chemical_formula_sum "Si O2"
_cell_formula_units_Z 40
_cell_length_a 8.653430
_cell_length_b 14.472090
_cell_length_c 17.747724
_cell_angle_alpha 90.000000
_cell_angle_beta 90.000000
_cell_angle_gamma 90.000000
_cell_volume 2222.604585
_symmetry_space_group_name_H-M "P C C N"
_symmetry_group_IT_number 56
_symmetry_cell_setting 'orthorhombic'
loop_
_space_group_symop_operation_xyz
x,y,z
1/2-x,1/2-y,z
1/2+x,-y,1/2-z
-x,1/2+y,1/2-z
-x,-y,-z
1/2+x,1/2+y,-z
1/2-x,y,1/2+z
x,1/2-y,1/2+z
loop_
_atom_site_type_symbol
_atom_site_label
_atom_site_fract_x
_atom_site_fract_y
_atom_site_fract_z
Si Si1 0.250000 0.250000 0.169168
Si Si2 0.699473 0.898106 0.722808
Si Si3 0.947283 0.599094 0.410195
Si Si4 0.932800 0.095988 0.245769
Si Si5 0.250000 0.750000 0.661979
Si Si6 0.978984 0.389150 0.415062
O O1 0.113870 0.099480 0.270421
O O2 0.354228 0.189503 0.226806
O O3 0.822430 0.827268 0.883674
O O4 0.630602 0.888179 0.638835
O O5 0.632912 0.993007 0.756810
O O6 0.903413 0.490852 0.402852
O O7 0.075339 0.611804 0.344769
O O8 0.989350 0.616566 0.496283
O O9 0.837501 0.173554 0.288387
O O10 0.129361 0.692887 0.611966
#
# Coordination Sequence:
#
# PCOD9429744 Si02
#       6
#     4   8   8   8   4   8
#     4  10  18  32  56  82 104 138 184 222 266 324
#     4  10  20  36  57  81 109 142 184 227 271 324
#     4   9  20  36  55  77 111 145 176 224 276 322
#     4  10  21  37  58  81 109 145 184 226 271 324
#     4  12  22  34  58  84 108 142 188 228 268 326
#     4  10  21  38  55  79 113 144 178 225 277 323
#
# _framework density 17.996904000000001
#
# number of rings (size 3 to 8) (size 9 to 14) (size 15 to 20)
#    0.000    2.000    0.000    6.000    0.000    3.200 
#    0.000    4.000    0.000   18.000    0.000    0.000 
#    0.000    0.000    0.000    0.000    0.000    0.000 
#
# Total GULP energy -222814.241542 kJ/mol
# GULP energy per Si atom -5570.356039 kJ/mol
# Density = 1.795594 g / cm^3
# Si number density = 17.996904 Si / 1000 Ang^3
#
#
#
# Elastic Constant Matrix: (Units=GPa)
#
#
# Indices 1 2 3 4 5 6 
#
# 1 68.5515 34.5789 40.1087 0.0000 0.0000 0.0000
# 2 34.5789 128.9444 75.6133 0.0000 0.0000 0.0000
# 3 40.1087 75.6133 146.5207 0.0000 0.0000 0.0000
# 4 0.0000 0.0000 0.0000 31.6652 0.0000 0.0000
# 5 0.0000 0.0000 0.0000 0.0000 9.7536 0.0000
# 6 0.0000 0.0000 0.0000 0.0000 0.0000 26.6090
#
#
#
# Elastic Compliance Matrix: (Units=1/GPa)
#
#
# Indices 1 2 3 4 5 6 
#
# 1 0.018041 -0.002785 -0.003501 0.000000 0.000000 0.000000
# 2 -0.002785 0.011550 -0.005198 0.000000 0.000000 0.000000
# 3 -0.003501 -0.005198 0.010466 0.000000 0.000000 0.000000
# 4 0.000000 0.000000 0.000000 0.031580 0.000000 0.000000
# 5 0.000000 0.000000 0.000000 0.000000 0.102526 0.000000
# 6 0.000000 0.000000 0.000000 0.000000 0.000000 0.037581
#
#
# Mechanical properties :
#
#
# Convention : Reuss Voigt Hill
#
# Bulk Modulus (GPa) = 58.51959 71.62425 65.07192
# Shear Modulus (GPa) = 20.79776 26.51995 23.65886
#
# Velocity S-wave (km/s) = 3.40314 3.84289 3.62968
# Velocity P-wave (km/s) = 6.93029 7.71848 7.33498
#
# Compressibility (1/GPa) = 0.01708829
#
# Stress axis : x y z
#
# Youngs Moduli (GPa) = 55.42954 86.57697 95.54633
#
# Poissons Ratio (x) = 0.24110 0.33455
# Poissons Ratio (y) = 0.15436 0.49669
# Poissons Ratio (z) = 0.19408 0.45006
#
# Static dielectric constant tensor:
#      x y z
#    x 1.636090 0.000000 0.000000 
#    y 0.000000 1.641020 0.000000 
#    z 0.000000 0.000000 1.617280 
# 
# From -- ./inp_files/10420.got.cif
#   From: 2010.05.17/outbox.cif.g08.bks.cpg/sg56_6_cif.got.tgz:10420.got - 2010.06.03 13:42:01.
