data_PCOD9429168
_publ_section_title
;
Structure prediction by ZEFSAII (Michael W. Deem and Ramdas Pophale) SiO2 
 PCOD9429168
Probable space group: P B A M
;
_chemical_formula_sum "Si O2"
_cell_formula_units_Z 40
_cell_length_a 16.710266
_cell_length_b 12.285178
_cell_length_c 9.212755
_cell_angle_alpha 90.000000
_cell_angle_beta 90.000000
_cell_angle_gamma 90.000000
_cell_volume 1891.273505
_symmetry_space_group_name_H-M "P B A M"
_symmetry_group_IT_number 55
_symmetry_cell_setting 'orthorhombic'
loop_
_space_group_symop_operation_xyz
x,y,z
-x,-y,z
1/2+x,1/2-y,-z
1/2-x,1/2+y,-z
-x,-y,-z
x,y,-z
1/2-x,1/2+y,z
1/2+x,1/2-y,z
loop_
_atom_site_type_symbol
_atom_site_label
_atom_site_fract_x
_atom_site_fract_y
_atom_site_fract_z
Si Si1 0.618044 0.920236 0.661238
Si Si2 0.093614 0.973339 0.326059
Si Si3 0.319868 0.273962 0.170182
Si Si4 0.151882 0.181788 0.829886
Si Si5 0.935208 0.657524 0.660749
O O1 0.653027 0.897680 0.500000
O O2 0.654592 0.848125 0.786685
O O3 0.525878 0.882756 0.655428
O O4 0.616805 0.049021 0.685204
O O5 0.098489 0.968861 0.500000
O O6 0.129117 0.861568 0.260278
O O7 0.147236 0.071263 0.261356
O O8 0.000000 0.000000 0.288440
O O9 0.225477 0.263263 0.203803
O O10 0.330353 0.295959 0.000000
O O11 0.075781 0.252353 0.781834
O O12 0.153810 0.156395 0.000000
O O13 0.915236 0.703072 0.500000
#
# Coordination Sequence:
#
# PCOD9429168 Si02
#       5
#     8   8   8   8   8
#     4   9  19  37  61  89 120 155 200 251 300 359
#     4  11  25  45  69  95 124 165 218 267 313 374
#     4  11  25  41  60  90 129 165 203 254 311 371
#     4  11  25  41  60  90 129 165 203 254 311 371
#     4   9  19  37  61  89 120 155 200 251 300 359
#
# _framework density 21.149771999999999
#
# number of rings (size 3 to 8) (size 9 to 14) (size 15 to 20)
#    0.000    1.800    0.000    4.200    2.800   11.200 
#    0.000    2.000    0.000    0.000    0.000    0.000 
#    0.000    0.000    0.000    0.000    0.000    0.000 
#
# Total GULP energy -223256.461026 kJ/mol
# GULP energy per Si atom -5581.411526 kJ/mol
# Density = 2.110163 g / cm^3
# Si number density = 21.149772 Si / 1000 Ang^3
#
#
#
# Elastic Constant Matrix: (Units=GPa)
#
#
# Indices 1 2 3 4 5 6 
#
# 1 47.0617 15.0978 40.6341 0.0000 0.0000 0.0000
# 2 15.0978 40.6637 36.0848 0.0000 0.0000 0.0000
# 3 40.6341 36.0848 60.1176 0.0000 0.0000 0.0000
# 4 0.0000 0.0000 0.0000 92.5707 0.0000 0.0000
# 5 0.0000 0.0000 0.0000 0.0000 12.7060 0.0000
# 6 0.0000 0.0000 0.0000 0.0000 0.0000 33.5460
#
#
#
# Elastic Compliance Matrix: (Units=1/GPa)
#
#
# Indices 1 2 3 4 5 6 
#
# 1 0.066431 0.032481 -0.064398 0.000000 0.000000 0.000000
# 2 0.032481 0.068501 -0.063072 0.000000 0.000000 0.000000
# 3 -0.064398 -0.063072 0.098019 0.000000 0.000000 0.000000
# 4 0.000000 0.000000 0.000000 0.010803 0.000000 0.000000
# 5 0.000000 0.000000 0.000000 0.000000 0.078703 0.000000
# 6 0.000000 0.000000 0.000000 0.000000 0.000000 0.029810
#
#
# Mechanical properties :
#
#
# Convention : Reuss Voigt Hill
#
# Bulk Modulus (GPa) = 23.26913 36.83070 30.04992
# Shear Modulus (GPa) = 8.98365 31.49963 20.24164
#
# Velocity S-wave (km/s) = 2.06321 3.86341 3.09700
# Velocity P-wave (km/s) = 4.08678 6.11173 5.19880
#
# Compressibility (1/GPa) = 0.04297539
#
# Stress axis : x y z
#
# Youngs Moduli (GPa) = 15.05330 14.59824 10.20212
#
# Poissons Ratio (x) = -0.47417 0.65699
# Poissons Ratio (y) = -0.48895 0.64346
# Poissons Ratio (z) = 0.96940 0.92073
#
# Static dielectric constant tensor:
#      x y z
#    x 1.827260 0.000000 0.000000 
#    y 0.000000 1.753720 0.000000 
#    z 0.000000 0.000000 1.735140 
# 
# From -- ./inp_files/3609.got.cif
#   From: 2010.05.17/outbox.cif.g08.bks.cpg/sg55_2_cif.got.tgz:3609.got - 2010.06.03 13:27:54.
