data_PCOD9429250
_publ_section_title
;
Structure prediction by ZEFSAII (Michael W. Deem and Ramdas Pophale) SiO2 
 PCOD9429250
Probable space group: P B A M
;
_chemical_formula_sum "Si O2"
_cell_formula_units_Z 48
_cell_length_a 15.530255
_cell_length_b 6.995268
_cell_length_c 18.370745
_cell_angle_alpha 90.000000
_cell_angle_beta 90.000000
_cell_angle_gamma 90.000000
_cell_volume 1995.766430
_symmetry_space_group_name_H-M "P B A M"
_symmetry_group_IT_number 55
_symmetry_cell_setting 'orthorhombic'
loop_
_space_group_symop_operation_xyz
x,y,z
-x,-y,z
1/2+x,1/2-y,-z
1/2-x,1/2+y,-z
-x,-y,-z
x,y,-z
1/2-x,1/2+y,z
1/2+x,1/2-y,z
loop_
_atom_site_type_symbol
_atom_site_label
_atom_site_fract_x
_atom_site_fract_y
_atom_site_fract_z
Si Si1 0.876908 0.668814 0.155197
Si Si2 0.819945 0.106417 0.153300
Si Si3 0.173670 0.865272 0.312120
Si Si4 0.069368 0.279396 0.000000
Si Si5 0.375243 0.809489 0.684657
Si Si6 0.375545 0.361464 0.000000
Si Si7 0.025770 0.772719 0.583450
O O1 0.781855 0.581404 0.156275
O O2 0.911910 0.629438 0.236114
O O3 0.867439 0.901512 0.152863
O O4 0.917323 0.617655 0.077280
O O5 0.841365 0.207794 0.229555
O O6 0.837612 0.204929 0.076402
O O7 0.276332 0.877777 0.327102
O O8 0.113395 0.756661 0.369301
O O9 0.140190 0.081424 0.310750
O O10 0.974164 0.196756 0.000000
O O11 0.132134 0.093524 0.000000
O O12 0.445238 0.832106 0.621664
O O13 0.038888 0.716238 0.500000
O O14 0.000000 0.000000 0.582998
#
# Coordination Sequence:
#
# PCOD9429250 Si02
#       7
#     8   8   8   4   8   4   8
#     4   9  17  29  46  66  89 119 152 188 228 270
#     4   9  17  29  46  66  89 119 152 188 228 270
#     4   9  18  32  51  73  97 126 160 197 237 282
#     4   9  17  26  41  67  92 115 150 192 226 261
#     4   9  18  32  51  73  97 126 160 197 237 282
#     4   9  17  26  41  67  92 115 150 192 226 261
#     4   9  18  32  51  74  98 126 159 195 237 287
#
# _framework density 24.050909000000001
#
# number of rings (size 3 to 8) (size 9 to 14) (size 15 to 20)
#    0.000    3.000    0.000    0.500    2.333    0.667 
#    0.000    0.833    0.000    3.000    0.000    0.000 
#    0.000    0.000    0.000    0.000    0.000    0.000 
#
# Total GULP energy -268004.218515 kJ/mol
# GULP energy per Si atom -5583.421219 kJ/mol
# Density = 2.399617 g / cm^3
# Si number density = 24.050909 Si / 1000 Ang^3
#
#
#
# Elastic Constant Matrix: (Units=GPa)
#
#
# Indices 1 2 3 4 5 6 
#
# 1 102.9265 15.6314 116.4873 0.0000 0.0000 0.0000
# 2 15.6314 77.9984 20.1307 0.0000 0.0000 0.0000
# 3 116.4873 20.1307 277.2209 0.0000 0.0000 0.0000
# 4 0.0000 0.0000 0.0000 -16.2888 0.0000 0.0000
# 5 0.0000 0.0000 0.0000 0.0000 46.4420 0.0000
# 6 0.0000 0.0000 0.0000 0.0000 0.0000 46.6537
#
#
#
# Elastic Compliance Matrix: (Units=1/GPa)
#
#
# Indices 1 2 3 4 5 6 
#
# 1 0.018759 -0.001758 -0.007755 0.000000 0.000000 0.000000
# 2 -0.001758 0.013230 -0.000222 0.000000 0.000000 0.000000
# 3 -0.007755 -0.000222 0.006882 0.000000 0.000000 0.000000
# 4 0.000000 0.000000 0.000000 -0.061392 0.000000 0.000000
# 5 0.000000 0.000000 0.000000 0.000000 0.021532 0.000000
# 6 0.000000 0.000000 0.000000 0.000000 0.000000 0.021435
#
#
# Mechanical properties :
#
#
# Convention : Reuss Voigt Hill
#
# Bulk Modulus (GPa) = 51.54185 84.73829 68.14007
# Shear Modulus (GPa) = 107.79614 35.75447 71.77531
#
# Velocity S-wave (km/s) = 6.70204 3.85985 5.46881
# Velocity P-wave (km/s) = 9.02034 7.42792 8.26258
#
# Compressibility (1/GPa) = 0.01940171
#
# Stress axis : x y z
#
# Youngs Moduli (GPa) = 53.30675 75.58358 145.30737
#
# Poissons Ratio (x) = 0.13288 1.12685
# Poissons Ratio (y) = 0.09371 0.03226
# Poissons Ratio (z) = 0.41339 0.01678
#
# Static dielectric constant tensor:
#      x y z
#    x 1.857710 0.000000 0.000000 
#    y 0.000000 2.018730 0.000000 
#    z 0.000000 0.000000 1.921240 
# 
# From -- ./inp_files/19377.got.cif
#   From: 2010.05.17/outbox.cif.g08.bks.cpg/sg55_10_cif.got.tgz:19377.got - 2010.06.03 13:27:54.
