data_PCOD9429275
_publ_section_title
;
Structure prediction by ZEFSAII (Michael W. Deem and Ramdas Pophale) SiO2 
 PCOD9429275
Probable space group: P B A M
;
_chemical_formula_sum "Si O2"
_cell_formula_units_Z 48
_cell_length_a 15.000000
_cell_length_b 18.000000
_cell_length_c 9.000000
_cell_angle_alpha 90.000000
_cell_angle_beta 90.000000
_cell_angle_gamma 90.000000
_cell_volume 2430.000000
_symmetry_space_group_name_H-M "P B A M"
_symmetry_group_IT_number 55
_symmetry_cell_setting 'orthorhombic'
loop_
_space_group_symop_operation_xyz
x,y,z
-x,-y,z
1/2+x,1/2-y,-z
1/2-x,1/2+y,-z
-x,-y,-z
x,y,-z
1/2-x,1/2+y,z
1/2+x,1/2-y,z
loop_
_atom_site_type_symbol
_atom_site_label
_atom_site_fract_x
_atom_site_fract_y
_atom_site_fract_z
Si Si1 0.368625 0.906134 0.675324
Si Si2 0.728059 0.226254 0.176153
Si Si3 0.442610 0.145412 0.676373
Si Si4 0.563886 0.701978 0.176958
Si Si5 0.228069 0.558605 0.678780
Si Si6 0.608850 0.356333 0.678615
O O1 0.352859 0.886704 0.500000
O O2 0.331222 0.844472 0.784147
O O3 0.475504 0.911697 0.689879
O O4 0.313907 0.979532 0.710789
O O5 0.830554 0.204651 0.220427
O O6 0.676062 0.291104 0.265234
O O7 0.728558 0.243627 0.000000
O O8 0.435225 0.163624 0.500000
O O9 0.468630 0.217554 0.767969
O O10 0.347544 0.116111 0.733001
O O11 0.489578 0.648466 0.250767
O O12 0.559777 0.693626 0.000000
O O13 0.227275 0.566688 0.500000
O O14 0.329865 0.572908 0.723213
O O15 0.599568 0.351556 0.500000
#
# Coordination Sequence:
#
# PCOD9429275 Si02
#       6
#     8   8   8   8   8   8
#     4  10  20  35  58  86 115 150 185 230 284 335
#     4  11  23  38  56  81 115 152 188 231 279 334
#     4  10  18  32  57  86 116 146 181 226 281 340
#     4  11  23  37  55  82 117 150 188 233 278 330
#     4   9  19  35  56  86 118 145 185 233 282 336
#     4  11  21  36  60  85 111 147 190 236 279 330
#
# _framework density 19.753086
#
# number of rings (size 3 to 8) (size 9 to 14) (size 15 to 20)
#    0.000    1.667    3.333    2.000    0.000    4.000 
#    0.000    3.333    0.000    7.000    0.000    0.000 
#    0.000    0.000    0.000    0.000    0.000    0.000 
#
# Total GULP energy -267419.506415 kJ/mol
# GULP energy per Si atom -5571.239717 kJ/mol
# Density = 1.970813 g / cm^3
# Si number density = 19.753086 Si / 1000 Ang^3
#
#
#
# Elastic Constant Matrix: (Units=GPa)
#
#
# Indices 1 2 3 4 5 6 
#
# 1 90.5584 -13.0580 17.9815 0.0000 0.0000 0.0000
# 2 -13.0580 0.8320 -7.2854 0.0000 0.0000 0.0000
# 3 17.9815 -7.2854 36.7340 0.0000 0.0000 0.0000
# 4 0.0000 0.0000 0.0000 57.4127 0.0000 0.0000
# 5 0.0000 0.0000 0.0000 0.0000 35.4102 0.0000
# 6 0.0000 0.0000 0.0000 0.0000 0.0000 27.2387
#
#
#
# Elastic Compliance Matrix: (Units=1/GPa)
#
#
# Indices 1 2 3 4 5 6 
#
# 1 0.004372 -0.067701 -0.015567 0.000000 0.000000 0.000000
# 2 -0.067701 -0.583138 -0.082514 0.000000 0.000000 0.000000
# 3 -0.015567 -0.082514 0.018478 0.000000 0.000000 0.000000
# 4 0.000000 0.000000 0.000000 0.017418 0.000000 0.000000
# 5 0.000000 0.000000 0.000000 0.000000 0.028240 0.000000
# 6 0.000000 0.000000 0.000000 0.000000 0.000000 0.036712
#
#
# Mechanical properties :
#
#
# Convention : Reuss Voigt Hill
#
# Bulk Modulus (GPa) = -1.12126 13.71118 6.29496
# Shear Modulus (GPa) = -11.27043 32.71142 10.72050
#
# Velocity S-wave (km/s) = -2.39124 4.07383 2.33217
# Velocity P-wave (km/s) = 2.86233 5.39300 3.23199
#
# Compressibility (1/GPa) = -0.89185169
#
# Stress axis : x y z
#
# Youngs Moduli (GPa) = 228.75170 -1.71486 54.11831
#
# Poissons Ratio (x) = -0.11610 0.84246
# Poissons Ratio (y) = 15.48671 4.46549
# Poissons Ratio (z) = 3.56098 -0.14150
#
# Static dielectric constant tensor:
#      x y z
#    x 1.726760 0.000000 0.000000 
#    y 0.000000 1.774770 0.000000 
#    z 0.000000 0.000000 1.672290 
# 
# From -- ./inp_files/5559.got.cif
#   From: 2010.05.17/outbox.ucp.g08.bks.cvg/sg55_3_cif.got.tgz:5559.got - 2010.06.11 16:36:00.
