data_PCOD9429225
_publ_section_title
;
Structure prediction by ZEFSAII (Michael W. Deem and Ramdas Pophale) SiO2 
 PCOD9429225
Probable space group: P B A M
;
_chemical_formula_sum "Si O2"
_cell_formula_units_Z 48
_cell_length_a 6.979050
_cell_length_b 14.427325
_cell_length_c 18.898098
_cell_angle_alpha 90.000000
_cell_angle_beta 90.000000
_cell_angle_gamma 90.000000
_cell_volume 1902.831016
_symmetry_space_group_name_H-M "P B A M"
_symmetry_group_IT_number 55
_symmetry_cell_setting 'orthorhombic'
loop_
_space_group_symop_operation_xyz
x,y,z
-x,-y,z
1/2+x,1/2-y,-z
1/2-x,1/2+y,-z
-x,-y,-z
x,y,-z
1/2-x,1/2+y,z
1/2+x,1/2-y,z
loop_
_atom_site_type_symbol
_atom_site_label
_atom_site_fract_x
_atom_site_fract_y
_atom_site_fract_z
Si Si1 0.226608 0.528643 0.080610
Si Si2 0.761886 0.112245 0.348760
Si Si3 0.247634 0.887922 0.500000
Si Si4 0.282245 0.385940 0.195859
Si Si5 0.309567 0.169276 0.500000
Si Si6 0.159257 0.672201 0.193247
Si Si7 0.179964 0.670051 0.652756
O O1 0.321037 0.449675 0.129078
O O2 0.247752 0.623078 0.125305
O O3 0.000000 0.500000 0.077671
O O4 0.291977 0.535887 0.000000
O O5 0.806329 0.068425 0.424840
O O6 0.822586 0.071624 0.273515
O O7 0.530647 0.124879 0.348689
O O8 0.839659 0.218136 0.348007
O O9 0.478609 0.874810 0.500000
O O10 0.172446 0.781402 0.500000
O O11 0.361404 0.282379 0.187160
O O12 0.052898 0.369676 0.198006
O O13 0.223434 0.146716 0.422691
O O14 0.259854 0.650836 0.268884
#
# Coordination Sequence:
#
# PCOD9429225 Si02
#       7
#     8   8   4   8   4   8   8
#     4   9  18  32  49  68  90 118 149 179 219 273
#     4   8  13  21  35  56  81 109 140 173 209 249
#     4   8  12  18  30  51  79 107 136 170 206 245
#     4   9  17  30  48  68  90 117 149 183 219 261
#     4   8  12  18  30  51  79 107 136 170 206 245
#     4   9  17  30  48  68  90 117 149 183 219 261
#     4   8  13  21  35  56  81 109 140 173 209 249
#
# _framework density 25.225572
#
# number of rings (size 3 to 8) (size 9 to 14) (size 15 to 20)
#    0.000    3.500    0.000    0.000    0.000    0.667 
#    0.000    0.833    0.000    2.000    0.000    7.000 
#    0.000    0.000    0.000  100.833    0.000   33.667 
#
# Total GULP energy -267990.928845 kJ/mol
# GULP energy per Si atom -5583.144351 kJ/mol
# Density = 2.516816 g / cm^3
# Si number density = 25.225572 Si / 1000 Ang^3
#
#
#
# Elastic Constant Matrix: (Units=GPa)
#
#
# Indices 1 2 3 4 5 6 
#
# 1 69.1099 -7.1922 11.5433 0.0000 0.0000 0.0000
# 2 -7.1922 98.1651 83.1628 0.0000 0.0000 0.0000
# 3 11.5433 83.1628 354.3700 0.0000 0.0000 0.0000
# 4 0.0000 0.0000 0.0000 60.6919 0.0000 0.0000
# 5 0.0000 0.0000 0.0000 0.0000 1.2304 0.0000
# 6 0.0000 0.0000 0.0000 0.0000 0.0000 12.0527
#
#
#
# Elastic Compliance Matrix: (Units=1/GPa)
#
#
# Indices 1 2 3 4 5 6 
#
# 1 0.014818 0.001865 -0.000920 0.000000 0.000000 0.000000
# 2 0.001865 0.012950 -0.003100 0.000000 0.000000 0.000000
# 3 -0.000920 -0.003100 0.003579 0.000000 0.000000 0.000000
# 4 0.000000 0.000000 0.000000 0.016477 0.000000 0.000000
# 5 0.000000 0.000000 0.000000 0.000000 0.812772 0.000000
# 6 0.000000 0.000000 0.000000 0.000000 0.000000 0.082969
#
#
# Mechanical properties :
#
#
# Convention : Reuss Voigt Hill
#
# Bulk Modulus (GPa) = 36.98642 77.40809 57.19726
# Shear Modulus (GPa) = 5.22528 43.73705 24.48117
#
# Velocity S-wave (km/s) = 1.44081 4.16846 3.11865
# Velocity P-wave (km/s) = 4.17876 7.34309 5.97424
#
# Compressibility (1/GPa) = 0.02703695
#
# Stress axis : x y z
#
# Youngs Moduli (GPa) = 67.48740 77.22237 279.38151
#
# Poissons Ratio (x) = -0.14405 0.25715
# Poissons Ratio (y) = -0.12589 0.86601
# Poissons Ratio (z) = 0.06212 0.23937
#
# Static dielectric constant tensor:
#      x y z
#    x 2.029770 0.000000 0.000000 
#    y 0.000000 1.870990 0.000000 
#    z 0.000000 0.000000 1.985480 
# 
# From -- ./inp_files/20820.got.cif
#   From: 2010.05.17/outbox.cif.g08.bks.cpg/sg55_11_cif.got.tgz:20820.got - 2010.06.03 13:27:54.
