data_PCOD9429682
_publ_section_title
;
Structure prediction by ZEFSAII (Michael W. Deem and Ramdas Pophale) SiO2 
 PCOD9429682
Probable space group: P C C N
;
_chemical_formula_sum "Si O2"
_cell_formula_units_Z 64
_cell_length_a 5.480255
_cell_length_b 29.938873
_cell_length_c 18.190814
_cell_angle_alpha 90.000000
_cell_angle_beta 90.000000
_cell_angle_gamma 90.000000
_cell_volume 2984.615212
_symmetry_space_group_name_H-M "P C C N"
_symmetry_group_IT_number 56
_symmetry_cell_setting 'orthorhombic'
loop_
_space_group_symop_operation_xyz
x,y,z
1/2-x,1/2-y,z
1/2+x,-y,1/2-z
-x,1/2+y,1/2-z
-x,-y,-z
1/2+x,1/2+y,-z
1/2-x,y,1/2+z
x,1/2-y,1/2+z
loop_
_atom_site_type_symbol
_atom_site_label
_atom_site_fract_x
_atom_site_fract_y
_atom_site_fract_z
Si Si1 0.543337 0.576488 0.748409
Si Si2 0.247451 0.936948 0.119361
Si Si3 0.004205 0.262078 0.366827
Si Si4 0.766307 0.358279 0.164733
Si Si5 0.155840 0.464453 0.602814
Si Si6 0.939254 0.641210 0.697018
Si Si7 0.650238 0.078706 0.042881
Si Si8 0.001196 0.273199 0.698866
O O1 0.449274 0.548816 0.679600
O O2 0.321004 0.596378 0.795336
O O3 0.686551 0.550758 0.811717
O O4 0.680710 0.618514 0.712206
O O5 0.089967 0.898368 0.157903
O O6 0.111148 0.982658 0.100387
O O7 0.355299 0.917653 0.044587
O O8 0.250000 0.250000 0.408473
O O9 0.750000 0.250000 0.403390
O O10 0.029181 0.314212 0.349339
O O11 0.004004 0.233386 0.288817
O O12 0.969136 0.342748 0.222423
O O13 0.858860 0.374004 0.086057
O O14 0.545154 0.323296 0.170114
O O15 0.412330 0.450171 0.565747
O O16 0.916603 0.441786 0.565560
O O17 0.750000 0.250000 0.674180
O O18 0.250000 0.250000 0.673195
#
# Coordination Sequence:
#
# PCOD9429682 Si02
#       8
#     8   8   8   8   8   8   8   8
#     4  10  23  37  64  91 130 163 212 276 320 374
#     4  11  27  39  65  94 133 174 218 270 338 391
#     4  10  19  32  56  85 120 153 200 257 318 371
#     4  10  20  38  59  93 125 166 212 266 322 385
#     4  11  25  44  67  91 127 175 230 269 320 388
#     4  11  21  38  59  95 127 163 212 273 327 384
#     4  11  25  45  65  91 130 177 221 269 325 400
#     4  10  18  29  56  88 118 152 203 259 312 361
#
# _framework density 21.443300000000001
#
# number of rings (size 3 to 8) (size 9 to 14) (size 15 to 20)
#    0.000    1.500    3.750    2.250    7.000    0.000 
#    0.000    0.000    0.000    1.500    0.000    0.000 
#    0.000    0.000    0.000    0.000    0.000    0.000 
#
# Total GULP energy -356716.518098 kJ/mol
# GULP energy per Si atom -5573.695595 kJ/mol
# Density = 2.139449 g / cm^3
# Si number density = 21.443300 Si / 1000 Ang^3
#
#
#
# Elastic Constant Matrix: (Units=GPa)
#
#
# Indices 1 2 3 4 5 6 
#
# 1 97.3636 -1.9594 -4.8865 0.0000 0.0000 0.0000
# 2 -1.9594 58.1853 -10.3727 0.0000 0.0000 0.0000
# 3 -4.8865 -10.3727 66.6312 0.0000 0.0000 0.0000
# 4 0.0000 0.0000 0.0000 -47.2187 0.0000 0.0000
# 5 0.0000 0.0000 0.0000 0.0000 6.9307 0.0000
# 6 0.0000 0.0000 0.0000 0.0000 0.0000 30.1820
#
#
#
# Elastic Compliance Matrix: (Units=1/GPa)
#
#
# Indices 1 2 3 4 5 6 
#
# 1 0.010323 0.000496 0.000834 0.000000 0.000000 0.000000
# 2 0.000496 0.017701 0.002792 0.000000 0.000000 0.000000
# 3 0.000834 0.002792 0.015504 0.000000 0.000000 0.000000
# 4 0.000000 0.000000 0.000000 -0.021178 0.000000 0.000000
# 5 0.000000 0.000000 0.000000 0.000000 0.144286 0.000000
# 6 0.000000 0.000000 0.000000 0.000000 0.000000 0.033132
#
#
# Mechanical properties :
#
#
# Convention : Reuss Voigt Hill
#
# Bulk Modulus (GPa) = 19.31526 20.86033 20.08780
# Shear Modulus (GPa) = 23.94863 13.93872 18.94367
#
# Velocity S-wave (km/s) = 3.34553 2.55233 2.97548
# Velocity P-wave (km/s) = 4.89394 4.29361 4.60357
#
# Compressibility (1/GPa) = 0.05177253
#
# Stress axis : x y z
#
# Youngs Moduli (GPa) = 96.87449 56.49430 64.50029
#
# Poissons Ratio (x) = -0.02804 -0.05381
# Poissons Ratio (y) = -0.04808 -0.18008
# Poissons Ratio (z) = -0.08082 -0.15773
#
# Static dielectric constant tensor:
#      x y z
#    x 1.870320 0.000000 0.000000 
#    y 0.000000 1.863830 0.000000 
#    z 0.000000 0.000000 1.789260 
# 
# From -- ./inp_files/14179.got.cif
#   From: 2010.05.17/outbox.cif.g08.bks.cpg/sg56_8_cif.got.tgz:14179.got - 2010.06.03 13:42:01.
