data_PCOD9429931
_publ_section_title
;
Structure prediction by ZEFSAII (Michael W. Deem and Ramdas Pophale) SiO2 
 PCOD9429931
Probable space group: P C C N
;
_chemical_formula_sum "Si O2"
_cell_formula_units_Z 64
_cell_length_a 11.225154
_cell_length_b 14.839278
_cell_length_c 16.714493
_cell_angle_alpha 90.000000
_cell_angle_beta 90.000000
_cell_angle_gamma 90.000000
_cell_volume 2784.186264
_symmetry_space_group_name_H-M "P C C N"
_symmetry_group_IT_number 56
_symmetry_cell_setting 'orthorhombic'
loop_
_space_group_symop_operation_xyz
x,y,z
1/2-x,1/2-y,z
1/2+x,-y,1/2-z
-x,1/2+y,1/2-z
-x,-y,-z
1/2+x,1/2+y,-z
1/2-x,y,1/2+z
x,1/2-y,1/2+z
loop_
_atom_site_type_symbol
_atom_site_label
_atom_site_fract_x
_atom_site_fract_y
_atom_site_fract_z
Si Si1 0.209266 0.488834 0.053902
Si Si2 0.433723 0.102183 0.582843
Si Si3 0.326308 0.832369 0.004422
Si Si4 0.509697 0.263308 0.352759
Si Si5 0.178085 0.094275 0.380488
Si Si6 0.395858 0.239251 0.191338
Si Si7 0.019881 0.564640 0.869074
Si Si8 0.442595 0.076174 0.391081
O O1 0.303534 0.435908 0.105629
O O2 0.259732 0.585470 0.029320
O O3 0.082155 0.498498 0.093702
O O4 0.184646 0.435964 0.972652
O O5 0.432034 0.203645 0.612708
O O6 0.440533 0.094750 0.486874
O O7 0.523350 0.028102 0.618754
O O8 0.250000 0.750000 0.971336
O O9 0.392239 0.801312 0.085872
O O10 0.411885 0.877494 0.937861
O O11 0.387980 0.310477 0.383579
O O12 0.482420 0.282442 0.259425
O O13 0.523267 0.155733 0.357285
O O14 0.313797 0.097039 0.353679
O O15 0.110672 0.011173 0.335968
O O16 0.250000 0.250000 0.204182
O O17 0.444936 0.137790 0.180721
#
# Coordination Sequence:
#
# PCOD9429931 Si02
#       8
#     8   8   8   8   8   8   8   8
#     4  10  18  38  66  91 118 162 211 259 326 370
#     4  10  22  40  63  92 126 162 210 274 320 368
#     4  11  22  40  69  99 126 161 213 275 322 382
#     4  12  23  41  60  92 128 171 215 252 312 387
#     4  10  20  37  65  92 120 160 211 264 313 382
#     4  12  26  40  62  92 130 176 213 255 314 380
#     4  11  21  41  66  94 122 164 216 262 321 381
#     4  10  22  39  63  94 125 159 214 273 323 363
#
# _framework density 22.986968000000001
#
# number of rings (size 3 to 8) (size 9 to 14) (size 15 to 20)
#    0.000    1.250    3.750    3.375    0.000    5.000 
#    0.000    1.875    0.000    0.000    0.000    0.000 
#    0.000    0.000    0.000    0.000    0.000    0.000 
#
# Total GULP energy -356636.817949 kJ/mol
# GULP energy per Si atom -5572.450280 kJ/mol
# Density = 2.293465 g / cm^3
# Si number density = 22.986968 Si / 1000 Ang^3
#
#
#
# Elastic Constant Matrix: (Units=GPa)
#
#
# Indices 1 2 3 4 5 6 
#
# 1 54.4276 0.5381 7.1588 0.0000 0.0000 0.0000
# 2 0.5381 80.5517 -3.0717 0.0000 0.0000 0.0000
# 3 7.1588 -3.0717 37.2584 0.0000 0.0000 0.0000
# 4 0.0000 0.0000 0.0000 12.1603 0.0000 0.0000
# 5 0.0000 0.0000 0.0000 0.0000 11.5392 0.0000
# 6 0.0000 0.0000 0.0000 0.0000 0.0000 38.3811
#
#
#
# Elastic Compliance Matrix: (Units=1/GPa)
#
#
# Indices 1 2 3 4 5 6 
#
# 1 0.018855 -0.000265 -0.003645 0.000000 0.000000 0.000000
# 2 -0.000265 0.012457 0.001078 0.000000 0.000000 0.000000
# 3 -0.003645 0.001078 0.027629 0.000000 0.000000 0.000000
# 4 0.000000 0.000000 0.000000 0.082235 0.000000 0.000000
# 5 0.000000 0.000000 0.000000 0.000000 0.086661 0.000000
# 6 0.000000 0.000000 0.000000 0.000000 0.000000 0.026054
#
#
# Mechanical properties :
#
#
# Convention : Reuss Voigt Hill
#
# Bulk Modulus (GPa) = 18.76958 20.16535 19.46746
# Shear Modulus (GPa) = 18.03012 23.59029 20.81020
#
# Velocity S-wave (km/s) = 2.80369 3.20698 3.01209
# Velocity P-wave (km/s) = 4.32017 4.74390 4.53698
#
# Compressibility (1/GPa) = 0.05327771
#
# Stress axis : x y z
#
# Youngs Moduli (GPa) = 53.03626 80.27442 36.19419
#
# Poissons Ratio (x) = 0.02127 0.13191
# Poissons Ratio (y) = 0.01405 -0.03901
# Poissons Ratio (z) = 0.19330 -0.08653
#
# Static dielectric constant tensor:
#      x y z
#    x 1.914920 0.000000 0.000000 
#    y 0.000000 1.879290 0.000000 
#    z 0.000000 0.000000 1.913360 
# 
# From -- ./inp_files/15820.got.cif
#   From: 2010.05.17/outbox.cif.g08.bks.cpg/sg56_8_cif.got.tgz:15820.got - 2010.06.03 13:42:01.
