data_PCOD9429884
_publ_section_title
;
Structure prediction by ZEFSAII (Michael W. Deem and Ramdas Pophale) SiO2 
 PCOD9429884
Probable space group: P C C N
;
_chemical_formula_sum "Si O2"
_cell_formula_units_Z 64
_cell_length_a 8.927570
_cell_length_b 12.989320
_cell_length_c 23.953430
_cell_angle_alpha 90.000000
_cell_angle_beta 90.000000
_cell_angle_gamma 90.000000
_cell_volume 2777.713125
_symmetry_space_group_name_H-M "P C C N"
_symmetry_group_IT_number 56
_symmetry_cell_setting 'orthorhombic'
loop_
_space_group_symop_operation_xyz
x,y,z
1/2-x,1/2-y,z
1/2+x,-y,1/2-z
-x,1/2+y,1/2-z
-x,-y,-z
1/2+x,1/2+y,-z
1/2-x,y,1/2+z
x,1/2-y,1/2+z
loop_
_atom_site_type_symbol
_atom_site_label
_atom_site_fract_x
_atom_site_fract_y
_atom_site_fract_z
Si Si1 0.701284 0.100313 0.108181
Si Si2 0.153418 0.646557 0.594337
Si Si3 0.397214 0.680271 0.216735
Si Si4 0.174722 0.988290 0.508677
Si Si5 0.498532 0.223748 0.615727
Si Si6 0.069616 0.382255 0.499461
Si Si7 0.578993 0.642504 0.771326
Si Si8 0.729602 0.483887 0.213720
O O1 0.840935 0.169697 0.127342
O O2 0.542200 0.156458 0.115713
O O3 0.729154 0.003281 0.148231
O O4 0.722429 0.085246 0.042556
O O5 0.250000 0.750000 0.594672
O O6 0.092025 0.624630 0.656540
O O7 0.260158 0.559134 0.566162
O O8 0.014145 0.664565 0.553086
O O9 0.250000 0.750000 0.210998
O O10 0.525581 0.759913 0.234467
O O11 0.348822 0.601867 0.264884
O O12 0.254970 0.096064 0.496251
O O13 0.000000 0.000000 0.500000
O O14 0.454087 0.181689 0.555570
O O15 0.397980 0.183735 0.665961
O O16 0.000000 0.500000 0.500000
O O17 0.435378 0.562408 0.773453
O O18 0.723064 0.584899 0.747220
#
# Coordination Sequence:
#
# PCOD9429884 Si02
#       8
#     8   8   8   8   8   8   8   8
#     4  10  19  36  61  85 120 160 208 255 309 377
#     4  10  20  37  63  86 122 166 206 252 316 393
#     4   9  19  37  60  92 122 160 212 252 307 394
#     4  11  24  38  58  92 127 154 208 272 329 374
#     4  10  18  36  65  86 117 158 221 253 297 390
#     4  10  20  35  59  94 113 160 214 253 313 390
#     4  10  21  38  63  93 122 167 212 266 315 383
#     4  10  21  36  61  89 119 164 210 260 319 367
#
# _framework density 23.040535999999999
#
# number of rings (size 3 to 8) (size 9 to 14) (size 15 to 20)
#    0.000    2.000    3.750    0.750    3.500    3.000 
#    0.000    3.125    0.000    4.500    0.000    0.000 
#    0.000    0.000    0.000    0.000    0.000    0.000 
#
# Total GULP energy -357047.389700 kJ/mol
# GULP energy per Si atom -5578.865464 kJ/mol
# Density = 2.298809 g / cm^3
# Si number density = 23.040536 Si / 1000 Ang^3
#
#
#
# Elastic Constant Matrix: (Units=GPa)
#
#
# Indices 1 2 3 4 5 6 
#
# 1 90.8493 24.9915 8.6330 0.0000 0.0000 0.0000
# 2 24.9915 35.4088 8.9673 0.0000 0.0000 0.0000
# 3 8.6330 8.9673 105.3179 0.0000 0.0000 0.0000
# 4 0.0000 0.0000 0.0000 22.0831 0.0000 0.0000
# 5 0.0000 0.0000 0.0000 0.0000 -1.1004 0.0000
# 6 0.0000 0.0000 0.0000 0.0000 0.0000 41.6012
#
#
#
# Elastic Compliance Matrix: (Units=1/GPa)
#
#
# Indices 1 2 3 4 5 6 
#
# 1 0.013669 -0.009570 -0.000306 0.000000 0.000000 0.000000
# 2 -0.009570 0.035564 -0.002244 0.000000 0.000000 0.000000
# 3 -0.000306 -0.002244 0.009711 0.000000 0.000000 0.000000
# 4 0.000000 0.000000 0.000000 0.045283 0.000000 0.000000
# 5 0.000000 0.000000 0.000000 0.000000 -0.908768 0.000000
# 6 0.000000 0.000000 0.000000 0.000000 0.000000 0.024038
#
#
# Mechanical properties :
#
#
# Convention : Reuss Voigt Hill
#
# Bulk Modulus (GPa) = 28.81374 35.19550 32.00462
# Shear Modulus (GPa) = -6.71416 25.11572 9.20078
#
# Velocity S-wave (km/s) = -1.70891 3.30520 2.00049
# Velocity P-wave (km/s) = 2.93921 5.46575 4.38824
#
# Compressibility (1/GPa) = 0.03470567
#
# Stress axis : x y z
#
# Youngs Moduli (GPa) = 73.15881 28.11805 102.97438
#
# Poissons Ratio (x) = 0.26909 0.03147
# Poissons Ratio (y) = 0.70014 0.23104
# Poissons Ratio (z) = 0.02236 0.06309
#
# Static dielectric constant tensor:
#      x y z
#    x 2.375930 0.000000 0.000000 
#    y 0.000000 1.914900 0.000000 
#    z 0.000000 0.000000 1.890900 
# 
# From -- ./inp_files/20679.got.cif
#   From: 2010.05.17/outbox.cif.g08.bks.cpg/sg56_11_cif.got.tgz:20679.got - 2010.06.03 13:42:01.
