data_PCOD9429574
_publ_section_title
;
Structure prediction by ZEFSAII (Michael W. Deem and Ramdas Pophale) SiO2 
 PCOD9429574
Probable space group: P C C N
;
_chemical_formula_sum "Si O2"
_cell_formula_units_Z 48
_cell_length_a 16.380861
_cell_length_b 22.938464
_cell_length_c 8.209379
_cell_angle_alpha 90.000000
_cell_angle_beta 90.000000
_cell_angle_gamma 90.000000
_cell_volume 3084.688857
_symmetry_space_group_name_H-M "P C C N"
_symmetry_group_IT_number 56
_symmetry_cell_setting 'orthorhombic'
loop_
_space_group_symop_operation_xyz
x,y,z
1/2-x,1/2-y,z
1/2+x,-y,1/2-z
-x,1/2+y,1/2-z
-x,-y,-z
1/2+x,1/2+y,-z
1/2-x,y,1/2+z
x,1/2-y,1/2+z
loop_
_atom_site_type_symbol
_atom_site_label
_atom_site_fract_x
_atom_site_fract_y
_atom_site_fract_z
Si Si1 0.669600 0.317016 0.458485
Si Si2 0.546598 0.081607 0.453368
Si Si3 0.154409 0.934456 0.346730
Si Si4 0.144407 0.807727 0.927370
Si Si5 0.374752 0.466111 0.931562
Si Si6 0.774878 0.998226 0.361813
O O1 0.646319 0.373802 0.560220
O O2 0.626403 0.259915 0.534838
O O3 0.767202 0.314419 0.487350
O O4 0.652472 0.317803 0.266058
O O5 0.578617 0.061934 0.275149
O O6 0.584357 0.143909 0.498496
O O7 0.449409 0.077064 0.460344
O O8 0.585480 0.031267 0.567663
O O9 0.235148 0.945468 0.232765
O O10 0.169603 0.981458 0.488126
O O11 0.327047 0.460852 0.762912
O O12 0.305051 0.466056 0.069133
#
# Coordination Sequence:
#
# PCOD9429574 Si02
#       6
#     8   8   8   8   8   8
#     4  11  19  29  44  63  90 128 155 177 216 270
#     4  10  19  30  43  66  95 122 151 193 229 260
#     4  10  17  27  44  64  91 119 152 185 224 265
#     4  11  20  29  43  63  92 122 158 186 213 261
#     4   9  18  31  47  64  90 122 155 190 230 268
#     4   9  17  30  47  65  88 124 159 188 222 272
#
# _framework density 15.560726000000001
#
# number of rings (size 3 to 8) (size 9 to 14) (size 15 to 20)
#    0.000    2.000    0.000    9.000    0.000    0.667 
#    0.000    3.333    0.000    0.000    0.000    0.000 
#    0.000   16.000    0.000    0.000    0.000    0.000 
#
# Total GULP energy -267433.479285 kJ/mol
# GULP energy per Si atom -5571.530818 kJ/mol
# Density = 1.552531 g / cm^3
# Si number density = 15.560726 Si / 1000 Ang^3
#
#
#
# Elastic Constant Matrix: (Units=GPa)
#
#
# Indices 1 2 3 4 5 6 
#
# 1 86.1283 37.3460 41.9581 0.0000 0.0000 0.0000
# 2 37.3460 53.3395 17.8574 0.0000 0.0000 0.0000
# 3 41.9581 17.8574 100.5041 0.0000 0.0000 0.0000
# 4 0.0000 0.0000 0.0000 9.6989 0.0000 0.0000
# 5 0.0000 0.0000 0.0000 0.0000 10.4239 0.0000
# 6 0.0000 0.0000 0.0000 0.0000 0.0000 24.5058
#
#
#
# Elastic Compliance Matrix: (Units=1/GPa)
#
#
# Indices 1 2 3 4 5 6 
#
# 1 0.019684 -0.011729 -0.006134 0.000000 0.000000 0.000000
# 2 -0.011729 0.026922 0.000113 0.000000 0.000000 0.000000
# 3 -0.006134 0.000113 0.012490 0.000000 0.000000 0.000000
# 4 0.000000 0.000000 0.000000 0.103104 0.000000 0.000000
# 5 0.000000 0.000000 0.000000 0.000000 0.095934 0.000000
# 6 0.000000 0.000000 0.000000 0.000000 0.000000 0.040807
#
#
# Mechanical properties :
#
#
# Convention : Reuss Voigt Hill
#
# Bulk Modulus (GPa) = 42.37681 48.25498 45.31589
# Shear Modulus (GPa) = 14.60681 18.44642 16.52661
#
# Velocity S-wave (km/s) = 3.06714 3.44677 3.26248
# Velocity P-wave (km/s) = 6.31153 6.84970 6.58611
#
# Compressibility (1/GPa) = 0.02359781
#
# Stress axis : x y z
#
# Youngs Moduli (GPa) = 50.80180 37.14457 80.06086
#
# Poissons Ratio (x) = 0.43565 0.49108
# Poissons Ratio (y) = 0.59583 -0.00905
# Poissons Ratio (z) = 0.31161 -0.00420
#
# Static dielectric constant tensor:
#      x y z
#    x 1.509630 0.000000 0.000000 
#    y 0.000000 1.554430 0.000000 
#    z 0.000000 0.000000 1.556780 
# 
# From -- ./inp_files/3634.got.cif
#   From: 2010.05.17/outbox.cif.g08.bks.cpg/sg56_2_cif.got.tgz:3634.got - 2010.06.03 13:42:01.
