data_PCOD9429331
_publ_section_title
;
Structure prediction by ZEFSAII (Michael W. Deem and Ramdas Pophale) SiO2 
 PCOD9429331
Probable space group: P B A M
;
_chemical_formula_sum "Si O2"
_cell_formula_units_Z 56
_cell_length_a 21.000000
_cell_length_b 15.000000
_cell_length_c 9.000000
_cell_angle_alpha 90.000000
_cell_angle_beta 90.000000
_cell_angle_gamma 90.000000
_cell_volume 2835.000000
_symmetry_space_group_name_H-M "P B A M"
_symmetry_group_IT_number 55
_symmetry_cell_setting 'orthorhombic'
loop_
_space_group_symop_operation_xyz
x,y,z
-x,-y,z
1/2+x,1/2-y,-z
1/2-x,1/2+y,-z
-x,-y,-z
x,y,-z
1/2-x,1/2+y,z
1/2+x,1/2-y,z
loop_
_atom_site_type_symbol
_atom_site_label
_atom_site_fract_x
_atom_site_fract_y
_atom_site_fract_z
Si Si1 0.816001 0.703438 0.820194
Si Si2 0.072338 0.596710 0.321343
Si Si3 0.432850 0.914243 0.820907
Si Si4 0.912246 0.218939 0.822940
Si Si5 0.660354 0.394694 0.180596
Si Si6 0.977907 0.897291 0.323488
Si Si7 0.204452 0.915820 0.178443
O O1 0.886151 0.667380 0.788526
O O2 0.804617 0.804338 0.773199
O O3 0.765412 0.634068 0.758685
O O4 0.810279 0.702983 0.000000
O O5 0.075444 0.591111 0.500000
O O6 0.096778 0.506403 0.241865
O O7 0.101855 0.687642 0.257793
O O8 0.999034 0.599873 0.263831
O O9 0.442306 0.920992 0.000000
O O10 0.855738 0.148247 0.800211
O O11 0.973957 0.171606 0.753401
O O12 0.920563 0.233907 0.000000
O O13 0.590089 0.389529 0.246524
O O14 0.692266 0.485348 0.235320
O O15 0.656298 0.396863 0.000000
O O16 0.975046 0.880195 0.500000
O O17 0.000000 0.000000 0.302070
O O18 0.212788 0.924803 0.000000
#
# Coordination Sequence:
#
# PCOD9429331 Si02
#       7
#     8   8   8   8   8   8   8
#     4   9  19  34  56  85 113 144 188 239 287 334
#     4  11  22  36  56  82 116 151 185 231 288 341
#     4  10  19  35  58  85 113 145 190 237 281 335
#     4  11  21  35  57  85 114 147 191 236 283 340
#     4  10  19  35  59  84 113 150 191 235 283 343
#     4  11  22  35  55  83 117 151 183 232 294 347
#     4   9  19  34  54  83 113 145 185 234 285 333
#
# _framework density 19.753086
#
# number of rings (size 3 to 8) (size 9 to 14) (size 15 to 20)
#    0.000    1.857    1.429    4.286    0.000    2.857 
#    0.000    5.000    0.000    9.429    0.000    0.000 
#    0.000    0.000    0.000    0.000    0.000    0.000 
#
# Total GULP energy -312582.099897 kJ/mol
# GULP energy per Si atom -5581.823212 kJ/mol
# Density = 1.970813 g / cm^3
# Si number density = 19.753086 Si / 1000 Ang^3
#
#
#
# Elastic Constant Matrix: (Units=GPa)
#
#
# Indices 1 2 3 4 5 6 
#
# 1 34.5551 12.5544 9.1724 0.0000 0.0000 0.0000
# 2 12.5544 122.8784 35.1126 0.0000 0.0000 0.0000
# 3 9.1724 35.1126 56.9955 0.0000 0.0000 0.0000
# 4 0.0000 0.0000 0.0000 22.2408 0.0000 0.0000
# 5 0.0000 0.0000 0.0000 0.0000 -7.6085 0.0000
# 6 0.0000 0.0000 0.0000 0.0000 0.0000 12.0712
#
#
#
# Elastic Compliance Matrix: (Units=1/GPa)
#
#
# Indices 1 2 3 4 5 6 
#
# 1 0.030667 -0.002091 -0.003647 0.000000 0.000000 0.000000
# 2 -0.002091 0.010019 -0.005836 0.000000 0.000000 0.000000
# 3 -0.003647 -0.005836 0.021728 0.000000 0.000000 0.000000
# 4 0.000000 0.000000 0.000000 0.044962 0.000000 0.000000
# 5 0.000000 0.000000 0.000000 0.000000 -0.131431 0.000000
# 6 0.000000 0.000000 0.000000 0.000000 0.000000 0.082842
#
#
# Mechanical properties :
#
#
# Convention : Reuss Voigt Hill
#
# Bulk Modulus (GPa) = 25.46759 36.45643 30.96201
# Shear Modulus (GPa) = 52.61828 15.84666 34.23247
#
# Velocity S-wave (km/s) = 5.16680 2.83545 4.16747
# Velocity P-wave (km/s) = 6.96530 5.40517 6.23423
#
# Compressibility (1/GPa) = 0.03926559
#
# Stress axis : x y z
#
# Youngs Moduli (GPa) = 32.60827 99.80617 46.02453
#
# Poissons Ratio (x) = 0.20870 0.16786
# Poissons Ratio (y) = 0.06819 0.26860
# Poissons Ratio (z) = 0.11893 0.58247
#
# Static dielectric constant tensor:
#      x y z
#    x 1.696860 0.000000 0.000000 
#    y 0.000000 1.737980 0.000000 
#    z 0.000000 0.000000 1.648580 
# 
# From -- ./inp_files/8668.got.cif
#   From: 2010.05.17/outbox.ucp.g08.bks.cvg/sg55_5_cif.got.tgz:8668.got - 2010.06.11 16:36:00.
