data_PCOD9429451
_publ_section_title
;
Structure prediction by ZEFSAII (Michael W. Deem and Ramdas Pophale) SiO2 
 PCOD9429451
Probable space group: P B A M
;
_chemical_formula_sum "Si O2"
_cell_formula_units_Z 64
_cell_length_a 15.000000
_cell_length_b 30.000000
_cell_length_c 9.000000
_cell_angle_alpha 90.000000
_cell_angle_beta 90.000000
_cell_angle_gamma 90.000000
_cell_volume 4050.000000
_symmetry_space_group_name_H-M "P B A M"
_symmetry_group_IT_number 55
_symmetry_cell_setting 'orthorhombic'
loop_
_space_group_symop_operation_xyz
x,y,z
-x,-y,z
1/2+x,1/2-y,-z
1/2-x,1/2+y,-z
-x,-y,-z
x,y,-z
1/2-x,1/2+y,z
1/2+x,1/2-y,z
loop_
_atom_site_type_symbol
_atom_site_label
_atom_site_fract_x
_atom_site_fract_y
_atom_site_fract_z
Si Si1 0.101744 0.052663 0.321087
Si Si2 0.626368 0.361728 0.826422
Si Si3 0.211650 0.868807 0.676898
Si Si4 0.959575 0.278624 0.176092
Si Si5 0.640301 0.196933 0.320580
Si Si6 0.893424 0.047724 0.319651
Si Si7 0.247103 0.722477 0.824154
Si Si8 0.968340 0.186210 0.673614
O O1 0.107200 0.058747 0.500000
O O2 0.154366 0.090109 0.232544
O O3 0.996661 0.055148 0.276981
O O4 0.131810 0.002718 0.284030
O O5 0.700764 0.323926 0.809112
O O6 0.543698 0.348299 0.721681
O O7 0.600472 0.363118 0.000000
O O8 0.105335 0.948916 0.500000
O O9 0.301275 0.845537 0.731626
O O10 0.174112 0.915133 0.739405
O O11 0.129316 0.834551 0.693028
O O12 0.855999 0.283978 0.224029
O O13 0.979892 0.227553 0.217727
O O14 0.039947 0.304055 0.257938
O O15 0.964990 0.286388 0.000000
O O16 0.638268 0.198812 0.500000
O O17 0.696307 0.239896 0.262032
O O18 0.775516 0.124918 0.500000
O O19 0.245696 0.734726 0.000000
O O20 0.978923 0.198754 0.500000
#
# Coordination Sequence:
#
# PCOD9429451 Si02
#       8
#     8   8   8   8   8   8   8   8
#     4   9  16  28  49  71  93 126 161 195 234 290
#     4  11  21  32  46  69  99 131 162 199 242 284
#     4   9  17  29  47  72  98 125 160 198 237 282
#     4  11  22  36  49  66  97 132 166 203 244 287
#     4  11  21  32  50  74  97 125 163 205 243 282
#     4   8  14  27  47  70  96 125 158 193 237 289
#     4  10  22  36  49  66  94 133 168 197 239 290
#     4  11  19  30  49  71  96 128 166 199 234 281
#
# _framework density 15.802469
#
# number of rings (size 3 to 8) (size 9 to 14) (size 15 to 20)
#    0.000    2.000    3.750    2.250    0.000    1.000 
#    0.000    1.250    0.000    0.000    0.000    0.875 
#    0.000    7.000    0.000    0.000    0.000    0.000 
#
# Total GULP energy -356556.813531 kJ/mol
# GULP energy per Si atom -5571.200211 kJ/mol
# Density = 1.576650 g / cm^3
# Si number density = 15.802469 Si / 1000 Ang^3
#
#
#
# Elastic Constant Matrix: (Units=GPa)
#
#
# Indices 1 2 3 4 5 6 
#
# 1 48.1136 -9.8924 14.6248 0.0000 0.0000 0.0000
# 2 -9.8924 44.7445 1.3335 0.0000 0.0000 0.0000
# 3 14.6248 1.3335 26.8559 0.0000 0.0000 0.0000
# 4 0.0000 0.0000 0.0000 2.7077 0.0000 0.0000
# 5 0.0000 0.0000 0.0000 0.0000 20.2326 0.0000
# 6 0.0000 0.0000 0.0000 0.0000 0.0000 14.9107
#
#
#
# Elastic Compliance Matrix: (Units=1/GPa)
#
#
# Indices 1 2 3 4 5 6 
#
# 1 0.026578 0.006317 -0.014787 0.000000 0.000000 0.000000
# 2 0.006317 0.023883 -0.004626 0.000000 0.000000 0.000000
# 3 -0.014787 -0.004626 0.045518 0.000000 0.000000 0.000000
# 4 0.000000 0.000000 0.000000 0.369323 0.000000 0.000000
# 5 0.000000 0.000000 0.000000 0.000000 0.049425 0.000000
# 6 0.000000 0.000000 0.000000 0.000000 0.000000 0.067066
#
#
# Mechanical properties :
#
#
# Convention : Reuss Voigt Hill
#
# Bulk Modulus (GPa) = 14.32932 14.64954 14.48943
# Shear Modulus (GPa) = 7.92082 15.14672 11.53377
#
# Velocity S-wave (km/s) = 2.24127 3.09933 2.70454
# Velocity P-wave (km/s) = 3.97305 4.70089 4.35221
#
# Compressibility (1/GPa) = 0.06978696
#
# Stress axis : x y z
#
# Youngs Moduli (GPa) = 37.62570 41.86991 21.96934
#
# Poissons Ratio (x) = -0.26448 0.32486
# Poissons Ratio (y) = -0.23767 0.10162
# Poissons Ratio (z) = 0.55637 0.19368
#
# Static dielectric constant tensor:
#      x y z
#    x 1.534470 0.000000 0.000000 
#    y 0.000000 1.575680 0.000000 
#    z 0.000000 0.000000 1.528700 
# 
# From -- ./inp_files/6947.got.cif
#   From: 2010.05.17/outbox.ucp.g08.bks.cvg/sg55_4_cif.got.tgz:6947.got - 2010.06.11 16:36:00.
