data_PCOD9429302
_publ_section_title
;
Structure prediction by ZEFSAII (Michael W. Deem and Ramdas Pophale) SiO2 
 PCOD9429302
Probable space group: P B A M
;
_chemical_formula_sum "Si O2"
_cell_formula_units_Z 64
_cell_length_a 24.000000
_cell_length_b 15.000000
_cell_length_c 9.000000
_cell_angle_alpha 90.000000
_cell_angle_beta 90.000000
_cell_angle_gamma 90.000000
_cell_volume 3240.000000
_symmetry_space_group_name_H-M "P B A M"
_symmetry_group_IT_number 55
_symmetry_cell_setting 'orthorhombic'
loop_
_space_group_symop_operation_xyz
x,y,z
-x,-y,z
1/2+x,1/2-y,-z
1/2-x,1/2+y,-z
-x,-y,-z
x,y,-z
1/2-x,1/2+y,z
1/2+x,1/2-y,z
loop_
_atom_site_type_symbol
_atom_site_label
_atom_site_fract_x
_atom_site_fract_y
_atom_site_fract_z
Si Si1 0.853531 0.500715 0.828013
Si Si2 0.673109 0.554930 0.178830
Si Si3 0.759055 0.218714 0.677051
Si Si4 0.859494 0.705243 0.826949
Si Si5 0.545444 0.570721 0.180906
Si Si6 0.752822 0.422288 0.324881
Si Si7 0.034804 0.583404 0.180845
Si Si8 0.023467 0.239589 0.181464
O O1 0.877314 0.600978 0.825446
O O2 0.802222 0.488962 0.719716
O O3 0.901068 0.431568 0.783531
O O4 0.835908 0.484932 0.000000
O O5 0.705268 0.641996 0.242123
O O6 0.608791 0.558136 0.227759
O O7 0.700788 0.463703 0.237447
O O8 0.676773 0.557302 0.000000
O O9 0.764707 0.207353 0.500000
O O10 0.695009 0.211287 0.728248
O O11 0.772023 0.322167 0.716518
O O12 0.911888 0.763383 0.774566
O O13 0.846108 0.726673 0.000000
O O14 0.500000 0.500000 0.231633
O O15 0.517942 0.662745 0.227031
O O16 0.546858 0.567639 0.000000
O O17 0.741575 0.423230 0.500000
O O18 0.000000 0.500000 0.235129
O O19 0.005278 0.670929 0.235189
O O20 0.032601 0.583578 0.000000
O O21 0.025438 0.240739 0.000000
#
# Coordination Sequence:
#
# PCOD9429302 Si02
#       8
#     8   8   8   8   8   8   8   8
#     4  10  19  32  55  87 117 146 188 240 288 345
#     4  11  23  40  65  95 122 153 202 259 305 353
#     4  11  25  42  60  84 120 163 201 244 303 365
#     4  10  19  33  58  89 116 148 195 244 294 351
#     4   9  20  36  54  83 121 155 191 243 303 350
#     4  11  25  42  60  82 116 163 202 240 301 364
#     4   9  15  26  46  78 115 145 178 224 283 346
#     4   9  17  30  51  81 117 153 185 232 294 350
#
# _framework density 19.753086
#
# number of rings (size 3 to 8) (size 9 to 14) (size 15 to 20)
#    0.000    2.000    2.500    1.125    3.500    2.000 
#    0.000    0.000    0.000    4.125    0.000    0.000 
#    0.000    0.000    0.000    0.000    0.000    0.000 
#
# Total GULP energy -356829.624536 kJ/mol
# GULP energy per Si atom -5575.462883 kJ/mol
# Density = 1.970813 g / cm^3
# Si number density = 19.753086 Si / 1000 Ang^3
#
#
#
# Elastic Constant Matrix: (Units=GPa)
#
#
# Indices 1 2 3 4 5 6 
#
# 1 99.2294 13.6040 15.0778 0.0000 0.0000 0.0000
# 2 13.6040 56.1053 15.8102 0.0000 0.0000 0.0000
# 3 15.0778 15.8102 30.9213 0.0000 0.0000 0.0000
# 4 0.0000 0.0000 0.0000 33.4659 0.0000 0.0000
# 5 0.0000 0.0000 0.0000 0.0000 -18.0452 0.0000
# 6 0.0000 0.0000 0.0000 0.0000 0.0000 24.7705
#
#
#
# Elastic Compliance Matrix: (Units=1/GPa)
#
#
# Indices 1 2 3 4 5 6 
#
# 1 0.010970 -0.001347 -0.004661 0.000000 0.000000 0.000000
# 2 -0.001347 0.020989 -0.010075 0.000000 0.000000 0.000000
# 3 -0.004661 -0.010075 0.039764 0.000000 0.000000 0.000000
# 4 0.000000 0.000000 0.000000 0.029881 0.000000 0.000000
# 5 0.000000 0.000000 0.000000 0.000000 -0.055416 0.000000
# 6 0.000000 0.000000 0.000000 0.000000 0.000000 0.040371
#
#
# Mechanical properties :
#
#
# Convention : Reuss Voigt Hill
#
# Bulk Modulus (GPa) = 25.27893 30.58222 27.93058
# Shear Modulus (GPa) = 37.90423 17.48917 27.69670
#
# Velocity S-wave (km/s) = 4.38528 2.97878 3.74859
# Velocity P-wave (km/s) = 6.20211 5.22941 5.73641
#
# Compressibility (1/GPa) = 0.03955863
#
# Stress axis : x y z
#
# Youngs Moduli (GPa) = 91.15363 47.64325 25.14813
#
# Poissons Ratio (x) = 0.06416 0.11721
# Poissons Ratio (y) = 0.12275 0.25337
# Poissons Ratio (z) = 0.42486 0.48002
#
# Static dielectric constant tensor:
#      x y z
#    x 1.700490 0.000000 0.000000 
#    y 0.000000 1.718390 0.000000 
#    z 0.000000 0.000000 1.656140 
# 
# From -- ./inp_files/9671.got.cif
#   From: 2010.05.17/outbox.ucp.g08.bks.cvg/sg55_5_cif.got.tgz:9671.got - 2010.06.11 16:36:00.
