data_PCOD9429038
_publ_section_title
;
Structure prediction by ZEFSAII (Michael W. Deem and Ramdas Pophale) SiO2 
 PCOD9429038
Probable space group: P B A M
;
_chemical_formula_sum "Si O2"
_cell_formula_units_Z 40
_cell_length_a 5.192622
_cell_length_b 19.570395
_cell_length_c 19.993430
_cell_angle_alpha 90.000000
_cell_angle_beta 90.000000
_cell_angle_gamma 90.000000
_cell_volume 2031.765618
_symmetry_space_group_name_H-M "P B A M"
_symmetry_group_IT_number 55
_symmetry_cell_setting 'orthorhombic'
loop_
_space_group_symop_operation_xyz
x,y,z
-x,-y,z
1/2+x,1/2-y,-z
1/2-x,1/2+y,-z
-x,-y,-z
x,y,-z
1/2-x,1/2+y,z
1/2+x,1/2-y,z
loop_
_atom_site_type_symbol
_atom_site_label
_atom_site_fract_x
_atom_site_fract_y
_atom_site_fract_z
Si Si1 0.257615 0.168198 0.000000
Si Si2 0.500000 0.500000 0.114726
Si Si3 0.257556 0.921369 0.000000
Si Si4 0.749356 0.451162 0.500000
Si Si5 0.750029 0.451485 0.355424
Si Si6 0.351765 0.073233 0.209685
Si Si7 0.382237 0.212115 0.147640
O O1 0.454293 0.104768 0.000000
O O2 0.340281 0.207179 0.932639
O O3 0.966158 0.138075 0.000000
O O4 0.705058 0.533740 0.065379
O O5 0.390532 0.557977 0.162592
O O6 0.500000 0.500000 0.500000
O O7 0.742451 0.414401 0.427756
O O8 0.000000 0.500000 0.500000
O O9 0.500000 0.500000 0.349617
O O10 0.776204 0.411133 0.286215
O O11 0.000000 0.500000 0.357856
O O12 0.475611 0.139280 0.175943
O O13 0.500000 0.000000 0.209363
O O14 0.596547 0.266335 0.169673
#
# Coordination Sequence:
#
# PCOD9429038 Si02
#       7
#     4   4   4   4   8   8   8
#     4  12  22  44  58  77 106 148 195 231 285 348
#     4  11  22  36  56  87 114 142 184 241 292 340
#     4  11  24  35  60  83 109 143 185 243 290 337
#     4   8  14  26  44  74 116 146 174 220 277 331
#     4   9  17  29  50  81 113 147 182 226 280 330
#     4  11  23  38  63  86 117 150 196 237 289 346
#     4  12  27  43  60  83 115 151 188 240 294 345
#
# _framework density 19.68731
#
# number of rings (size 3 to 8) (size 9 to 14) (size 15 to 20)
#    0.000    1.400    3.000    3.000    2.800    0.800 
#    0.000    0.000    0.000    0.000    0.000    1.400 
#    0.000    0.000    0.000    0.000    0.000    0.000 
#
# Total GULP energy -223127.908623 kJ/mol
# GULP energy per Si atom -5578.197716 kJ/mol
# Density = 1.964250 g / cm^3
# Si number density = 19.687310 Si / 1000 Ang^3
#
#
#
# Elastic Constant Matrix: (Units=GPa)
#
#
# Indices 1 2 3 4 5 6 
#
# 1 88.5584 15.1621 4.7353 0.0000 0.0000 0.0000
# 2 15.1621 59.6651 13.3434 0.0000 0.0000 0.0000
# 3 4.7353 13.3434 140.6621 0.0000 0.0000 0.0000
# 4 0.0000 0.0000 0.0000 -15.5482 0.0000 0.0000
# 5 0.0000 0.0000 0.0000 0.0000 11.0091 0.0000
# 6 0.0000 0.0000 0.0000 0.0000 0.0000 32.5476
#
#
#
# Elastic Compliance Matrix: (Units=1/GPa)
#
#
# Indices 1 2 3 4 5 6 
#
# 1 0.011807 -0.002975 -0.000115 0.000000 0.000000 0.000000
# 2 -0.002975 0.017873 -0.001595 0.000000 0.000000 0.000000
# 3 -0.000115 -0.001595 0.007264 0.000000 0.000000 0.000000
# 4 0.000000 0.000000 0.000000 -0.064316 0.000000 0.000000
# 5 0.000000 0.000000 0.000000 0.000000 0.090834 0.000000
# 6 0.000000 0.000000 0.000000 0.000000 0.000000 0.030724
#
#
# Mechanical properties :
#
#
# Convention : Reuss Voigt Hill
#
# Bulk Modulus (GPa) = 36.26584 39.48524 37.87554
# Shear Modulus (GPa) = 44.34627 22.64469 33.49548
#
# Velocity S-wave (km/s) = 4.75123 3.39517 4.12925
# Velocity P-wave (km/s) = 6.96849 5.95561 6.48186
#
# Compressibility (1/GPa) = 0.02757416
#
# Stress axis : x y z
#
# Youngs Moduli (GPa) = 84.69232 55.95060 137.65668
#
# Poissons Ratio (x) = 0.16644 0.01587
# Poissons Ratio (y) = 0.25194 0.21960
# Poissons Ratio (z) = 0.00977 0.08926
#
# Static dielectric constant tensor:
#      x y z
#    x 1.742280 0.000000 0.000000 
#    y 0.000000 1.699870 0.000000 
#    z 0.000000 0.000000 1.751430 
# 
# From -- ./inp_files/20413.got.cif
#   From: 2010.05.17/outbox.cif.g08.bks.cpg/sg55_11_cif.got.tgz:20413.got - 2010.06.03 13:27:54.
