data_PCOD9429585
_publ_section_title
;
Structure prediction by ZEFSAII (Michael W. Deem and Ramdas Pophale) SiO2 
 PCOD9429585
Probable space group: P C C N
;
_chemical_formula_sum "Si O2"
_cell_formula_units_Z 40
_cell_length_a 22.298040
_cell_length_b 7.650749
_cell_length_c 9.681372
_cell_angle_alpha 90.000000
_cell_angle_beta 90.000000
_cell_angle_gamma 90.000000
_cell_volume 1651.610185
_symmetry_space_group_name_H-M "P C C N"
_symmetry_group_IT_number 56
_symmetry_cell_setting 'orthorhombic'
loop_
_space_group_symop_operation_xyz
x,y,z
1/2-x,1/2-y,z
1/2+x,-y,1/2-z
-x,1/2+y,1/2-z
-x,-y,-z
1/2+x,1/2+y,-z
1/2-x,y,1/2+z
x,1/2-y,1/2+z
loop_
_atom_site_type_symbol
_atom_site_label
_atom_site_fract_x
_atom_site_fract_y
_atom_site_fract_z
Si Si1 0.255583 0.533908 0.365921
Si Si2 0.331781 0.553516 0.623171
Si Si3 0.546843 0.944208 0.384613
Si Si4 0.822971 0.629034 0.392725
Si Si5 0.035746 0.035418 0.636595
O O1 0.301618 0.621228 0.479588
O O2 0.206759 0.615260 0.256187
O O3 0.295639 0.428357 0.254862
O O4 0.215333 0.423410 0.473241
O O5 0.326651 0.340138 0.612538
O O6 0.403225 0.578288 0.644382
O O7 0.616089 0.984118 0.409479
O O8 0.552014 0.737328 0.365738
O O9 0.500000 0.000000 0.500000
O O10 0.514333 0.013166 0.251122
O O11 0.000000 0.000000 0.500000
#
# Coordination Sequence:
#
# PCOD9429585 Si02
#       5
#     8   8   8   8   8
#     4  10  17  28  48  78 111 140 173 232 297 332
#     4  10  18  29  49  78 111 141 179 231 286 335
#     4  11  23  39  59  87 119 154 194 237 284 342
#     4  10  18  29  49  78 111 141 179 231 286 335
#     4  11  23  39  59  87 119 154 194 237 284 342
#
# _framework density 24.218789000000001
#
# number of rings (size 3 to 8) (size 9 to 14) (size 15 to 20)
#    0.000    1.600    0.000    8.400    0.000    6.400 
#    0.000    0.000    0.000    0.000    0.000   98.000 
#    0.000    0.000    0.000    0.000    0.000    0.000 
#
# Total GULP energy -223297.251327 kJ/mol
# GULP energy per Si atom -5582.431283 kJ/mol
# Density = 2.416367 g / cm^3
# Si number density = 24.218789 Si / 1000 Ang^3
#
#
#
# Elastic Constant Matrix: (Units=GPa)
#
#
# Indices 1 2 3 4 5 6 
#
# 1 201.0190 10.0168 55.9154 0.0000 0.0000 0.0000
# 2 10.0168 46.1630 5.0364 0.0000 0.0000 0.0000
# 3 55.9154 5.0364 184.1921 0.0000 0.0000 0.0000
# 4 0.0000 0.0000 0.0000 41.0361 0.0000 0.0000
# 5 0.0000 0.0000 0.0000 0.0000 35.7523 0.0000
# 6 0.0000 0.0000 0.0000 0.0000 0.0000 61.2399
#
#
#
# Elastic Compliance Matrix: (Units=1/GPa)
#
#
# Indices 1 2 3 4 5 6 
#
# 1 0.005480 -0.001011 -0.001636 0.000000 0.000000 0.000000
# 2 -0.001011 0.021914 -0.000292 0.000000 0.000000 0.000000
# 3 -0.001636 -0.000292 0.005934 0.000000 0.000000 0.000000
# 4 0.000000 0.000000 0.000000 0.024369 0.000000 0.000000
# 5 0.000000 0.000000 0.000000 0.000000 0.027970 0.000000
# 6 0.000000 0.000000 0.000000 0.000000 0.000000 0.016329
#
#
# Mechanical properties :
#
#
# Convention : Reuss Voigt Hill
#
# Bulk Modulus (GPa) = 36.43065 63.70128 50.06596
# Shear Modulus (GPa) = 42.72652 51.63270 47.17961
#
# Velocity S-wave (km/s) = 4.20478 4.62229 4.41847
# Velocity P-wave (km/s) = 6.21680 7.40587 6.83723
#
# Compressibility (1/GPa) = 0.02744942
#
# Stress axis : x y z
#
# Youngs Moduli (GPa) = 182.47932 45.63385 168.52783
#
# Poissons Ratio (x) = 0.04612 0.27570
# Poissons Ratio (y) = 0.18442 0.04928
# Poissons Ratio (z) = 0.29853 0.01334
#
# Static dielectric constant tensor:
#      x y z
#    x 2.089400 0.000000 0.000000 
#    y 0.000000 2.232350 0.000000 
#    z 0.000000 0.000000 1.812990 
# 
# From -- ./inp_files/2052.got.cif
#   From: 2010.05.17/outbox.cif.g08.bks.cpg/sg56_2_cif.got.tgz:2052.got - 2010.06.03 13:42:01.
