data_PCOD9429604
_publ_section_title
;
Structure prediction by ZEFSAII (Michael W. Deem and Ramdas Pophale) SiO2 
 PCOD9429604
Probable space group: P C C N
;
_chemical_formula_sum "Si O2"
_cell_formula_units_Z 56
_cell_length_a 10.991158
_cell_length_b 13.467345
_cell_length_c 16.096501
_cell_angle_alpha 90.000000
_cell_angle_beta 90.000000
_cell_angle_gamma 90.000000
_cell_volume 2382.631711
_symmetry_space_group_name_H-M "P C C N"
_symmetry_group_IT_number 56
_symmetry_cell_setting 'orthorhombic'
loop_
_space_group_symop_operation_xyz
x,y,z
1/2-x,1/2-y,z
1/2+x,-y,1/2-z
-x,1/2+y,1/2-z
-x,-y,-z
1/2+x,1/2+y,-z
1/2-x,y,1/2+z
x,1/2-y,1/2+z
loop_
_atom_site_type_symbol
_atom_site_label
_atom_site_fract_x
_atom_site_fract_y
_atom_site_fract_z
Si Si1 0.254337 0.452616 0.614629
Si Si2 0.920098 0.376079 0.341955
Si Si3 0.146569 0.183814 0.257517
Si Si4 0.105012 0.426633 0.463677
Si Si5 0.922504 0.220987 0.684084
Si Si6 0.713275 0.089112 0.652224
Si Si7 0.042419 0.524644 0.205482
O O1 0.184450 0.559412 0.614900
O O2 0.054450 0.387340 0.807760
O O3 0.195357 0.395435 0.536639
O O4 0.397120 0.473887 0.625533
O O5 0.879869 0.288131 0.281412
O O6 0.025434 0.350981 0.408294
O O7 0.984099 0.450885 0.274541
O O8 0.250000 0.250000 0.300687
O O9 0.286874 0.390556 0.194733
O O10 0.063216 0.255951 0.199832
O O11 0.185059 0.495568 0.403431
O O12 0.000000 0.500000 0.500000
O O13 0.851407 0.126503 0.646885
O O14 0.869935 0.314522 0.633592
O O15 0.660804 0.064532 0.743511
#
# Coordination Sequence:
#
# PCOD9429604 Si02
#       7
#     8   8   8   8   8   8   8
#     4  10  18  34  59  85 118 163 207 251 311 389
#     4   9  17  29  54  88 114 152 201 260 297 368
#     4  10  21  34  57  89 119 158 207 264 322 368
#     4   9  18  33  55  86 125 161 206 254 319 382
#     4  10  17  31  55  81 116 151 202 253 309 350
#     4   9  18  31  55  85 117 153 201 260 302 364
#     4   9  17  32  55  86 113 148 206 251 296 370
#
# _framework density 23.503423000000002
#
# number of rings (size 3 to 8) (size 9 to 14) (size 15 to 20)
#    0.000    2.571    1.429    3.429    0.000    0.000 
#    0.000    0.000   31.429    7.714    0.000    0.000 
#    0.000    0.000    0.000    0.000    0.000    0.000 
#
# Total GULP energy -311800.425970 kJ/mol
# GULP energy per Si atom -5567.864749 kJ/mol
# Density = 2.344993 g / cm^3
# Si number density = 23.503423 Si / 1000 Ang^3
#
#
#
# Elastic Constant Matrix: (Units=GPa)
#
#
# Indices 1 2 3 4 5 6 
#
# 1 141.5714 28.5543 13.6860 0.0000 0.0000 0.0000
# 2 28.5543 52.0489 -2.2784 0.0000 0.0000 0.0000
# 3 13.6860 -2.2784 35.2173 0.0000 0.0000 0.0000
# 4 0.0000 0.0000 0.0000 10.8727 0.0000 0.0000
# 5 0.0000 0.0000 0.0000 0.0000 31.8882 0.0000
# 6 0.0000 0.0000 0.0000 0.0000 0.0000 52.0708
#
#
#
# Elastic Compliance Matrix: (Units=1/GPa)
#
#
# Indices 1 2 3 4 5 6 
#
# 1 0.008364 -0.004744 -0.003557 0.000000 0.000000 0.000000
# 2 -0.004744 0.021958 0.003264 0.000000 0.000000 0.000000
# 3 -0.003557 0.003264 0.029989 0.000000 0.000000 0.000000
# 4 0.000000 0.000000 0.000000 0.091974 0.000000 0.000000
# 5 0.000000 0.000000 0.000000 0.000000 0.031360 0.000000
# 6 0.000000 0.000000 0.000000 0.000000 0.000000 0.019205
#
#
# Mechanical properties :
#
#
# Convention : Reuss Voigt Hill
#
# Bulk Modulus (GPa) = 19.90586 34.30683 27.10635
# Shear Modulus (GPa) = 21.77035 31.55805 26.66420
#
# Velocity S-wave (km/s) = 3.04676 3.66826 3.37186
# Velocity P-wave (km/s) = 4.56779 5.70699 5.16887
#
# Compressibility (1/GPa) = 0.05023647
#
# Stress axis : x y z
#
# Youngs Moduli (GPa) = 119.55396 45.54058 33.34578
#
# Poissons Ratio (x) = 0.21607 0.11863
# Poissons Ratio (y) = 0.56722 -0.10885
# Poissons Ratio (z) = 0.42531 -0.14866
#
# Static dielectric constant tensor:
#      x y z
#    x 2.000290 0.000000 0.000000 
#    y 0.000000 2.059750 0.000000 
#    z 0.000000 0.000000 1.914060 
# 
# From -- ./inp_files/16368.got.cif
#   From: 2010.05.17/outbox.cif.g08.bks.cpg/sg56_9_cif.got.tgz:16368.got - 2010.06.03 13:42:01.
