data_PCOD9429577
_publ_section_title
;
Structure prediction by ZEFSAII (Michael W. Deem and Ramdas Pophale) SiO2 
 PCOD9429577
Probable space group: P C C N
;
_chemical_formula_sum "Si O2"
_cell_formula_units_Z 52
_cell_length_a 14.926986
_cell_length_b 20.639563
_cell_length_c 9.330665
_cell_angle_alpha 90.000000
_cell_angle_beta 90.000000
_cell_angle_gamma 90.000000
_cell_volume 2874.651623
_symmetry_space_group_name_H-M "P C C N"
_symmetry_group_IT_number 56
_symmetry_cell_setting 'orthorhombic'
loop_
_space_group_symop_operation_xyz
x,y,z
1/2-x,1/2-y,z
1/2+x,-y,1/2-z
-x,1/2+y,1/2-z
-x,-y,-z
1/2+x,1/2+y,-z
1/2-x,y,1/2+z
x,1/2-y,1/2+z
loop_
_atom_site_type_symbol
_atom_site_label
_atom_site_fract_x
_atom_site_fract_y
_atom_site_fract_z
Si Si1 0.970511 0.944070 0.355724
Si Si2 0.732279 0.036851 0.705857
Si Si3 0.132509 0.937381 0.534843
Si Si4 0.397834 0.450070 0.217068
Si Si5 0.309078 0.336145 0.362783
Si Si6 0.128795 0.083749 0.906298
Si Si7 0.250000 0.250000 0.601252
O O1 0.039920 0.912454 0.466969
O O2 0.930698 0.899048 0.232354
O O3 0.028582 0.999344 0.271944
O O4 0.893258 0.986243 0.434545
O O5 0.676918 0.081506 0.814951
O O6 0.792768 0.070121 0.586244
O O7 0.803732 0.990331 0.789297
O O8 0.663795 0.988554 0.628690
O O9 0.380321 0.391610 0.327640
O O10 0.417032 0.420853 0.060560
O O11 0.215916 0.371297 0.405468
O O12 0.319555 0.285953 0.493676
O O13 0.294883 0.299795 0.212026
#
# Coordination Sequence:
#
# PCOD9429577 Si02
#       7
#     8   8   8   8   8   8   4
#     4   9  19  26  42  61  96 107 158 189 248 277
#     4   9  16  25  42  55  82 108 162 178 222 255
#     4   9  16  28  36  58  76 119 142 199 206 274
#     4  10  17  28  43  66  85 122 150 203 228 292
#     4  10  20  31  50  64  92 118 176 198 242 259
#     4  10  17  28  43  66  85 122 150 203 228 292
#     4  10  20  34  44  68  84 120 164 234 220 260
#
# _framework density 18.089148000000002
#
# number of rings (size 3 to 8) (size 9 to 14) (size 15 to 20)
#    0.000    2.462    3.077    0.462    0.000    2.462 
#    0.000    0.000    0.000    0.000    0.000    0.000 
#    0.000    0.000    0.000    0.000    0.000  606.154 
#
# Total GULP energy -289483.650437 kJ/mol
# GULP energy per Si atom -5566.993278 kJ/mol
# Density = 1.804798 g / cm^3
# Si number density = 18.089148 Si / 1000 Ang^3
#
#
#
# Elastic Constant Matrix: (Units=GPa)
#
#
# Indices 1 2 3 4 5 6 
#
# 1 58.5169 2.5022 25.3279 0.0000 0.0000 0.0000
# 2 2.5022 17.0283 9.9019 0.0000 0.0000 0.0000
# 3 25.3279 9.9019 113.3540 0.0000 0.0000 0.0000
# 4 0.0000 0.0000 0.0000 26.1298 0.0000 0.0000
# 5 0.0000 0.0000 0.0000 0.0000 34.8887 0.0000
# 6 0.0000 0.0000 0.0000 0.0000 0.0000 8.8714
#
#
#
# Elastic Compliance Matrix: (Units=1/GPa)
#
#
# Indices 1 2 3 4 5 6 
#
# 1 0.018921 -0.000339 -0.004198 0.000000 0.000000 0.000000
# 2 -0.000339 0.061874 -0.005329 0.000000 0.000000 0.000000
# 3 -0.004198 -0.005329 0.010225 0.000000 0.000000 0.000000
# 4 0.000000 0.000000 0.000000 0.038270 0.000000 0.000000
# 5 0.000000 0.000000 0.000000 0.000000 0.028663 0.000000
# 6 0.000000 0.000000 0.000000 0.000000 0.000000 0.112722
#
#
# Mechanical properties :
#
#
# Convention : Reuss Voigt Hill
#
# Bulk Modulus (GPa) = 14.02764 29.37370 21.70067
# Shear Modulus (GPa) = 15.91492 24.05578 19.98535
#
# Velocity S-wave (km/s) = 2.96937 3.65066 3.32750
# Velocity P-wave (km/s) = 4.41902 5.83467 5.17547
#
# Compressibility (1/GPa) = 0.07128785
#
# Stress axis : x y z
#
# Youngs Moduli (GPa) = 52.85236 16.16176 97.79516
#
# Poissons Ratio (x) = 0.00548 0.41055
# Poissons Ratio (y) = 0.01792 0.52117
# Poissons Ratio (z) = 0.22188 0.08613
#
# Static dielectric constant tensor:
#      x y z
#    x 1.666630 0.000000 0.000000 
#    y 0.000000 1.609560 0.000000 
#    z 0.000000 0.000000 1.722960 
# 
# From -- ./inp_files/3654.got.cif
#   From: 2010.05.17/outbox.cif.g08.bks.cpg/sg56_2_cif.got.tgz:3654.got - 2010.06.03 13:42:01.
