data_PCOD9429035
_publ_section_title
;
Structure prediction by ZEFSAII (Michael W. Deem and Ramdas Pophale) SiO2 
 PCOD9429035
Probable space group: P B A M
;
_chemical_formula_sum "Si O2"
_cell_formula_units_Z 56
_cell_length_a 23.379164
_cell_length_b 13.788999
_cell_length_c 9.014482
_cell_angle_alpha 90.000000
_cell_angle_beta 90.000000
_cell_angle_gamma 90.000000
_cell_volume 2906.046060
_symmetry_space_group_name_H-M "P B A M"
_symmetry_group_IT_number 55
_symmetry_cell_setting 'orthorhombic'
loop_
_space_group_symop_operation_xyz
x,y,z
-x,-y,z
1/2+x,1/2-y,-z
1/2-x,1/2+y,-z
-x,-y,-z
x,y,-z
1/2-x,1/2+y,z
1/2+x,1/2-y,z
loop_
_atom_site_type_symbol
_atom_site_label
_atom_site_fract_x
_atom_site_fract_y
_atom_site_fract_z
Si Si1 0.462021 0.214796 0.823837
Si Si2 0.662015 0.789559 0.323614
Si Si3 0.973638 0.894792 0.322453
Si Si4 0.235465 0.312493 0.824158
Si Si5 0.828397 0.509187 0.677202
Si Si6 0.941436 0.605919 0.329963
Si Si7 0.861805 0.799161 0.669274
O O1 0.400667 0.212801 0.746487
O O2 0.492949 0.313580 0.769497
O O3 0.503534 0.128425 0.767495
O O4 0.456823 0.212283 0.000000
O O5 0.658277 0.774844 0.500000
O O6 0.704370 0.712927 0.250128
O O7 0.686464 0.897879 0.296852
O O8 0.979320 0.873816 0.500000
O O9 0.905740 0.884656 0.289273
O O10 0.000000 0.000000 0.294793
O O11 0.210081 0.413176 0.761682
O O12 0.190375 0.229181 0.773567
O O13 0.239751 0.315649 0.000000
O O14 0.825097 0.529280 0.500000
O O15 0.895093 0.526669 0.719466
O O16 0.958764 0.587950 0.500000
O O17 0.903050 0.704336 0.330286
O O18 0.841050 0.813109 0.500000
#
# Coordination Sequence:
#
# PCOD9429035 Si02
#       7
#     8   8   8   8   8   8   8
#     4  11  22  35  53  83 121 153 183 231 298 348
#     4  11  23  41  62  82 112 154 200 242 283 338
#     4   9  18  35  58  83 111 149 197 241 280 334
#     4  11  22  37  58  84 116 149 184 237 298 349
#     4   9  20  39  63  86 107 146 199 242 280 337
#     4   8  15  32  57  82 109 141 183 228 272 330
#     4   8  15  31  55  79 105 143 190 232 272 328
#
# _framework density 19.27017
#
# number of rings (size 3 to 8) (size 9 to 14) (size 15 to 20)
#    0.000    2.429    0.000    4.714    0.000    7.143 
#    2.571    2.857    0.000    0.000    0.000    0.000 
#    0.000    0.000    0.000    0.000    0.000    0.000 
#
# Total GULP energy -312585.736459 kJ/mol
# GULP energy per Si atom -5581.888151 kJ/mol
# Density = 1.922631 g / cm^3
# Si number density = 19.270170 Si / 1000 Ang^3
#
#
#
# Elastic Constant Matrix: (Units=GPa)
#
#
# Indices 1 2 3 4 5 6 
#
# 1 97.2097 21.4900 65.7790 0.0000 0.0000 0.0000
# 2 21.4900 43.5456 35.2903 0.0000 0.0000 0.0000
# 3 65.7790 35.2903 109.6239 0.0000 0.0000 0.0000
# 4 0.0000 0.0000 0.0000 8.2138 0.0000 0.0000
# 5 0.0000 0.0000 0.0000 0.0000 83.1732 0.0000
# 6 0.0000 0.0000 0.0000 0.0000 0.0000 28.0523
#
#
#
# Elastic Compliance Matrix: (Units=1/GPa)
#
#
# Indices 1 2 3 4 5 6 
#
# 1 0.017320 -0.000169 -0.010338 0.000000 0.000000 0.000000
# 2 -0.000169 0.031072 -0.009901 0.000000 0.000000 0.000000
# 3 -0.010338 -0.009901 0.018513 0.000000 0.000000 0.000000
# 4 0.000000 0.000000 0.000000 0.121746 0.000000 0.000000
# 5 0.000000 0.000000 0.000000 0.000000 0.012023 0.000000
# 6 0.000000 0.000000 0.000000 0.000000 0.000000 0.035648
#
#
# Mechanical properties :
#
#
# Convention : Reuss Voigt Hill
#
# Bulk Modulus (GPa) = 38.33232 55.05531 46.69381
# Shear Modulus (GPa) = 17.49260 32.40919 24.95090
#
# Velocity S-wave (km/s) = 3.01617 4.10546 3.60223
# Velocity P-wave (km/s) = 5.66259 7.14880 6.44865
#
# Compressibility (1/GPa) = 0.02608765
#
# Stress axis : x y z
#
# Youngs Moduli (GPa) = 57.73639 32.18316 54.01613
#
# Poissons Ratio (x) = 0.00544 0.55844
# Poissons Ratio (y) = 0.00977 0.53483
# Poissons Ratio (z) = 0.59690 0.31865
#
# Static dielectric constant tensor:
#      x y z
#    x 1.683470 0.000000 0.000000 
#    y 0.000000 1.698070 0.000000 
#    z 0.000000 0.000000 1.635070 
# 
# From -- ./inp_files/8809.got.cif
#   From: 2010.05.17/outbox.cif.g08.bks.cpg/sg55_5_cif.got.tgz:8809.got - 2010.06.03 13:27:54.
