data_PCOD9429861
_publ_section_title
;
Structure prediction by ZEFSAII (Michael W. Deem and Ramdas Pophale) SiO2 
 PCOD9429861
Probable space group: P C C N
;
_chemical_formula_sum "Si O2"
_cell_formula_units_Z 52
_cell_length_a 9.416196
_cell_length_b 17.317025
_cell_length_c 15.670436
_cell_angle_alpha 90.000000
_cell_angle_beta 90.000000
_cell_angle_gamma 90.000000
_cell_volume 2555.229153
_symmetry_space_group_name_H-M "P C C N"
_symmetry_group_IT_number 56
_symmetry_cell_setting 'orthorhombic'
loop_
_space_group_symop_operation_xyz
x,y,z
1/2-x,1/2-y,z
1/2+x,-y,1/2-z
-x,1/2+y,1/2-z
-x,-y,-z
1/2+x,1/2+y,-z
1/2-x,y,1/2+z
x,1/2-y,1/2+z
loop_
_atom_site_type_symbol
_atom_site_label
_atom_site_fract_x
_atom_site_fract_y
_atom_site_fract_z
Si Si1 0.414763 0.388946 0.064013
Si Si2 0.269038 0.884692 0.744371
Si Si3 0.448851 0.337688 0.261687
Si Si4 0.075306 0.562715 0.579680
Si Si5 0.704296 0.943727 0.690602
Si Si6 0.750000 0.750000 0.441644
Si Si7 0.048525 0.322908 0.198925
O O1 0.425393 0.363170 0.162369
O O2 0.361423 0.477051 0.068301
O O3 0.325445 0.322837 0.015996
O O4 0.560552 0.396183 0.011179
O O5 0.115199 0.850222 0.727246
O O6 0.343297 0.892868 0.652670
O O7 0.379840 0.836785 0.802504
O O8 0.248776 0.970092 0.783846
O O9 0.345128 0.390774 0.317972
O O10 0.419506 0.246468 0.265690
O O11 0.913363 0.553417 0.616063
O O12 0.619766 0.901393 0.767895
O O13 0.628232 0.707180 0.384940
#
# Coordination Sequence:
#
# PCOD9429861 Si02
#       7
#     8   8   8   8   8   4   8
#     4  10  19  36  58  84 113 159 194 238 293 356
#     4  11  20  33  56  89 113 150 189 248 287 338
#     4  11  19  35  59  82 116 151 199 232 288 346
#     4  10  21  35  58  84 120 149 195 245 298 336
#     4  11  18  35  57  87 108 150 195 240 279 349
#     4  10  18  36  60  82 110 158 200 234 284 374
#     4  10  19  33  57  83 110 147 193 240 275 343
#
# _framework density 20.350425999999999
#
# number of rings (size 3 to 8) (size 9 to 14) (size 15 to 20)
#    0.000    1.538    6.154    1.385    0.000    0.000 
#    5.538    0.000    3.385    8.308    0.000    0.000 
#    0.000    0.000    0.000    0.000    0.000    0.000 
#
# Total GULP energy -289686.224627 kJ/mol
# GULP energy per Si atom -5570.888935 kJ/mol
# Density = 2.030411 g / cm^3
# Si number density = 20.350426 Si / 1000 Ang^3
#
#
#
# Elastic Constant Matrix: (Units=GPa)
#
#
# Indices 1 2 3 4 5 6 
#
# 1 108.5823 19.7275 -3.3150 0.0000 0.0000 0.0000
# 2 19.7275 96.6902 1.0511 0.0000 0.0000 0.0000
# 3 -3.3150 1.0511 29.9882 0.0000 0.0000 0.0000
# 4 0.0000 0.0000 0.0000 11.1099 0.0000 0.0000
# 5 0.0000 0.0000 0.0000 0.0000 12.2155 0.0000
# 6 0.0000 0.0000 0.0000 0.0000 0.0000 43.0123
#
#
#
# Elastic Compliance Matrix: (Units=1/GPa)
#
#
# Indices 1 2 3 4 5 6 
#
# 1 0.009602 -0.001971 0.001131 0.000000 0.000000 0.000000
# 2 -0.001971 0.010751 -0.000595 0.000000 0.000000 0.000000
# 3 0.001131 -0.000595 0.033492 0.000000 0.000000 0.000000
# 4 0.000000 0.000000 0.000000 0.090010 0.000000 0.000000
# 5 0.000000 0.000000 0.000000 0.000000 0.081863 0.000000
# 6 0.000000 0.000000 0.000000 0.000000 0.000000 0.023249
#
#
# Mechanical properties :
#
#
# Convention : Reuss Voigt Hill
#
# Bulk Modulus (GPa) = 19.61772 30.02088 24.81930
# Shear Modulus (GPa) = 18.59909 27.78733 23.19321
#
# Velocity S-wave (km/s) = 3.02643 3.69920 3.37959
# Velocity P-wave (km/s) = 4.67688 5.74712 5.23940
#
# Compressibility (1/GPa) = 0.05097433
#
# Stress axis : x y z
#
# Youngs Moduli (GPa) = 104.14174 93.01454 29.85763
#
# Poissons Ratio (x) = 0.18337 -0.03376
# Poissons Ratio (y) = 0.20531 0.01776
# Poissons Ratio (z) = -0.11774 0.05532
#
# Static dielectric constant tensor:
#      x y z
#    x 1.771220 0.000000 0.000000 
#    y 0.000000 1.759480 0.000000 
#    z 0.000000 0.000000 1.761370 
# 
# From -- ./inp_files/15044.got.cif
#   From: 2010.05.17/outbox.cif.g08.bks.cpg/sg56_8_cif.got.tgz:15044.got - 2010.06.03 13:42:01.
