data_PCOD9429625
_publ_section_title
;
Structure prediction by ZEFSAII (Michael W. Deem and Ramdas Pophale) SiO2 
 PCOD9429625
Probable space group: P C C N
;
_chemical_formula_sum "Si O2"
_cell_formula_units_Z 56
_cell_length_a 5.097449
_cell_length_b 32.548894
_cell_length_c 16.836997
_cell_angle_alpha 90.000000
_cell_angle_beta 90.000000
_cell_angle_gamma 90.000000
_cell_volume 2793.532703
_symmetry_space_group_name_H-M "P C C N"
_symmetry_group_IT_number 56
_symmetry_cell_setting 'orthorhombic'
loop_
_space_group_symop_operation_xyz
x,y,z
1/2-x,1/2-y,z
1/2+x,-y,1/2-z
-x,1/2+y,1/2-z
-x,-y,-z
1/2+x,1/2+y,-z
1/2-x,y,1/2+z
x,1/2-y,1/2+z
loop_
_atom_site_type_symbol
_atom_site_label
_atom_site_fract_x
_atom_site_fract_y
_atom_site_fract_z
Si Si1 0.783729 0.418773 0.906659
Si Si2 0.783192 0.906690 0.981900
Si Si3 0.296428 0.296715 0.375133
Si Si4 0.188256 0.314482 0.058238
Si Si5 0.750223 0.993828 0.943750
Si Si6 0.202925 0.840382 0.191624
Si Si7 0.312270 0.794797 0.347112
O O1 0.562749 0.408061 0.973188
O O2 0.063013 0.411823 0.949373
O O3 0.753872 0.467096 0.885478
O O4 0.746202 0.387054 0.835420
O O5 0.731580 0.863431 0.941061
O O6 0.757703 0.945737 0.922736
O O7 0.250000 0.250000 0.349082
O O8 0.250755 0.300096 0.469246
O O9 0.587493 0.312837 0.357142
O O10 0.087873 0.325732 0.331056
O O11 0.395448 0.295705 0.119461
O O12 0.894834 0.302381 0.082298
O O13 0.500000 0.000000 0.000000
O O14 0.000000 0.000000 0.000000
O O15 0.262416 0.829770 0.282377
O O16 0.250000 0.750000 0.311600
#
# Coordination Sequence:
#
# PCOD9429625 Si02
#       7
#     8   8   8   8   8   8   8
#     4  10  17  34  56  86 112 140 183 228 282 328
#     4  10  18  34  55  86 112 140 183 228 281 328
#     4  12  23  38  60  84 107 145 193 248 285 318
#     4  12  23  40  60  82 115 149 191 239 280 341
#     4   8  16  27  52  82 114 138 168 226 278 333
#     4  12  23  40  60  83 115 148 192 239 279 341
#     4  12  26  41  55  79 115 158 192 228 289 345
#
# _framework density 20.046302000000001
#
# number of rings (size 3 to 8) (size 9 to 14) (size 15 to 20)
#    0.000    1.143    2.857    5.143    0.000    0.000 
#    0.000    0.000    0.000    1.714    0.000    0.000 
#    0.000    0.000    0.000    0.000    0.000    0.000 
#
# Total GULP energy -312824.387411 kJ/mol
# GULP energy per Si atom -5586.149775 kJ/mol
# Density = 2.000068 g / cm^3
# Si number density = 20.046302 Si / 1000 Ang^3
#
#
#
# Elastic Constant Matrix: (Units=GPa)
#
#
# Indices 1 2 3 4 5 6 
#
# 1 69.6043 -0.4980 -1.8638 0.0000 0.0000 0.0000
# 2 -0.4980 103.5092 -24.0677 0.0000 0.0000 0.0000
# 3 -1.8638 -24.0677 29.1943 0.0000 0.0000 0.0000
# 4 0.0000 0.0000 0.0000 -43.8165 0.0000 0.0000
# 5 0.0000 0.0000 0.0000 0.0000 19.7083 0.0000
# 6 0.0000 0.0000 0.0000 0.0000 0.0000 27.1103
#
#
#
# Elastic Compliance Matrix: (Units=1/GPa)
#
#
# Indices 1 2 3 4 5 6 
#
# 1 0.014402 0.000350 0.001208 0.000000 0.000000 0.000000
# 2 0.000350 0.011961 0.009883 0.000000 0.000000 0.000000
# 3 0.001208 0.009883 0.042478 0.000000 0.000000 0.000000
# 4 0.000000 0.000000 0.000000 -0.022822 0.000000 0.000000
# 5 0.000000 0.000000 0.000000 0.000000 0.050740 0.000000
# 6 0.000000 0.000000 0.000000 0.000000 0.000000 0.036886
#
#
# Mechanical properties :
#
#
# Convention : Reuss Voigt Hill
#
# Bulk Modulus (GPa) = 10.90255 16.60543 13.75399
# Shear Modulus (GPa) = 35.37673 15.84957 25.61315
#
# Velocity S-wave (km/s) = 4.20545 2.81490 3.57837
# Velocity P-wave (km/s) = 5.38810 4.34354 4.89377
#
# Compressibility (1/GPa) = 0.09172164
#
# Stress axis : x y z
#
# Youngs Moduli (GPa) = 69.43579 83.60834 23.54186
#
# Poissons Ratio (x) = -0.02928 -0.02844
# Poissons Ratio (y) = -0.02432 -0.23265
# Poissons Ratio (z) = -0.08389 -0.82627
#
# Static dielectric constant tensor:
#      x y z
#    x 1.684040 0.000000 0.000000 
#    y 0.000000 1.745140 0.000000 
#    z 0.000000 0.000000 1.668540 
# 
# From -- ./inp_files/9836.got.cif
#   From: 2010.05.17/outbox.cif.g08.bks.cpg/sg56_5_cif.got.tgz:9836.got - 2010.06.03 13:42:01.
