data_PCOD9429779
_publ_section_title
;
Structure prediction by ZEFSAII (Michael W. Deem and Ramdas Pophale) SiO2 
 PCOD9429779
Probable space group: P C C N
;
_chemical_formula_sum "Si O2"
_cell_formula_units_Z 48
_cell_length_a 8.317054
_cell_length_b 26.425276
_cell_length_c 9.444784
_cell_angle_alpha 90.000000
_cell_angle_beta 90.000000
_cell_angle_gamma 90.000000
_cell_volume 2075.778854
_symmetry_space_group_name_H-M "P C C N"
_symmetry_group_IT_number 56
_symmetry_cell_setting 'orthorhombic'
loop_
_space_group_symop_operation_xyz
x,y,z
1/2-x,1/2-y,z
1/2+x,-y,1/2-z
-x,1/2+y,1/2-z
-x,-y,-z
1/2+x,1/2+y,-z
1/2-x,y,1/2+z
x,1/2-y,1/2+z
loop_
_atom_site_type_symbol
_atom_site_label
_atom_site_fract_x
_atom_site_fract_y
_atom_site_fract_z
Si Si1 0.467274 0.190109 0.285054
Si Si2 0.844569 0.530723 0.954983
Si Si3 0.663125 0.069176 0.491024
Si Si4 0.572294 0.276270 0.098492
Si Si5 0.206855 0.629897 0.245494
Si Si6 0.832251 0.907891 0.167041
O O1 0.459439 0.236226 0.177552
O O2 0.513103 0.209584 0.442062
O O3 0.617249 0.155034 0.235059
O O4 0.321738 0.150937 0.293437
O O5 0.704667 0.488328 0.955927
O O6 0.854251 0.558013 0.805198
O O7 0.813467 0.572142 0.075007
O O8 0.000000 0.500000 0.000000
O O9 0.786217 0.108100 0.412712
O O10 0.679865 0.081440 0.655412
O O11 0.488512 0.083956 0.432800
O O12 0.750000 0.250000 0.086538
O O13 0.591537 0.325889 0.197774
#
# Coordination Sequence:
#
# PCOD9429779 Si02
#       6
#     8   8   8   8   8   8
#     4  10  21  36  59  96 134 178 222 281 340 402
#     4  12  25  44  68  96 132 180 228 282 348 426
#     4  11  22  39  65 100 135 172 218 286 352 411
#     4  10  18  33  59  96 136 173 219 277 333 405
#     4  10  18  33  58  97 137 167 216 271 342 402
#     4  11  24  45  64  98 133 174 230 285 349 408
#
# _framework density 23.123851999999999
#
# number of rings (size 3 to 8) (size 9 to 14) (size 15 to 20)
#    0.000    1.333    3.333    6.000    2.333    1.333 
#    0.000    0.000    0.000    3.000    0.000    0.000 
#    0.000    0.000    0.000    0.000    0.000    0.000 
#
# Total GULP energy -268529.276896 kJ/mol
# GULP energy per Si atom -5594.359935 kJ/mol
# Density = 2.307122 g / cm^3
# Si number density = 23.123852 Si / 1000 Ang^3
#
#
#
# Elastic Constant Matrix: (Units=GPa)
#
#
# Indices 1 2 3 4 5 6 
#
# 1 51.0723 20.0567 24.9678 0.0000 0.0000 0.0000
# 2 20.0567 100.8435 12.8160 0.0000 0.0000 0.0000
# 3 24.9678 12.8160 65.1685 0.0000 0.0000 0.0000
# 4 0.0000 0.0000 0.0000 41.2152 0.0000 0.0000
# 5 0.0000 0.0000 0.0000 0.0000 11.1240 0.0000
# 6 0.0000 0.0000 0.0000 0.0000 0.0000 32.9950
#
#
#
# Elastic Compliance Matrix: (Units=1/GPa)
#
#
# Indices 1 2 3 4 5 6 
#
# 1 0.025528 -0.003933 -0.009007 0.000000 0.000000 0.000000
# 2 -0.003933 0.010776 -0.000613 0.000000 0.000000 0.000000
# 3 -0.009007 -0.000613 0.018916 0.000000 0.000000 0.000000
# 4 0.000000 0.000000 0.000000 0.024263 0.000000 0.000000
# 5 0.000000 0.000000 0.000000 0.000000 0.089896 0.000000
# 6 0.000000 0.000000 0.000000 0.000000 0.000000 0.030308
#
#
# Mechanical properties :
#
#
# Convention : Reuss Voigt Hill
#
# Bulk Modulus (GPa) = 35.56700 36.97392 36.27046
# Shear Modulus (GPa) = 21.17186 27.68310 24.42748
#
# Velocity S-wave (km/s) = 3.02915 3.46376 3.25372
# Velocity P-wave (km/s) = 5.25821 5.65872 5.46214
#
# Compressibility (1/GPa) = 0.02811595
#
# Stress axis : x y z
#
# Youngs Moduli (GPa) = 39.17315 92.79580 52.86496
#
# Poissons Ratio (x) = 0.36492 0.47615
# Poissons Ratio (y) = 0.15405 0.03239
# Poissons Ratio (z) = 0.35283 0.05685
#
# Static dielectric constant tensor:
#      x y z
#    x 1.935420 0.000000 0.000000 
#    y 0.000000 1.893370 0.000000 
#    z 0.000000 0.000000 1.782290 
# 
# From -- ./inp_files/2250.got.cif
#   From: 2010.05.17/outbox.cif.g08.bks.cpg/sg56_2_cif.got.tgz:2250.got - 2010.06.03 13:42:01.
