data_PCOD9429285
_publ_section_title
;
Structure prediction by ZEFSAII (Michael W. Deem and Ramdas Pophale) SiO2 
 PCOD9429285
Probable space group: P B A M
;
_chemical_formula_sum "Si O2"
_cell_formula_units_Z 64
_cell_length_a 18.000000
_cell_length_b 21.000000
_cell_length_c 9.000000
_cell_angle_alpha 90.000000
_cell_angle_beta 90.000000
_cell_angle_gamma 90.000000
_cell_volume 3402.000000
_symmetry_space_group_name_H-M "P B A M"
_symmetry_group_IT_number 55
_symmetry_cell_setting 'orthorhombic'
loop_
_space_group_symop_operation_xyz
x,y,z
-x,-y,z
1/2+x,1/2-y,-z
1/2-x,1/2+y,-z
-x,-y,-z
x,y,-z
1/2-x,1/2+y,z
1/2+x,1/2-y,z
loop_
_atom_site_type_symbol
_atom_site_label
_atom_site_fract_x
_atom_site_fract_y
_atom_site_fract_z
Si Si1 0.791707 0.409250 0.822521
Si Si2 0.054757 0.558665 0.320587
Si Si3 0.191406 0.739176 0.820756
Si Si4 0.289176 0.850614 0.319216
Si Si5 0.541921 0.704477 0.319390
Si Si6 0.458373 0.439671 0.673537
Si Si7 0.287731 0.481350 0.327880
Si Si8 0.455503 0.824049 0.320661
O O1 0.865589 0.441982 0.755724
O O2 0.790651 0.334354 0.777953
O O3 0.726226 0.454003 0.761266
O O4 0.793382 0.411156 0.000000
O O5 0.064205 0.558737 0.500000
O O6 0.000000 0.500000 0.285181
O O7 0.015916 0.624477 0.271212
O O8 0.247779 0.791103 0.754245
O O9 0.113231 0.761989 0.752528
O O10 0.189797 0.742448 0.000000
O O11 0.281312 0.846460 0.500000
O O12 0.258036 0.919629 0.274195
O O13 0.374634 0.845827 0.275154
O O14 0.551742 0.703296 0.500000
O O15 0.532046 0.631870 0.266850
O O16 0.474817 0.751826 0.280647
O O17 0.500000 0.500000 0.743582
O O18 0.483183 0.435575 0.500000
O O19 0.372219 0.457881 0.675705
O O20 0.266867 0.493351 0.500000
O O21 0.456968 0.826679 0.500000
#
# Coordination Sequence:
#
# PCOD9429285 Si02
#       8
#     8   8   8   8   8   8   8   8
#     4  11  24  38  54  81 118 157 194 233 278 342
#     4  10  19  34  57  83 112 146 185 234 286 337
#     4  11  23  38  56  81 114 156 197 234 280 341
#     4  10  20  37  60  89 116 146 191 240 292 349
#     4  10  18  35  60  83 110 148 188 237 291 340
#     4   9  18  33  57  88 115 141 185 241 292 342
#     4  10  20  36  59  85 116 154 193 241 294 343
#     4   9  18  31  55  87 113 139 184 238 287 339
#
# _framework density 18.812463000000001
#
# number of rings (size 3 to 8) (size 9 to 14) (size 15 to 20)
#    0.000    2.000    2.500    1.500    0.000    5.250 
#    0.000    3.750    0.000    1.500    0.000    0.000 
#    0.000    0.000    0.000    0.000    0.000    0.000 
#
# Total GULP energy -356920.492030 kJ/mol
# GULP energy per Si atom -5576.882688 kJ/mol
# Density = 1.876965 g / cm^3
# Si number density = 18.812463 Si / 1000 Ang^3
#
#
#
# Elastic Constant Matrix: (Units=GPa)
#
#
# Indices 1 2 3 4 5 6 
#
# 1 26.6746 14.1827 -3.3602 0.0000 0.0000 0.0000
# 2 14.1827 154.7066 22.4639 0.0000 0.0000 0.0000
# 3 -3.3602 22.4639 21.3075 0.0000 0.0000 0.0000
# 4 0.0000 0.0000 0.0000 23.9151 0.0000 0.0000
# 5 0.0000 0.0000 0.0000 0.0000 0.6038 0.0000
# 6 0.0000 0.0000 0.0000 0.0000 0.0000 38.9649
#
#
#
# Elastic Compliance Matrix: (Units=1/GPa)
#
#
# Indices 1 2 3 4 5 6 
#
# 1 0.042111 -0.005697 0.012647 0.000000 0.000000 0.000000
# 2 -0.005697 0.008403 -0.009757 0.000000 0.000000 0.000000
# 3 0.012647 -0.009757 0.059213 0.000000 0.000000 0.000000
# 4 0.000000 0.000000 0.000000 0.041815 0.000000 0.000000
# 5 0.000000 0.000000 0.000000 0.000000 1.656102 0.000000
# 6 0.000000 0.000000 0.000000 0.000000 0.000000 0.025664
#
#
# Mechanical properties :
#
#
# Convention : Reuss Voigt Hill
#
# Bulk Modulus (GPa) = 9.60497 29.91795 19.76146
# Shear Modulus (GPa) = 2.66862 23.99025 13.32943
#
# Velocity S-wave (km/s) = 1.19232 3.57491 2.66473
# Velocity P-wave (km/s) = 2.64806 5.74263 4.47158
#
# Compressibility (1/GPa) = 0.10411280
#
# Stress axis : x y z
#
# Youngs Moduli (GPa) = 23.74674 119.00622 16.88809
#
# Poissons Ratio (x) = 0.67797 -0.21358
# Poissons Ratio (y) = 0.13528 0.16478
# Poissons Ratio (z) = -0.30033 1.16119
#
# Static dielectric constant tensor:
#      x y z
#    x 1.697890 0.000000 0.000000 
#    y 0.000000 1.693220 0.000000 
#    z 0.000000 0.000000 1.635010 
# 
# From -- ./inp_files/8067.got.cif
#   From: 2010.05.17/outbox.ucp.g08.bks.cvg/sg55_5_cif.got.tgz:8067.got - 2010.06.11 16:36:00.
