data_PCOD9429789
_publ_section_title
;
Structure prediction by ZEFSAII (Michael W. Deem and Ramdas Pophale) SiO2 
 PCOD9429789
Probable space group: P C C N
;
_chemical_formula_sum "Si O2"
_cell_formula_units_Z 56
_cell_length_a 15.738470
_cell_length_b 12.307806
_cell_length_c 16.497920
_cell_angle_alpha 90.000000
_cell_angle_beta 90.000000
_cell_angle_gamma 90.000000
_cell_volume 3195.746677
_symmetry_space_group_name_H-M "P C C N"
_symmetry_group_IT_number 56
_symmetry_cell_setting 'orthorhombic'
loop_
_space_group_symop_operation_xyz
x,y,z
1/2-x,1/2-y,z
1/2+x,-y,1/2-z
-x,1/2+y,1/2-z
-x,-y,-z
1/2+x,1/2+y,-z
1/2-x,y,1/2+z
x,1/2-y,1/2+z
loop_
_atom_site_type_symbol
_atom_site_label
_atom_site_fract_x
_atom_site_fract_y
_atom_site_fract_z
Si Si1 0.469836 0.202492 0.623843
Si Si2 0.589070 0.127849 0.200502
Si Si3 0.750000 0.250000 0.128240
Si Si4 0.750000 0.750000 0.128240
Si Si5 0.469836 0.702493 0.123842
Si Si6 0.089070 0.127849 0.299498
Si Si7 0.375557 0.623230 0.979321
Si Si8 0.624443 0.623230 0.020679
O O1 0.514323 0.316362 0.647005
O O2 0.435770 0.150508 0.706335
O O3 0.545477 0.132752 0.583079
O O4 0.398248 0.201493 0.554578
O O5 0.675947 0.191579 0.179319
O O6 0.564230 0.150508 0.293665
O O7 0.596968 0.000000 0.185533
O O8 0.705409 0.337890 0.070352
O O9 0.675947 0.808421 0.179319
O O10 0.705409 0.662110 0.070352
O O11 0.514324 0.816362 0.147005
O O12 0.545477 0.632752 0.083078
O O13 0.398248 0.701494 0.054578
O O14 0.367990 0.500000 0.008602
#
# Coordination Sequence:
#
# PCOD9429789 Si02
#       8
#     8   8   4   4   8   8   8   8
#     4   9  19  33  55  76  95 129 177 205 241 303
#     4  10  19  35  53  76 104 131 162 211 254 291
#     4  10  22  32  48  76 106 134 168 202 250 306
#     4  10  22  32  48  76 106 134 168 202 250 306
#     4   9  19  33  55  76  95 129 177 205 241 303
#     4  10  19  35  53  76 104 131 162 211 254 291
#     4  10  18  34  53  73 100 135 170 209 248 296
#     4  10  18  34  53  73 100 135 170 209 248 296
#
# _framework density 17.523292000000001
#
# number of rings (size 3 to 8) (size 9 to 14) (size 15 to 20)
#    0.000    2.286    0.000    4.286    0.000    1.143 
#    0.000   14.286    0.000    0.000    0.000    0.000 
#    0.000    0.000    0.000    0.000    0.000    0.000 
#
# Total GULP energy -312121.533916 kJ/mol
# GULP energy per Si atom -5573.598820 kJ/mol
# Density = 1.748341 g / cm^3
# Si number density = 17.523292 Si / 1000 Ang^3
#
#
#
# Elastic Constant Matrix: (Units=GPa)
#
#
# Indices 1 2 3 4 5 6 
#
# 1 62.1325 33.4808 46.7264 0.0000 0.0000 0.0000
# 2 33.4808 113.9984 42.2233 0.0000 0.0000 0.0000
# 3 46.7264 42.2233 113.4468 0.0000 0.0000 0.0000
# 4 0.0000 0.0000 0.0000 15.0687 0.0000 0.0000
# 5 0.0000 0.0000 0.0000 0.0000 20.6428 0.0000
# 6 0.0000 0.0000 0.0000 0.0000 0.0000 14.6120
#
#
#
# Elastic Compliance Matrix: (Units=1/GPa)
#
#
# Indices 1 2 3 4 5 6 
#
# 1 0.024843 -0.004067 -0.008719 0.000000 0.000000 0.000000
# 2 -0.004067 0.010840 -0.002360 0.000000 0.000000 0.000000
# 3 -0.008719 -0.002360 0.013284 0.000000 0.000000 0.000000
# 4 0.000000 0.000000 0.000000 0.066363 0.000000 0.000000
# 5 0.000000 0.000000 0.000000 0.000000 0.048443 0.000000
# 6 0.000000 0.000000 0.000000 0.000000 0.000000 0.068437
#
#
# Mechanical properties :
#
#
# Convention : Reuss Voigt Hill
#
# Bulk Modulus (GPa) = 53.54182 59.38207 56.46195
# Shear Modulus (GPa) = 18.60629 21.20783 19.90706
#
# Velocity S-wave (km/s) = 3.26207 3.48266 3.37417
# Velocity P-wave (km/s) = 6.69396 7.08046 6.88992
#
# Compressibility (1/GPa) = 0.01867699
#
# Stress axis : x y z
#
# Youngs Moduli (GPa) = 40.25273 92.24699 75.27890
#
# Poissons Ratio (x) = 0.37517 0.65633
# Poissons Ratio (y) = 0.16371 0.17762
# Poissons Ratio (z) = 0.35095 0.21766
#
# Static dielectric constant tensor:
#      x y z
#    x 1.606760 0.000000 0.000000 
#    y 0.000000 1.584790 0.000000 
#    z 0.000000 0.000000 1.590100 
# 
# From -- ./inp_files/16712.got.cif
#   From: 2010.05.17/outbox.cif.g08.bks.cpg/sg56_9_cif.got.tgz:16712.got - 2010.06.03 13:42:01.
