data_PCOD9429248
_publ_section_title
;
Structure prediction by ZEFSAII (Michael W. Deem and Ramdas Pophale) SiO2 
 PCOD9429248
Probable space group: P B A M
;
_chemical_formula_sum "Si O2"
_cell_formula_units_Z 40
_cell_length_a 29.490312
_cell_length_b 6.972940
_cell_length_c 8.076606
_cell_angle_alpha 90.000000
_cell_angle_beta 90.000000
_cell_angle_gamma 90.000000
_cell_volume 1660.826221
_symmetry_space_group_name_H-M "P B A M"
_symmetry_group_IT_number 55
_symmetry_cell_setting 'orthorhombic'
loop_
_space_group_symop_operation_xyz
x,y,z
-x,-y,z
1/2+x,1/2-y,-z
1/2-x,1/2+y,-z
-x,-y,-z
x,y,-z
1/2-x,1/2+y,z
1/2+x,1/2-y,z
loop_
_atom_site_type_symbol
_atom_site_label
_atom_site_fract_x
_atom_site_fract_y
_atom_site_fract_z
Si Si1 0.686784 0.939180 0.310047
Si Si2 0.037484 0.717845 0.500000
Si Si3 0.214137 0.004081 0.689553
Si Si4 0.621107 0.384513 0.183580
Si Si5 0.436524 0.672006 0.500000
Si Si6 0.406105 0.161617 0.818941
O O1 0.680069 0.006800 0.500000
O O2 0.695446 0.710493 0.319541
O O3 0.640628 0.954852 0.208762
O O4 0.735047 0.009513 0.240726
O O5 0.060563 0.635745 0.334918
O O6 0.983346 0.712852 0.500000
O O7 0.050308 0.945524 0.500000
O O8 0.218935 0.076423 0.500000
O O9 0.175119 0.122885 0.780688
O O10 0.593122 0.298456 0.335628
O O11 0.607755 0.612014 0.183265
O O12 0.610087 0.313849 0.000000
O O13 0.425749 0.121456 0.000000
#
# Coordination Sequence:
#
# PCOD9429248 Si02
#       6
#     8   4   8   8   4   8
#     4   9  16  27  43  62  87 118 148 178 213 255
#     4   9  16  26  39  56  81 111 143 179 216 257
#     4   9  16  27  43  62  87 118 148 178 213 255
#     4   9  16  26  40  58  82 112 143 175 215 259
#     4   9  16  26  39  56  81 111 143 179 216 257
#     4   9  16  26  40  58  82 112 143 175 215 259
#
# _framework density 24.084399000000001
#
# number of rings (size 3 to 8) (size 9 to 14) (size 15 to 20)
#    0.000    3.000    2.000    0.000    0.000    1.600 
#    0.000    4.000    0.000    0.000    0.000    0.000 
#    0.000    3.200    0.000    3.600    0.000    4.000 
#
# Total GULP energy -223709.654081 kJ/mol
# GULP energy per Si atom -5592.741352 kJ/mol
# Density = 2.402958 g / cm^3
# Si number density = 24.084399 Si / 1000 Ang^3
#
#
#
# Elastic Constant Matrix: (Units=GPa)
#
#
# Indices 1 2 3 4 5 6 
#
# 1 162.9301 29.2743 113.2691 0.0000 0.0000 0.0000
# 2 29.2743 77.6414 19.1877 0.0000 0.0000 0.0000
# 3 113.2691 19.1877 200.1520 0.0000 0.0000 0.0000
# 4 0.0000 0.0000 0.0000 9.3564 0.0000 0.0000
# 5 0.0000 0.0000 0.0000 0.0000 -6.6747 0.0000
# 6 0.0000 0.0000 0.0000 0.0000 0.0000 42.0207
#
#
#
# Elastic Compliance Matrix: (Units=1/GPa)
#
#
# Indices 1 2 3 4 5 6 
#
# 1 0.010598 -0.002575 -0.005751 0.000000 0.000000 0.000000
# 2 -0.002575 0.013818 0.000132 0.000000 0.000000 0.000000
# 3 -0.005751 0.000132 0.008238 0.000000 0.000000 0.000000
# 4 0.000000 0.000000 0.000000 0.106878 0.000000 0.000000
# 5 0.000000 0.000000 0.000000 0.000000 -0.149821 0.000000
# 6 0.000000 0.000000 0.000000 0.000000 0.000000 0.023798
#
#
# Mechanical properties :
#
#
# Convention : Reuss Voigt Hill
#
# Bulk Modulus (GPa) = 61.47167 84.90950 73.19059
# Shear Modulus (GPa) = 141.56884 27.53999 84.55442
#
# Velocity S-wave (km/s) = 7.67515 3.38520 5.93159
# Velocity P-wave (km/s) = 10.20405 7.11414 8.79584
#
# Compressibility (1/GPa) = 0.01626766
#
# Stress axis : x y z
#
# Youngs Moduli (GPa) = 94.35537 72.37039 121.38853
#
# Poissons Ratio (x) = 0.18634 0.69809
# Poissons Ratio (y) = 0.24294 -0.01608
# Poissons Ratio (z) = 0.54263 -0.00959
#
# Static dielectric constant tensor:
#      x y z
#    x 1.879420 0.000000 0.000000 
#    y 0.000000 2.020090 0.000000 
#    z 0.000000 0.000000 1.851250 
# 
# From -- ./inp_files/2547.got.cif
#   From: 2010.05.17/outbox.cif.g08.bks.cpg/sg55_2_cif.got.tgz:2547.got - 2010.06.03 13:27:54.
