data_PCOD9429471
_publ_section_title
;
Structure prediction by ZEFSAII (Michael W. Deem and Ramdas Pophale) SiO2 
 PCOD9429471
Probable space group: P B A M
;
_chemical_formula_sum "Si O2"
_cell_formula_units_Z 40
_cell_length_a 18.000000
_cell_length_b 12.000000
_cell_length_c 9.000000
_cell_angle_alpha 90.000000
_cell_angle_beta 90.000000
_cell_angle_gamma 90.000000
_cell_volume 1944.000000
_symmetry_space_group_name_H-M "P B A M"
_symmetry_group_IT_number 55
_symmetry_cell_setting 'orthorhombic'
loop_
_space_group_symop_operation_xyz
x,y,z
-x,-y,z
1/2+x,1/2-y,-z
1/2-x,1/2+y,-z
-x,-y,-z
x,y,-z
1/2-x,1/2+y,z
1/2+x,1/2-y,z
loop_
_atom_site_type_symbol
_atom_site_label
_atom_site_fract_x
_atom_site_fract_y
_atom_site_fract_z
Si Si1 0.620416 0.181073 0.831369
Si Si2 0.548345 0.766210 0.172223
Si Si3 0.712129 0.398991 0.826130
Si Si4 0.366233 0.045252 0.673712
Si Si5 0.583633 0.543297 0.676189
O O1 0.540666 0.240460 0.817623
O O2 0.684233 0.272151 0.814499
O O3 0.625851 0.083952 0.713162
O O4 0.624071 0.134407 0.000000
O O5 0.574028 0.884774 0.233395
O O6 0.585124 0.670600 0.270587
O O7 0.569692 0.753085 0.000000
O O8 0.785535 0.418103 0.731377
O O9 0.645398 0.474739 0.764495
O O10 0.725688 0.423859 0.000000
O O11 0.375429 0.065872 0.500000
O O12 0.500000 0.500000 0.708308
O O13 0.596301 0.533130 0.500000
#
# Coordination Sequence:
#
# PCOD9429471 Si02
#       5
#     8   8   8   8   8
#     4  10  23  44  69  95 125 169 221 268 317 383
#     4  11  23  43  70  97 128 169 221 268 316 387
#     4  11  24  44  68  94 128 173 222 267 318 382
#     4  12  27  43  64  96 135 173 213 268 333 388
#     4  11  23  40  65  98 134 168 209 265 326 384
#
# _framework density 20.576132000000001
#
# number of rings (size 3 to 8) (size 9 to 14) (size 15 to 20)
#    0.000    1.000    2.000    4.200    2.800    6.400 
#    0.000    0.000    0.000    0.000    0.000    0.000 
#    0.000    0.000    0.000    0.000    0.000    0.000 
#
# Total GULP energy -223800.367218 kJ/mol
# GULP energy per Si atom -5595.009180 kJ/mol
# Density = 2.052930 g / cm^3
# Si number density = 20.576132 Si / 1000 Ang^3
#
#
#
# Elastic Constant Matrix: (Units=GPa)
#
#
# Indices 1 2 3 4 5 6 
#
# 1 26.0753 -8.2446 0.4122 0.0000 0.0000 0.0000
# 2 -8.2446 53.5627 7.7284 0.0000 0.0000 0.0000
# 3 0.4122 7.7284 25.6604 0.0000 0.0000 0.0000
# 4 0.0000 0.0000 0.0000 -63.6023 0.0000 0.0000
# 5 0.0000 0.0000 0.0000 0.0000 25.9575 0.0000
# 6 0.0000 0.0000 0.0000 0.0000 0.0000 37.2408
#
#
#
# Elastic Compliance Matrix: (Units=1/GPa)
#
#
# Indices 1 2 3 4 5 6 
#
# 1 0.040483 0.006613 -0.002642 0.000000 0.000000 0.000000
# 2 0.006613 0.020598 -0.006310 0.000000 0.000000 0.000000
# 3 -0.002642 -0.006310 0.040913 0.000000 0.000000 0.000000
# 4 0.000000 0.000000 0.000000 -0.015723 0.000000 0.000000
# 5 0.000000 0.000000 0.000000 0.000000 0.038525 0.000000
# 6 0.000000 0.000000 0.000000 0.000000 0.000000 0.026852
#
#
# Mechanical properties :
#
#
# Convention : Reuss Voigt Hill
#
# Bulk Modulus (GPa) = 10.27582 11.67671 10.97626
# Shear Modulus (GPa) = 26.48785 6.94603 16.71694
#
# Velocity S-wave (km/s) = 3.59180 1.83932 2.85343
# Velocity P-wave (km/s) = 4.71235 3.19343 4.02519
#
# Compressibility (1/GPa) = 0.09731586
#
# Stress axis : x y z
#
# Youngs Moduli (GPa) = 24.70171 48.54839 24.44183
#
# Poissons Ratio (x) = -0.32103 0.06457
# Poissons Ratio (y) = -0.16334 0.15423
# Poissons Ratio (z) = 0.06526 0.30634
#
# Static dielectric constant tensor:
#      x y z
#    x 1.712830 0.000000 0.000000 
#    y 0.000000 1.725270 0.000000 
#    z 0.000000 0.000000 1.688310 
# 
# From -- ./inp_files/3603.got.cif
#   From: 2010.05.17/outbox.ucp.g08.bks.cvg/sg55_2_cif.got.tgz:3603.got - 2010.06.11 16:36:00.
