data_PCOD9429127
_publ_section_title
;
Structure prediction by ZEFSAII (Michael W. Deem and Ramdas Pophale) SiO2 
 PCOD9429127
Probable space group: P B A M
;
_chemical_formula_sum "Si O2"
_cell_formula_units_Z 56
_cell_length_a 8.571412
_cell_length_b 13.474672
_cell_length_c 22.036820
_cell_angle_alpha 90.000000
_cell_angle_beta 90.000000
_cell_angle_gamma 90.000000
_cell_volume 2545.185834
_symmetry_space_group_name_H-M "P B A M"
_symmetry_group_IT_number 55
_symmetry_cell_setting 'orthorhombic'
loop_
_space_group_symop_operation_xyz
x,y,z
-x,-y,z
1/2+x,1/2-y,-z
1/2-x,1/2+y,-z
-x,-y,-z
x,y,-z
1/2-x,1/2+y,z
1/2+x,1/2-y,z
loop_
_atom_site_type_symbol
_atom_site_label
_atom_site_fract_x
_atom_site_fract_y
_atom_site_fract_z
Si Si1 0.744791 0.462702 0.568440
Si Si2 0.900434 0.828242 0.665915
Si Si3 0.196084 0.338274 0.927999
Si Si4 0.320037 0.474446 0.832216
Si Si5 0.429963 0.841407 0.432800
Si Si6 0.371836 0.168051 0.861625
Si Si7 0.675896 0.700715 0.750227
O O1 0.677101 0.451451 0.500000
O O2 0.652053 0.420678 0.625404
O O3 0.795768 0.576618 0.576114
O O4 0.906057 0.399495 0.568466
O O5 0.926973 0.741096 0.617452
O O6 0.779891 0.780519 0.714303
O O7 0.056461 0.844963 0.702770
O O8 0.309382 0.418900 0.897001
O O9 0.256362 0.231810 0.904307
O O10 0.025533 0.356358 0.899637
O O11 0.194388 0.343406 0.000000
O O12 0.500000 0.500000 0.817725
O O13 0.216385 0.572114 0.836677
O O14 0.250626 0.394124 0.784446
O O15 0.409874 0.797636 0.500000
O O16 0.409321 0.239333 0.804442
#
# Coordination Sequence:
#
# PCOD9429127 Si02
#       7
#     8   8   8   8   8   8   8
#     4   9  19  38  60  87 122 159 205 261 323 390
#     4  12  21  39  62  92 122 161 215 262 317 377
#     4  11  24  42  70 103 128 165 221 268 315 386
#     4  11  24  44  65  91 133 176 211 263 330 378
#     4   9  19  37  60  87 121 160 204 259 327 387
#     4  11  23  45  66  92 136 175 206 263 329 377
#     4  11  25  40  61  92 125 165 216 259 306 382
#
# _framework density 22.002323000000001
#
# number of rings (size 3 to 8) (size 9 to 14) (size 15 to 20)
#    0.000    1.429    1.429    6.429    0.000    4.286 
#    0.000    0.000    0.000    1.714    0.000    0.000 
#    0.000    0.000    0.000    0.000    0.000    0.000 
#
# Total GULP energy -313245.391315 kJ/mol
# GULP energy per Si atom -5593.667702 kJ/mol
# Density = 2.195224 g / cm^3
# Si number density = 22.002323 Si / 1000 Ang^3
#
#
#
# Elastic Constant Matrix: (Units=GPa)
#
#
# Indices 1 2 3 4 5 6 
#
# 1 40.7843 10.3551 18.1865 0.0000 0.0000 0.0000
# 2 10.3551 84.6415 44.8954 0.0000 0.0000 0.0000
# 3 18.1865 44.8954 152.8736 0.0000 0.0000 0.0000
# 4 0.0000 0.0000 0.0000 30.9803 0.0000 0.0000
# 5 0.0000 0.0000 0.0000 0.0000 14.0523 0.0000
# 6 0.0000 0.0000 0.0000 0.0000 0.0000 27.9535
#
#
#
# Elastic Compliance Matrix: (Units=1/GPa)
#
#
# Indices 1 2 3 4 5 6 
#
# 1 0.026131 -0.001834 -0.002570 0.000000 0.000000 0.000000
# 2 -0.001834 0.014123 -0.003930 0.000000 0.000000 0.000000
# 3 -0.002570 -0.003930 0.008001 0.000000 0.000000 0.000000
# 4 0.000000 0.000000 0.000000 0.032279 0.000000 0.000000
# 5 0.000000 0.000000 0.000000 0.000000 0.071163 0.000000
# 6 0.000000 0.000000 0.000000 0.000000 0.000000 0.035774
#
#
# Mechanical properties :
#
#
# Convention : Reuss Voigt Hill
#
# Bulk Modulus (GPa) = 31.65700 47.24151 39.44925
# Shear Modulus (GPa) = 23.29199 28.25471 25.77335
#
# Velocity S-wave (km/s) = 3.25717 3.58742 3.42627
# Velocity P-wave (km/s) = 5.34460 6.21910 5.79836
#
# Compressibility (1/GPa) = 0.03158859
#
# Stress axis : x y z
#
# Youngs Moduli (GPa) = 38.26888 70.80576 124.98258
#
# Poissons Ratio (x) = 0.12983 0.32123
# Poissons Ratio (y) = 0.07017 0.49112
# Poissons Ratio (z) = 0.09836 0.27823
#
# Static dielectric constant tensor:
#      x y z
#    x 1.819570 0.000000 0.000000 
#    y 0.000000 1.792930 0.000000 
#    z 0.000000 0.000000 1.780470 
# 
# From -- ./inp_files/22636.got.cif
#   From: 2010.05.17/outbox.cif.g08.bks.cpg/sg55_12_cif.got.tgz:22636.got - 2010.06.03 13:27:54.
