data_PCOD9429894
_publ_section_title
;
Structure prediction by ZEFSAII (Michael W. Deem and Ramdas Pophale) SiO2 
 PCOD9429894
Probable space group: P C C N
;
_chemical_formula_sum "Si O2"
_cell_formula_units_Z 64
_cell_length_a 19.062197
_cell_length_b 18.933877
_cell_length_c 9.772695
_cell_angle_alpha 90.000000
_cell_angle_beta 90.000000
_cell_angle_gamma 90.000000
_cell_volume 3527.173719
_symmetry_space_group_name_H-M "P C C N"
_symmetry_group_IT_number 56
_symmetry_cell_setting 'orthorhombic'
loop_
_space_group_symop_operation_xyz
x,y,z
1/2-x,1/2-y,z
1/2+x,-y,1/2-z
-x,1/2+y,1/2-z
-x,-y,-z
1/2+x,1/2+y,-z
1/2-x,y,1/2+z
x,1/2-y,1/2+z
loop_
_atom_site_type_symbol
_atom_site_label
_atom_site_fract_x
_atom_site_fract_y
_atom_site_fract_z
Si Si1 0.972825 0.317246 0.755271
Si Si2 0.406090 0.965154 0.901852
Si Si3 0.460009 0.686266 0.431812
Si Si4 0.296694 0.081195 0.881648
Si Si5 0.547749 0.023666 0.782615
Si Si6 0.872387 0.668226 0.343754
Si Si7 0.866222 0.908863 0.117503
Si Si8 0.373568 0.174081 0.110506
O O1 0.947831 0.256648 0.653806
O O2 0.949018 0.396967 0.726591
O O3 0.057714 0.318297 0.745488
O O4 0.948898 0.300524 0.908396
O O5 0.415348 0.881295 0.883592
O O6 0.335692 0.006339 0.865719
O O7 0.467660 0.001654 0.813383
O O8 0.419385 0.977980 0.064263
O O9 0.543054 0.666906 0.419665
O O10 0.315473 0.129586 0.750199
O O11 0.214645 0.070065 0.900530
O O12 0.330387 0.123069 0.010485
O O13 0.586528 0.970036 0.682617
O O14 0.892620 0.620180 0.473037
O O15 0.850635 0.744537 0.402219
O O16 0.865459 0.847946 0.232166
#
# Coordination Sequence:
#
# PCOD9429894 Si02
#       8
#     8   8   8   8   8   8   8   8
#     4  10  21  37  60  86 114 142 192 237 287 341
#     4  10  18  37  64  78 108 156 197 224 288 350
#     4  10  20  36  62  87 109 147 190 238 284 341
#     4  12  22  40  55  82 113 158 201 230 282 352
#     4  10  19  39  60  83 109 154 190 241 283 339
#     4  11  24  35  53  87 117 152 191 236 278 329
#     4  12  25  35  57  83 117 153 196 242 281 331
#     4  11  21  38  56  76 116 160 194 219 277 348
#
# _framework density 18.144838
#
# number of rings (size 3 to 8) (size 9 to 14) (size 15 to 20)
#    0.000    1.250    5.000    2.250    5.250    3.500 
#    2.250    0.000    0.000    0.750    0.000    3.500 
#    0.000    0.000    0.000    0.000    0.000    0.000 
#
# Total GULP energy -357468.923139 kJ/mol
# GULP energy per Si atom -5585.451924 kJ/mol
# Density = 1.810354 g / cm^3
# Si number density = 18.144838 Si / 1000 Ang^3
#
#
#
# Elastic Constant Matrix: (Units=GPa)
#
#
# Indices 1 2 3 4 5 6 
#
# 1 38.7090 30.6885 5.2470 0.0000 0.0000 0.0000
# 2 30.6885 131.4207 46.7424 0.0000 0.0000 0.0000
# 3 5.2470 46.7424 61.1247 0.0000 0.0000 0.0000
# 4 0.0000 0.0000 0.0000 32.0605 0.0000 0.0000
# 5 0.0000 0.0000 0.0000 0.0000 15.1674 0.0000
# 6 0.0000 0.0000 0.0000 0.0000 0.0000 8.2287
#
#
#
# Elastic Compliance Matrix: (Units=1/GPa)
#
#
# Indices 1 2 3 4 5 6 
#
# 1 0.032446 -0.009046 0.004133 0.000000 0.000000 0.000000
# 2 -0.009046 0.012974 -0.009145 0.000000 0.000000 0.000000
# 3 0.004133 -0.009145 0.022998 0.000000 0.000000 0.000000
# 4 0.000000 0.000000 0.000000 0.031191 0.000000 0.000000
# 5 0.000000 0.000000 0.000000 0.000000 0.065931 0.000000
# 6 0.000000 0.000000 0.000000 0.000000 0.000000 0.121526
#
#
# Mechanical properties :
#
#
# Convention : Reuss Voigt Hill
#
# Bulk Modulus (GPa) = 24.81328 44.06780 34.44054
# Shear Modulus (GPa) = 15.21529 20.99641 18.10585
#
# Velocity S-wave (km/s) = 2.89891 3.40539 3.16231
# Velocity P-wave (km/s) = 4.99096 6.30886 5.68821
#
# Compressibility (1/GPa) = 0.04030100
#
# Stress axis : x y z
#
# Youngs Moduli (GPa) = 30.82085 77.07636 43.48128
#
# Poissons Ratio (x) = 0.69726 -0.17969
# Poissons Ratio (y) = 0.27882 0.39763
# Poissons Ratio (z) = -0.12737 0.70485
#
# Static dielectric constant tensor:
#      x y z
#    x 1.609850 0.000000 0.000000 
#    y 0.000000 1.633160 0.000000 
#    z 0.000000 0.000000 1.627120 
# 
# From -- ./inp_files/4555.got.cif
#   From: 2010.05.17/outbox.cif.g08.bks.cpg/sg56_3_cif.got.tgz:4555.got - 2010.06.03 13:42:01.
