data_PCOD9429950
_publ_section_title
;
Structure prediction by ZEFSAII (Michael W. Deem and Ramdas Pophale) SiO2 
 PCOD9429950
Probable space group: P C C N
;
_chemical_formula_sum "Si O2"
_cell_formula_units_Z 60
_cell_length_a 8.287939
_cell_length_b 23.992993
_cell_length_c 17.209285
_cell_angle_alpha 90.000000
_cell_angle_beta 90.000000
_cell_angle_gamma 90.000000
_cell_volume 3422.108699
_symmetry_space_group_name_H-M "P C C N"
_symmetry_group_IT_number 56
_symmetry_cell_setting 'orthorhombic'
loop_
_space_group_symop_operation_xyz
x,y,z
1/2-x,1/2-y,z
1/2+x,-y,1/2-z
-x,1/2+y,1/2-z
-x,-y,-z
1/2+x,1/2+y,-z
1/2-x,y,1/2+z
x,1/2-y,1/2+z
loop_
_atom_site_type_symbol
_atom_site_label
_atom_site_fract_x
_atom_site_fract_y
_atom_site_fract_z
Si Si1 0.169290 0.538236 0.831039
Si Si2 0.565413 0.755055 0.428349
Si Si3 0.379569 0.548348 0.974623
Si Si4 0.750000 0.250000 0.462951
Si Si5 0.601655 0.875346 0.368363
Si Si6 0.845459 0.372897 0.931440
Si Si7 0.535922 0.631732 0.406109
Si Si8 0.033281 0.567639 0.220905
O O1 0.251555 0.523089 0.913607
O O2 0.304432 0.551001 0.767041
O O3 0.071381 0.594253 0.850184
O O4 0.055611 0.488673 0.804020
O O5 0.750000 0.750000 0.462740
O O6 0.413936 0.760161 0.486749
O O7 0.570336 0.809547 0.375199
O O8 0.534736 0.696940 0.384736
O O9 0.476063 0.593907 0.924427
O O10 0.500000 0.500000 0.000000
O O11 0.291380 0.582295 0.043046
O O12 0.718665 0.309481 0.421324
O O13 0.780250 0.887665 0.399664
O O14 0.575141 0.898736 0.282586
O O15 0.927884 0.395522 0.854160
O O16 0.964954 0.371935 0.006473
#
# Coordination Sequence:
#
# PCOD9429950 Si02
#       8
#     8   8   8   4   8   8   8   8
#     4  10  23  39  55  83 117 161 192 244 300 363
#     4   9  18  35  65  89 111 152 209 245 286 358
#     4  10  22  35  60  87 108 154 205 238 293 357
#     4  10  18  40  62  88 126 150 194 264 296 348
#     4  10  20  39  59  86 117 158 195 243 295 363
#     4  10  22  38  60  91 116 154 199 246 305 353
#     4   9  20  38  65  84 110 154 206 245 289 352
#     4  11  24  38  56  85 125 154 195 243 313 357
#
# _framework density 17.533049999999999
#
# number of rings (size 3 to 8) (size 9 to 14) (size 15 to 20)
#    0.000    2.133    1.333    0.800    9.333    1.067 
#    2.400    0.000    0.000    4.000    0.000    0.000 
#    0.000    0.000    0.000    0.000    0.000    0.000 
#
# Total GULP energy -334461.206206 kJ/mol
# GULP energy per Si atom -5574.353437 kJ/mol
# Density = 1.749314 g / cm^3
# Si number density = 17.533050 Si / 1000 Ang^3
#
#
#
# Elastic Constant Matrix: (Units=GPa)
#
#
# Indices 1 2 3 4 5 6 
#
# 1 72.1900 37.3787 13.4406 0.0000 0.0000 0.0000
# 2 37.3787 107.1099 41.9348 0.0000 0.0000 0.0000
# 3 13.4406 41.9348 44.5288 0.0000 0.0000 0.0000
# 4 0.0000 0.0000 0.0000 20.6402 0.0000 0.0000
# 5 0.0000 0.0000 0.0000 0.0000 15.2358 0.0000
# 6 0.0000 0.0000 0.0000 0.0000 0.0000 34.5816
#
#
#
# Elastic Compliance Matrix: (Units=1/GPa)
#
#
# Indices 1 2 3 4 5 6 
#
# 1 0.016922 -0.006187 0.000719 0.000000 0.000000 0.000000
# 2 -0.006187 0.017051 -0.014190 0.000000 0.000000 0.000000
# 3 0.000719 -0.014190 0.035604 0.000000 0.000000 0.000000
# 4 0.000000 0.000000 0.000000 0.048449 0.000000 0.000000
# 5 0.000000 0.000000 0.000000 0.000000 0.065635 0.000000
# 6 0.000000 0.000000 0.000000 0.000000 0.000000 0.028917
#
#
# Mechanical properties :
#
#
# Convention : Reuss Voigt Hill
#
# Bulk Modulus (GPa) = 33.04670 45.48188 39.26429
# Shear Modulus (GPa) = 19.08533 22.82982 20.95757
#
# Velocity S-wave (km/s) = 3.30287 3.61238 3.46109
# Velocity P-wave (km/s) = 5.78225 6.58757 6.19800
#
# Compressibility (1/GPa) = 0.03026020
#
# Stress axis : x y z
#
# Youngs Moduli (GPa) = 59.09505 58.64826 28.08668
#
# Poissons Ratio (x) = 0.36283 -0.02018
# Poissons Ratio (y) = 0.36560 0.39855
# Poissons Ratio (z) = -0.04246 0.83223
#
# Static dielectric constant tensor:
#      x y z
#    x 1.625220 0.000000 0.000000 
#    y 0.000000 1.595370 0.000000 
#    z 0.000000 0.000000 1.559840 
# 
# From -- ./inp_files/11013.got.cif
#   From: 2010.05.17/outbox.cif.g08.bks.cpg/sg56_6_cif.got.tgz:11013.got - 2010.06.03 13:42:01.
