data_PCOD9429340
_publ_section_title
;
Structure prediction by ZEFSAII (Michael W. Deem and Ramdas Pophale) SiO2 
 PCOD9429340
Probable space group: P B A M
;
_chemical_formula_sum "Si O2"
_cell_formula_units_Z 56
_cell_length_a 15.000000
_cell_length_b 21.000000
_cell_length_c 9.000000
_cell_angle_alpha 90.000000
_cell_angle_beta 90.000000
_cell_angle_gamma 90.000000
_cell_volume 2835.000000
_symmetry_space_group_name_H-M "P B A M"
_symmetry_group_IT_number 55
_symmetry_cell_setting 'orthorhombic'
loop_
_space_group_symop_operation_xyz
x,y,z
-x,-y,z
1/2+x,1/2-y,-z
1/2-x,1/2+y,-z
-x,-y,-z
x,y,-z
1/2-x,1/2+y,z
1/2+x,1/2-y,z
loop_
_atom_site_type_symbol
_atom_site_label
_atom_site_fract_x
_atom_site_fract_y
_atom_site_fract_z
Si Si1 0.431512 0.803508 0.179879
Si Si2 0.053037 0.436826 0.324039
Si Si3 0.237029 0.776351 0.319490
Si Si4 0.863551 0.101549 0.819527
Si Si5 0.460212 0.664032 0.178458
Si Si6 0.757758 0.496419 0.323183
Si Si7 0.754072 0.858735 0.180730
O O1 0.467180 0.871338 0.237875
O O2 0.336636 0.792109 0.260050
O O3 0.482806 0.737609 0.219580
O O4 0.421322 0.805978 0.000000
O O5 0.034775 0.426959 0.500000
O O6 0.155941 0.457722 0.307010
O O7 0.000000 0.500000 0.274849
O O8 0.233403 0.775859 0.500000
O O9 0.181760 0.835179 0.250551
O O10 0.213104 0.706056 0.252598
O O11 0.820781 0.037206 0.754052
O O12 0.966846 0.112425 0.776682
O O13 0.853585 0.101884 0.000000
O O14 0.359467 0.647151 0.221158
O O15 0.460512 0.663996 0.000000
O O16 0.742559 0.487437 0.500000
O O17 0.774628 0.427345 0.247111
O O18 0.743868 0.857286 0.000000
#
# Coordination Sequence:
#
# PCOD9429340 Si02
#       7
#     8   8   8   8   8   8   8
#     4  10  19  36  60  84 111 147 194 242 290 345
#     4  10  22  39  58  82 118 159 195 240 299 355
#     4  11  21  36  58  85 116 152 193 243 298 353
#     4  11  21  37  61  87 117 156 200 241 293 352
#     4   8  19  37  58  86 115 148 194 248 289 339
#     4  11  23  39  58  86 122 156 197 244 297 355
#     4  10  21  40  62  85 116 156 201 244 293 350
#
# _framework density 19.753086
#
# number of rings (size 3 to 8) (size 9 to 14) (size 15 to 20)
#    0.000    1.857    1.429    3.857    0.000    2.571 
#    0.000   14.286    0.000    0.000    0.000    0.000 
#    0.000    0.000    0.000    0.000    0.000    0.000 
#
# Total GULP energy -312520.240576 kJ/mol
# GULP energy per Si atom -5580.718582 kJ/mol
# Density = 1.970813 g / cm^3
# Si number density = 19.753086 Si / 1000 Ang^3
#
#
#
# Elastic Constant Matrix: (Units=GPa)
#
#
# Indices 1 2 3 4 5 6 
#
# 1 13.3602 -20.2093 -5.5962 0.0000 0.0000 0.0000
# 2 -20.2093 102.0553 32.4586 0.0000 0.0000 0.0000
# 3 -5.5962 32.4586 109.2626 0.0000 0.0000 0.0000
# 4 0.0000 0.0000 0.0000 44.4801 0.0000 0.0000
# 5 0.0000 0.0000 0.0000 0.0000 15.2143 0.0000
# 6 0.0000 0.0000 0.0000 0.0000 0.0000 36.1239
#
#
#
# Elastic Compliance Matrix: (Units=1/GPa)
#
#
# Indices 1 2 3 4 5 6 
#
# 1 0.106937 0.021462 -0.000899 0.000000 0.000000 0.000000
# 2 0.021462 0.015128 -0.003395 0.000000 0.000000 0.000000
# 3 -0.000899 -0.003395 0.010115 0.000000 0.000000 0.000000
# 4 0.000000 0.000000 0.000000 0.022482 0.000000 0.000000
# 5 0.000000 0.000000 0.000000 0.000000 0.065728 0.000000
# 6 0.000000 0.000000 0.000000 0.000000 0.000000 0.027682
#
#
# Mechanical properties :
#
#
# Convention : Reuss Voigt Hill
#
# Bulk Modulus (GPa) = 6.00542 26.44269 16.22406
# Shear Modulus (GPa) = 18.57075 33.69867 26.13471
#
# Velocity S-wave (km/s) = 3.06950 4.13485 3.64135
# Velocity P-wave (km/s) = 3.95086 6.01761 5.09023
#
# Compressibility (1/GPa) = 0.16651618
#
# Stress axis : x y z
#
# Youngs Moduli (GPa) = 9.35134 66.10130 98.86536
#
# Poissons Ratio (x) = -1.41865 0.08884
# Poissons Ratio (y) = -0.20070 0.33564
# Poissons Ratio (z) = 0.00840 0.22441
#
# Static dielectric constant tensor:
#      x y z
#    x 1.760960 0.000000 0.000000 
#    y 0.000000 1.692060 0.000000 
#    z 0.000000 0.000000 1.664880 
# 
# From -- ./inp_files/6120.got.cif
#   From: 2010.05.17/outbox.ucp.g08.bks.cvg/sg55_4_cif.got.tgz:6120.got - 2010.06.11 16:36:00.
