data_PCOD9429749
_publ_section_title
;
Structure prediction by ZEFSAII (Michael W. Deem and Ramdas Pophale) SiO2 
 PCOD9429749
Probable space group: P C C N
;
_chemical_formula_sum "Si O2"
_cell_formula_units_Z 64
_cell_length_a 23.788965
_cell_length_b 7.322941
_cell_length_c 15.475651
_cell_angle_alpha 90.000000
_cell_angle_beta 90.000000
_cell_angle_gamma 90.000000
_cell_volume 2695.938679
_symmetry_space_group_name_H-M "P C C N"
_symmetry_group_IT_number 56
_symmetry_cell_setting 'orthorhombic'
loop_
_space_group_symop_operation_xyz
x,y,z
1/2-x,1/2-y,z
1/2+x,-y,1/2-z
-x,1/2+y,1/2-z
-x,-y,-z
1/2+x,1/2+y,-z
1/2-x,y,1/2+z
x,1/2-y,1/2+z
loop_
_atom_site_type_symbol
_atom_site_label
_atom_site_fract_x
_atom_site_fract_y
_atom_site_fract_z
Si Si1 0.866120 0.141019 0.109408
Si Si2 0.112904 0.727773 0.572967
Si Si3 0.374744 0.281772 0.443348
Si Si4 0.005783 0.288350 0.875036
Si Si5 0.606646 0.794713 0.371207
Si Si6 0.985609 0.134534 0.178613
Si Si7 0.311203 0.337615 0.277849
Si Si8 0.811548 0.255300 0.775502
O O1 0.924301 0.208683 0.153503
O O2 0.819467 0.142877 0.184217
O O3 0.875177 0.934875 0.077843
O O4 0.857050 0.246153 0.019462
O O5 0.110570 0.512277 0.602905
O O6 0.144386 0.818155 0.653370
O O7 0.049470 0.800448 0.566450
O O8 0.435785 0.354057 0.414338
O O9 0.368587 0.305952 0.545226
O O10 0.326695 0.344289 0.378535
O O11 0.993827 0.371697 0.781259
O O12 0.011937 0.071025 0.857177
O O13 0.540093 0.762292 0.359140
O O14 0.640615 0.748577 0.283725
O O15 0.250000 0.250000 0.262461
O O16 0.317481 0.545237 0.249555
O O17 0.750000 0.250000 0.815368
#
# Coordination Sequence:
#
# PCOD9429749 Si02
#       8
#     8   8   8   8   8   8   8   8
#     4  10  20  36  60  87 114 148 187 227 277 336
#     4   9  19  36  58  84 115 150 185 225 277 334
#     4  10  20  36  60  87 114 148 187 227 277 336
#     4  10  18  32  57  86 117 149 182 223 276 335
#     4   9  19  36  58  84 115 150 185 225 277 334
#     4  10  18  32  57  86 117 149 182 223 276 335
#     4  11  23  40  59  80 111 147 189 237 281 329
#     4  11  23  40  59  80 111 147 189 237 281 329
#
# _framework density 23.739414
#
# number of rings (size 3 to 8) (size 9 to 14) (size 15 to 20)
#    0.000    2.000    2.500    1.500    0.000    4.000 
#    0.000    6.250    0.000    3.000    0.000    0.000 
#    0.000    0.000    0.000    0.000    0.000    0.000 
#
# Total GULP energy -357631.638010 kJ/mol
# GULP energy per Si atom -5587.994344 kJ/mol
# Density = 2.368538 g / cm^3
# Si number density = 23.739414 Si / 1000 Ang^3
#
#
#
# Elastic Constant Matrix: (Units=GPa)
#
#
# Indices 1 2 3 4 5 6 
#
# 1 62.9931 -1.8464 -4.4310 0.0000 0.0000 0.0000
# 2 -1.8464 46.9656 8.1657 0.0000 0.0000 0.0000
# 3 -4.4310 8.1657 75.4939 0.0000 0.0000 0.0000
# 4 0.0000 0.0000 0.0000 18.5764 0.0000 0.0000
# 5 0.0000 0.0000 0.0000 0.0000 16.8601 0.0000
# 6 0.0000 0.0000 0.0000 0.0000 0.0000 -0.7395
#
#
#
# Elastic Compliance Matrix: (Units=1/GPa)
#
#
# Indices 1 2 3 4 5 6 
#
# 1 0.015951 0.000473 0.000885 0.000000 0.000000 0.000000
# 2 0.000473 0.021714 -0.002321 0.000000 0.000000 0.000000
# 3 0.000885 -0.002321 0.013549 0.000000 0.000000 0.000000
# 4 0.000000 0.000000 0.000000 0.053832 0.000000 0.000000
# 5 0.000000 0.000000 0.000000 0.000000 0.059311 0.000000
# 6 0.000000 0.000000 0.000000 0.000000 0.000000 -1.352340
#
#
# Mechanical properties :
#
#
# Convention : Reuss Voigt Hill
#
# Bulk Modulus (GPa) = 20.28853 21.02546 20.65700
# Shear Modulus (GPa) = -4.27487 19.17705 7.45109
#
# Velocity S-wave (km/s) = -1.34337 2.84529 1.77356
# Velocity P-wave (km/s) = 2.48167 4.43512 3.59367
#
# Compressibility (1/GPa) = 0.04928893
#
# Stress axis : x y z
#
# Youngs Moduli (GPa) = 62.69251 46.05257 73.80577
#
# Poissons Ratio (x) = -0.02179 -0.06532
# Poissons Ratio (y) = -0.02967 0.17130
# Poissons Ratio (z) = -0.05548 0.10688
#
# Static dielectric constant tensor:
#      x y z
#    x 1.842660 0.000000 0.000000 
#    y 0.000000 1.990970 0.000000 
#    z 0.000000 0.000000 1.902910 
# 
# From -- ./inp_files/11064.got.cif
#   From: 2010.05.17/outbox.cif.g08.bks.cpg/sg56_6_cif.got.tgz:11064.got - 2010.06.03 13:42:01.
