data_PCOD9429259
_publ_section_title
;
Structure prediction by ZEFSAII (Michael W. Deem and Ramdas Pophale) SiO2 
 PCOD9429259
Probable space group: P B A M
;
_chemical_formula_sum "Si O2"
_cell_formula_units_Z 64
_cell_length_a 15.000000
_cell_length_b 30.000000
_cell_length_c 9.000000
_cell_angle_alpha 90.000000
_cell_angle_beta 90.000000
_cell_angle_gamma 90.000000
_cell_volume 4050.000000
_symmetry_space_group_name_H-M "P B A M"
_symmetry_group_IT_number 55
_symmetry_cell_setting 'orthorhombic'
loop_
_space_group_symop_operation_xyz
x,y,z
-x,-y,z
1/2+x,1/2-y,-z
1/2-x,1/2+y,-z
-x,-y,-z
x,y,-z
1/2-x,1/2+y,z
1/2+x,1/2-y,z
loop_
_atom_site_type_symbol
_atom_site_label
_atom_site_fract_x
_atom_site_fract_y
_atom_site_fract_z
Si Si1 0.551213 0.224070 0.820786
Si Si2 0.552222 0.316611 0.672330
Si Si3 0.095611 0.945360 0.820935
Si Si4 0.360705 0.358682 0.328884
Si Si5 0.288401 0.629749 0.180114
Si Si6 0.366185 0.190101 0.180531
Si Si7 0.388894 0.544384 0.179972
Si Si8 0.256829 0.278733 0.179278
O O1 0.525972 0.272352 0.759691
O O2 0.469132 0.192785 0.771152
O O3 0.653500 0.217398 0.771889
O O4 0.552189 0.224299 0.000000
O O5 0.572666 0.307111 0.500000
O O6 0.466101 0.347936 0.677499
O O7 0.636542 0.337917 0.753559
O O8 0.150015 0.906317 0.746130
O O9 0.990502 0.943340 0.779003
O O10 0.128437 0.994024 0.773297
O O11 0.099729 0.941623 0.000000
O O12 0.333125 0.358330 0.500000
O O13 0.309895 0.320571 0.240652
O O14 0.191632 0.647369 0.225690
O O15 0.317907 0.580729 0.229708
O O16 0.293838 0.632003 0.000000
O O17 0.308240 0.233558 0.227373
O O18 0.367401 0.191005 0.000000
O O19 0.388524 0.544202 0.000000
O O20 0.257612 0.278527 0.000000
#
# Coordination Sequence:
#
# PCOD9429259 Si02
#       8
#     8   8   8   8   8   8   8   8
#     4  10  19  33  48  65  90 119 156 192 223 265
#     4  11  21  29  41  65  95 124 154 187 225 262
#     4   9  16  29  47  68  91 120 154 190 228 276
#     4  11  22  32  43  66  96 127 157 189 229 270
#     4  10  17  30  49  69  92 124 156 185 222 273
#     4   9  17  28  47  71  90 114 152 189 223 264
#     4   8  15  26  46  71  93 117 151 190 230 272
#     4  10  19  31  49  68  87 120 157 189 226 267
#
# _framework density 15.802469
#
# number of rings (size 3 to 8) (size 9 to 14) (size 15 to 20)
#    0.000    2.250    3.750    1.500    0.000    1.500 
#    0.000    2.500    0.000    0.000    0.000    0.875 
#    0.000    7.000    0.000    0.000    0.000    0.000 
#
# Total GULP energy -356346.474231 kJ/mol
# GULP energy per Si atom -5567.913660 kJ/mol
# Density = 1.576650 g / cm^3
# Si number density = 15.802469 Si / 1000 Ang^3
#
#
#
# Elastic Constant Matrix: (Units=GPa)
#
#
# Indices 1 2 3 4 5 6 
#
# 1 33.6668 -2.4562 14.6095 0.0000 0.0000 0.0000
# 2 -2.4562 46.9161 -4.9612 0.0000 0.0000 0.0000
# 3 14.6095 -4.9612 -13.5500 0.0000 0.0000 0.0000
# 4 0.0000 0.0000 0.0000 -14.9594 0.0000 0.0000
# 5 0.0000 0.0000 0.0000 0.0000 6.9456 0.0000
# 6 0.0000 0.0000 0.0000 0.0000 0.0000 21.5962
#
#
#
# Elastic Compliance Matrix: (Units=1/GPa)
#
#
# Indices 1 2 3 4 5 6 
#
# 1 0.020760 0.003325 0.021166 0.000000 0.000000 0.000000
# 2 0.003325 0.021053 -0.004123 0.000000 0.000000 0.000000
# 3 0.021166 -0.004123 -0.049470 0.000000 0.000000 0.000000
# 4 0.000000 0.000000 0.000000 -0.066847 0.000000 0.000000
# 5 0.000000 0.000000 0.000000 0.000000 0.143977 0.000000
# 6 0.000000 0.000000 0.000000 0.000000 0.000000 0.046304
#
#
# Mechanical properties :
#
#
# Convention : Reuss Voigt Hill
#
# Bulk Modulus (GPa) = 30.22986 9.04632 19.63809
# Shear Modulus (GPa) = 58.09398 6.70586 32.39992
#
# Velocity S-wave (km/s) = 6.06979 2.06222 4.53294
# Velocity P-wave (km/s) = 8.26405 3.37749 6.31276
#
# Compressibility (1/GPa) = 0.03307987
#
# Stress axis : x y z
#
# Youngs Moduli (GPa) = 48.16843 47.49983 -20.21436
#
# Poissons Ratio (x) = -0.15794 0.42786
# Poissons Ratio (y) = -0.16017 -0.08335
# Poissons Ratio (z) = -1.01954 0.19585
#
# Static dielectric constant tensor:
#      x y z
#    x 1.540160 0.000000 0.000000 
#    y 0.000000 1.548160 0.000000 
#    z 0.000000 0.000000 1.520330 
# 
# From -- ./inp_files/6909.got.cif
#   From: 2010.05.17/outbox.ucp.g08.bks.cvg/sg55_4_cif.got.tgz:6909.got - 2010.06.11 16:36:00.
