data_PCOD9429601
_publ_section_title
;
Structure prediction by ZEFSAII (Michael W. Deem and Ramdas Pophale) SiO2 
 PCOD9429601
Probable space group: P C C N
;
_chemical_formula_sum "Si O2"
_cell_formula_units_Z 64
_cell_length_a 20.304011
_cell_length_b 6.902052
_cell_length_c 19.115920
_cell_angle_alpha 90.000000
_cell_angle_beta 90.000000
_cell_angle_gamma 90.000000
_cell_volume 2678.892407
_symmetry_space_group_name_H-M "P C C N"
_symmetry_group_IT_number 56
_symmetry_cell_setting 'orthorhombic'
loop_
_space_group_symop_operation_xyz
x,y,z
1/2-x,1/2-y,z
1/2+x,-y,1/2-z
-x,1/2+y,1/2-z
-x,-y,-z
1/2+x,1/2+y,-z
1/2-x,y,1/2+z
x,1/2-y,1/2+z
loop_
_atom_site_type_symbol
_atom_site_label
_atom_site_fract_x
_atom_site_fract_y
_atom_site_fract_z
Si Si1 0.101476 0.468943 0.558674
Si Si2 0.817071 0.536567 0.309283
Si Si3 0.682988 0.166140 0.990797
Si Si4 0.177066 0.932718 0.664974
Si Si5 0.446648 0.567490 0.443179
Si Si6 0.956795 0.532797 0.584696
Si Si7 0.066534 0.931133 0.769472
Si Si8 0.926279 0.979859 0.706896
O O1 0.143759 0.377386 0.622348
O O2 0.147681 0.637358 0.531602
O O3 0.035082 0.569114 0.588750
O O4 0.076955 0.375719 0.484609
O O5 0.821277 0.300381 0.321040
O O6 0.738306 0.549816 0.302771
O O7 0.859278 0.595145 0.241632
O O8 0.750000 0.250000 0.023055
O O9 0.690013 0.051229 0.918032
O O10 0.629993 0.053656 0.035942
O O11 0.108847 0.991775 0.701996
O O12 0.500000 0.500000 0.500000
O O13 0.457668 0.797491 0.429139
O O14 0.451074 0.448121 0.371823
O O15 0.922974 0.555084 0.660025
O O16 0.084114 0.711790 0.788579
O O17 0.988941 0.929867 0.754234
#
# Coordination Sequence:
#
# PCOD9429601 Si02
#       8
#     8   8   8   8   8   8   8   8
#     4   9  15  29  50  72 101 123 172 218 251 303
#     4   9  15  29  48  72 103 129 170 208 258 306
#     4  10  17  31  53  79 101 138 178 216 265 317
#     4   9  16  28  48  78 102 134 168 215 260 313
#     4  10  21  35  48  75 110 136 173 218 276 321
#     4   9  18  30  50  77 100 133 173 220 259 312
#     4  10  19  32  51  77 110 131 177 216 265 320
#     4  10  20  34  51  78 104 141 170 219 265 316
#
# _framework density 23.890469
#
# number of rings (size 3 to 8) (size 9 to 14) (size 15 to 20)
#    0.000    2.500    3.750    0.750    0.000    1.000 
#    9.000    0.000    0.000    1.500    0.000    1.750 
#    0.000    0.000    0.000    0.000    0.000    0.000 
#
# Total GULP energy -356883.419925 kJ/mol
# GULP energy per Si atom -5576.303436 kJ/mol
# Density = 2.383609 g / cm^3
# Si number density = 23.890469 Si / 1000 Ang^3
#
#
#
# Elastic Constant Matrix: (Units=GPa)
#
#
# Indices 1 2 3 4 5 6 
#
# 1 144.3224 -11.9654 28.7372 0.0000 0.0000 0.0000
# 2 -11.9654 56.1938 -31.8084 0.0000 0.0000 0.0000
# 3 28.7372 -31.8084 87.8477 0.0000 0.0000 0.0000
# 4 0.0000 0.0000 0.0000 86.0151 0.0000 0.0000
# 5 0.0000 0.0000 0.0000 0.0000 34.7726 0.0000
# 6 0.0000 0.0000 0.0000 0.0000 0.0000 22.6619
#
#
#
# Elastic Compliance Matrix: (Units=1/GPa)
#
#
# Indices 1 2 3 4 5 6 
#
# 1 0.007415 0.000259 -0.002332 0.000000 0.000000 0.000000
# 2 0.000259 0.022392 0.008023 0.000000 0.000000 0.000000
# 3 -0.002332 0.008023 0.015051 0.000000 0.000000 0.000000
# 4 0.000000 0.000000 0.000000 0.011626 0.000000 0.000000
# 5 0.000000 0.000000 0.000000 0.000000 0.028758 0.000000
# 6 0.000000 0.000000 0.000000 0.000000 0.000000 0.044127
#
#
# Mechanical properties :
#
#
# Convention : Reuss Voigt Hill
#
# Bulk Modulus (GPa) = 17.61841 28.69896 23.15868
# Shear Modulus (GPa) = 36.66008 48.91662 42.78835
#
# Velocity S-wave (km/s) = 3.92153 4.52988 4.23664
# Velocity P-wave (km/s) = 5.28159 6.27683 5.80059
#
# Compressibility (1/GPa) = 0.05675881
#
# Stress axis : x y z
#
# Youngs Moduli (GPa) = 134.86724 44.65838 66.43980
#
# Poissons Ratio (x) = -0.01156 0.15492
# Poissons Ratio (y) = -0.03492 -0.53306
# Poissons Ratio (z) = 0.31448 -0.35830
#
# Static dielectric constant tensor:
#      x y z
#    x 1.900400 0.000000 0.000000 
#    y 0.000000 2.042450 0.000000 
#    z 0.000000 0.000000 1.862200 
# 
# From -- ./inp_files/16739.got.cif
#   From: 2010.05.17/outbox.cif.g08.bks.cpg/sg56_9_cif.got.tgz:16739.got - 2010.06.03 13:42:01.
