data_PCOD9429453
_publ_section_title
;
Structure prediction by ZEFSAII (Michael W. Deem and Ramdas Pophale) SiO2 
 PCOD9429453
Probable space group: P B A M
;
_chemical_formula_sum "Si O2"
_cell_formula_units_Z 56
_cell_length_a 12.000000
_cell_length_b 15.000000
_cell_length_c 15.000000
_cell_angle_alpha 90.000000
_cell_angle_beta 90.000000
_cell_angle_gamma 90.000000
_cell_volume 2700.000000
_symmetry_space_group_name_H-M "P B A M"
_symmetry_group_IT_number 55
_symmetry_cell_setting 'orthorhombic'
loop_
_space_group_symop_operation_xyz
x,y,z
-x,-y,z
1/2+x,1/2-y,-z
1/2-x,1/2+y,-z
-x,-y,-z
x,y,-z
1/2-x,1/2+y,z
1/2+x,1/2-y,z
loop_
_atom_site_type_symbol
_atom_site_label
_atom_site_fract_x
_atom_site_fract_y
_atom_site_fract_z
Si Si1 0.296893 0.690105 0.896618
Si Si2 0.457596 0.233216 0.838845
Si Si3 0.931952 0.121970 0.689157
Si Si4 0.171884 0.108248 0.601408
Si Si5 0.280222 0.517557 0.773131
Si Si6 0.707046 0.181197 0.600425
Si Si7 0.431468 0.919664 0.252715
O O1 0.420402 0.737864 0.883053
O O2 0.301435 0.602509 0.834416
O O3 0.172422 0.736022 0.876553
O O4 0.291813 0.665962 0.000000
O O5 0.453431 0.292976 0.750548
O O6 0.483539 0.132439 0.810540
O O7 0.885682 0.046736 0.757039
O O8 0.829170 0.144177 0.624160
O O9 0.043722 0.100701 0.634846
O O10 0.182450 0.077061 0.500000
O O11 0.205776 0.211703 0.606231
O O12 0.243008 0.054380 0.673235
O O13 0.174669 0.458695 0.800708
O O14 0.675446 0.156375 0.500000
O O15 0.622021 0.143908 0.673320
O O16 0.500000 0.000000 0.294790
#
# Coordination Sequence:
#
# PCOD9429453 Si02
#       7
#     8   8   8   8   8   8   8
#     4  12  26  47  75 109 144 181 233 290 353 426
#     4  12  24  48  75 103 137 188 233 286 350 431
#     4  11  22  39  69  92 133 186 236 288 350 420
#     4  11  22  38  64  96 135 183 234 290 351 420
#     4  11  23  42  64 101 137 181 226 292 348 413
#     4  10  22  38  57  94 137 181 235 292 346 411
#     4  11  22  40  69  92 129 182 230 284 346 407
#
# _framework density 20.740741
#
# number of rings (size 3 to 8) (size 9 to 14) (size 15 to 20)
#    0.000    0.857    4.286    3.857    0.000    3.714 
#    0.000    5.714    0.000    0.000    0.000    0.000 
#    0.000    0.000    0.000    0.000    0.000    0.000 
#
# Total GULP energy -312374.849115 kJ/mol
# GULP energy per Si atom -5578.122306 kJ/mol
# Density = 2.069353 g / cm^3
# Si number density = 20.740741 Si / 1000 Ang^3
#
#
#
# Elastic Constant Matrix: (Units=GPa)
#
#
# Indices 1 2 3 4 5 6 
#
# 1 97.1683 20.0762 -0.4719 0.0000 0.0000 0.0000
# 2 20.0762 72.4917 23.6860 0.0000 0.0000 0.0000
# 3 -0.4719 23.6860 69.2197 0.0000 0.0000 0.0000
# 4 0.0000 0.0000 0.0000 4.3567 0.0000 0.0000
# 5 0.0000 0.0000 0.0000 0.0000 19.1596 0.0000
# 6 0.0000 0.0000 0.0000 0.0000 0.0000 43.3284
#
#
#
# Elastic Compliance Matrix: (Units=1/GPa)
#
#
# Indices 1 2 3 4 5 6 
#
# 1 0.011013 -0.003461 0.001260 0.000000 0.000000 0.000000
# 2 -0.003461 0.016619 -0.005710 0.000000 0.000000 0.000000
# 3 0.001260 -0.005710 0.016409 0.000000 0.000000 0.000000
# 4 0.000000 0.000000 0.000000 0.229532 0.000000 0.000000
# 5 0.000000 0.000000 0.000000 0.000000 0.052193 0.000000
# 6 0.000000 0.000000 0.000000 0.000000 0.000000 0.023080
#
#
# Mechanical properties :
#
#
# Convention : Reuss Voigt Hill
#
# Bulk Modulus (GPa) = 35.44022 36.16226 35.80124
# Shear Modulus (GPa) = 13.36626 26.40823 19.88724
#
# Velocity S-wave (km/s) = 2.54135 3.57214 3.09989
# Velocity P-wave (km/s) = 5.07303 5.87255 5.48737
#
# Compressibility (1/GPa) = 0.02821653
#
# Stress axis : x y z
#
# Youngs Moduli (GPa) = 90.80413 60.17155 60.94078
#
# Poissons Ratio (x) = 0.20828 -0.07676
# Poissons Ratio (y) = 0.31431 0.34800
# Poissons Ratio (z) = -0.11437 0.34361
#
# Static dielectric constant tensor:
#      x y z
#    x 1.779130 0.000000 0.000000 
#    y 0.000000 1.796820 0.000000 
#    z 0.000000 0.000000 1.714140 
# 
# From -- ./inp_files/18380.got.cif
#   From: 2010.05.17/outbox.ucp.g08.bks.cvg/sg55_10_cif.got.tgz:18380.got - 2010.06.11 16:36:00.
