data_PCOD9429817
_publ_section_title
;
Structure prediction by ZEFSAII (Michael W. Deem and Ramdas Pophale) SiO2 
 PCOD9429817
Probable space group: P C C N
;
_chemical_formula_sum "Si O2"
_cell_formula_units_Z 64
_cell_length_a 8.602988
_cell_length_b 17.290009
_cell_length_c 18.836057
_cell_angle_alpha 90.000000
_cell_angle_beta 90.000000
_cell_angle_gamma 90.000000
_cell_volume 2801.783236
_symmetry_space_group_name_H-M "P C C N"
_symmetry_group_IT_number 56
_symmetry_cell_setting 'orthorhombic'
loop_
_space_group_symop_operation_xyz
x,y,z
1/2-x,1/2-y,z
1/2+x,-y,1/2-z
-x,1/2+y,1/2-z
-x,-y,-z
1/2+x,1/2+y,-z
1/2-x,y,1/2+z
x,1/2-y,1/2+z
loop_
_atom_site_type_symbol
_atom_site_label
_atom_site_fract_x
_atom_site_fract_y
_atom_site_fract_z
Si Si1 0.033195 0.086550 0.559686
Si Si2 0.492245 0.718470 0.645841
Si Si3 0.828191 0.123366 0.844464
Si Si4 0.086355 0.214173 0.203225
Si Si5 0.388426 0.629776 0.314140
Si Si6 0.079771 0.622157 0.409197
Si Si7 0.226784 0.977483 0.018036
Si Si8 0.570044 0.755988 0.990418
O O1 0.010592 0.177724 0.560544
O O2 0.999577 0.070007 0.642432
O O3 0.892806 0.058422 0.509116
O O4 0.205496 0.062554 0.534511
O O5 0.458948 0.810595 0.646122
O O6 0.332683 0.671034 0.650702
O O7 0.590317 0.692709 0.713681
O O8 0.561063 0.707775 0.568529
O O9 0.846778 0.095831 0.763425
O O10 0.824854 0.062255 0.908512
O O11 0.250000 0.250000 0.183411
O O12 0.959163 0.284150 0.199956
O O13 0.046933 0.143693 0.150625
O O14 0.235418 0.635914 0.363309
O O15 0.110226 0.543071 0.453311
O O16 0.036947 0.682716 0.472228
O O17 0.750000 0.750000 0.975145
#
# Coordination Sequence:
#
# PCOD9429817 Si02
#       8
#     8   8   8   8   8   8   8   8
#     4  10  22  37  60  91 124 164 204 271 320 383
#     4  10  20  33  57  93 123 159 210 267 318 380
#     4  10  18  34  62  89 114 161 218 271 309 379
#     4  11  21  34  57  92 130 158 202 270 330 372
#     4  10  21  35  62  86 120 162 220 260 315 381
#     4  11  21  36  61  93 116 167 213 265 315 392
#     4  10  21  38  63  88 124 160 213 263 323 381
#     4  12  23  36  60  92 130 167 209 269 337 383
#
# _framework density 22.842594999999999
#
# number of rings (size 3 to 8) (size 9 to 14) (size 15 to 20)
#    0.000    1.500    5.000    1.125    1.750    0.000 
#    0.000    0.625    5.500    3.000    0.000    0.000 
#    0.000    0.000    0.000    0.000    0.000    0.000 
#
# Total GULP energy -356720.624942 kJ/mol
# GULP energy per Si atom -5573.759765 kJ/mol
# Density = 2.279060 g / cm^3
# Si number density = 22.842595 Si / 1000 Ang^3
#
#
#
# Elastic Constant Matrix: (Units=GPa)
#
#
# Indices 1 2 3 4 5 6 
#
# 1 53.2555 9.7190 27.5936 0.0000 0.0000 0.0000
# 2 9.7190 31.3614 11.5135 0.0000 0.0000 0.0000
# 3 27.5936 11.5135 183.2148 0.0000 0.0000 0.0000
# 4 0.0000 0.0000 0.0000 18.7716 0.0000 0.0000
# 5 0.0000 0.0000 0.0000 0.0000 8.6214 0.0000
# 6 0.0000 0.0000 0.0000 0.0000 0.0000 32.6509
#
#
#
# Elastic Compliance Matrix: (Units=1/GPa)
#
#
# Indices 1 2 3 4 5 6 
#
# 1 0.021268 -0.005543 -0.002855 0.000000 0.000000 0.000000
# 2 -0.005543 0.034084 -0.001307 0.000000 0.000000 0.000000
# 3 -0.002855 -0.001307 0.005970 0.000000 0.000000 0.000000
# 4 0.000000 0.000000 0.000000 0.053272 0.000000 0.000000
# 5 0.000000 0.000000 0.000000 0.000000 0.115991 0.000000
# 6 0.000000 0.000000 0.000000 0.000000 0.000000 0.030627
#
#
# Mechanical properties :
#
#
# Convention : Reuss Voigt Hill
#
# Bulk Modulus (GPa) = 23.85919 40.60931 32.23425
# Shear Modulus (GPa) = 16.97260 26.60916 21.79088
#
# Velocity S-wave (km/s) = 2.72880 3.41675 3.09197
# Velocity P-wave (km/s) = 4.51622 5.77772 5.18548
#
# Compressibility (1/GPa) = 0.04191256
#
# Stress axis : x y z
#
# Youngs Moduli (GPa) = 47.01865 29.33931 167.49944
#
# Poissons Ratio (x) = 0.16263 0.47818
# Poissons Ratio (y) = 0.26062 0.21893
# Poissons Ratio (z) = 0.13423 0.03835
#
# Static dielectric constant tensor:
#      x y z
#    x 1.910800 0.000000 0.000000 
#    y 0.000000 1.893950 0.000000 
#    z 0.000000 0.000000 1.973270 
# 
# From -- ./inp_files/18385.got.cif
#   From: 2010.05.17/outbox.cif.g08.bks.cpg/sg56_10_cif.got.tgz:18385.got - 2010.06.03 13:42:01.
