data_PCOD9429075
_publ_section_title
;
Structure prediction by ZEFSAII (Michael W. Deem and Ramdas Pophale) SiO2 
 PCOD9429075
Probable space group: P B A M
;
_chemical_formula_sum "Si O2"
_cell_formula_units_Z 48
_cell_length_a 17.969012
_cell_length_b 8.260118
_cell_length_c 15.533505
_cell_angle_alpha 90.000000
_cell_angle_beta 90.000000
_cell_angle_gamma 90.000000
_cell_volume 2305.578490
_symmetry_space_group_name_H-M "P B A M"
_symmetry_group_IT_number 55
_symmetry_cell_setting 'orthorhombic'
loop_
_space_group_symop_operation_xyz
x,y,z
-x,-y,z
1/2+x,1/2-y,-z
1/2-x,1/2+y,-z
-x,-y,-z
x,y,-z
1/2-x,1/2+y,z
1/2+x,1/2-y,z
loop_
_atom_site_type_symbol
_atom_site_label
_atom_site_fract_x
_atom_site_fract_y
_atom_site_fract_z
Si Si1 0.089955 0.169155 0.677979
Si Si2 0.343751 0.329715 0.664209
Si Si3 0.132930 0.295047 0.500000
Si Si4 0.283563 0.824358 0.204866
Si Si5 0.838146 0.373190 0.101898
Si Si6 0.959965 0.327185 0.776207
Si Si7 0.284892 0.142926 0.500000
O O1 0.087868 0.272516 0.589089
O O2 0.159552 0.225423 0.736156
O O3 0.020232 0.201917 0.739973
O O4 0.103695 0.984032 0.651006
O O5 0.277179 0.388147 0.726525
O O6 0.391125 0.189525 0.710640
O O7 0.310219 0.246177 0.581617
O O8 0.195418 0.152053 0.500000
O O9 0.177368 0.466095 0.500000
O O10 0.232560 0.727289 0.136993
O O11 0.328909 0.956810 0.151419
O O12 0.916795 0.298110 0.134072
O O13 0.836084 0.389336 0.000000
O O14 0.000000 0.500000 0.776441
#
# Coordination Sequence:
#
# PCOD9429075 Si02
#       7
#     8   8   4   8   8   8   4
#     4  12  23  43  64  99 136 184 223 271 340 392
#     4  11  24  41  68  94 138 177 227 277 331 394
#     4  12  26  37  68  99 144 177 235 283 321 399
#     4  11  22  40  70  96 131 170 220 279 334 398
#     4  11  24  44  69 101 131 171 225 282 341 405
#     4  11  24  42  67  95 134 180 221 272 342 404
#     4  12  24  39  62 105 130 177 235 285 325 387
#
# _framework density 20.819071999999998
#
# number of rings (size 3 to 8) (size 9 to 14) (size 15 to 20)
#    0.000    0.667    5.000    3.500    2.333    1.000 
#    0.000    3.333    0.000    2.000    0.000    0.000 
#    0.000    0.000    0.000    0.000    0.000    0.000 
#
# Total GULP energy -268123.961697 kJ/mol
# GULP energy per Si atom -5585.915869 kJ/mol
# Density = 2.077169 g / cm^3
# Si number density = 20.819072 Si / 1000 Ang^3
#
#
#
# Elastic Constant Matrix: (Units=GPa)
#
#
# Indices 1 2 3 4 5 6 
#
# 1 90.2436 14.9645 39.4667 0.0000 0.0000 0.0000
# 2 14.9645 65.9762 39.7720 0.0000 0.0000 0.0000
# 3 39.4667 39.7720 146.6796 0.0000 0.0000 0.0000
# 4 0.0000 0.0000 0.0000 23.4718 0.0000 0.0000
# 5 0.0000 0.0000 0.0000 0.0000 23.4446 0.0000
# 6 0.0000 0.0000 0.0000 0.0000 0.0000 34.0831
#
#
#
# Elastic Compliance Matrix: (Units=1/GPa)
#
#
# Indices 1 2 3 4 5 6 
#
# 1 0.012611 -0.000974 -0.003129 0.000000 0.000000 0.000000
# 2 -0.000974 0.018194 -0.004671 0.000000 0.000000 0.000000
# 3 -0.003129 -0.004671 0.008926 0.000000 0.000000 0.000000
# 4 0.000000 0.000000 0.000000 0.042604 0.000000 0.000000
# 5 0.000000 0.000000 0.000000 0.000000 0.042654 0.000000
# 6 0.000000 0.000000 0.000000 0.000000 0.000000 0.029340
#
#
# Mechanical properties :
#
#
# Convention : Reuss Voigt Hill
#
# Bulk Modulus (GPa) = 45.08098 54.58954 49.83526
# Shear Modulus (GPa) = 27.89058 30.11297 29.00177
#
# Velocity S-wave (km/s) = 3.66411 3.80730 3.73639
# Velocity P-wave (km/s) = 6.29299 6.75316 6.52713
#
# Compressibility (1/GPa) = 0.02218230
#
# Stress axis : x y z
#
# Youngs Moduli (GPa) = 79.29502 54.96382 112.03108
#
# Poissons Ratio (x) = 0.05354 0.35056
# Poissons Ratio (y) = 0.07724 0.52331
# Poissons Ratio (z) = 0.24812 0.25674
#
# Static dielectric constant tensor:
#      x y z
#    x 1.792390 0.000000 0.000000 
#    y 0.000000 1.780410 0.000000 
#    z 0.000000 0.000000 1.730510 
# 
# From -- ./inp_files/19372.got.cif
#   From: 2010.05.17/outbox.cif.g08.bks.cpg/sg55_10_cif.got.tgz:19372.got - 2010.06.03 13:27:54.
