data_PCOD9429071
_publ_section_title
;
Structure prediction by ZEFSAII (Michael W. Deem and Ramdas Pophale) SiO2 
 PCOD9429071
Probable space group: P B A M
;
_chemical_formula_sum "Si O2"
_cell_formula_units_Z 48
_cell_length_a 14.052623
_cell_length_b 9.441266
_cell_length_c 15.841693
_cell_angle_alpha 90.000000
_cell_angle_beta 90.000000
_cell_angle_gamma 90.000000
_cell_volume 2101.789518
_symmetry_space_group_name_H-M "P B A M"
_symmetry_group_IT_number 55
_symmetry_cell_setting 'orthorhombic'
loop_
_space_group_symop_operation_xyz
x,y,z
-x,-y,z
1/2+x,1/2-y,-z
1/2-x,1/2+y,-z
-x,-y,-z
x,y,-z
1/2-x,1/2+y,z
1/2+x,1/2-y,z
loop_
_atom_site_type_symbol
_atom_site_label
_atom_site_fract_x
_atom_site_fract_y
_atom_site_fract_z
Si Si1 0.510412 0.666369 0.827626
Si Si2 0.758753 0.440894 0.711914
Si Si3 0.201158 0.293938 0.824721
Si Si4 0.558454 0.789576 0.000000
Si Si5 0.547475 0.852122 0.325941
Si Si6 0.658329 0.081939 0.000000
Si Si7 0.079387 0.122517 0.405122
O O1 0.500000 0.500000 0.816259
O O2 0.408251 0.742822 0.826966
O O3 0.562363 0.698706 0.915145
O O4 0.560171 0.740330 0.749408
O O5 0.777996 0.596345 0.748905
O O6 0.756423 0.346352 0.797178
O O7 0.845258 0.394316 0.650961
O O8 0.660927 0.412687 0.662600
O O9 0.212457 0.365438 0.916181
O O10 0.449938 0.853718 0.000000
O O11 0.635482 0.914889 0.000000
O O12 0.476112 0.770010 0.387812
O O13 0.500000 0.000000 0.297221
O O14 0.118888 0.123183 0.500000
O O15 0.000000 0.000000 0.399914
#
# Coordination Sequence:
#
# PCOD9429071 Si02
#       7
#     8   8   8   4   8   4   8
#     4  11  22  40  66 103 143 188 247 299 365 433
#     4  12  24  44  72 104 141 190 246 295 366 439
#     4  11  24  41  68 101 140 195 238 298 358 428
#     4   9  19  34  66  95 138 192 239 302 348 422
#     4  12  24  44  73 105 140 186 240 298 363 440
#     4   9  20  40  60  99 144 184 247 293 356 412
#     4  11  26  48  74 105 144 189 235 300 374 441
#
# _framework density 22.837682000000001
#
# number of rings (size 3 to 8) (size 9 to 14) (size 15 to 20)
#    0.000    1.000    3.333    2.750    4.667    1.667 
#    0.000    5.000    0.000    0.000    0.000    0.583 
#    0.000    0.000    0.000    0.000    0.000    0.000 
#
# Total GULP energy -268356.246598 kJ/mol
# GULP energy per Si atom -5590.755137 kJ/mol
# Density = 2.278570 g / cm^3
# Si number density = 22.837682 Si / 1000 Ang^3
#
#
#
# Elastic Constant Matrix: (Units=GPa)
#
#
# Indices 1 2 3 4 5 6 
#
# 1 101.0863 22.8971 22.2940 0.0000 0.0000 0.0000
# 2 22.8971 145.4595 40.7901 0.0000 0.0000 0.0000
# 3 22.2940 40.7901 122.7166 0.0000 0.0000 0.0000
# 4 0.0000 0.0000 0.0000 18.5515 0.0000 0.0000
# 5 0.0000 0.0000 0.0000 0.0000 8.2850 0.0000
# 6 0.0000 0.0000 0.0000 0.0000 0.0000 26.9664
#
#
#
# Elastic Compliance Matrix: (Units=1/GPa)
#
#
# Indices 1 2 3 4 5 6 
#
# 1 0.010502 -0.001233 -0.001498 0.000000 0.000000 0.000000
# 2 -0.001233 0.007726 -0.002344 0.000000 0.000000 0.000000
# 3 -0.001498 -0.002344 0.009200 0.000000 0.000000 0.000000
# 4 0.000000 0.000000 0.000000 0.053904 0.000000 0.000000
# 5 0.000000 0.000000 0.000000 0.000000 0.120701 0.000000
# 6 0.000000 0.000000 0.000000 0.000000 0.000000 0.037083
#
#
# Mechanical properties :
#
#
# Convention : Reuss Voigt Hill
#
# Bulk Modulus (GPa) = 57.87686 60.13609 59.00648
# Shear Modulus (GPa) = 19.60583 29.64599 24.62591
#
# Velocity S-wave (km/s) = 2.93317 3.60685 3.28731
# Velocity P-wave (km/s) = 6.07199 6.61324 6.34838
#
# Compressibility (1/GPa) = 0.01727806
#
# Stress axis : x y z
#
# Youngs Moduli (GPa) = 95.21783 129.42951 108.69351
#
# Poissons Ratio (x) = 0.15960 0.16283
# Poissons Ratio (y) = 0.11741 0.25479
# Poissons Ratio (z) = 0.14264 0.30340
#
# Static dielectric constant tensor:
#      x y z
#    x 1.938480 0.000000 0.000000 
#    y 0.000000 1.821150 0.000000 
#    z 0.000000 0.000000 1.840740 
# 
# From -- ./inp_files/21523.got.cif
#   From: 2010.05.17/outbox.cif.g08.bks.cpg/sg55_11_cif.got.tgz:21523.got - 2010.06.03 13:27:54.
