data_PCOD9429799
_publ_section_title
;
Structure prediction by ZEFSAII (Michael W. Deem and Ramdas Pophale) SiO2 
 PCOD9429799
Probable space group: P C C N
;
_chemical_formula_sum "Si O2"
_cell_formula_units_Z 60
_cell_length_a 8.129451
_cell_length_b 22.090465
_cell_length_c 16.970510
_cell_angle_alpha 90.000000
_cell_angle_beta 90.000000
_cell_angle_gamma 90.000000
_cell_volume 3047.621084
_symmetry_space_group_name_H-M "P C C N"
_symmetry_group_IT_number 56
_symmetry_cell_setting 'orthorhombic'
loop_
_space_group_symop_operation_xyz
x,y,z
1/2-x,1/2-y,z
1/2+x,-y,1/2-z
-x,1/2+y,1/2-z
-x,-y,-z
1/2+x,1/2+y,-z
1/2-x,y,1/2+z
x,1/2-y,1/2+z
loop_
_atom_site_type_symbol
_atom_site_label
_atom_site_fract_x
_atom_site_fract_y
_atom_site_fract_z
Si Si1 0.227475 0.972233 0.650049
Si Si2 0.250000 0.750000 0.863526
Si Si3 0.965167 0.331202 0.233160
Si Si4 0.710331 0.892972 0.327206
Si Si5 0.567348 0.139239 0.566342
Si Si6 0.466563 0.111637 0.390334
Si Si7 0.394159 0.433605 0.346782
Si Si8 0.248702 0.557153 0.821987
O O1 0.405965 0.941801 0.635740
O O2 0.179692 0.974033 0.743536
O O3 0.079707 0.928773 0.618182
O O4 0.247131 0.043058 0.630201
O O5 0.103065 0.729303 0.805468
O O6 0.190648 0.805735 0.916863
O O7 0.001600 0.335664 0.325886
O O8 0.828307 0.381690 0.212404
O O9 0.126952 0.356309 0.191832
O O10 0.594720 0.852910 0.381429
O O11 0.622907 0.908377 0.243013
O O12 0.519876 0.131029 0.476612
O O13 0.641347 0.077896 0.605360
O O14 0.274406 0.091514 0.386424
O O15 0.376889 0.506427 0.349574
#
# Coordination Sequence:
#
# PCOD9429799 Si02
#       8
#     8   4   8   8   8   8   8   8
#     4  10  18  34  58  91 122 171 184 232 277 365
#     4  10  24  42  68  76 104 156 214 248 314 344
#     4   9  19  39  60  87 104 155 202 253 278 356
#     4  10  19  33  62  87 123 153 205 236 283 350
#     4  11  22  40  57  87 118 157 191 263 295 349
#     4  10  23  36  58  90 131 146 192 239 312 349
#     4  10  18  34  57  91 123 164 191 229 276 367
#     4   9  17  32  56  84 121 153 206 216 278 353
#
# _framework density 19.687486
#
# number of rings (size 3 to 8) (size 9 to 14) (size 15 to 20)
#    0.000    2.133    2.667    0.800    3.733    3.200 
#    4.800    1.333    0.000    1.600    0.000    0.000 
#    0.000    0.000    0.000    0.000    0.000    0.000 
#
# Total GULP energy -334033.841115 kJ/mol
# GULP energy per Si atom -5567.230685 kJ/mol
# Density = 1.964268 g / cm^3
# Si number density = 19.687486 Si / 1000 Ang^3
#
#
#
# Elastic Constant Matrix: (Units=GPa)
#
#
# Indices 1 2 3 4 5 6 
#
# 1 83.3695 3.5158 17.0090 0.0000 0.0000 0.0000
# 2 3.5158 36.2954 21.1284 0.0000 0.0000 0.0000
# 3 17.0090 21.1284 89.4773 0.0000 0.0000 0.0000
# 4 0.0000 0.0000 0.0000 10.2096 0.0000 0.0000
# 5 0.0000 0.0000 0.0000 0.0000 20.5572 0.0000
# 6 0.0000 0.0000 0.0000 0.0000 0.0000 25.3866
#
#
#
# Elastic Compliance Matrix: (Units=1/GPa)
#
#
# Indices 1 2 3 4 5 6 
#
# 1 0.012480 0.000200 -0.002419 0.000000 0.000000 0.000000
# 2 0.000200 0.031946 -0.007581 0.000000 0.000000 0.000000
# 3 -0.002419 -0.007581 0.013426 0.000000 0.000000 0.000000
# 4 0.000000 0.000000 0.000000 0.097947 0.000000 0.000000
# 5 0.000000 0.000000 0.000000 0.000000 0.048645 0.000000
# 6 0.000000 0.000000 0.000000 0.000000 0.000000 0.039391
#
#
# Mechanical properties :
#
#
# Convention : Reuss Voigt Hill
#
# Bulk Modulus (GPa) = 26.14427 32.49429 29.31928
# Shear Modulus (GPa) = 18.10370 22.39660 20.25015
#
# Velocity S-wave (km/s) = 3.03570 3.37650 3.21063
# Velocity P-wave (km/s) = 5.05923 5.63399 5.35433
#
# Compressibility (1/GPa) = 0.03824930
#
# Stress axis : x y z
#
# Youngs Moduli (GPa) = 80.12816 31.30318 74.48158
#
# Poissons Ratio (x) = -0.00625 0.18021
# Poissons Ratio (y) = -0.01599 0.56467
# Poissons Ratio (z) = 0.19387 0.23732
#
# Static dielectric constant tensor:
#      x y z
#    x 1.853080 0.000000 0.000000 
#    y 0.000000 1.708820 0.000000 
#    z 0.000000 0.000000 1.698880 
# 
# From -- ./inp_files/11016.got.cif
#   From: 2010.05.17/outbox.cif.g08.bks.cpg/sg56_6_cif.got.tgz:11016.got - 2010.06.03 13:42:01.
