data_PCOD9429466
_publ_section_title
;
Structure prediction by ZEFSAII (Michael W. Deem and Ramdas Pophale) SiO2 
 PCOD9429466
Probable space group: P B A M
;
_chemical_formula_sum "Si O2"
_cell_formula_units_Z 64
_cell_length_a 30.000000
_cell_length_b 12.000000
_cell_length_c 9.000000
_cell_angle_alpha 90.000000
_cell_angle_beta 90.000000
_cell_angle_gamma 90.000000
_cell_volume 3240.000000
_symmetry_space_group_name_H-M "P B A M"
_symmetry_group_IT_number 55
_symmetry_cell_setting 'orthorhombic'
loop_
_space_group_symop_operation_xyz
x,y,z
-x,-y,z
1/2+x,1/2-y,-z
1/2-x,1/2+y,-z
-x,-y,-z
x,y,-z
1/2-x,1/2+y,z
1/2+x,1/2-y,z
loop_
_atom_site_type_symbol
_atom_site_label
_atom_site_fract_x
_atom_site_fract_y
_atom_site_fract_z
Si Si1 0.173074 0.684111 0.168273
Si Si2 0.197609 0.425766 0.832408
Si Si3 0.970223 0.159204 0.822464
Si Si4 0.210647 0.878877 0.325491
Si Si5 0.386071 0.458000 0.674386
Si Si6 0.075410 0.626590 0.820007
Si Si7 0.940749 0.828126 0.672159
Si Si8 0.099737 0.382966 0.820069
O O1 0.186521 0.556265 0.158873
O O2 0.203534 0.751165 0.279460
O O3 0.122208 0.683487 0.223126
O O4 0.175222 0.731173 0.000000
O O5 0.243125 0.414441 0.745285
O O6 0.151527 0.374929 0.770127
O O7 0.204240 0.382004 0.000000
O O8 0.963925 0.290284 0.780025
O O9 0.015102 0.119847 0.744527
O O10 0.925218 0.101352 0.766072
O O11 0.973721 0.148547 0.000000
O O12 0.212906 0.895721 0.500000
O O13 0.164233 0.935435 0.271881
O O14 0.388855 0.423091 0.500000
O O15 0.399612 0.586859 0.681377
O O16 0.077934 0.499683 0.768773
O O17 0.076230 0.622766 0.000000
O O18 0.949543 0.804872 0.500000
O O19 0.928000 0.718976 0.761388
O O20 0.100756 0.384547 0.000000
#
# Coordination Sequence:
#
# PCOD9429466 Si02
#       8
#     8   8   8   8   8   8   8   8
#     4   9  17  35  58  80 108 144 186 234 288 336
#     4   9  20  37  59  84 112 147 188 235 287 342
#     4  11  21  36  62  90 111 143 193 244 289 340
#     4  11  22  35  56  85 114 147 189 234 285 345
#     4  10  23  41  56  77 115 157 191 232 287 342
#     4   8  16  33  59  85 110 140 179 237 291 331
#     4  11  24  40  56  79 120 162 190 229 287 344
#     4   9  19  39  61  82 111 148 191 234 283 341
#
# _framework density 19.753086
#
# number of rings (size 3 to 8) (size 9 to 14) (size 15 to 20)
#    0.000    2.250    1.250    3.000    0.000    5.500 
#    0.000    8.125    0.000    0.000    0.000    0.000 
#    0.000    0.000    0.000    0.000    0.000    0.000 
#
# Total GULP energy -356690.556151 kJ/mol
# GULP energy per Si atom -5573.289940 kJ/mol
# Density = 1.970813 g / cm^3
# Si number density = 19.753086 Si / 1000 Ang^3
#
#
#
# Elastic Constant Matrix: (Units=GPa)
#
#
# Indices 1 2 3 4 5 6 
#
# 1 92.1311 37.4074 25.8848 0.0000 0.0000 0.0000
# 2 37.4074 43.9691 11.5628 0.0000 0.0000 0.0000
# 3 25.8848 11.5628 18.6761 0.0000 0.0000 0.0000
# 4 0.0000 0.0000 0.0000 26.2035 0.0000 0.0000
# 5 0.0000 0.0000 0.0000 0.0000 27.2168 0.0000
# 6 0.0000 0.0000 0.0000 0.0000 0.0000 12.4480
#
#
#
# Elastic Compliance Matrix: (Units=1/GPa)
#
#
# Indices 1 2 3 4 5 6 
#
# 1 0.022812 -0.013251 -0.023414 0.000000 0.000000 0.000000
# 2 -0.013251 0.034863 -0.003219 0.000000 0.000000 0.000000
# 3 -0.023414 -0.003219 0.087989 0.000000 0.000000 0.000000
# 4 0.000000 0.000000 0.000000 0.038163 0.000000 0.000000
# 5 0.000000 0.000000 0.000000 0.000000 0.036742 0.000000
# 6 0.000000 0.000000 0.000000 0.000000 0.000000 0.080334
#
#
# Mechanical properties :
#
#
# Convention : Reuss Voigt Hill
#
# Bulk Modulus (GPa) = 15.17530 33.83182 24.50356
# Shear Modulus (GPa) = 12.41815 18.50176 15.45996
#
# Velocity S-wave (km/s) = 2.51005 3.06380 2.80064
# Velocity P-wave (km/s) = 4.01243 5.44797 4.78435
#
# Compressibility (1/GPa) = 0.06589658
#
# Stress axis : x y z
#
# Youngs Moduli (GPa) = 43.83565 28.68362 11.36511
#
# Poissons Ratio (x) = 0.38008 0.26610
# Poissons Ratio (y) = 0.58086 0.03659
# Poissons Ratio (z) = 1.02636 0.09234
#
# Static dielectric constant tensor:
#      x y z
#    x 1.709470 0.000000 0.000000 
#    y 0.000000 1.730130 0.000000 
#    z 0.000000 0.000000 1.677930 
# 
# From -- ./inp_files/10862.got.cif
#   From: 2010.05.17/outbox.ucp.g08.bks.cvg/sg55_6_cif.got.tgz:10862.got - 2010.06.11 16:36:00.
