data_PCOD9429118
_publ_section_title
;
Structure prediction by ZEFSAII (Michael W. Deem and Ramdas Pophale) SiO2 
 PCOD9429118
Probable space group: P B A M
;
_chemical_formula_sum "Si O2"
_cell_formula_units_Z 32
_cell_length_a 9.617947
_cell_length_b 16.951034
_cell_length_c 8.575508
_cell_angle_alpha 90.000000
_cell_angle_beta 90.000000
_cell_angle_gamma 90.000000
_cell_volume 1398.100629
_symmetry_space_group_name_H-M "P B A M"
_symmetry_group_IT_number 55
_symmetry_cell_setting 'orthorhombic'
loop_
_space_group_symop_operation_xyz
x,y,z
-x,-y,z
1/2+x,1/2-y,-z
1/2-x,1/2+y,-z
-x,-y,-z
x,y,-z
1/2-x,1/2+y,z
1/2+x,1/2-y,z
loop_
_atom_site_type_symbol
_atom_site_label
_atom_site_fract_x
_atom_site_fract_y
_atom_site_fract_z
Si Si1 0.086028 0.418935 0.314854
Si Si2 0.342913 0.673060 0.680303
Si Si3 0.834886 0.993917 0.184835
Si Si4 0.575292 0.769454 0.180388
O O1 0.084521 0.402928 0.500000
O O2 0.241236 0.436587 0.254450
O O3 0.000000 0.500000 0.286885
O O4 0.013882 0.346751 0.226592
O O5 0.380639 0.676786 0.500000
O O6 0.292789 0.586354 0.727916
O O7 0.213989 0.729954 0.717208
O O8 0.474195 0.696977 0.783790
O O9 0.808661 0.987760 0.000000
O O10 0.000000 0.000000 0.209706
O O11 0.615260 0.772052 0.000000
#
# Coordination Sequence:
#
# PCOD9429118 Si02
#       4
#     8   8   8   8
#     4  11  23  42  69  99 131 171 222 271 329 393
#     4  12  26  46  69  98 135 175 223 275 333 396
#     4  11  25  44  68  99 135 174 224 276 332 394
#     4  12  26  45  70  98 134 176 223 274 334 398
#
# _framework density 22.888196000000001
#
# number of rings (size 3 to 8) (size 9 to 14) (size 15 to 20)
#    0.000    0.500    2.500    6.000    3.500    3.000 
#    0.000    0.000    0.000    0.000    0.000    0.000 
#    0.000    0.000    0.000    0.000    0.000    0.000 
#
# Total GULP energy -179371.095259 kJ/mol
# GULP energy per Si atom -5605.346727 kJ/mol
# Density = 2.283610 g / cm^3
# Si number density = 22.888196 Si / 1000 Ang^3
#
#
#
# Elastic Constant Matrix: (Units=GPa)
#
#
# Indices 1 2 3 4 5 6 
#
# 1 62.4637 -8.6494 -1.7848 0.0000 0.0000 0.0000
# 2 -8.6494 43.1223 -3.6262 0.0000 0.0000 0.0000
# 3 -1.7848 -3.6262 74.3765 0.0000 0.0000 0.0000
# 4 0.0000 0.0000 0.0000 47.5039 0.0000 0.0000
# 5 0.0000 0.0000 0.0000 0.0000 34.6449 0.0000
# 6 0.0000 0.0000 0.0000 0.0000 0.0000 39.3930
#
#
#
# Elastic Compliance Matrix: (Units=1/GPa)
#
#
# Indices 1 2 3 4 5 6 
#
# 1 0.016490 0.003355 0.000559 0.000000 0.000000 0.000000
# 2 0.003355 0.023968 0.001249 0.000000 0.000000 0.000000
# 3 0.000559 0.001249 0.013519 0.000000 0.000000 0.000000
# 4 0.000000 0.000000 0.000000 0.021051 0.000000 0.000000
# 5 0.000000 0.000000 0.000000 0.000000 0.028864 0.000000
# 6 0.000000 0.000000 0.000000 0.000000 0.000000 0.025385
#
#
# Mechanical properties :
#
#
# Convention : Reuss Voigt Hill
#
# Bulk Modulus (GPa) = 15.55147 16.87129 16.21138
# Shear Modulus (GPa) = 35.61611 37.24323 36.42967
#
# Velocity S-wave (km/s) = 3.94901 4.03821 3.99386
# Velocity P-wave (km/s) = 5.25378 5.39722 5.32598
#
# Compressibility (1/GPa) = 0.06430261
#
# Stress axis : x y z
#
# Youngs Moduli (GPa) = 60.64365 41.72270 73.96767
#
# Poissons Ratio (x) = -0.13996 -0.04137
# Poissons Ratio (y) = -0.20343 -0.09239
# Poissons Ratio (z) = -0.03392 -0.05211
#
# Static dielectric constant tensor:
#      x y z
#    x 1.849050 0.000000 0.000000 
#    y 0.000000 1.898460 0.000000 
#    z 0.000000 0.000000 1.753920 
# 
# From -- ./inp_files/3526.got.cif
#   From: 2010.05.17/outbox.cif.g08.bks.cpg/sg55_2_cif.got.tgz:3526.got - 2010.06.03 13:27:54.
