data_PCOD9429213
_publ_section_title
;
Structure prediction by ZEFSAII (Michael W. Deem and Ramdas Pophale) SiO2 
 PCOD9429213
Probable space group: P B A M
;
_chemical_formula_sum "Si O2"
_cell_formula_units_Z 40
_cell_length_a 22.130007
_cell_length_b 8.246376
_cell_length_c 9.667847
_cell_angle_alpha 90.000000
_cell_angle_beta 90.000000
_cell_angle_gamma 90.000000
_cell_volume 1764.308202
_symmetry_space_group_name_H-M "P B A M"
_symmetry_group_IT_number 55
_symmetry_cell_setting 'orthorhombic'
loop_
_space_group_symop_operation_xyz
x,y,z
-x,-y,z
1/2+x,1/2-y,-z
1/2-x,1/2+y,-z
-x,-y,-z
x,y,-z
1/2-x,1/2+y,z
1/2+x,1/2-y,z
loop_
_atom_site_type_symbol
_atom_site_label
_atom_site_fract_x
_atom_site_fract_y
_atom_site_fract_z
Si Si1 0.090089 0.601427 0.744675
Si Si2 0.648773 0.049438 0.000000
Si Si3 0.334465 0.955092 0.500000
Si Si4 0.332711 0.408194 0.742579
Si Si5 0.598437 0.437685 0.500000
Si Si6 0.514909 0.764764 0.500000
Si Si7 0.278375 0.601662 0.000000
Si Si8 0.757529 0.259912 0.500000
O O1 0.102510 0.481958 0.872685
O O2 0.131839 0.517142 0.631150
O O3 0.033176 0.647503 0.645057
O O4 0.118775 0.773774 0.790962
O O5 0.686822 0.221744 0.000000
O O6 0.704639 0.915966 0.000000
O O7 0.312950 0.774323 0.500000
O O8 0.271010 0.051123 0.500000
O O9 0.366950 0.532613 0.643109
O O10 0.287970 0.308615 0.640116
O O11 0.299875 0.502643 0.864614
O O12 0.555145 0.601475 0.500000
O O13 0.554893 0.282868 0.500000
#
# Coordination Sequence:
#
# PCOD9429213 Si02
#       8
#     8   4   4   8   4   4   4   4
#     4   9  18  33  52  76 105 135 171 214 259 309
#     4  12  24  36  51  74 107 145 180 213 257 312
#     4   9  17  28  45  69  95 126 164 207 253 303
#     4   9  18  33  52  76 105 135 171 214 259 309
#     4   8  15  32  60  87 106 130 172 224 268 306
#     4   8  15  32  60  87 106 130 172 224 268 306
#     4  12  24  36  51  74 107 145 180 213 257 312
#     4   9  17  28  45  69  95 126 164 207 253 303
#
# _framework density 22.671776000000001
#
# number of rings (size 3 to 8) (size 9 to 14) (size 15 to 20)
#    0.000    2.600    0.000    5.400    0.000    4.800 
#    0.000    4.000    0.000    8.400    0.000    0.000 
#    0.000    0.000    0.000    0.000    0.000    0.000 
#
# Total GULP energy -223023.055028 kJ/mol
# GULP energy per Si atom -5575.576376 kJ/mol
# Density = 2.262017 g / cm^3
# Si number density = 22.671776 Si / 1000 Ang^3
#
#
#
# Elastic Constant Matrix: (Units=GPa)
#
#
# Indices 1 2 3 4 5 6 
#
# 1 37.1457 5.3501 23.1109 0.0000 0.0000 0.0000
# 2 5.3501 94.6234 29.1050 0.0000 0.0000 0.0000
# 3 23.1109 29.1050 144.1084 0.0000 0.0000 0.0000
# 4 0.0000 0.0000 0.0000 11.9028 0.0000 0.0000
# 5 0.0000 0.0000 0.0000 0.0000 -7.0493 0.0000
# 6 0.0000 0.0000 0.0000 0.0000 0.0000 26.6554
#
#
#
# Elastic Compliance Matrix: (Units=1/GPa)
#
#
# Indices 1 2 3 4 5 6 
#
# 1 0.029910 -0.000230 -0.004750 0.000000 0.000000 0.000000
# 2 -0.000230 0.011270 -0.002239 0.000000 0.000000 0.000000
# 3 -0.004750 -0.002239 0.008153 0.000000 0.000000 0.000000
# 4 0.000000 0.000000 0.000000 0.084014 0.000000 0.000000
# 5 0.000000 0.000000 0.000000 0.000000 -0.141857 0.000000
# 6 0.000000 0.000000 0.000000 0.000000 0.000000 0.037516
#
#
# Mechanical properties :
#
#
# Convention : Reuss Voigt Hill
#
# Bulk Modulus (GPa) = 28.65829 43.44548 36.05188
# Shear Modulus (GPa) = 90.78481 20.85587 55.82034
#
# Velocity S-wave (km/s) = 6.33483 3.03628 4.96735
# Velocity P-wave (km/s) = 8.13478 5.61217 6.98824
#
# Compressibility (1/GPa) = 0.03489392
#
# Stress axis : x y z
#
# Youngs Moduli (GPa) = 33.43410 88.73128 122.65015
#
# Poissons Ratio (x) = 0.02041 0.58261
# Poissons Ratio (y) = 0.00769 0.27465
# Poissons Ratio (z) = 0.15882 0.19869
#
# Static dielectric constant tensor:
#      x y z
#    x 1.898280 0.000000 0.000000 
#    y 0.000000 1.915550 0.000000 
#    z 0.000000 0.000000 1.785230 
# 
# From -- ./inp_files/10054.got.cif
#   From: 2010.05.17/outbox.cif.g08.bks.cpg/sg55_6_cif.got.tgz:10054.got - 2010.06.03 13:27:54.
