data_PCOD9429460
_publ_section_title
;
Structure prediction by ZEFSAII (Michael W. Deem and Ramdas Pophale) SiO2 
 PCOD9429460
Probable space group: P B A M
;
_chemical_formula_sum "Si O2"
_cell_formula_units_Z 56
_cell_length_a 9.000000
_cell_length_b 15.000000
_cell_length_c 21.000000
_cell_angle_alpha 90.000000
_cell_angle_beta 90.000000
_cell_angle_gamma 90.000000
_cell_volume 2835.000000
_symmetry_space_group_name_H-M "P B A M"
_symmetry_group_IT_number 55
_symmetry_cell_setting 'orthorhombic'
loop_
_space_group_symop_operation_xyz
x,y,z
-x,-y,z
1/2+x,1/2-y,-z
1/2-x,1/2+y,-z
-x,-y,-z
x,y,-z
1/2-x,1/2+y,z
1/2+x,1/2-y,z
loop_
_atom_site_type_symbol
_atom_site_label
_atom_site_fract_x
_atom_site_fract_y
_atom_site_fract_z
Si Si1 0.081190 0.260072 0.878666
Si Si2 0.077600 0.700391 0.345626
Si Si3 0.257694 0.373702 0.337587
Si Si4 0.157859 0.874144 0.070942
Si Si5 0.832657 0.030728 0.207631
Si Si6 0.823358 0.344652 0.796699
Si Si7 0.829115 0.465506 0.426342
O O1 0.193024 0.315402 0.922427
O O2 0.184028 0.207940 0.827550
O O3 0.983569 0.190085 0.918400
O O4 0.964862 0.322405 0.840919
O O5 0.117898 0.802942 0.359659
O O6 0.139591 0.685736 0.274391
O O7 0.160446 0.631203 0.392868
O O8 0.903299 0.674392 0.344891
O O9 0.282866 0.401664 0.263537
O O10 0.254343 0.462955 0.381069
O O11 0.161542 0.932922 0.135280
O O12 0.151494 0.915488 0.000000
O O13 0.721159 0.947644 0.206981
O O14 0.000000 0.000000 0.223926
O O15 0.776880 0.462518 0.500000
O O16 0.000000 0.500000 0.427716
#
# Coordination Sequence:
#
# PCOD9429460 Si02
#       7
#     8   8   8   8   8   8   8
#     4  10  22  40  63  88 119 161 206 261 317 382
#     4  11  22  38  66  95 126 172 211 265 318 374
#     4  11  24  40  65  96 129 167 216 263 319 376
#     4  11  23  41  61  88 122 162 208 259 323 384
#     4  12  25  40  62  94 126 165 207 272 320 375
#     4  11  21  40  62  92 122 158 207 265 313 375
#     4   9  20  40  62  92 132 170 211 258 313 375
#
# _framework density 19.753086
#
# number of rings (size 3 to 8) (size 9 to 14) (size 15 to 20)
#    0.000    1.286    2.857    3.857    2.000    2.571 
#    0.000    2.143    0.000    3.000    0.000    0.000 
#    0.000    0.000    0.000    0.000    0.000    0.000 
#
# Total GULP energy -313007.065266 kJ/mol
# GULP energy per Si atom -5589.411880 kJ/mol
# Density = 1.970813 g / cm^3
# Si number density = 19.753086 Si / 1000 Ang^3
#
#
#
# Elastic Constant Matrix: (Units=GPa)
#
#
# Indices 1 2 3 4 5 6 
#
# 1 83.0088 18.5702 13.4090 0.0000 0.0000 0.0000
# 2 18.5702 77.1529 22.1188 0.0000 0.0000 0.0000
# 3 13.4090 22.1188 122.3192 0.0000 0.0000 0.0000
# 4 0.0000 0.0000 0.0000 27.9980 0.0000 0.0000
# 5 0.0000 0.0000 0.0000 0.0000 9.2438 0.0000
# 6 0.0000 0.0000 0.0000 0.0000 0.0000 26.8958
#
#
#
# Elastic Compliance Matrix: (Units=1/GPa)
#
#
# Indices 1 2 3 4 5 6 
#
# 1 0.012825 -0.002830 -0.000894 0.000000 0.000000 0.000000
# 2 -0.002830 0.014295 -0.002275 0.000000 0.000000 0.000000
# 3 -0.000894 -0.002275 0.008685 0.000000 0.000000 0.000000
# 4 0.000000 0.000000 0.000000 0.035717 0.000000 0.000000
# 5 0.000000 0.000000 0.000000 0.000000 0.108181 0.000000
# 6 0.000000 0.000000 0.000000 0.000000 0.000000 0.037181
#
#
# Mechanical properties :
#
#
# Convention : Reuss Voigt Hill
#
# Bulk Modulus (GPa) = 42.00685 43.40854 42.70770
# Shear Modulus (GPa) = 21.11348 28.05302 24.58325
#
# Velocity S-wave (km/s) = 3.27290 3.77262 3.53161
# Velocity P-wave (km/s) = 5.96613 6.40314 6.18849
#
# Compressibility (1/GPa) = 0.02380564
#
# Stress axis : x y z
#
# Youngs Moduli (GPa) = 77.97540 69.95618 115.14568
#
# Poissons Ratio (x) = 0.19801 0.10294
# Poissons Ratio (y) = 0.22071 0.26191
# Poissons Ratio (z) = 0.06971 0.15912
#
# Static dielectric constant tensor:
#      x y z
#    x 1.690060 0.000000 0.000000 
#    y 0.000000 1.718840 0.000000 
#    z 0.000000 0.000000 1.678040 
# 
# From -- ./inp_files/22614.got.cif
#   From: 2010.05.17/outbox.ucp.g08.bks.cvg/sg55_12_cif.got.tgz:22614.got - 2010.06.11 16:36:00.
