data_PCOD9429394
_publ_section_title
;
Structure prediction by ZEFSAII (Michael W. Deem and Ramdas Pophale) SiO2 
 PCOD9429394
Probable space group: P B A M
;
_chemical_formula_sum "Si O2"
_cell_formula_units_Z 48
_cell_length_a 9.000000
_cell_length_b 30.000000
_cell_length_c 9.000000
_cell_angle_alpha 90.000000
_cell_angle_beta 90.000000
_cell_angle_gamma 90.000000
_cell_volume 2430.000000
_symmetry_space_group_name_H-M "P B A M"
_symmetry_group_IT_number 55
_symmetry_cell_setting 'orthorhombic'
loop_
_space_group_symop_operation_xyz
x,y,z
-x,-y,z
1/2+x,1/2-y,-z
1/2-x,1/2+y,-z
-x,-y,-z
x,y,-z
1/2-x,1/2+y,z
1/2+x,1/2-y,z
loop_
_atom_site_type_symbol
_atom_site_label
_atom_site_fract_x
_atom_site_fract_y
_atom_site_fract_z
Si Si1 0.608961 0.135215 0.175022
Si Si2 0.565787 0.045246 0.671148
Si Si3 0.919848 0.046652 0.664787
Si Si4 0.451224 0.368964 0.173069
Si Si5 0.427623 0.225708 0.174146
Si Si6 0.875092 0.796000 0.673256
O O1 0.536449 0.092504 0.252574
O O2 0.781049 0.141518 0.221485
O O3 0.518805 0.180249 0.197628
O O4 0.614774 0.125682 0.000000
O O5 0.514314 0.047918 0.500000
O O6 0.743431 0.040330 0.673391
O O7 0.500000 0.000000 0.738775
O O8 0.950893 0.066403 0.500000
O O9 0.968402 0.078998 0.795590
O O10 0.000000 0.000000 0.673676
O O11 0.566521 0.343709 0.275775
O O12 0.469444 0.357278 0.000000
O O13 0.493608 0.262689 0.281826
O O14 0.260279 0.217445 0.221819
O O15 0.438568 0.238478 0.000000
O O16 0.837816 0.793805 0.500000
#
# Coordination Sequence:
#
# PCOD9429394 Si02
#       6
#     8   8   8   8   8   8
#     4   9  20  37  58  82 109 145 187 230 277 331
#     4   9  18  32  51  76 107 144 183 225 275 328
#     4   9  18  33  52  76 109 147 187 233 283 334
#     4  10  20  37  59  83 113 150 191 235 285 340
#     4  11  23  41  62  85 115 151 189 231 284 342
#     4  12  25  40  60  88 117 148 189 235 284 339
#
# _framework density 19.753086
#
# number of rings (size 3 to 8) (size 9 to 14) (size 15 to 20)
#    0.000    2.000    0.000    3.500    0.000    5.333 
#    0.000    1.667    0.000    0.000    0.000    0.000 
#    0.000    0.000    0.000    0.000    0.000    0.000 
#
# Total GULP energy -267813.569341 kJ/mol
# GULP energy per Si atom -5579.449361 kJ/mol
# Density = 1.970813 g / cm^3
# Si number density = 19.753086 Si / 1000 Ang^3
#
#
#
# Elastic Constant Matrix: (Units=GPa)
#
#
# Indices 1 2 3 4 5 6 
#
# 1 19.3380 5.7898 -3.1295 0.0000 0.0000 0.0000
# 2 5.7898 31.8560 15.0589 0.0000 0.0000 0.0000
# 3 -3.1295 15.0589 27.9819 0.0000 0.0000 0.0000
# 4 0.0000 0.0000 0.0000 26.9013 0.0000 0.0000
# 5 0.0000 0.0000 0.0000 0.0000 20.5262 0.0000
# 6 0.0000 0.0000 0.0000 0.0000 0.0000 20.0412
#
#
#
# Elastic Compliance Matrix: (Units=1/GPa)
#
#
# Indices 1 2 3 4 5 6 
#
# 1 0.060110 -0.018915 0.016902 0.000000 0.000000 0.000000
# 2 -0.018915 0.048054 -0.027976 0.000000 0.000000 0.000000
# 3 0.016902 -0.027976 0.052684 0.000000 0.000000 0.000000
# 4 0.000000 0.000000 0.000000 0.037173 0.000000 0.000000
# 5 0.000000 0.000000 0.000000 0.000000 0.048718 0.000000
# 6 0.000000 0.000000 0.000000 0.000000 0.000000 0.049897
#
#
# Mechanical properties :
#
#
# Convention : Reuss Voigt Hill
#
# Bulk Modulus (GPa) = 9.91382 12.73491 11.32437
# Shear Modulus (GPa) = 12.81270 17.59085 15.20178
#
# Velocity S-wave (km/s) = 2.54961 2.98742 2.77716
# Velocity P-wave (km/s) = 3.70096 4.28493 4.00361
#
# Compressibility (1/GPa) = 0.10086926
#
# Stress axis : x y z
#
# Youngs Moduli (GPa) = 16.63616 20.80989 18.98119
#
# Poissons Ratio (x) = 0.39362 -0.32082
# Poissons Ratio (y) = 0.31467 0.53103
# Poissons Ratio (z) = -0.28119 0.58219
#
# Static dielectric constant tensor:
#      x y z
#    x 1.690510 0.000000 0.000000 
#    y 0.000000 1.738130 0.000000 
#    z 0.000000 0.000000 1.680110 
# 
# From -- ./inp_files/2883.got.cif
#   From: 2010.05.17/outbox.ucp.g08.bks.cvg/sg55_2_cif.got.tgz:2883.got - 2010.06.11 16:36:00.
