data_PCOD9429820
_publ_section_title
;
Structure prediction by ZEFSAII (Michael W. Deem and Ramdas Pophale) SiO2 
 PCOD9429820
Probable space group: P C C N
;
_chemical_formula_sum "Si O2"
_cell_formula_units_Z 36
_cell_length_a 18.220246
_cell_length_b 5.670656
_cell_length_c 18.737604
_cell_angle_alpha 90.000000
_cell_angle_beta 90.000000
_cell_angle_gamma 90.000000
_cell_volume 1935.983248
_symmetry_space_group_name_H-M "P C C N"
_symmetry_group_IT_number 56
_symmetry_cell_setting 'orthorhombic'
loop_
_space_group_symop_operation_xyz
x,y,z
1/2-x,1/2-y,z
1/2+x,-y,1/2-z
-x,1/2+y,1/2-z
-x,-y,-z
1/2+x,1/2+y,-z
1/2-x,y,1/2+z
x,1/2-y,1/2+z
loop_
_atom_site_type_symbol
_atom_site_label
_atom_site_fract_x
_atom_site_fract_y
_atom_site_fract_z
Si Si1 0.523723 0.993113 0.715237
Si Si2 0.675846 0.871110 0.654141
Si Si3 0.618248 0.961592 0.027692
Si Si4 0.986997 0.685182 0.437585
Si Si5 0.750000 0.250000 0.553290
O O1 0.507824 0.238898 0.758014
O O2 0.490589 0.054517 0.637435
O O3 0.611339 0.950826 0.706586
O O4 0.750000 0.750000 0.684648
O O5 0.640219 0.696661 0.595559
O O6 0.703208 0.086711 0.605983
O O7 0.553405 0.129300 0.055939
O O8 0.691519 0.103129 0.008688
O O9 0.586913 0.818845 0.960584
O O10 0.000000 0.500000 0.500000
#
# Coordination Sequence:
#
# PCOD9429820 Si02
#       5
#     8   8   8   8   4
#     4  12  26  42  64 103 137 177 226 275 340 406
#     4  10  21  38  64  98 124 172 227 276 321 404
#     4  10  19  34  63  96 125 161 221 280 330 383
#     4  11  21  37  63  94 131 163 217 278 343 384
#     4  10  18  34  64  94 122 160 234 268 326 390
#
# _framework density 18.595199999999998
#
# number of rings (size 3 to 8) (size 9 to 14) (size 15 to 20)
#    0.000    1.333    4.444    1.333    6.222    0.000 
#    0.000    0.000    0.000    8.000    0.000    0.000 
#    0.000    0.000    0.000    0.000    0.000    0.000 
#
# Total GULP energy -200750.616823 kJ/mol
# GULP energy per Si atom -5576.406023 kJ/mol
# Density = 1.855288 g / cm^3
# Si number density = 18.595200 Si / 1000 Ang^3
#
#
#
# Elastic Constant Matrix: (Units=GPa)
#
#
# Indices 1 2 3 4 5 6 
#
# 1 158.6450 78.1201 49.7323 0.0000 0.0000 0.0000
# 2 78.1201 134.6375 53.3295 0.0000 0.0000 0.0000
# 3 49.7323 53.3295 87.6049 0.0000 0.0000 0.0000
# 4 0.0000 0.0000 0.0000 19.0494 0.0000 0.0000
# 5 0.0000 0.0000 0.0000 0.0000 30.7041 0.0000
# 6 0.0000 0.0000 0.0000 0.0000 0.0000 49.5256
#
#
#
# Elastic Compliance Matrix: (Units=1/GPa)
#
#
# Indices 1 2 3 4 5 6 
#
# 1 0.009259 -0.004336 -0.002617 0.000000 0.000000 0.000000
# 2 -0.004336 0.011818 -0.004733 0.000000 0.000000 0.000000
# 3 -0.002617 -0.004733 0.015781 0.000000 0.000000 0.000000
# 4 0.000000 0.000000 0.000000 0.052495 0.000000 0.000000
# 5 0.000000 0.000000 0.000000 0.000000 0.032569 0.000000
# 6 0.000000 0.000000 0.000000 0.000000 0.000000 0.020192
#
#
# Mechanical properties :
#
#
# Convention : Reuss Voigt Hill
#
# Bulk Modulus (GPa) = 74.14225 82.58345 78.36285
# Shear Modulus (GPa) = 29.41537 33.16951 31.29244
#
# Velocity S-wave (km/s) = 3.98160 4.22805 4.10667
# Velocity P-wave (km/s) = 7.81638 8.26697 8.04483
#
# Compressibility (1/GPa) = 0.01348759
#
# Stress axis : x y z
#
# Youngs Moduli (GPa) = 108.00745 84.61963 63.36584
#
# Poissons Ratio (x) = 0.36688 0.16581
# Poissons Ratio (y) = 0.46828 0.29989
# Poissons Ratio (z) = 0.28262 0.40048
#
# Static dielectric constant tensor:
#      x y z
#    x 1.667840 0.000000 0.000000 
#    y 0.000000 1.702020 0.000000 
#    z 0.000000 0.000000 1.607580 
# 
# From -- ./inp_files/16749.got.cif
#   From: 2010.05.17/outbox.cif.g08.bks.cpg/sg56_9_cif.got.tgz:16749.got - 2010.06.03 13:42:01.
