data_PCOD9429961
_publ_section_title
;
Structure prediction by ZEFSAII (Michael W. Deem and Ramdas Pophale) SiO2 
 PCOD9429961
Probable space group: P C C N
;
_chemical_formula_sum "Si O2"
_cell_formula_units_Z 48
_cell_length_a 7.966806
_cell_length_b 14.346829
_cell_length_c 18.051586
_cell_angle_alpha 90.000000
_cell_angle_beta 90.000000
_cell_angle_gamma 90.000000
_cell_volume 2063.267458
_symmetry_space_group_name_H-M "P C C N"
_symmetry_group_IT_number 56
_symmetry_cell_setting 'orthorhombic'
loop_
_space_group_symop_operation_xyz
x,y,z
1/2-x,1/2-y,z
1/2+x,-y,1/2-z
-x,1/2+y,1/2-z
-x,-y,-z
1/2+x,1/2+y,-z
1/2-x,y,1/2+z
x,1/2-y,1/2+z
loop_
_atom_site_type_symbol
_atom_site_label
_atom_site_fract_x
_atom_site_fract_y
_atom_site_fract_z
Si Si1 0.926706 0.355082 0.740504
Si Si2 0.077681 0.310270 0.317347
Si Si3 0.231050 0.464262 0.214615
Si Si4 0.104520 0.433497 0.051276
Si Si5 0.060978 0.398484 0.473645
Si Si6 0.959377 0.755009 0.903792
O O1 0.946546 0.272033 0.799554
O O2 0.089803 0.422480 0.736681
O O3 0.945654 0.300068 0.664296
O O4 0.785429 0.431488 0.753683
O O5 0.250000 0.250000 0.328284
O O6 0.111350 0.384554 0.251357
O O7 0.035498 0.371415 0.389058
O O8 0.194951 0.470067 0.126242
O O9 0.991062 0.349754 0.080229
O O10 0.243121 0.394861 0.994656
O O11 0.000000 0.500000 0.000000
O O12 0.993321 0.318022 0.526579
O O13 0.000000 0.500000 0.500000
O O14 0.750000 0.750000 0.890540
#
# Coordination Sequence:
#
# PCOD9429961 Si02
#       6
#     8   8   8   8   8   8
#     4  11  21  41  66  95 127 168 219 264 322 380
#     4  10  21  38  65  97 119 170 226 255 305 403
#     4  11  23  39  67  94 129 167 213 271 316 379
#     4  11  24  41  65  95 128 168 215 264 321 382
#     4  11  23  40  67  93 126 169 216 264 323 382
#     4  10  18  41  66  86 122 174 210 255 313 386
#
# _framework density 23.264068999999999
#
# number of rings (size 3 to 8) (size 9 to 14) (size 15 to 20)
#    0.000    1.333    5.000    3.000    7.000    0.000 
#    0.000    1.667    0.000    0.000    0.000    0.000 
#    0.000    0.000    0.000    0.000    0.000    0.000 
#
# Total GULP energy -268153.756910 kJ/mol
# GULP energy per Si atom -5586.536602 kJ/mol
# Density = 2.321112 g / cm^3
# Si number density = 23.264069 Si / 1000 Ang^3
#
#
#
# Elastic Constant Matrix: (Units=GPa)
#
#
# Indices 1 2 3 4 5 6 
#
# 1 44.0497 26.0817 22.2059 0.0000 0.0000 0.0000
# 2 26.0817 137.7569 56.5391 0.0000 0.0000 0.0000
# 3 22.2059 56.5391 141.8692 0.0000 0.0000 0.0000
# 4 0.0000 0.0000 0.0000 46.9241 0.0000 0.0000
# 5 0.0000 0.0000 0.0000 0.0000 7.5957 0.0000
# 6 0.0000 0.0000 0.0000 0.0000 0.0000 40.9227
#
#
#
# Elastic Compliance Matrix: (Units=1/GPa)
#
#
# Indices 1 2 3 4 5 6 
#
# 1 0.026318 -0.003936 -0.002551 0.000000 0.000000 0.000000
# 2 -0.003936 0.009267 -0.003077 0.000000 0.000000 0.000000
# 3 -0.002551 -0.003077 0.008674 0.000000 0.000000 0.000000
# 4 0.000000 0.000000 0.000000 0.021311 0.000000 0.000000
# 5 0.000000 0.000000 0.000000 0.000000 0.131654 0.000000
# 6 0.000000 0.000000 0.000000 0.000000 0.000000 0.024436
#
#
# Mechanical properties :
#
#
# Convention : Reuss Voigt Hill
#
# Bulk Modulus (GPa) = 39.79027 59.25880 49.52453
# Shear Modulus (GPa) = 20.06692 33.67843 26.87268
#
# Velocity S-wave (km/s) = 2.94014 3.80894 3.40239
# Velocity P-wave (km/s) = 5.35414 6.69862 6.06376
#
# Compressibility (1/GPa) = 0.02513177
#
# Stress axis : x y z
#
# Youngs Moduli (GPa) = 37.99685 107.90580 115.28199
#
# Poissons Ratio (x) = 0.42471 0.29406
# Poissons Ratio (y) = 0.14955 0.35475
# Poissons Ratio (z) = 0.09692 0.33205
#
# Static dielectric constant tensor:
#      x y z
#    x 1.971990 0.000000 0.000000 
#    y 0.000000 1.927500 0.000000 
#    z 0.000000 0.000000 1.913700 
# 
# From -- ./inp_files/14791.got.cif
#   From: 2010.05.17/outbox.cif.g08.bks.cpg/sg56_8_cif.got.tgz:14791.got - 2010.06.03 13:42:01.
