data_PCOD9429530
_publ_section_title
;
Structure prediction by ZEFSAII (Michael W. Deem and Ramdas Pophale) SiO2 
 PCOD9429530
Probable space group: P C C N
;
_chemical_formula_sum "Si O2"
_cell_formula_units_Z 52
_cell_length_a 27.759208
_cell_length_b 12.267783
_cell_length_c 8.629043
_cell_angle_alpha 90.000000
_cell_angle_beta 90.000000
_cell_angle_gamma 90.000000
_cell_volume 2938.568302
_symmetry_space_group_name_H-M "P C C N"
_symmetry_group_IT_number 56
_symmetry_cell_setting 'orthorhombic'
loop_
_space_group_symop_operation_xyz
x,y,z
1/2-x,1/2-y,z
1/2+x,-y,1/2-z
-x,1/2+y,1/2-z
-x,-y,-z
1/2+x,1/2+y,-z
1/2-x,y,1/2+z
x,1/2-y,1/2+z
loop_
_atom_site_type_symbol
_atom_site_label
_atom_site_fract_x
_atom_site_fract_y
_atom_site_fract_z
Si Si1 0.250000 0.750000 0.651810
Si Si2 0.464838 0.892443 0.769409
Si Si3 0.987349 0.618098 0.346372
Si Si4 0.180139 0.664143 0.895138
Si Si5 0.952177 0.815912 0.498137
Si Si6 0.109054 0.512670 0.017254
Si Si7 0.407905 0.688081 0.781147
O O1 0.218500 0.670377 0.757954
O O2 0.289267 0.692318 0.545944
O O3 0.512545 0.856102 0.860221
O O4 0.433867 0.940263 0.911743
O O5 0.433086 0.794056 0.700071
O O6 0.476476 0.990470 0.655839
O O7 0.955083 0.686789 0.466935
O O8 0.044104 0.643558 0.366612
O O9 0.972666 0.656240 0.169184
O O10 0.155783 0.547706 0.921314
O O11 0.137804 0.755741 0.867457
O O12 0.903560 0.885387 0.470082
O O13 0.108420 0.589369 0.169886
#
# Coordination Sequence:
#
# PCOD9429530 Si02
#       7
#     4   8   8   8   8   8   8
#     4  10  20  34  48  76  96 130 148 204 260 312
#     4   9  17  28  45  66  98 139 172 209 237 284
#     4  10  18  31  46  68  98 140 177 207 235 278
#     4  10  20  31  51  69 102 127 159 195 253 312
#     4  10  18  30  48  64  99 136 178 211 240 275
#     4  10  16  31  48  68  95 139 164 195 250 300
#     4  10  17  28  48  72  97 137 167 200 243 298
#
# _framework density 17.695691
#
# number of rings (size 3 to 8) (size 9 to 14) (size 15 to 20)
#    0.000    2.154    4.615    0.923    0.000    0.000 
#    0.000    6.154    0.000    0.000    0.000    0.000 
#    0.000   33.231    0.000    0.000    0.000    0.000 
#
# Total GULP energy -289479.608188 kJ/mol
# GULP energy per Si atom -5566.915542 kJ/mol
# Density = 1.765541 g / cm^3
# Si number density = 17.695691 Si / 1000 Ang^3
#
#
#
# Elastic Constant Matrix: (Units=GPa)
#
#
# Indices 1 2 3 4 5 6 
#
# 1 97.7108 34.0743 28.5962 0.0000 0.0000 0.0000
# 2 34.0743 52.9994 16.2953 0.0000 0.0000 0.0000
# 3 28.5962 16.2953 70.3411 0.0000 0.0000 0.0000
# 4 0.0000 0.0000 0.0000 26.1583 0.0000 0.0000
# 5 0.0000 0.0000 0.0000 0.0000 15.2460 0.0000
# 6 0.0000 0.0000 0.0000 0.0000 0.0000 21.6716
#
#
#
# Elastic Compliance Matrix: (Units=1/GPa)
#
#
# Indices 1 2 3 4 5 6 
#
# 1 0.014129 -0.007879 -0.003919 0.000000 0.000000 0.000000
# 2 -0.007879 0.024709 -0.002521 0.000000 0.000000 0.000000
# 3 -0.003919 -0.002521 0.016394 0.000000 0.000000 0.000000
# 4 0.000000 0.000000 0.000000 0.038229 0.000000 0.000000
# 5 0.000000 0.000000 0.000000 0.000000 0.065591 0.000000
# 6 0.000000 0.000000 0.000000 0.000000 0.000000 0.046143
#
#
# Mechanical properties :
#
#
# Convention : Reuss Voigt Hill
#
# Bulk Modulus (GPa) = 37.60242 42.10922 39.85582
# Shear Modulus (GPa) = 20.60195 22.08754 21.34475
#
# Velocity S-wave (km/s) = 3.41579 3.53680 3.47682
# Velocity P-wave (km/s) = 6.07062 6.36605 6.22009
#
# Compressibility (1/GPa) = 0.02659403
#
# Stress axis : x y z
#
# Youngs Moduli (GPa) = 70.77826 40.47161 60.99974
#
# Poissons Ratio (x) = 0.31887 0.23903
# Poissons Ratio (y) = 0.55764 0.15378
# Poissons Ratio (z) = 0.27735 0.10203
#
# Static dielectric constant tensor:
#      x y z
#    x 1.623700 0.000000 0.000000 
#    y 0.000000 1.679330 0.000000 
#    z 0.000000 0.000000 1.670310 
# 
# From -- ./inp_files/2857.got.cif
#   From: 2010.05.17/outbox.cif.g08.bks.cpg/sg56_2_cif.got.tgz:2857.got - 2010.06.03 13:42:01.
