data_PCOD9429457
_publ_section_title
;
Structure prediction by ZEFSAII (Michael W. Deem and Ramdas Pophale) SiO2 
 PCOD9429457
Probable space group: P B A M
;
_chemical_formula_sum "Si O2"
_cell_formula_units_Z 48
_cell_length_a 9.000000
_cell_length_b 18.000000
_cell_length_c 15.000000
_cell_angle_alpha 90.000000
_cell_angle_beta 90.000000
_cell_angle_gamma 90.000000
_cell_volume 2430.000000
_symmetry_space_group_name_H-M "P B A M"
_symmetry_group_IT_number 55
_symmetry_cell_setting 'orthorhombic'
loop_
_space_group_symop_operation_xyz
x,y,z
-x,-y,z
1/2+x,1/2-y,-z
1/2-x,1/2+y,-z
-x,-y,-z
x,y,-z
1/2-x,1/2+y,z
1/2+x,1/2-y,z
loop_
_atom_site_type_symbol
_atom_site_label
_atom_site_fract_x
_atom_site_fract_y
_atom_site_fract_z
Si Si1 0.886272 0.288189 0.598931
Si Si2 0.100908 0.438142 0.764460
Si Si3 0.858417 0.042343 0.898138
Si Si4 0.849951 0.322863 0.200788
Si Si5 0.532960 0.305481 0.896521
Si Si6 0.287185 0.855127 0.597764
O O1 0.831607 0.314365 0.500000
O O2 0.821009 0.319063 0.692086
O O3 0.849521 0.201203 0.601866
O O4 0.060867 0.306437 0.600780
O O5 0.212338 0.465657 0.840075
O O6 0.199579 0.402101 0.687024
O O7 0.000000 0.500000 0.718461
O O8 0.974725 0.386538 0.808750
O O9 0.918984 0.125928 0.900976
O O10 0.834229 0.015773 0.000000
O O11 0.000000 0.000000 0.858755
O O12 0.944366 0.253031 0.164195
O O13 0.693426 0.325885 0.147616
O O14 0.557805 0.280526 0.000000
O O15 0.285864 0.892994 0.500000
#
# Coordination Sequence:
#
# PCOD9429457 Si02
#       6
#     8   8   8   8   8   8
#     4   9  17  31  52  79 107 136 174 218 265 316
#     4  11  23  37  55  79 108 146 188 229 277 331
#     4  10  22  40  59  79 106 143 185 228 276 329
#     4  11  21  35  56  83 113 145 183 226 277 330
#     4  11  22  36  56  82 112 143 178 225 278 333
#     4   9  18  33  55  82 111 142 177 221 272 327
#
# _framework density 19.753086
#
# number of rings (size 3 to 8) (size 9 to 14) (size 15 to 20)
#    0.000    1.833    0.000    5.500    0.000    3.333 
#    0.000    0.000    0.000    0.500    0.000    0.000 
#    0.000    0.000    0.000    0.000    0.000    0.000 
#
# Total GULP energy -267349.908180 kJ/mol
# GULP energy per Si atom -5569.789754 kJ/mol
# Density = 1.970813 g / cm^3
# Si number density = 19.753086 Si / 1000 Ang^3
#
#
#
# Elastic Constant Matrix: (Units=GPa)
#
#
# Indices 1 2 3 4 5 6 
#
# 1 31.3484 -9.8525 33.2738 0.0000 0.0000 0.0000
# 2 -9.8525 18.1958 -2.9561 0.0000 0.0000 0.0000
# 3 33.2738 -2.9561 117.7104 0.0000 0.0000 0.0000
# 4 0.0000 0.0000 0.0000 2.4220 0.0000 0.0000
# 5 0.0000 0.0000 0.0000 0.0000 7.4530 0.0000
# 6 0.0000 0.0000 0.0000 0.0000 0.0000 32.9884
#
#
#
# Elastic Compliance Matrix: (Units=1/GPa)
#
#
# Indices 1 2 3 4 5 6 
#
# 1 0.057286 0.028504 -0.015478 0.000000 0.000000 0.000000
# 2 0.028504 0.069366 -0.006315 0.000000 0.000000 0.000000
# 3 -0.015478 -0.006315 0.012712 0.000000 0.000000 0.000000
# 4 0.000000 0.000000 0.000000 0.412880 0.000000 0.000000
# 5 0.000000 0.000000 0.000000 0.000000 0.134174 0.000000
# 6 0.000000 0.000000 0.000000 0.000000 0.000000 0.030314
#
#
# Mechanical properties :
#
#
# Convention : Reuss Voigt Hill
#
# Bulk Modulus (GPa) = 6.54510 23.13167 14.83839
# Shear Modulus (GPa) = 6.62921 18.35866 12.49394
#
# Velocity S-wave (km/s) = 1.83394 3.05193 2.51769
# Velocity P-wave (km/s) = 2.79376 4.91476 3.99749
#
# Compressibility (1/GPa) = 0.15278608
#
# Stress axis : x y z
#
# Youngs Moduli (GPa) = 17.45623 14.41637 78.66631
#
# Poissons Ratio (x) = -0.41093 1.21756
# Poissons Ratio (y) = -0.49757 0.49681
# Poissons Ratio (z) = 0.27018 0.09104
#
# Static dielectric constant tensor:
#      x y z
#    x 1.644600 0.000000 0.000000 
#    y 0.000000 1.866780 0.000000 
#    z 0.000000 0.000000 1.727950 
# 
# From -- ./inp_files/17313.got.cif
#   From: 2010.05.17/outbox.ucp.g08.bks.cvg/sg55_9_cif.got.tgz:17313.got - 2010.06.11 16:36:00.
