data_PCOD9429191
_publ_section_title
;
Structure prediction by ZEFSAII (Michael W. Deem and Ramdas Pophale) SiO2 
 PCOD9429191
Probable space group: P B A M
;
_chemical_formula_sum "Si O2"
_cell_formula_units_Z 28
_cell_length_a 12.356176
_cell_length_b 4.794312
_cell_length_c 18.552091
_cell_angle_alpha 90.000000
_cell_angle_beta 90.000000
_cell_angle_gamma 90.000000
_cell_volume 1099.014051
_symmetry_space_group_name_H-M "P B A M"
_symmetry_group_IT_number 55
_symmetry_cell_setting 'orthorhombic'
loop_
_space_group_symop_operation_xyz
x,y,z
-x,-y,z
1/2+x,1/2-y,-z
1/2-x,1/2+y,-z
-x,-y,-z
x,y,-z
1/2-x,1/2+y,z
1/2+x,1/2-y,z
loop_
_atom_site_type_symbol
_atom_site_label
_atom_site_fract_x
_atom_site_fract_y
_atom_site_fract_z
Si Si1 0.429347 0.249738 0.642712
Si Si2 0.816047 0.323059 0.500000
Si Si3 0.664595 0.745470 0.000000
Si Si4 0.819135 0.030872 0.782626
Si Si5 0.500000 0.500000 0.885151
O O1 0.500000 0.500000 0.611560
O O2 0.371495 0.106823 0.575360
O O3 0.355108 0.417624 0.700064
O O4 0.500000 0.000000 0.678205
O O5 0.705398 0.494531 0.500000
O O6 0.579425 0.688356 0.065333
O O7 0.767702 0.531767 0.000000
O O8 0.784527 0.344537 0.799840
O O9 0.913030 0.886131 0.828393
#
# Coordination Sequence:
#
# PCOD9429191 Si02
#       5
#     8   4   4   8   4
#     4  12  24  44  67  98 137 186 238 293 354 421
#     4  12  24  42  66  96 134 182 240 295 353 418
#     4  11  26  49  74 108 142 185 237 286 348 418
#     4  12  26  44  69 105 143 186 235 288 352 418
#     4  11  26  46  76 105 146 188 232 293 348 424
#
# _framework density 25.477384000000001
#
# number of rings (size 3 to 8) (size 9 to 14) (size 15 to 20)
#    0.000    0.286    1.429    7.714    0.000    4.571 
#    0.000    0.000    0.000    0.000    0.000    0.000 
#    0.000    0.000    0.000    0.000    0.000    0.000 
#
# Total GULP energy -156167.049204 kJ/mol
# GULP energy per Si atom -5577.394614 kJ/mol
# Density = 2.541940 g / cm^3
# Si number density = 25.477384 Si / 1000 Ang^3
#
#
#
# Elastic Constant Matrix: (Units=GPa)
#
#
# Indices 1 2 3 4 5 6 
#
# 1 106.6272 21.6342 56.5013 0.0000 0.0000 0.0000
# 2 21.6342 101.3722 11.5786 0.0000 0.0000 0.0000
# 3 56.5013 11.5786 126.3657 0.0000 0.0000 0.0000
# 4 0.0000 0.0000 0.0000 -103.9726 0.0000 0.0000
# 5 0.0000 0.0000 0.0000 0.0000 65.6037 0.0000
# 6 0.0000 0.0000 0.0000 0.0000 0.0000 17.1919
#
#
#
# Elastic Compliance Matrix: (Units=1/GPa)
#
#
# Indices 1 2 3 4 5 6 
#
# 1 0.012712 -0.002086 -0.005493 0.000000 0.000000 0.000000
# 2 -0.002086 0.010311 -0.000012 0.000000 0.000000 0.000000
# 3 -0.005493 -0.000012 0.010371 0.000000 0.000000 0.000000
# 4 0.000000 0.000000 0.000000 -0.009618 0.000000 0.000000
# 5 0.000000 0.000000 0.000000 0.000000 0.015243 0.000000
# 6 0.000000 0.000000 0.000000 0.000000 0.000000 0.058167
#
#
# Mechanical properties :
#
#
# Convention : Reuss Voigt Hill
#
# Bulk Modulus (GPa) = 54.90700 57.08814 55.99757
# Shear Modulus (GPa) = 42.21605 12.07468 27.14537
#
# Velocity S-wave (km/s) = 4.07504 2.17937 3.26769
# Velocity P-wave (km/s) = 6.61357 5.36553 6.02197
#
# Compressibility (1/GPa) = 0.01821262
#
# Stress axis : x y z
#
# Youngs Moduli (GPa) = 78.66412 96.98255 96.42576
#
# Poissons Ratio (x) = 0.20226 0.52966
# Poissons Ratio (y) = 0.16406 0.00118
# Poissons Ratio (z) = 0.43209 0.00119
#
# Static dielectric constant tensor:
#      x y z
#    x 2.209670 0.000000 0.000000 
#    y 0.000000 2.375050 0.000000 
#    z 0.000000 0.000000 2.115660 
# 
# From -- ./inp_files/22769.got.cif
#   From: 2010.05.17/outbox.cif.g08.bks.cpg/sg55_12_cif.got.tgz:22769.got - 2010.06.03 13:27:54.
