data_PCOD9429163
_publ_section_title
;
Structure prediction by ZEFSAII (Michael W. Deem and Ramdas Pophale) SiO2 
 PCOD9429163
Probable space group: P B A M
;
_chemical_formula_sum "Si O2"
_cell_formula_units_Z 40
_cell_length_a 11.653906
_cell_length_b 9.219509
_cell_length_c 15.511694
_cell_angle_alpha 90.000000
_cell_angle_beta 90.000000
_cell_angle_gamma 90.000000
_cell_volume 1666.627456
_symmetry_space_group_name_H-M "P B A M"
_symmetry_group_IT_number 55
_symmetry_cell_setting 'orthorhombic'
loop_
_space_group_symop_operation_xyz
x,y,z
-x,-y,z
1/2+x,1/2-y,-z
1/2-x,1/2+y,-z
-x,-y,-z
x,y,-z
1/2-x,1/2+y,z
1/2+x,1/2-y,z
loop_
_atom_site_type_symbol
_atom_site_label
_atom_site_fract_x
_atom_site_fract_y
_atom_site_fract_z
Si Si1 0.475137 0.244111 0.596032
Si Si2 0.811822 0.525128 0.593406
Si Si3 0.292401 0.633193 0.854066
Si Si4 0.150068 0.871190 0.256332
Si Si5 0.964828 0.832447 0.000000
Si Si6 0.878644 0.420535 0.000000
O O1 0.478740 0.314792 0.500000
O O2 0.585401 0.140664 0.598426
O O3 0.460648 0.325008 0.687076
O O4 0.366676 0.134110 0.597282
O O5 0.755472 0.540088 0.500000
O O6 0.728790 0.559897 0.669524
O O7 0.360579 0.502691 0.809314
O O8 0.220666 0.740930 0.791239
O O9 0.385682 0.706571 0.917394
O O10 0.198320 0.557814 0.916153
O O11 0.083172 0.746922 0.000000
O O12 0.000000 0.000000 0.000000
O O13 0.000000 0.500000 0.000000
#
# Coordination Sequence:
#
# PCOD9429163 Si02
#       6
#     8   8   8   8   4   4
#     4   9  19  37  60  87 123 172 215 250 301 370
#     4   9  19  37  60  87 124 171 215 248 302 373
#     4  11  26  40  64  99 124 155 219 259 310 400
#     4  12  21  39  61  95 130 156 202 270 314 352
#     4  11  24  47  66  86 126 167 195 260 328 373
#     4  11  24  47  70  88 122 172 204 249 325 393
#
# _framework density 24.000564000000001
#
# number of rings (size 3 to 8) (size 9 to 14) (size 15 to 20)
#    0.000    1.600    2.000    4.200    0.000    8.000 
#    0.000    0.000    0.000    2.400    0.000    0.000 
#    0.000    0.000    0.000    0.000    0.000    0.000 
#
# Total GULP energy -223673.070996 kJ/mol
# GULP energy per Si atom -5591.826775 kJ/mol
# Density = 2.394594 g / cm^3
# Si number density = 24.000564 Si / 1000 Ang^3
#
#
#
# Elastic Constant Matrix: (Units=GPa)
#
#
# Indices 1 2 3 4 5 6 
#
# 1 47.8697 2.0863 21.8625 0.0000 0.0000 0.0000
# 2 2.0863 77.4395 35.1530 0.0000 0.0000 0.0000
# 3 21.8625 35.1530 152.9076 0.0000 0.0000 0.0000
# 4 0.0000 0.0000 0.0000 10.5824 0.0000 0.0000
# 5 0.0000 0.0000 0.0000 0.0000 22.8138 0.0000
# 6 0.0000 0.0000 0.0000 0.0000 0.0000 31.1508
#
#
#
# Elastic Compliance Matrix: (Units=1/GPa)
#
#
# Indices 1 2 3 4 5 6 
#
# 1 0.022412 0.000950 -0.003423 0.000000 0.000000 0.000000
# 2 0.000950 0.014458 -0.003460 0.000000 0.000000 0.000000
# 3 -0.003423 -0.003460 0.007825 0.000000 0.000000 0.000000
# 4 0.000000 0.000000 0.000000 0.094497 0.000000 0.000000
# 5 0.000000 0.000000 0.000000 0.000000 0.043833 0.000000
# 6 0.000000 0.000000 0.000000 0.000000 0.000000 0.032102
#
#
# Mechanical properties :
#
#
# Convention : Reuss Voigt Hill
#
# Bulk Modulus (GPa) = 30.46028 44.04671 37.25350
# Shear Modulus (GPa) = 21.01416 27.51706 24.26561
#
# Velocity S-wave (km/s) = 2.96221 3.38970 3.18314
# Velocity P-wave (km/s) = 4.94152 5.80623 5.39124
#
# Compressibility (1/GPa) = 0.03282963
#
# Stress axis : x y z
#
# Youngs Moduli (GPa) = 44.61917 69.16473 127.80087
#
# Poissons Ratio (x) = -0.06570 0.43744
# Poissons Ratio (y) = -0.04239 0.44216
# Poissons Ratio (z) = 0.15272 0.23929
#
# Static dielectric constant tensor:
#      x y z
#    x 1.890720 0.000000 0.000000 
#    y 0.000000 1.961400 0.000000 
#    z 0.000000 0.000000 1.965710 
# 
# From -- ./inp_files/18773.got.cif
#   From: 2010.05.17/outbox.cif.g08.bks.cpg/sg55_10_cif.got.tgz:18773.got - 2010.06.03 13:27:54.
