data_PCOD9429336
_publ_section_title
;
Structure prediction by ZEFSAII (Michael W. Deem and Ramdas Pophale) SiO2 
 PCOD9429336
Probable space group: P B A M
;
_chemical_formula_sum "Si O2"
_cell_formula_units_Z 56
_cell_length_a 21.000000
_cell_length_b 15.000000
_cell_length_c 9.000000
_cell_angle_alpha 90.000000
_cell_angle_beta 90.000000
_cell_angle_gamma 90.000000
_cell_volume 2835.000000
_symmetry_space_group_name_H-M "P B A M"
_symmetry_group_IT_number 55
_symmetry_cell_setting 'orthorhombic'
loop_
_space_group_symop_operation_xyz
x,y,z
-x,-y,z
1/2+x,1/2-y,-z
1/2-x,1/2+y,-z
-x,-y,-z
x,y,-z
1/2-x,1/2+y,z
1/2+x,1/2-y,z
loop_
_atom_site_type_symbol
_atom_site_label
_atom_site_fract_x
_atom_site_fract_y
_atom_site_fract_z
Si Si1 0.643827 0.756678 0.173624
Si Si2 0.898875 0.622078 0.321372
Si Si3 0.998238 0.750983 0.178824
Si Si4 0.197796 0.055893 0.675591
Si Si5 0.725685 0.233028 0.324885
Si Si6 0.669968 0.968398 0.174116
Si Si7 0.562190 0.442541 0.821918
O O1 0.571972 0.736736 0.228002
O O2 0.705841 0.714659 0.251171
O O3 0.654131 0.863421 0.186762
O O4 0.645979 0.732078 0.000000
O O5 0.902302 0.622557 0.500000
O O6 0.961015 0.669608 0.254737
O O7 0.835472 0.677341 0.272666
O O8 0.883748 0.524573 0.258623
O O9 0.957583 0.840275 0.209446
O O10 0.999722 0.737612 0.000000
O O11 0.199152 0.036100 0.500000
O O12 0.207743 0.162768 0.695701
O O13 0.128808 0.032932 0.743883
O O14 0.260206 0.014975 0.754396
O O15 0.732680 0.216802 0.500000
O O16 0.671101 0.991442 0.000000
O O17 0.500000 0.500000 0.778484
O O18 0.570584 0.452676 0.000000
#
# Coordination Sequence:
#
# PCOD9429336 Si02
#       7
#     8   8   8   8   8   8   8
#     4   9  20  37  57  82 113 150 195 239 283 340
#     4  11  22  37  57  85 116 149 194 238 288 350
#     4  10  21  38  58  81 113 154 193 234 288 346
#     4  10  19  36  58  81 111 146 186 234 288 342
#     4   9  19  35  56  80 109 145 187 234 284 341
#     4  10  21  37  57  83 112 148 193 241 289 336
#     4  10  21  36  56  84 117 151 191 238 290 348
#
# _framework density 19.753086
#
# number of rings (size 3 to 8) (size 9 to 14) (size 15 to 20)
#    0.000    2.143    1.429    1.286    0.000    4.857 
#    0.000    4.286    0.000    0.000    0.000    0.000 
#    0.000    0.000    0.000    0.000    0.000    0.000 
#
# Total GULP energy -312767.541691 kJ/mol
# GULP energy per Si atom -5585.134673 kJ/mol
# Density = 1.970813 g / cm^3
# Si number density = 19.753086 Si / 1000 Ang^3
#
#
#
# Elastic Constant Matrix: (Units=GPa)
#
#
# Indices 1 2 3 4 5 6 
#
# 1 103.5036 -13.7928 19.6512 0.0000 0.0000 0.0000
# 2 -13.7928 3.8505 7.9115 0.0000 0.0000 0.0000
# 3 19.6512 7.9115 37.9722 0.0000 0.0000 0.0000
# 4 0.0000 0.0000 0.0000 18.0860 0.0000 0.0000
# 5 0.0000 0.0000 0.0000 0.0000 32.2984 0.0000
# 6 0.0000 0.0000 0.0000 0.0000 0.0000 35.0803
#
#
#
# Elastic Compliance Matrix: (Units=1/GPa)
#
#
# Indices 1 2 3 4 5 6 
#
# 1 -0.019248 -0.156342 0.042535 0.000000 0.000000 0.000000
# 2 -0.156342 -0.815788 0.250878 0.000000 0.000000 0.000000
# 3 0.042535 0.250878 -0.047948 0.000000 0.000000 0.000000
# 4 0.000000 0.000000 0.000000 0.055291 0.000000 0.000000
# 5 0.000000 0.000000 0.000000 0.000000 0.030961 0.000000
# 6 0.000000 0.000000 0.000000 0.000000 0.000000 0.028506
#
#
# Mechanical properties :
#
#
# Convention : Reuss Voigt Hill
#
# Bulk Modulus (GPa) = -1.64246 19.20734 8.78244
# Shear Modulus (GPa) = -4.01505 25.86337 10.92416
#
# Velocity S-wave (km/s) = -1.42725 3.62240 2.35422
# Velocity P-wave (km/s) = 1.88397 5.21924 3.44174
#
# Compressibility (1/GPa) = -0.60884308
#
# Stress axis : x y z
#
# Youngs Moduli (GPa) = -51.95298 -1.22581 -20.85613
#
# Poissons Ratio (x) = -0.19165 0.88711
# Poissons Ratio (y) = -8.12246 5.23234
# Poissons Ratio (z) = 2.20982 0.30753
#
# Static dielectric constant tensor:
#      x y z
#    x 1.670070 0.000000 0.000000 
#    y 0.000000 1.726260 0.000000 
#    z 0.000000 0.000000 1.667700 
# 
# From -- ./inp_files/8670.got.cif
#   From: 2010.05.17/outbox.ucp.g08.bks.cvg/sg55_5_cif.got.tgz:8670.got - 2010.06.11 16:36:00.
