data_PCOD9429397
_publ_section_title
;
Structure prediction by ZEFSAII (Michael W. Deem and Ramdas Pophale) SiO2 
 PCOD9429397
Probable space group: P B A M
;
_chemical_formula_sum "Si O2"
_cell_formula_units_Z 64
_cell_length_a 12.000000
_cell_length_b 30.000000
_cell_length_c 9.000000
_cell_angle_alpha 90.000000
_cell_angle_beta 90.000000
_cell_angle_gamma 90.000000
_cell_volume 3240.000000
_symmetry_space_group_name_H-M "P B A M"
_symmetry_group_IT_number 55
_symmetry_cell_setting 'orthorhombic'
loop_
_space_group_symop_operation_xyz
x,y,z
-x,-y,z
1/2+x,1/2-y,-z
1/2-x,1/2+y,-z
-x,-y,-z
x,y,-z
1/2-x,1/2+y,z
1/2+x,1/2-y,z
loop_
_atom_site_type_symbol
_atom_site_label
_atom_site_fract_x
_atom_site_fract_y
_atom_site_fract_z
Si Si1 0.816602 0.887248 0.822805
Si Si2 0.570814 0.042156 0.818540
Si Si3 0.798208 0.074405 0.173107
Si Si4 0.062039 0.630078 0.179249
Si Si5 0.943657 0.713242 0.326154
Si Si6 0.530378 0.312856 0.325661
Si Si7 0.274100 0.340269 0.332119
Si Si8 0.023572 0.052235 0.331477
O O1 0.689779 0.878744 0.776988
O O2 0.895729 0.848322 0.761163
O O3 0.869204 0.932630 0.759577
O O4 0.821294 0.888429 0.000000
O O5 0.700338 0.041594 0.774024
O O6 0.511379 0.087760 0.770799
O O7 0.500000 0.000000 0.768312
O O8 0.571119 0.042211 0.000000
O O9 0.750706 0.123343 0.206688
O O10 0.912554 0.072433 0.260880
O O11 0.819973 0.067304 0.000000
O O12 0.015121 0.675680 0.244982
O O13 0.057271 0.631966 0.000000
O O14 0.977024 0.713737 0.500000
O O15 0.955715 0.762915 0.266550
O O16 0.814960 0.698760 0.318531
O O17 0.563231 0.313738 0.500000
O O18 0.400179 0.324374 0.317626
O O19 0.260267 0.359568 0.500000
O O20 0.036266 0.068161 0.500000
O O21 0.000000 0.000000 0.329865
#
# Coordination Sequence:
#
# PCOD9429397 Si02
#       8
#     8   8   8   8   8   8   8   8
#     4  11  24  40  61  89 120 155 199 247 295 351
#     4   9  19  36  59  86 117 155 193 236 297 352
#     4  11  21  36  64  91 115 152 200 248 294 350
#     4  10  22  40  59  85 122 156 193 247 299 349
#     4  10  22  38  61  89 117 158 204 242 289 355
#     4  10  22  39  61  86 118 159 198 244 297 350
#     4  10  20  37  59  85 119 154 196 248 297 347
#     4  11  25  43  62  86 121 160 196 241 297 351
#
# _framework density 19.753086
#
# number of rings (size 3 to 8) (size 9 to 14) (size 15 to 20)
#    0.000    1.750    2.500    1.125    3.500    2.500 
#    0.000    0.000    0.000    1.875    0.000    0.000 
#    0.000    0.000    0.000    0.000    0.000    0.000 
#
# Total GULP energy -357246.870468 kJ/mol
# GULP energy per Si atom -5581.982351 kJ/mol
# Density = 1.970813 g / cm^3
# Si number density = 19.753086 Si / 1000 Ang^3
#
#
#
# Elastic Constant Matrix: (Units=GPa)
#
#
# Indices 1 2 3 4 5 6 
#
# 1 96.4596 13.5889 29.5692 0.0000 0.0000 0.0000
# 2 13.5889 63.7049 13.0521 0.0000 0.0000 0.0000
# 3 29.5692 13.0521 28.5992 0.0000 0.0000 0.0000
# 4 0.0000 0.0000 0.0000 245.9653 0.0000 0.0000
# 5 0.0000 0.0000 0.0000 0.0000 17.3281 0.0000
# 6 0.0000 0.0000 0.0000 0.0000 0.0000 17.2220
#
#
#
# Elastic Compliance Matrix: (Units=1/GPa)
#
#
# Indices 1 2 3 4 5 6 
#
# 1 0.015177 -0.000025 -0.015681 0.000000 0.000000 0.000000
# 2 -0.000025 0.017317 -0.007877 0.000000 0.000000 0.000000
# 3 -0.015681 -0.007877 0.054774 0.000000 0.000000 0.000000
# 4 0.000000 0.000000 0.000000 0.004066 0.000000 0.000000
# 5 0.000000 0.000000 0.000000 0.000000 0.057710 0.000000
# 6 0.000000 0.000000 0.000000 0.000000 0.000000 0.058065
#
#
# Mechanical properties :
#
#
# Convention : Reuss Voigt Hill
#
# Bulk Modulus (GPa) = 24.93650 33.46489 29.20070
# Shear Modulus (GPa) = 18.68171 64.93998 41.81085
#
# Velocity S-wave (km/s) = 3.07866 5.73997 4.60572
# Velocity P-wave (km/s) = 5.02882 7.80436 6.56495
#
# Compressibility (1/GPa) = 0.04010185
#
# Stress axis : x y z
#
# Youngs Moduli (GPa) = 65.88741 57.74805 18.25693
#
# Poissons Ratio (x) = 0.00143 0.28628
# Poissons Ratio (y) = 0.00163 0.14382
# Poissons Ratio (z) = 1.03317 0.45490
#
# Static dielectric constant tensor:
#      x y z
#    x 1.679650 0.000000 0.000000 
#    y 0.000000 1.737980 0.000000 
#    z 0.000000 0.000000 1.680940 
# 
# From -- ./inp_files/4679.got.cif
#   From: 2010.05.17/outbox.ucp.g08.bks.cvg/sg55_3_cif.got.tgz:4679.got - 2010.06.11 16:36:00.
