data_PCOD9429164
_publ_section_title
;
Structure prediction by ZEFSAII (Michael W. Deem and Ramdas Pophale) SiO2 
 PCOD9429164
Probable space group: P B A M
;
_chemical_formula_sum "Si O2"
_cell_formula_units_Z 32
_cell_length_a 9.533051
_cell_length_b 11.470312
_cell_length_c 13.100159
_cell_angle_alpha 90.000000
_cell_angle_beta 90.000000
_cell_angle_gamma 90.000000
_cell_volume 1432.463994
_symmetry_space_group_name_H-M "P B A M"
_symmetry_group_IT_number 55
_symmetry_cell_setting 'orthorhombic'
loop_
_space_group_symop_operation_xyz
x,y,z
-x,-y,z
1/2+x,1/2-y,-z
1/2-x,1/2+y,-z
-x,-y,-z
x,y,-z
1/2-x,1/2+y,z
1/2+x,1/2-y,z
loop_
_atom_site_type_symbol
_atom_site_label
_atom_site_fract_x
_atom_site_fract_y
_atom_site_fract_z
Si Si1 0.409253 0.623283 0.000000
Si Si2 0.000000 0.000000 0.319983
Si Si3 0.500000 0.000000 0.312808
Si Si4 0.399597 0.885889 0.000000
Si Si5 0.464184 0.332083 0.500000
Si Si6 0.259202 0.018598 0.174110
Si Si7 0.641552 0.112022 0.500000
O O1 0.500000 0.500000 0.000000
O O2 0.310650 0.611480 0.098764
O O3 0.466606 0.756403 0.000000
O O4 0.864867 0.018131 0.250043
O O5 0.977732 0.894178 0.398738
O O6 0.395232 0.066009 0.234839
O O7 0.613419 0.048570 0.393264
O O8 0.500000 0.000000 0.000000
O O9 0.307515 0.911129 0.898318
O O10 0.516950 0.203464 0.500000
O O11 0.297497 0.340533 0.500000
#
# Coordination Sequence:
#
# PCOD9429164 Si02
#       7
#     4   4   4   4   4   8   4
#     4  11  26  47  76 110 149 195 250 308 368 445
#     4  11  24  47  68  98 142 185 248 295 366 442
#     4  11  24  47  68  98 144 187 242 303 368 434
#     4  11  26  47  74 112 153 189 246 314 372 441
#     4  11  26  42  67 105 139 187 236 305 360 442
#     4  11  24  47  68 102 138 200 239 309 366 444
#     4  11  26  42  69 103 145 185 244 301 369 435
#
# _framework density 22.339133
#
# number of rings (size 3 to 8) (size 9 to 14) (size 15 to 20)
#    0.000    1.000    5.000    0.000    3.500    8.000 
#    0.000    0.000    0.000    0.000    0.000    0.000 
#    0.000    0.000    0.000    0.000    0.000    0.000 
#
# Total GULP energy -178359.808142 kJ/mol
# GULP energy per Si atom -5573.744004 kJ/mol
# Density = 2.228829 g / cm^3
# Si number density = 22.339133 Si / 1000 Ang^3
#
#
#
# Elastic Constant Matrix: (Units=GPa)
#
#
# Indices 1 2 3 4 5 6 
#
# 1 110.4743 34.6404 60.2503 0.0000 0.0000 0.0000
# 2 34.6404 88.6612 26.3021 0.0000 0.0000 0.0000
# 3 60.2503 26.3021 153.7882 0.0000 0.0000 0.0000
# 4 0.0000 0.0000 0.0000 -0.2374 0.0000 0.0000
# 5 0.0000 0.0000 0.0000 0.0000 179.2997 0.0000
# 6 0.0000 0.0000 0.0000 0.0000 0.0000 29.1311
#
#
#
# Elastic Compliance Matrix: (Units=1/GPa)
#
#
# Indices 1 2 3 4 5 6 
#
# 1 0.012526 -0.003622 -0.004288 0.000000 0.000000 0.000000
# 2 -0.003622 0.012929 -0.000792 0.000000 0.000000 0.000000
# 3 -0.004288 -0.000792 0.008318 0.000000 0.000000 0.000000
# 4 0.000000 0.000000 0.000000 -4.212811 0.000000 0.000000
# 5 0.000000 0.000000 0.000000 0.000000 0.005577 0.000000
# 6 0.000000 0.000000 0.000000 0.000000 0.000000 0.034328
#
#
# Mechanical properties :
#
#
# Convention : Reuss Voigt Hill
#
# Bulk Modulus (GPa) = 61.09221 66.14550 63.61886
# Shear Modulus (GPa) = -1.21469 57.08741 27.93636
#
# Velocity S-wave (km/s) = -0.73819 5.06067 3.54016
# Velocity P-wave (km/s) = 5.16531 7.98881 6.72687
#
# Compressibility (1/GPa) = 0.01636870
#
# Stress axis : x y z
#
# Youngs Moduli (GPa) = 79.83293 77.34526 120.22322
#
# Poissons Ratio (x) = 0.28014 0.51551
# Poissons Ratio (y) = 0.28915 0.09524
# Poissons Ratio (z) = 0.34232 0.06128
#
# Static dielectric constant tensor:
#      x y z
#    x 1.844810 0.000000 0.000000 
#    y 0.000000 1.948990 0.000000 
#    z 0.000000 0.000000 1.879010 
# 
# From -- ./inp_files/16941.got.cif
#   From: 2010.05.17/outbox.cif.g08.bks.cpg/sg55_9_cif.got.tgz:16941.got - 2010.06.03 13:27:54.
