data_PCOD9429722
_publ_section_title
;
Structure prediction by ZEFSAII (Michael W. Deem and Ramdas Pophale) SiO2 
 PCOD9429722
Probable space group: P C C N
;
_chemical_formula_sum "Si O2"
_cell_formula_units_Z 44
_cell_length_a 10.656111
_cell_length_b 14.986766
_cell_length_c 12.180012
_cell_angle_alpha 90.000000
_cell_angle_beta 90.000000
_cell_angle_gamma 90.000000
_cell_volume 1945.155736
_symmetry_space_group_name_H-M "P C C N"
_symmetry_group_IT_number 56
_symmetry_cell_setting 'orthorhombic'
loop_
_space_group_symop_operation_xyz
x,y,z
1/2-x,1/2-y,z
1/2+x,-y,1/2-z
-x,1/2+y,1/2-z
-x,-y,-z
1/2+x,1/2+y,-z
1/2-x,y,1/2+z
x,1/2-y,1/2+z
loop_
_atom_site_type_symbol
_atom_site_label
_atom_site_fract_x
_atom_site_fract_y
_atom_site_fract_z
Si Si1 0.114789 0.414559 0.691815
Si Si2 0.750000 0.750000 0.845578
Si Si3 0.467343 0.174583 0.020279
Si Si4 0.119105 0.639074 0.177104
Si Si5 0.668495 0.095055 0.181032
Si Si6 0.720007 0.513310 0.482631
O O1 0.221743 0.340035 0.722024
O O2 0.121487 0.508105 0.755103
O O3 0.157798 0.441744 0.569628
O O4 0.983095 0.374040 0.727667
O O5 0.630415 0.758668 0.925184
O O6 0.558064 0.145140 0.118881
O O7 0.380168 0.089936 0.985512
O O8 0.553624 0.199828 0.916303
O O9 0.250501 0.654578 0.237199
O O10 0.149682 0.547399 0.109169
O O11 0.750074 0.051702 0.082634
#
# Coordination Sequence:
#
# PCOD9429722 Si02
#       6
#     8   4   8   8   8   8
#     4  10  19  34  54  90 116 161 212 253 311 378
#     4  10  24  36  60  88 126 164 212 262 314 384
#     4  10  18  38  58  89 123 167 203 265 315 373
#     4  10  18  31  59  84 118 161 202 254 315 367
#     4  10  18  33  60  89 120 160 209 260 318 366
#     4   9  17  32  56  86 119 154 199 266 303 356
#
# _framework density 22.620297000000001
#
# number of rings (size 3 to 8) (size 9 to 14) (size 15 to 20)
#    0.000    2.182    3.636    1.091    0.000    1.455 
#    0.000    0.909    0.000    4.364    0.000    0.000 
#    0.000    0.000    0.000    0.000    0.000    0.000 
#
# Total GULP energy -245282.667458 kJ/mol
# GULP energy per Si atom -5574.606079 kJ/mol
# Density = 2.256881 g / cm^3
# Si number density = 22.620297 Si / 1000 Ang^3
#
#
#
# Elastic Constant Matrix: (Units=GPa)
#
#
# Indices 1 2 3 4 5 6 
#
# 1 80.1377 15.6114 51.9058 0.0000 0.0000 0.0000
# 2 15.6114 64.5984 16.9291 0.0000 0.0000 0.0000
# 3 51.9058 16.9291 71.3470 0.0000 0.0000 0.0000
# 4 0.0000 0.0000 0.0000 4.4353 0.0000 0.0000
# 5 0.0000 0.0000 0.0000 0.0000 36.3205 0.0000
# 6 0.0000 0.0000 0.0000 0.0000 0.0000 9.7626
#
#
#
# Elastic Compliance Matrix: (Units=1/GPa)
#
#
# Indices 1 2 3 4 5 6 
#
# 1 0.023699 -0.001289 -0.016935 0.000000 0.000000 0.000000
# 2 -0.001289 0.016577 -0.002996 0.000000 0.000000 0.000000
# 3 -0.016935 -0.002996 0.027047 0.000000 0.000000 0.000000
# 4 0.000000 0.000000 0.000000 0.225463 0.000000 0.000000
# 5 0.000000 0.000000 0.000000 0.000000 0.027533 0.000000
# 6 0.000000 0.000000 0.000000 0.000000 0.000000 0.102431
#
#
# Mechanical properties :
#
#
# Convention : Reuss Voigt Hill
#
# Bulk Modulus (GPa) = 40.18764 42.77508 41.48136
# Shear Modulus (GPa) = 10.56003 18.87947 14.71975
#
# Velocity S-wave (km/s) = 2.16299 2.89212 2.55371
# Velocity P-wave (km/s) = 4.90334 5.48667 5.20319
#
# Compressibility (1/GPa) = 0.02488327
#
# Stress axis : x y z
#
# Youngs Moduli (GPa) = 42.19630 60.32525 36.97208
#
# Poissons Ratio (x) = 0.07776 0.62613
# Poissons Ratio (y) = 0.05439 0.11075
# Poissons Ratio (z) = 0.71461 0.18071
#
# Static dielectric constant tensor:
#      x y z
#    x 1.833340 0.000000 0.000000 
#    y 0.000000 2.094540 0.000000 
#    z 0.000000 0.000000 1.869590 
# 
# From -- ./inp_files/7105.got.cif
#   From: 2010.05.17/outbox.cif.g08.bks.cpg/sg56_4_cif.got.tgz:7105.got - 2010.06.03 13:42:01.
