data_PCOD9429426
_publ_section_title
;
Structure prediction by ZEFSAII (Michael W. Deem and Ramdas Pophale) SiO2 
 PCOD9429426
Probable space group: P B A M
;
_chemical_formula_sum "Si O2"
_cell_formula_units_Z 48
_cell_length_a 9.000000
_cell_length_b 30.000000
_cell_length_c 9.000000
_cell_angle_alpha 90.000000
_cell_angle_beta 90.000000
_cell_angle_gamma 90.000000
_cell_volume 2430.000000
_symmetry_space_group_name_H-M "P B A M"
_symmetry_group_IT_number 55
_symmetry_cell_setting 'orthorhombic'
loop_
_space_group_symop_operation_xyz
x,y,z
-x,-y,z
1/2+x,1/2-y,-z
1/2-x,1/2+y,-z
-x,-y,-z
x,y,-z
1/2-x,1/2+y,z
1/2+x,1/2-y,z
loop_
_atom_site_type_symbol
_atom_site_label
_atom_site_fract_x
_atom_site_fract_y
_atom_site_fract_z
Si Si1 0.785658 0.467487 0.819685
Si Si2 0.702637 0.641419 0.324313
Si Si3 0.203092 0.698009 0.176145
Si Si4 0.603757 0.386104 0.822922
Si Si5 0.395255 0.771989 0.323295
Si Si6 0.882551 0.562916 0.179357
O O1 0.655165 0.434884 0.769078
O O2 0.787418 0.519157 0.775834
O O3 0.946899 0.447351 0.779261
O O4 0.781705 0.467157 0.000000
O O5 0.695072 0.634666 0.500000
O O6 0.541849 0.632785 0.254747
O O7 0.769519 0.690378 0.298164
O O8 0.816309 0.606370 0.252892
O O9 0.257676 0.647390 0.198594
O O10 0.335513 0.728657 0.239261
O O11 0.051461 0.710521 0.259670
O O12 0.184181 0.705370 0.000000
O O13 0.574189 0.388053 0.000000
O O14 0.409280 0.763865 0.500000
O O15 0.876764 0.567003 0.000000
#
# Coordination Sequence:
#
# PCOD9429426 Si02
#       6
#     8   8   8   8   8   8
#     4   8  16  33  58  85 108 138 183 229 279 336
#     4  11  24  38  53  79 114 151 189 226 271 331
#     4  11  23  39  63  91 114 141 187 241 281 323
#     4  10  21  37  57  82 112 145 183 230 281 330
#     4  11  24  41  60  82 115 155 187 223 281 346
#     4   9  17  34  60  83 107 142 184 231 279 330
#
# _framework density 19.753086
#
# number of rings (size 3 to 8) (size 9 to 14) (size 15 to 20)
#    0.000    2.000    0.000    4.500    0.000    8.667 
#    0.000    6.667    0.000    0.000    0.000    0.000 
#    0.000    0.000    0.000    0.000    0.000    0.000 
#
# Total GULP energy -268164.257033 kJ/mol
# GULP energy per Si atom -5586.755355 kJ/mol
# Density = 1.970813 g / cm^3
# Si number density = 19.753086 Si / 1000 Ang^3
#
#
#
# Elastic Constant Matrix: (Units=GPa)
#
#
# Indices 1 2 3 4 5 6 
#
# 1 11.3514 -30.3277 -8.1178 0.0000 0.0000 0.0000
# 2 -30.3277 46.5777 16.1072 0.0000 0.0000 0.0000
# 3 -8.1178 16.1072 23.5163 0.0000 0.0000 0.0000
# 4 0.0000 0.0000 0.0000 14.5085 0.0000 0.0000
# 5 0.0000 0.0000 0.0000 0.0000 -41.3232 0.0000
# 6 0.0000 0.0000 0.0000 0.0000 0.0000 30.1709
#
#
#
# Elastic Compliance Matrix: (Units=1/GPa)
#
#
# Indices 1 2 3 4 5 6 
#
# 1 -0.114829 -0.080011 0.015164 0.000000 0.000000 0.000000
# 2 -0.080011 -0.027618 -0.008703 0.000000 0.000000 0.000000
# 3 0.015164 -0.008703 0.053719 0.000000 0.000000 0.000000
# 4 0.000000 0.000000 0.000000 0.068925 0.000000 0.000000
# 5 0.000000 0.000000 0.000000 0.000000 -0.024199 0.000000
# 6 0.000000 0.000000 0.000000 0.000000 0.000000 0.033145
#
#
# Mechanical properties :
#
#
# Convention : Reuss Voigt Hill
#
# Bulk Modulus (GPa) = -4.24038 4.08543 -0.07747
# Shear Modulus (GPa) = 86.75423 7.59014 47.17219
#
# Velocity S-wave (km/s) = 6.63436 1.96236 4.89211
# Velocity P-wave (km/s) = 7.51897 2.68462 5.64544
#
# Compressibility (1/GPa) = -0.23582785
#
# Stress axis : x y z
#
# Youngs Moduli (GPa) = -8.70862 -36.20835 18.61524
#
# Poissons Ratio (x) = -2.89708 -0.28229
# Poissons Ratio (y) = -0.69679 0.16201
# Poissons Ratio (z) = 0.13206 -0.31513
#
# Static dielectric constant tensor:
#      x y z
#    x 1.674400 0.000000 0.000000 
#    y 0.000000 1.709410 0.000000 
#    z 0.000000 0.000000 1.656970 
# 
# From -- ./inp_files/2763.got.cif
#   From: 2010.05.17/outbox.ucp.g08.bks.cvg/sg55_2_cif.got.tgz:2763.got - 2010.06.11 16:36:00.
