data_PCOD9429626
_publ_section_title
;
Structure prediction by ZEFSAII (Michael W. Deem and Ramdas Pophale) SiO2 
 PCOD9429626
Probable space group: P C C N
;
_chemical_formula_sum "Si O2"
_cell_formula_units_Z 40
_cell_length_a 11.874243
_cell_length_b 20.990620
_cell_length_c 9.071412
_cell_angle_alpha 90.000000
_cell_angle_beta 90.000000
_cell_angle_gamma 90.000000
_cell_volume 2261.028782
_symmetry_space_group_name_H-M "P C C N"
_symmetry_group_IT_number 56
_symmetry_cell_setting 'orthorhombic'
loop_
_space_group_symop_operation_xyz
x,y,z
1/2-x,1/2-y,z
1/2+x,-y,1/2-z
-x,1/2+y,1/2-z
-x,-y,-z
1/2+x,1/2+y,-z
1/2-x,y,1/2+z
x,1/2-y,1/2+z
loop_
_atom_site_type_symbol
_atom_site_label
_atom_site_fract_x
_atom_site_fract_y
_atom_site_fract_z
Si Si1 0.943257 0.662673 0.505490
Si Si2 0.197508 0.398848 0.038881
Si Si3 0.230928 0.488717 0.789586
Si Si4 0.896857 0.047900 0.975778
Si Si5 0.622331 0.724957 0.311305
O O1 0.829342 0.620746 0.480667
O O2 0.944319 0.716315 0.380125
O O3 0.925930 0.697949 0.660580
O O4 0.050752 0.617517 0.509335
O O5 0.193235 0.445478 0.179747
O O6 0.132993 0.333808 0.073871
O O7 0.164982 0.437972 0.893116
O O8 0.155133 0.531617 0.683533
O O9 0.304696 0.530528 0.900910
O O10 0.000000 0.000000 0.000000
O O11 0.750000 0.750000 0.284550
#
# Coordination Sequence:
#
# PCOD9429626 Si02
#       5
#     8   8   8   8   8
#     4  11  21  34  56  81 121 151 185 240 300 358
#     4  10  17  34  56  87 118 143 186 246 309 353
#     4  10  20  34  61  87 117 155 193 239 299 355
#     4  11  21  39  59  84 122 159 195 245 295 356
#     4  10  20  32  56  90 115 149 192 247 310 351
#
# _framework density 17.691061999999999
#
# number of rings (size 3 to 8) (size 9 to 14) (size 15 to 20)
#    0.000    1.600    6.000    1.800    2.800    0.000 
#    0.000   13.000    0.000    3.600    0.000    0.000 
#    0.000    0.000    0.000    0.000    0.000    0.000 
#
# Total GULP energy -223269.122979 kJ/mol
# GULP energy per Si atom -5581.728074 kJ/mol
# Density = 1.765080 g / cm^3
# Si number density = 17.691062 Si / 1000 Ang^3
#
#
#
# Elastic Constant Matrix: (Units=GPa)
#
#
# Indices 1 2 3 4 5 6 
#
# 1 39.2933 36.1962 34.5917 0.0000 0.0000 0.0000
# 2 36.1962 118.8334 55.0538 0.0000 0.0000 0.0000
# 3 34.5917 55.0538 121.7938 0.0000 0.0000 0.0000
# 4 0.0000 0.0000 0.0000 24.7000 0.0000 0.0000
# 5 0.0000 0.0000 0.0000 0.0000 18.5723 0.0000
# 6 0.0000 0.0000 0.0000 0.0000 0.0000 35.4691
#
#
#
# Elastic Compliance Matrix: (Units=1/GPa)
#
#
# Indices 1 2 3 4 5 6 
#
# 1 0.040049 -0.008765 -0.007413 0.000000 0.000000 0.000000
# 2 -0.008765 0.012562 -0.003189 0.000000 0.000000 0.000000
# 3 -0.007413 -0.003189 0.011758 0.000000 0.000000 0.000000
# 4 0.000000 0.000000 0.000000 0.040486 0.000000 0.000000
# 5 0.000000 0.000000 0.000000 0.000000 0.053844 0.000000
# 6 0.000000 0.000000 0.000000 0.000000 0.000000 0.028194
#
#
# Mechanical properties :
#
#
# Convention : Reuss Voigt Hill
#
# Bulk Modulus (GPa) = 39.00788 59.06708 49.03748
# Shear Modulus (GPa) = 21.35192 26.02020 23.68606
#
# Velocity S-wave (km/s) = 3.47786 3.83928 3.66303
# Velocity P-wave (km/s) = 6.18261 7.28793 6.75791
#
# Compressibility (1/GPa) = 0.02563585
#
# Stress axis : x y z
#
# Youngs Moduli (GPa) = 24.96923 79.60341 85.05138
#
# Poissons Ratio (x) = 0.69769 0.63048
# Poissons Ratio (y) = 0.21884 0.27124
# Poissons Ratio (z) = 0.18510 0.25387
#
# Static dielectric constant tensor:
#      x y z
#    x 1.588050 0.000000 0.000000 
#    y 0.000000 1.624540 0.000000 
#    z 0.000000 0.000000 1.624310 
# 
# From -- ./inp_files/2678.got.cif
#   From: 2010.05.17/outbox.cif.g08.bks.cpg/sg56_2_cif.got.tgz:2678.got - 2010.06.03 13:42:01.
