data_PCOD9429747
_publ_section_title
;
Structure prediction by ZEFSAII (Michael W. Deem and Ramdas Pophale) SiO2 
 PCOD9429747
Probable space group: P C C N
;
_chemical_formula_sum "Si O2"
_cell_formula_units_Z 60
_cell_length_a 13.865174
_cell_length_b 8.734937
_cell_length_c 23.704098
_cell_angle_alpha 90.000000
_cell_angle_beta 90.000000
_cell_angle_gamma 90.000000
_cell_volume 2870.837001
_symmetry_space_group_name_H-M "P C C N"
_symmetry_group_IT_number 56
_symmetry_cell_setting 'orthorhombic'
loop_
_space_group_symop_operation_xyz
x,y,z
1/2-x,1/2-y,z
1/2+x,-y,1/2-z
-x,1/2+y,1/2-z
-x,-y,-z
1/2+x,1/2+y,-z
1/2-x,y,1/2+z
x,1/2-y,1/2+z
loop_
_atom_site_type_symbol
_atom_site_label
_atom_site_fract_x
_atom_site_fract_y
_atom_site_fract_z
Si Si1 0.935044 0.299297 0.648545
Si Si2 0.955020 0.252055 0.521895
Si Si3 0.386944 0.000133 0.687212
Si Si4 0.079302 0.043161 0.650441
Si Si5 0.750000 0.750000 0.813252
Si Si6 0.144671 0.702465 0.239335
Si Si7 0.870058 0.959545 0.471358
Si Si8 0.316216 0.903510 0.562982
O O1 0.926883 0.324415 0.582108
O O2 0.851947 0.325155 0.693979
O O3 0.018564 0.405738 0.673429
O O4 0.977947 0.127908 0.653488
O O5 0.910819 0.361267 0.473645
O O6 0.067778 0.196862 0.520265
O O7 0.900921 0.087390 0.516528
O O8 0.307264 0.111304 0.716513
O O9 0.414189 0.854963 0.724394
O O10 0.343717 0.949627 0.626481
O O11 0.164796 0.170244 0.651674
O O12 0.090388 0.972886 0.588613
O O13 0.101450 0.931679 0.701673
O O14 0.250000 0.750000 0.218294
O O15 0.754453 0.967642 0.464401
O O16 0.250000 0.750000 0.563543
#
# Coordination Sequence:
#
# PCOD9429747 Si02
#       8
#     8   8   8   8   4   8   8   8
#     4  10  24  37  54  82 123 154 178 231 287 350
#     4   9  19  33  51  83 114 149 185 229 285 350
#     4  11  21  36  59  87 111 142 191 245 290 314
#     4  10  19  36  57  86 111 140 195 240 291 317
#     4  10  18  32  56  88 108 128 176 254 288 314
#     4  12  21  36  59  85 111 148 194 230 281 345
#     4   9  16  32  56  80 111 144 186 241 286 329
#     4  10  18  32  59  86 108 145 197 243 282 336
#
# _framework density 20.899829
#
# number of rings (size 3 to 8) (size 9 to 14) (size 15 to 20)
#    0.000    1.867    2.667    2.800    0.000    2.133 
#    0.000    0.000    0.000    0.000    0.000    0.000 
#    0.000    0.000    0.000    0.000    0.000    0.000 
#
# Total GULP energy -334315.248248 kJ/mol
# GULP energy per Si atom -5571.920804 kJ/mol
# Density = 2.085226 g / cm^3
# Si number density = 20.899829 Si / 1000 Ang^3
#
#
#
# Elastic Constant Matrix: (Units=GPa)
#
#
# Indices 1 2 3 4 5 6 
#
# 1 56.1915 10.5644 15.2724 0.0000 0.0000 0.0000
# 2 10.5644 50.6680 17.8694 0.0000 0.0000 0.0000
# 3 15.2724 17.8694 61.0271 0.0000 0.0000 0.0000
# 4 0.0000 0.0000 0.0000 10.8406 0.0000 0.0000
# 5 0.0000 0.0000 0.0000 0.0000 26.0724 0.0000
# 6 0.0000 0.0000 0.0000 0.0000 0.0000 25.8156
#
#
#
# Elastic Compliance Matrix: (Units=1/GPa)
#
#
# Indices 1 2 3 4 5 6 
#
# 1 0.019398 -0.002601 -0.004093 0.000000 0.000000 0.000000
# 2 -0.002601 0.022358 -0.005896 0.000000 0.000000 0.000000
# 3 -0.004093 -0.005896 0.019137 0.000000 0.000000 0.000000
# 4 0.000000 0.000000 0.000000 0.092246 0.000000 0.000000
# 5 0.000000 0.000000 0.000000 0.000000 0.038355 0.000000
# 6 0.000000 0.000000 0.000000 0.000000 0.000000 0.038736
#
#
# Mechanical properties :
#
#
# Convention : Reuss Voigt Hill
#
# Bulk Modulus (GPa) = 28.00079 28.36656 28.18368
# Shear Modulus (GPa) = 18.70469 20.82441 19.76455
#
# Velocity S-wave (km/s) = 2.99485 3.15999 3.07853
# Velocity P-wave (km/s) = 5.03840 5.18808 5.11379
#
# Compressibility (1/GPa) = 0.03571328
#
# Stress axis : x y z
#
# Youngs Moduli (GPa) = 51.55255 44.72683 52.25548
#
# Poissons Ratio (x) = 0.11634 0.21387
# Poissons Ratio (y) = 0.13409 0.30808
# Poissons Ratio (z) = 0.21099 0.26370
#
# Static dielectric constant tensor:
#      x y z
#    x 1.812110 0.000000 0.000000 
#    y 0.000000 1.846160 0.000000 
#    z 0.000000 0.000000 1.754300 
# 
# From -- ./inp_files/21126.got.cif
#   From: 2010.05.17/outbox.cif.g08.bks.cpg/sg56_11_cif.got.tgz:21126.got - 2010.06.03 13:42:01.
