data_PCOD9429159
_publ_section_title
;
Structure prediction by ZEFSAII (Michael W. Deem and Ramdas Pophale) SiO2 
 PCOD9429159
Probable space group: P B A M
;
_chemical_formula_sum "Si O2"
_cell_formula_units_Z 48
_cell_length_a 16.716933
_cell_length_b 14.413491
_cell_length_c 8.392101
_cell_angle_alpha 90.000000
_cell_angle_beta 90.000000
_cell_angle_gamma 90.000000
_cell_volume 2022.071393
_symmetry_space_group_name_H-M "P B A M"
_symmetry_group_IT_number 55
_symmetry_cell_setting 'orthorhombic'
loop_
_space_group_symop_operation_xyz
x,y,z
-x,-y,z
1/2+x,1/2-y,-z
1/2-x,1/2+y,-z
-x,-y,-z
x,y,-z
1/2-x,1/2+y,z
1/2+x,1/2-y,z
loop_
_atom_site_type_symbol
_atom_site_label
_atom_site_fract_x
_atom_site_fract_y
_atom_site_fract_z
Si Si1 0.493541 0.684273 0.680715
Si Si2 0.381657 0.445432 0.815799
Si Si3 0.058913 0.637124 0.815517
Si Si4 0.744992 0.682771 0.319411
Si Si5 0.827998 0.854592 0.185291
Si Si6 0.121194 0.443923 0.814149
O O1 0.464545 0.685175 0.500000
O O2 0.542549 0.591860 0.720284
O O3 0.551974 0.771131 0.711571
O O4 0.416877 0.689127 0.795234
O O5 0.317482 0.363648 0.799527
O O6 0.340504 0.540123 0.756322
O O7 0.403882 0.460366 0.000000
O O8 0.116710 0.552492 0.767969
O O9 0.969233 0.594313 0.810420
O O10 0.076102 0.661268 0.000000
O O11 0.715714 0.674637 0.500000
O O12 0.768155 0.787622 0.277330
O O13 0.823939 0.619715 0.294421
O O14 0.805082 0.856594 0.000000
O O15 0.147886 0.438694 0.000000
#
# Coordination Sequence:
#
# PCOD9429159 Si02
#       6
#     8   8   8   8   8   8
#     4  12  24  39  64  99 134 167 208 268 328 377
#     4  11  26  46  68  92 123 170 220 264 312 379
#     4   9  18  34  60  91 124 166 214 258 302 366
#     4  12  25  41  65  97 132 168 206 264 333 386
#     4  11  24  45  71  94 123 170 221 261 309 382
#     4   9  18  35  60  89 123 167 214 257 303 367
#
# _framework density 23.738033999999999
#
# number of rings (size 3 to 8) (size 9 to 14) (size 15 to 20)
#    0.000    1.333    1.667    5.500    0.000    6.667 
#    0.000    3.333    0.000    0.000    0.000    0.000 
#    0.000    0.000    0.000    0.000    0.000    0.000 
#
# Total GULP energy -268706.220904 kJ/mol
# GULP energy per Si atom -5598.046269 kJ/mol
# Density = 2.368401 g / cm^3
# Si number density = 23.738034 Si / 1000 Ang^3
#
#
#
# Elastic Constant Matrix: (Units=GPa)
#
#
# Indices 1 2 3 4 5 6 
#
# 1 29.1819 14.8691 -10.2728 0.0000 0.0000 0.0000
# 2 14.8691 140.7419 19.9395 0.0000 0.0000 0.0000
# 3 -10.2728 19.9395 49.2828 0.0000 0.0000 0.0000
# 4 0.0000 0.0000 0.0000 78.7062 0.0000 0.0000
# 5 0.0000 0.0000 0.0000 0.0000 5.9713 0.0000
# 6 0.0000 0.0000 0.0000 0.0000 0.0000 34.7072
#
#
#
# Elastic Compliance Matrix: (Units=1/GPa)
#
#
# Indices 1 2 3 4 5 6 
#
# 1 0.041131 -0.005898 0.010960 0.000000 0.000000 0.000000
# 2 -0.005898 0.008383 -0.004621 0.000000 0.000000 0.000000
# 3 0.010960 -0.004621 0.024445 0.000000 0.000000 0.000000
# 4 0.000000 0.000000 0.000000 0.012705 0.000000 0.000000
# 5 0.000000 0.000000 0.000000 0.000000 0.167467 0.000000
# 6 0.000000 0.000000 0.000000 0.000000 0.000000 0.028812
#
#
# Mechanical properties :
#
#
# Convention : Reuss Voigt Hill
#
# Bulk Modulus (GPa) = 13.36164 29.80868 21.58516
# Shear Modulus (GPa) = 16.28610 36.85500 26.57055
#
# Velocity S-wave (km/s) = 2.62215 3.94454 3.34926
# Velocity P-wave (km/s) = 3.84819 5.77326 4.90607
#
# Compressibility (1/GPa) = 0.07484114
#
# Stress axis : x y z
#
# Youngs Moduli (GPa) = 24.31236 119.28846 40.90753
#
# Poissons Ratio (x) = 0.70359 -0.44835
# Poissons Ratio (y) = 0.14340 0.18904
# Poissons Ratio (z) = -0.26647 0.55125
#
# Static dielectric constant tensor:
#      x y z
#    x 1.928340 0.000000 0.000000 
#    y 0.000000 1.928390 0.000000 
#    z 0.000000 0.000000 1.811490 
# 
# From -- ./inp_files/7437.got.cif
#   From: 2010.05.17/outbox.cif.g08.bks.cpg/sg55_4_cif.got.tgz:7437.got - 2010.06.03 13:27:54.
