data_PCOD9429978
_publ_section_title
;
Structure prediction by ZEFSAII (Michael W. Deem and Ramdas Pophale) SiO2 
 PCOD9429978
Probable space group: P C C N
;
_chemical_formula_sum "Si O2"
_cell_formula_units_Z 52
_cell_length_a 14.332705
_cell_length_b 20.719494
_cell_length_c 9.373375
_cell_angle_alpha 90.000000
_cell_angle_beta 90.000000
_cell_angle_gamma 90.000000
_cell_volume 2783.577385
_symmetry_space_group_name_H-M "P C C N"
_symmetry_group_IT_number 56
_symmetry_cell_setting 'orthorhombic'
loop_
_space_group_symop_operation_xyz
x,y,z
1/2-x,1/2-y,z
1/2+x,-y,1/2-z
-x,1/2+y,1/2-z
-x,-y,-z
1/2+x,1/2+y,-z
1/2-x,y,1/2+z
x,1/2-y,1/2+z
loop_
_atom_site_type_symbol
_atom_site_label
_atom_site_fract_x
_atom_site_fract_y
_atom_site_fract_z
Si Si1 0.876970 0.447767 0.012523
Si Si2 0.978883 0.398383 0.272444
Si Si3 0.250000 0.250000 0.033794
Si Si4 0.331904 0.448813 0.246925
Si Si5 0.176563 0.163056 0.780703
Si Si6 0.822636 0.072580 0.956353
Si Si7 0.535010 0.458403 0.203110
O O1 0.951071 0.410256 0.109398
O O2 0.848926 0.511149 0.105951
O O3 0.781873 0.407974 0.993280
O O4 0.922032 0.461923 0.860910
O O5 0.883440 0.381739 0.353805
O O6 0.069844 0.357241 0.289619
O O7 0.006654 0.468572 0.336334
O O8 0.201139 0.200417 0.925820
O O9 0.312230 0.208643 0.142810
O O10 0.249846 0.396667 0.261808
O O11 0.309511 0.504279 0.129558
O O12 0.435061 0.421591 0.206048
O O13 0.885196 0.064583 0.096912
#
# Coordination Sequence:
#
# PCOD9429978 Si02
#       7
#     8   8   4   8   8   8   8
#     4  10  19  32  48  87 117 150 182 221 260 374
#     4  10  20  33  55  76 116 150 181 221 294 329
#     4  10  28  42  60  82 110 138 224 234 280 332
#     4  10  21  31  55  74 120 157 181 220 294 323
#     4  11  24  43  60  82 112 154 188 253 286 322
#     4  10  19  32  48  87 117 150 182 221 260 374
#     4  10  19  29  48  88 106 156 193 210 261 379
#
# _framework density 18.680996
#
# number of rings (size 3 to 8) (size 9 to 14) (size 15 to 20)
#    0.000    2.154    0.000    7.385   10.769    0.000 
#    0.000    0.000    0.000    0.000    0.000    3.231 
#    0.000    0.000    0.000    0.000    0.000    0.000 
#
# Total GULP energy -290019.069118 kJ/mol
# GULP energy per Si atom -5577.289791 kJ/mol
# Density = 1.863848 g / cm^3
# Si number density = 18.680996 Si / 1000 Ang^3
#
#
#
# Elastic Constant Matrix: (Units=GPa)
#
#
# Indices 1 2 3 4 5 6 
#
# 1 105.8397 20.5197 6.6802 0.0000 0.0000 0.0000
# 2 20.5197 31.8903 10.9595 0.0000 0.0000 0.0000
# 3 6.6802 10.9595 94.7037 0.0000 0.0000 0.0000
# 4 0.0000 0.0000 0.0000 5.1378 0.0000 0.0000
# 5 0.0000 0.0000 0.0000 0.0000 24.2166 0.0000
# 6 0.0000 0.0000 0.0000 0.0000 0.0000 6.9398
#
#
#
# Elastic Compliance Matrix: (Units=1/GPa)
#
#
# Indices 1 2 3 4 5 6 
#
# 1 0.010795 -0.006961 0.000044 0.000000 0.000000 0.000000
# 2 -0.006961 0.037145 -0.003808 0.000000 0.000000 0.000000
# 3 0.000044 -0.003808 0.010997 0.000000 0.000000 0.000000
# 4 0.000000 0.000000 0.000000 0.194636 0.000000 0.000000
# 5 0.000000 0.000000 0.000000 0.000000 0.041294 0.000000
# 6 0.000000 0.000000 0.000000 0.000000 0.000000 0.144097
#
#
# Mechanical properties :
#
#
# Convention : Reuss Voigt Hill
#
# Bulk Modulus (GPa) = 26.67543 34.30583 30.49063
# Shear Modulus (GPa) = 10.57286 20.21045 15.39165
#
# Velocity S-wave (km/s) = 2.38159 3.29275 2.87352
# Velocity P-wave (km/s) = 4.67687 5.73238 5.23131
#
# Compressibility (1/GPa) = 0.03748768
#
# Stress axis : x y z
#
# Youngs Moduli (GPa) = 92.63496 26.92145 90.93582
#
# Poissons Ratio (x) = 0.18741 -0.00401
# Poissons Ratio (y) = 0.64485 0.34624
# Poissons Ratio (z) = -0.00409 0.10251
#
# Static dielectric constant tensor:
#      x y z
#    x 1.717000 0.000000 0.000000 
#    y 0.000000 1.638290 0.000000 
#    z 0.000000 0.000000 1.682340 
# 
# From -- ./inp_files/3517.got.cif
#   From: 2010.05.17/outbox.cif.g08.bks.cpg/sg56_2_cif.got.tgz:3517.got - 2010.06.03 13:42:01.
