data_PCOD9429212
_publ_section_title
;
Structure prediction by ZEFSAII (Michael W. Deem and Ramdas Pophale) SiO2 
 PCOD9429212
Probable space group: P B A M
;
_chemical_formula_sum "Si O2"
_cell_formula_units_Z 40
_cell_length_a 18.465287
_cell_length_b 13.759308
_cell_length_c 8.999229
_cell_angle_alpha 90.000000
_cell_angle_beta 90.000000
_cell_angle_gamma 90.000000
_cell_volume 2286.430253
_symmetry_space_group_name_H-M "P B A M"
_symmetry_group_IT_number 55
_symmetry_cell_setting 'orthorhombic'
loop_
_space_group_symop_operation_xyz
x,y,z
-x,-y,z
1/2+x,1/2-y,-z
1/2-x,1/2+y,-z
-x,-y,-z
x,y,-z
1/2-x,1/2+y,z
1/2+x,1/2-y,z
loop_
_atom_site_type_symbol
_atom_site_label
_atom_site_fract_x
_atom_site_fract_y
_atom_site_fract_z
Si Si1 0.534435 0.100735 0.180847
Si Si2 0.309698 0.823719 0.821752
Si Si3 0.869786 0.890012 0.823380
Si Si4 0.972139 0.191977 0.178559
Si Si5 0.833864 0.091256 0.323420
O O1 0.617850 0.117758 0.224480
O O2 0.489287 0.196735 0.223069
O O3 0.500000 0.000000 0.233269
O O4 0.534330 0.099736 0.000000
O O5 0.327295 0.710291 0.794006
O O6 0.238865 0.861074 0.740786
O O7 0.301037 0.835047 0.000000
O O8 0.954372 0.868431 0.790936
O O9 0.840530 0.980696 0.733220
O O10 0.864331 0.910420 0.000000
O O11 0.903362 0.147730 0.258877
O O12 0.960995 0.189455 0.000000
O O13 0.833979 0.094900 0.500000
#
# Coordination Sequence:
#
# PCOD9429212 Si02
#       5
#     8   8   8   8   8
#     4   8  15  31  57  84 104 127 168 221 268 308
#     4   9  19  36  56  78 104 136 176 219 262 309
#     4   9  19  37  58  76  99 136 182 228 266 305
#     4   9  18  34  56  80 104 134 178 224 262 309
#     4  12  24  34  50  79 113 144 173 211 264 323
#
# _framework density 17.494520999999999
#
# number of rings (size 3 to 8) (size 9 to 14) (size 15 to 20)
#    0.000    2.600    0.000    4.800    0.000    5.600 
#    0.000    7.000    0.000    1.200    0.000    0.000 
#    0.000    0.000    0.000    0.000    0.000    0.000 
#
# Total GULP energy -223199.119225 kJ/mol
# GULP energy per Si atom -5579.977981 kJ/mol
# Density = 1.745470 g / cm^3
# Si number density = 17.494521 Si / 1000 Ang^3
#
#
#
# Elastic Constant Matrix: (Units=GPa)
#
#
# Indices 1 2 3 4 5 6 
#
# 1 159.2489 109.8423 84.3613 0.0000 0.0000 0.0000
# 2 109.8423 114.4073 70.7480 0.0000 0.0000 0.0000
# 3 84.3613 70.7480 62.3802 0.0000 0.0000 0.0000
# 4 0.0000 0.0000 0.0000 -5.5764 0.0000 0.0000
# 5 0.0000 0.0000 0.0000 0.0000 -16.1183 0.0000
# 6 0.0000 0.0000 0.0000 0.0000 0.0000 20.1633
#
#
#
# Elastic Compliance Matrix: (Units=1/GPa)
#
#
# Indices 1 2 3 4 5 6 
#
# 1 0.025452 -0.010551 -0.022455 0.000000 0.000000 0.000000
# 2 -0.010551 0.033640 -0.023884 0.000000 0.000000 0.000000
# 3 -0.022455 -0.023884 0.073485 0.000000 0.000000 0.000000
# 4 0.000000 0.000000 0.000000 -0.179328 0.000000 0.000000
# 5 0.000000 0.000000 0.000000 0.000000 -0.062041 0.000000
# 6 0.000000 0.000000 0.000000 0.000000 0.000000 0.049595
#
#
# Mechanical properties :
#
#
# Convention : Reuss Voigt Hill
#
# Bulk Modulus (GPa) = 53.19452 96.21552 74.70502
# Shear Modulus (GPa) = 82.17165 4.43270 43.30217
#
# Velocity S-wave (km/s) = 6.86090 1.59351 4.98052
# Velocity P-wave (km/s) = 9.65582 7.64870 8.71027
#
# Compressibility (1/GPa) = 0.01879893
#
# Stress axis : x y z
#
# Youngs Moduli (GPa) = 39.28907 29.72642 13.60821
#
# Poissons Ratio (x) = 0.31365 0.30557
# Poissons Ratio (y) = 0.41455 0.32501
# Poissons Ratio (z) = 0.88222 0.70997
#
# Static dielectric constant tensor:
#      x y z
#    x 1.570870 0.000000 0.000000 
#    y 0.000000 1.592600 0.000000 
#    z 0.000000 0.000000 1.571920 
# 
# From -- ./inp_files/3623.got.cif
#   From: 2010.05.17/outbox.cif.g08.bks.cpg/sg55_2_cif.got.tgz:3623.got - 2010.06.03 13:27:54.
