data_PCOD9429663
_publ_section_title
;
Structure prediction by ZEFSAII (Michael W. Deem and Ramdas Pophale) SiO2 
 PCOD9429663
Probable space group: P C C N
;
_chemical_formula_sum "Si O2"
_cell_formula_units_Z 48
_cell_length_a 12.556189
_cell_length_b 25.090592
_cell_length_c 8.742506
_cell_angle_alpha 90.000000
_cell_angle_beta 90.000000
_cell_angle_gamma 90.000000
_cell_volume 2754.258457
_symmetry_space_group_name_H-M "P C C N"
_symmetry_group_IT_number 56
_symmetry_cell_setting 'orthorhombic'
loop_
_space_group_symop_operation_xyz
x,y,z
1/2-x,1/2-y,z
1/2+x,-y,1/2-z
-x,1/2+y,1/2-z
-x,-y,-z
1/2+x,1/2+y,-z
1/2-x,y,1/2+z
x,1/2-y,1/2+z
loop_
_atom_site_type_symbol
_atom_site_label
_atom_site_fract_x
_atom_site_fract_y
_atom_site_fract_z
Si Si1 0.119246 0.295700 0.348539
Si Si2 0.851243 0.686762 0.290999
Si Si3 0.858414 0.479023 0.172621
Si Si4 0.006467 0.401200 0.304981
Si Si5 0.315909 0.029113 0.139500
Si Si6 0.408636 0.426132 0.129803
O O1 0.228697 0.312625 0.263483
O O2 0.095671 0.235268 0.300811
O O3 0.141612 0.300182 0.528993
O O4 0.030148 0.338584 0.304613
O O5 0.902764 0.628494 0.274374
O O6 0.740065 0.492069 0.233481
O O7 0.899488 0.422173 0.226914
O O8 0.930101 0.522772 0.264978
O O9 0.862294 0.493551 0.995986
O O10 0.099813 0.431113 0.211742
O O11 0.018218 0.419779 0.481854
O O12 0.214362 0.063307 0.076231
#
# Coordination Sequence:
#
# PCOD9429663 Si02
#       6
#     8   8   8   8   8   8
#     4  10  19  28  44  66  93 123 164 184 234 282
#     4  10  18  28  43  62  91 130 153 192 228 286
#     4  10  20  30  50  68  99 130 162 199 244 286
#     4  11  19  32  47  72  97 129 165 201 234 293
#     4  10  18  32  45  66  96 132 157 197 240 285
#     4   9  18  31  47  63  96 130 162 190 241 285
#
# _framework density 17.427558999999999
#
# number of rings (size 3 to 8) (size 9 to 14) (size 15 to 20)
#    1.000    1.000    3.333    3.000    2.333    1.333 
#    0.000    0.000    0.000    0.000    0.000    0.000 
#    0.000   28.000    0.000    0.000    0.000    0.000 
#
# Total GULP energy -267445.805046 kJ/mol
# GULP energy per Si atom -5571.787605 kJ/mol
# Density = 1.738789 g / cm^3
# Si number density = 17.427559 Si / 1000 Ang^3
#
#
#
# Elastic Constant Matrix: (Units=GPa)
#
#
# Indices 1 2 3 4 5 6 
#
# 1 12.2912 -2.1570 -6.2694 0.0000 0.0000 0.0000
# 2 -2.1570 73.4307 10.6377 0.0000 0.0000 0.0000
# 3 -6.2694 10.6377 43.0518 0.0000 0.0000 0.0000
# 4 0.0000 0.0000 0.0000 19.4048 0.0000 0.0000
# 5 0.0000 0.0000 0.0000 0.0000 12.6326 0.0000
# 6 0.0000 0.0000 0.0000 0.0000 0.0000 27.6042
#
#
#
# Elastic Compliance Matrix: (Units=1/GPa)
#
#
# Indices 1 2 3 4 5 6 
#
# 1 0.087928 0.000755 0.012618 0.000000 0.000000 0.000000
# 2 0.000755 0.014130 -0.003382 0.000000 0.000000 0.000000
# 3 0.012618 -0.003382 0.025901 0.000000 0.000000 0.000000
# 4 0.000000 0.000000 0.000000 0.051534 0.000000 0.000000
# 5 0.000000 0.000000 0.000000 0.000000 0.079160 0.000000
# 6 0.000000 0.000000 0.000000 0.000000 0.000000 0.036226
#
#
# Mechanical properties :
#
#
# Convention : Reuss Voigt Hill
#
# Bulk Modulus (GPa) = 6.75944 14.79959 10.77952
# Shear Modulus (GPa) = 15.42208 20.36581 17.89394
#
# Velocity S-wave (km/s) = 2.97800 3.42218 3.20779
# Velocity P-wave (km/s) = 3.96379 4.91178 4.46303
#
# Compressibility (1/GPa) = 0.14794116
#
# Stress axis : x y z
#
# Youngs Moduli (GPa) = 11.37300 70.76976 38.60877
#
# Poissons Ratio (x) = -0.05343 -0.48716
# Poissons Ratio (y) = -0.00859 0.13056
# Poissons Ratio (z) = -0.14350 0.23931
#
# Static dielectric constant tensor:
#      x y z
#    x 1.601770 0.000000 0.000000 
#    y 0.000000 1.619860 0.000000 
#    z 0.000000 0.000000 1.598550 
# 
# From -- ./inp_files/2846.got.cif
#   From: 2010.05.17/outbox.cif.g08.bks.cpg/sg56_2_cif.got.tgz:2846.got - 2010.06.03 13:42:01.
