data_PCOD9429047
_publ_section_title
;
Structure prediction by ZEFSAII (Michael W. Deem and Ramdas Pophale) SiO2 
 PCOD9429047
Probable space group: P B A M
;
_chemical_formula_sum "Si O2"
_cell_formula_units_Z 56
_cell_length_a 33.114806
_cell_length_b 4.930469
_cell_length_c 16.781009
_cell_angle_alpha 90.000000
_cell_angle_beta 90.000000
_cell_angle_gamma 90.000000
_cell_volume 2739.860921
_symmetry_space_group_name_H-M "P B A M"
_symmetry_group_IT_number 55
_symmetry_cell_setting 'orthorhombic'
loop_
_space_group_symop_operation_xyz
x,y,z
-x,-y,z
1/2+x,1/2-y,-z
1/2-x,1/2+y,-z
-x,-y,-z
x,y,-z
1/2-x,1/2+y,z
1/2+x,1/2-y,z
loop_
_atom_site_type_symbol
_atom_site_label
_atom_site_fract_x
_atom_site_fract_y
_atom_site_fract_z
Si Si1 0.652789 0.619675 0.591011
Si Si2 0.459628 0.816931 0.087111
Si Si3 0.112705 0.360730 0.335735
Si Si4 0.527523 0.263711 0.738576
Si Si5 0.374401 0.121019 0.090402
Si Si6 0.723298 0.613661 0.715757
Si Si7 0.843601 0.869482 0.820587
O O1 0.659648 0.701471 0.500000
O O2 0.627820 0.342428 0.596332
O O3 0.694533 0.577901 0.638969
O O4 0.626494 0.841155 0.639106
O O5 0.460605 0.654013 0.170145
O O6 0.500000 0.000000 0.084525
O O7 0.419599 0.000663 0.094065
O O8 0.457040 0.672743 0.000000
O O9 0.066423 0.314613 0.312617
O O10 0.136729 0.267610 0.256935
O O11 0.500000 0.500000 0.703375
O O12 0.500000 0.000000 0.745569
O O13 0.369652 0.381086 0.146014
O O14 0.344715 0.876114 0.116669
O O15 0.365948 0.203946 0.000000
O O16 0.762717 0.424142 0.715060
O O17 0.697622 0.509213 0.791280
#
# Coordination Sequence:
#
# PCOD9429047 Si02
#       7
#     8   8   8   8   8   8   8
#     4  11  24  42  68  97 126 159 192 244 311 384
#     4   9  20  34  53  85 127 167 205 257 321 366
#     4  11  22  40  64  89 125 164 214 252 302 373
#     4  11  23  36  59  86 121 166 213 266 307 352
#     4  11  22  37  59  87 123 170 217 265 307 351
#     4  11  23  40  66  97 125 157 188 238 306 375
#     4  11  22  39  62  86 123 163 212 253 300 369
#
# _framework density 20.438994999999998
#
# number of rings (size 3 to 8) (size 9 to 14) (size 15 to 20)
#    0.000    1.286    1.429    6.000    4.000    0.857 
#    0.000    0.000    0.000   17.143    0.000    0.000 
#    0.000    0.000    0.000    0.000    0.000    0.000 
#
# Total GULP energy -312874.121465 kJ/mol
# GULP energy per Si atom -5587.037883 kJ/mol
# Density = 2.039247 g / cm^3
# Si number density = 20.438995 Si / 1000 Ang^3
#
#
#
# Elastic Constant Matrix: (Units=GPa)
#
#
# Indices 1 2 3 4 5 6 
#
# 1 71.0796 -0.9327 24.0934 0.0000 0.0000 0.0000
# 2 -0.9327 60.5472 -1.0944 0.0000 0.0000 0.0000
# 3 24.0934 -1.0944 70.6849 0.0000 0.0000 0.0000
# 4 0.0000 0.0000 0.0000 20.5601 0.0000 0.0000
# 5 0.0000 0.0000 0.0000 0.0000 12.2215 0.0000
# 6 0.0000 0.0000 0.0000 0.0000 0.0000 40.2825
#
#
#
# Elastic Compliance Matrix: (Units=1/GPa)
#
#
# Indices 1 2 3 4 5 6 
#
# 1 0.015908 0.000147 -0.005420 0.000000 0.000000 0.000000
# 2 0.000147 0.016522 0.000206 0.000000 0.000000 0.000000
# 3 -0.005420 0.000206 0.015998 0.000000 0.000000 0.000000
# 4 0.000000 0.000000 0.000000 0.048638 0.000000 0.000000
# 5 0.000000 0.000000 0.000000 0.000000 0.081823 0.000000
# 6 0.000000 0.000000 0.000000 0.000000 0.000000 0.024825
#
#
# Mechanical properties :
#
#
# Convention : Reuss Voigt Hill
#
# Bulk Modulus (GPa) = 26.11425 27.38271 26.74848
# Shear Modulus (GPa) = 22.06414 26.62919 24.34666
#
# Velocity S-wave (km/s) = 3.28916 3.61343 3.45510
# Velocity P-wave (km/s) = 5.21816 5.55298 5.38817
#
# Compressibility (1/GPa) = 0.03829327
#
# Stress axis : x y z
#
# Youngs Moduli (GPa) = 62.86197 60.52528 62.50809
#
# Poissons Ratio (x) = -0.00890 0.33880
# Poissons Ratio (y) = -0.00925 -0.01286
# Poissons Ratio (z) = 0.34071 -0.01245
#
# Static dielectric constant tensor:
#      x y z
#    x 1.723980 0.000000 0.000000 
#    y 0.000000 1.723810 0.000000 
#    z 0.000000 0.000000 1.753660 
# 
# From -- ./inp_files/20154.got.cif
#   From: 2010.05.17/outbox.cif.g08.bks.cpg/sg55_11_cif.got.tgz:20154.got - 2010.06.03 13:27:54.
