data_PCOD9429963
_publ_section_title
;
Structure prediction by ZEFSAII (Michael W. Deem and Ramdas Pophale) SiO2 
 PCOD9429963
Probable space group: P C C N
;
_chemical_formula_sum "Si O2"
_cell_formula_units_Z 60
_cell_length_a 32.751153
_cell_length_b 5.063114
_cell_length_c 15.380655
_cell_angle_alpha 90.000000
_cell_angle_beta 90.000000
_cell_angle_gamma 90.000000
_cell_volume 2550.463605
_symmetry_space_group_name_H-M "P C C N"
_symmetry_group_IT_number 56
_symmetry_cell_setting 'orthorhombic'
loop_
_space_group_symop_operation_xyz
x,y,z
1/2-x,1/2-y,z
1/2+x,-y,1/2-z
-x,1/2+y,1/2-z
-x,-y,-z
1/2+x,1/2+y,-z
1/2-x,y,1/2+z
x,1/2-y,1/2+z
loop_
_atom_site_type_symbol
_atom_site_label
_atom_site_fract_x
_atom_site_fract_y
_atom_site_fract_z
Si Si1 0.958458 0.849760 0.528783
Si Si2 0.126888 0.727381 0.798786
Si Si3 0.892352 0.789775 0.297963
Si Si4 0.708137 0.159368 0.770618
Si Si5 0.250000 0.250000 0.096872
Si Si6 0.330198 0.038036 0.582625
Si Si7 0.907673 0.330906 0.515062
Si Si8 0.474252 0.392226 0.265856
O O1 0.942504 0.556840 0.503097
O O2 0.924865 0.047477 0.489426
O O3 0.960155 0.850129 0.634402
O O4 0.000000 0.000000 0.500000
O O5 0.125258 0.416445 0.776491
O O6 0.172150 0.855993 0.799118
O O7 0.105946 0.902796 0.724082
O O8 0.102052 0.800705 0.883400
O O9 0.859483 0.755991 0.373628
O O10 0.938190 0.681696 0.301148
O O11 0.750000 0.250000 0.726696
O O12 0.687911 0.365422 0.838166
O O13 0.724746 0.935175 0.835950
O O14 0.287470 0.367509 0.040966
O O15 0.363696 0.888194 0.526424
O O16 0.510566 0.188326 0.247022
#
# Coordination Sequence:
#
# PCOD9429963 Si02
#       8
#     8   8   8   8   4   8   8   8
#     4  12  28  47  65  95 137 175 215 274 339 395
#     4  11  20  42  64  91 126 168 210 263 322 376
#     4  11  22  41  65  94 126 169 223 260 319 386
#     4   9  20  38  64  95 127 169 219 269 316 382
#     4  10  18  42  62  96 134 162 228 268 324 376
#     4  10  24  37  69  96 130 178 218 270 322 399
#     4  12  25  45  67  96 137 174 215 270 333 394
#     4  12  25  42  68  97 128 168 222 278 320 382
#
# _framework density 23.525136
#
# number of rings (size 3 to 8) (size 9 to 14) (size 15 to 20)
#    0.000    1.067    4.000    2.000    5.600    0.000 
#    0.000    2.667    0.000    0.000    0.000    0.000 
#    0.000    0.000    0.000    0.000    0.000    0.000 
#
# Total GULP energy -334560.561572 kJ/mol
# GULP energy per Si atom -5576.009360 kJ/mol
# Density = 2.347159 g / cm^3
# Si number density = 23.525136 Si / 1000 Ang^3
#
#
#
# Elastic Constant Matrix: (Units=GPa)
#
#
# Indices 1 2 3 4 5 6 
#
# 1 148.6855 16.2516 1.6482 0.0000 0.0000 0.0000
# 2 16.2516 82.8306 -4.3609 0.0000 0.0000 0.0000
# 3 1.6482 -4.3609 27.9958 0.0000 0.0000 0.0000
# 4 0.0000 0.0000 0.0000 16.4765 0.0000 0.0000
# 5 0.0000 0.0000 0.0000 0.0000 40.5929 0.0000
# 6 0.0000 0.0000 0.0000 0.0000 0.0000 53.8590
#
#
#
# Elastic Compliance Matrix: (Units=1/GPa)
#
#
# Indices 1 2 3 4 5 6 
#
# 1 0.006884 -0.001383 -0.000621 0.000000 0.000000 0.000000
# 2 -0.001383 0.012451 0.002021 0.000000 0.000000 0.000000
# 3 -0.000621 0.002021 0.036071 0.000000 0.000000 0.000000
# 4 0.000000 0.000000 0.000000 0.060693 0.000000 0.000000
# 5 0.000000 0.000000 0.000000 0.000000 0.024635 0.000000
# 6 0.000000 0.000000 0.000000 0.000000 0.000000 0.018567
#
#
# Mechanical properties :
#
#
# Convention : Reuss Voigt Hill
#
# Bulk Modulus (GPa) = 18.03782 31.84329 24.94056
# Shear Modulus (GPa) = 28.13007 38.58388 33.35697
#
# Velocity S-wave (km/s) = 3.46171 4.05422 3.76962
# Velocity P-wave (km/s) = 4.86436 5.95658 5.43796
#
# Compressibility (1/GPa) = 0.05543907
#
# Stress axis : x y z
#
# Youngs Moduli (GPa) = 145.27112 80.31725 27.72309
#
# Poissons Ratio (x) = 0.11110 0.01721
# Poissons Ratio (y) = 0.20095 -0.05603
# Poissons Ratio (z) = 0.09017 -0.16231
#
# Static dielectric constant tensor:
#      x y z
#    x 1.998000 0.000000 0.000000 
#    y 0.000000 1.954660 0.000000 
#    z 0.000000 0.000000 1.947520 
# 
# From -- ./inp_files/17105.got.cif
#   From: 2010.05.17/outbox.cif.g08.bks.cpg/sg56_9_cif.got.tgz:17105.got - 2010.06.03 13:42:01.
