data_PCOD9429398
_publ_section_title
;
Structure prediction by ZEFSAII (Michael W. Deem and Ramdas Pophale) SiO2 
 PCOD9429398
Probable space group: P B A M
;
_chemical_formula_sum "Si O2"
_cell_formula_units_Z 48
_cell_length_a 24.000000
_cell_length_b 12.000000
_cell_length_c 9.000000
_cell_angle_alpha 90.000000
_cell_angle_beta 90.000000
_cell_angle_gamma 90.000000
_cell_volume 2592.000000
_symmetry_space_group_name_H-M "P B A M"
_symmetry_group_IT_number 55
_symmetry_cell_setting 'orthorhombic'
loop_
_space_group_symop_operation_xyz
x,y,z
-x,-y,z
1/2+x,1/2-y,-z
1/2-x,1/2+y,-z
-x,-y,-z
x,y,-z
1/2-x,1/2+y,z
1/2+x,1/2-y,z
loop_
_atom_site_type_symbol
_atom_site_label
_atom_site_fract_x
_atom_site_fract_y
_atom_site_fract_z
Si Si1 0.303495 0.425228 0.679202
Si Si2 0.672130 0.126319 0.679912
Si Si3 0.138718 0.143347 0.820256
Si Si4 0.992130 0.867767 0.830653
Si Si5 0.567816 0.984433 0.820528
Si Si6 0.903452 0.246914 0.321973
O O1 0.306271 0.439802 0.500000
O O2 0.236705 0.413408 0.715894
O O3 0.332255 0.531020 0.759277
O O4 0.345703 0.320454 0.713681
O O5 0.667295 0.122097 0.500000
O O6 0.667620 0.251401 0.742894
O O7 0.616873 0.064135 0.749708
O O8 0.072194 0.150838 0.784526
O O9 0.143172 0.146779 0.000000
O O10 0.041313 0.821637 0.727216
O O11 0.999001 0.822196 0.000000
O O12 0.000000 0.000000 0.837555
O O13 0.587877 0.863179 0.763825
O O14 0.500000 0.000000 0.781882
O O15 0.570531 0.994831 0.000000
O O16 0.903743 0.265032 0.500000
#
# Coordination Sequence:
#
# PCOD9429398 Si02
#       6
#     8   8   8   8   8   8
#     4  10  24  43  62  90 127 167 207 256 315 372
#     4  11  25  44  66  91 127 169 211 260 316 377
#     4  11  23  40  65  94 125 162 208 258 310 371
#     4  10  20  37  59  89 128 164 201 254 314 365
#     4  11  25  45  67  94 129 167 212 266 322 379
#     4  11  23  39  64  95 128 167 213 260 315 378
#
# _framework density 18.518519000000001
#
# number of rings (size 3 to 8) (size 9 to 14) (size 15 to 20)
#    0.000    1.333    1.667    3.000    2.333    9.000 
#    0.000    0.000    0.000    0.000    0.000    0.000 
#    0.000    0.000    0.000    0.000    0.000    0.000 
#
# Total GULP energy -267729.915314 kJ/mol
# GULP energy per Si atom -5577.706569 kJ/mol
# Density = 1.847637 g / cm^3
# Si number density = 18.518519 Si / 1000 Ang^3
#
#
#
# Elastic Constant Matrix: (Units=GPa)
#
#
# Indices 1 2 3 4 5 6 
#
# 1 183.6482 57.2777 54.9217 0.0000 0.0000 0.0000
# 2 57.2777 114.5202 37.5920 0.0000 0.0000 0.0000
# 3 54.9217 37.5920 79.8500 0.0000 0.0000 0.0000
# 4 0.0000 0.0000 0.0000 35.8066 0.0000 0.0000
# 5 0.0000 0.0000 0.0000 0.0000 39.8357 0.0000
# 6 0.0000 0.0000 0.0000 0.0000 0.0000 38.0435
#
#
#
# Elastic Compliance Matrix: (Units=1/GPa)
#
#
# Indices 1 2 3 4 5 6 
#
# 1 0.007371 -0.002392 -0.003943 0.000000 0.000000 0.000000
# 2 -0.002392 0.011104 -0.003583 0.000000 0.000000 0.000000
# 3 -0.003943 -0.003583 0.016922 0.000000 0.000000 0.000000
# 4 0.000000 0.000000 0.000000 0.027928 0.000000 0.000000
# 5 0.000000 0.000000 0.000000 0.000000 0.025103 0.000000
# 6 0.000000 0.000000 0.000000 0.000000 0.000000 0.026286
#
#
# Mechanical properties :
#
#
# Convention : Reuss Voigt Hill
#
# Bulk Modulus (GPa) = 64.26123 75.28901 69.77512
# Shear Modulus (GPa) = 35.78148 37.95230 36.86689
#
# Velocity S-wave (km/s) = 4.40045 4.53197 4.46669
# Velocity P-wave (km/s) = 7.78428 8.25405 8.02260
#
# Compressibility (1/GPa) = 0.01556148
#
# Stress axis : x y z
#
# Youngs Moduli (GPa) = 135.67534 90.05417 59.09312
#
# Poissons Ratio (x) = 0.21540 0.23303
# Poissons Ratio (y) = 0.32453 0.21171
# Poissons Ratio (z) = 0.53503 0.32263
#
# Static dielectric constant tensor:
#      x y z
#    x 1.644630 0.000000 0.000000 
#    y 0.000000 1.666700 0.000000 
#    z 0.000000 0.000000 1.631310 
# 
# From -- ./inp_files/9446.got.cif
#   From: 2010.05.17/outbox.ucp.g08.bks.cvg/sg55_5_cif.got.tgz:9446.got - 2010.06.11 16:36:00.
