data_PCOD9429687
_publ_section_title
;
Structure prediction by ZEFSAII (Michael W. Deem and Ramdas Pophale) SiO2 
 PCOD9429687
Probable space group: P C C N
;
_chemical_formula_sum "Si O2"
_cell_formula_units_Z 56
_cell_length_a 26.922669
_cell_length_b 21.603448
_cell_length_c 5.225791
_cell_angle_alpha 90.000000
_cell_angle_beta 90.000000
_cell_angle_gamma 90.000000
_cell_volume 3039.437520
_symmetry_space_group_name_H-M "P C C N"
_symmetry_group_IT_number 56
_symmetry_cell_setting 'orthorhombic'
loop_
_space_group_symop_operation_xyz
x,y,z
1/2-x,1/2-y,z
1/2+x,-y,1/2-z
-x,1/2+y,1/2-z
-x,-y,-z
1/2+x,1/2+y,-z
1/2-x,y,1/2+z
x,1/2-y,1/2+z
loop_
_atom_site_type_symbol
_atom_site_label
_atom_site_fract_x
_atom_site_fract_y
_atom_site_fract_z
Si Si1 0.271455 0.680131 0.655165
Si Si2 0.872684 0.377057 0.794875
Si Si3 0.458099 0.786746 0.073626
Si Si4 0.105350 0.554348 0.712173
Si Si5 0.922225 0.711572 0.064351
Si Si6 0.007360 0.064327 0.844230
Si Si7 0.431316 0.080899 0.819635
O O1 0.250000 0.750000 0.631012
O O2 0.258234 0.649950 0.386594
O O3 0.329497 0.674466 0.712792
O O4 0.925555 0.343553 0.827176
O O5 0.871808 0.420701 0.549048
O O6 0.866541 0.418512 0.045733
O O7 0.445930 0.733875 0.284537
O O8 0.517365 0.796809 0.070965
O O9 0.098766 0.480439 0.739305
O O10 0.048984 0.582238 0.713614
O O11 0.909214 0.755868 0.299458
O O12 0.902162 0.642184 0.097373
O O13 0.036041 0.061745 0.572605
O O14 0.037627 0.100793 0.062752
O O15 0.000000 0.000000 0.000000
#
# Coordination Sequence:
#
# PCOD9429687 Si02
#       7
#     8   8   8   8   8   8   8
#     4  10  23  40  59  74  95 127 172 207 273 338
#     4  12  23  35  55  75  99 120 169 228 267 325
#     4  10  21  32  47  66  96 125 164 215 270 285
#     4  11  21  33  49  78  97 125 165 212 274 303
#     4  10  20  33  46  68  95 137 177 206 240 304
#     4  10  18  30  48  70  99 134 168 205 258 321
#     4  11  20  33  51  67 103 138 169 212 255 311
#
# _framework density 18.424462999999999
#
# number of rings (size 3 to 8) (size 9 to 14) (size 15 to 20)
#    0.000    1.429    0.000    8.571    4.000    2.286 
#    0.000    0.000    0.000    0.000    0.000    0.000 
#    0.000    0.000    0.000    0.000    0.000   50.000 
#
# Total GULP energy -312340.152214 kJ/mol
# GULP energy per Si atom -5577.502718 kJ/mol
# Density = 1.838253 g / cm^3
# Si number density = 18.424463 Si / 1000 Ang^3
#
#
#
# Elastic Constant Matrix: (Units=GPa)
#
#
# Indices 1 2 3 4 5 6 
#
# 1 39.4299 6.8335 43.5874 0.0000 0.0000 0.0000
# 2 6.8335 85.8890 1.0960 0.0000 0.0000 0.0000
# 3 43.5874 1.0960 189.0167 0.0000 0.0000 0.0000
# 4 0.0000 0.0000 0.0000 25.5372 0.0000 0.0000
# 5 0.0000 0.0000 0.0000 0.0000 8.3303 0.0000
# 6 0.0000 0.0000 0.0000 0.0000 0.0000 23.0189
#
#
#
# Elastic Compliance Matrix: (Units=1/GPa)
#
#
# Indices 1 2 3 4 5 6 
#
# 1 0.034633 -0.002654 -0.007971 0.000000 0.000000 0.000000
# 2 -0.002654 0.011847 0.000543 0.000000 0.000000 0.000000
# 3 -0.007971 0.000543 0.007126 0.000000 0.000000 0.000000
# 4 0.000000 0.000000 0.000000 0.039159 0.000000 0.000000
# 5 0.000000 0.000000 0.000000 0.000000 0.120044 0.000000
# 6 0.000000 0.000000 0.000000 0.000000 0.000000 0.043443
#
#
# Mechanical properties :
#
#
# Convention : Reuss Voigt Hill
#
# Bulk Modulus (GPa) = 29.90202 46.37437 38.13819
# Shear Modulus (GPa) = 17.38762 28.89853 23.14307
#
# Velocity S-wave (km/s) = 3.07534 3.96471 3.54800
# Velocity P-wave (km/s) = 5.37355 6.79582 6.12610
#
# Compressibility (1/GPa) = 0.03344256
#
# Stress axis : x y z
#
# Youngs Moduli (GPa) = 28.87434 84.40854 140.34098
#
# Poissons Ratio (x) = 0.22400 1.11865
# Poissons Ratio (y) = 0.07663 -0.07624
# Poissons Ratio (z) = 0.23016 -0.04586
#
# Static dielectric constant tensor:
#      x y z
#    x 1.638020 0.000000 0.000000 
#    y 0.000000 1.699480 0.000000 
#    z 0.000000 0.000000 1.688570 
# 
# From -- ./inp_files/1083.got.cif
#   From: 2010.05.17/outbox.cif.g08.bks.cpg/sg56_1_cif.got.tgz:1083.got - 2010.06.03 13:42:01.
