data_PCOD9429446
_publ_section_title
;
Structure prediction by ZEFSAII (Michael W. Deem and Ramdas Pophale) SiO2 
 PCOD9429446
Probable space group: P B A M
;
_chemical_formula_sum "Si O2"
_cell_formula_units_Z 56
_cell_length_a 9.000000
_cell_length_b 21.000000
_cell_length_c 15.000000
_cell_angle_alpha 90.000000
_cell_angle_beta 90.000000
_cell_angle_gamma 90.000000
_cell_volume 2835.000000
_symmetry_space_group_name_H-M "P B A M"
_symmetry_group_IT_number 55
_symmetry_cell_setting 'orthorhombic'
loop_
_space_group_symop_operation_xyz
x,y,z
-x,-y,z
1/2+x,1/2-y,-z
1/2-x,1/2+y,-z
-x,-y,-z
x,y,-z
1/2-x,1/2+y,z
1/2+x,1/2-y,z
loop_
_atom_site_type_symbol
_atom_site_label
_atom_site_fract_x
_atom_site_fract_y
_atom_site_fract_z
Si Si1 0.693328 0.109557 0.714990
Si Si2 0.997742 0.718960 0.355957
Si Si3 0.311390 0.654173 0.598718
Si Si4 0.831571 0.978005 0.288572
Si Si5 0.423049 0.063517 0.156695
Si Si6 0.760319 0.813269 0.100366
Si Si7 0.579472 0.703882 0.813870
O O1 0.628541 0.164380 0.649701
O O2 0.550820 0.088622 0.775026
O O3 0.820769 0.146259 0.773239
O O4 0.757948 0.044093 0.672191
O O5 0.925626 0.785852 0.389750
O O6 0.146870 0.686373 0.394768
O O7 0.050984 0.741284 0.259082
O O8 0.333226 0.628865 0.500000
O O9 0.329023 0.590758 0.660162
O O10 0.722910 0.964286 0.205763
O O11 0.000000 0.000000 0.268660
O O12 0.355603 0.127643 0.111789
O O13 0.500000 0.000000 0.112151
O O14 0.677904 0.745395 0.117093
O O15 0.912806 0.817631 0.158272
O O16 0.815135 0.814932 0.000000
#
# Coordination Sequence:
#
# PCOD9429446 Si02
#       7
#     8   8   8   8   8   8   8
#     4  11  21  38  69  93 117 161 233 271 310 370
#     4  12  21  41  68  93 121 169 225 263 310 388
#     4  12  26  42  63  97 137 167 207 272 340 386
#     4  11  23  41  66  94 125 172 223 271 314 392
#     4  10  21  40  64  90 123 168 224 269 315 384
#     4  12  23  37  59  98 138 168 207 271 342 388
#     4  12  21  39  66  94 123 172 221 273 312 385
#
# _framework density 19.753086
#
# number of rings (size 3 to 8) (size 9 to 14) (size 15 to 20)
#    0.000    0.571    5.714    3.429    0.000    0.571 
#    0.000    2.857    0.000    9.000    0.000    0.000 
#    0.000    0.000    0.000    0.000    0.000    0.000 
#
# Total GULP energy -311961.307822 kJ/mol
# GULP energy per Si atom -5570.737640 kJ/mol
# Density = 1.970813 g / cm^3
# Si number density = 19.753086 Si / 1000 Ang^3
#
#
#
# Elastic Constant Matrix: (Units=GPa)
#
#
# Indices 1 2 3 4 5 6 
#
# 1 125.9377 39.1885 9.9367 0.0000 0.0000 0.0000
# 2 39.1885 153.6494 14.6404 0.0000 0.0000 0.0000
# 3 9.9367 14.6404 44.7137 0.0000 0.0000 0.0000
# 4 0.0000 0.0000 0.0000 10.0521 0.0000 0.0000
# 5 0.0000 0.0000 0.0000 0.0000 16.2002 0.0000
# 6 0.0000 0.0000 0.0000 0.0000 0.0000 50.8496
#
#
#
# Elastic Compliance Matrix: (Units=1/GPa)
#
#
# Indices 1 2 3 4 5 6 
#
# 1 0.008692 -0.002098 -0.001245 0.000000 0.000000 0.000000
# 2 -0.002098 0.007224 -0.001899 0.000000 0.000000 0.000000
# 3 -0.001245 -0.001899 0.023263 0.000000 0.000000 0.000000
# 4 0.000000 0.000000 0.000000 0.099482 0.000000 0.000000
# 5 0.000000 0.000000 0.000000 0.000000 0.061728 0.000000
# 6 0.000000 0.000000 0.000000 0.000000 0.000000 0.019666
#
#
# Mechanical properties :
#
#
# Convention : Reuss Voigt Hill
#
# Bulk Modulus (GPa) = 34.84915 50.20356 42.52635
# Shear Modulus (GPa) = 20.82437 32.78939 26.80688
#
# Velocity S-wave (km/s) = 3.25042 4.07868 3.68788
# Velocity P-wave (km/s) = 5.63628 6.90301 6.30156
#
# Compressibility (1/GPa) = 0.02869511
#
# Stress axis : x y z
#
# Youngs Moduli (GPa) = 115.05444 138.41909 42.98683
#
# Poissons Ratio (x) = 0.29043 0.05350
# Poissons Ratio (y) = 0.24141 0.08164
# Poissons Ratio (z) = 0.14319 0.26288
#
# Static dielectric constant tensor:
#      x y z
#    x 1.711240 0.000000 0.000000 
#    y 0.000000 1.711960 0.000000 
#    z 0.000000 0.000000 1.747850 
# 
# From -- ./inp_files/17616.got.cif
#   From: 2010.05.17/outbox.ucp.g08.bks.cvg/sg55_9_cif.got.tgz:17616.got - 2010.06.11 16:36:00.
