data_PCOD9429270
_publ_section_title
;
Structure prediction by ZEFSAII (Michael W. Deem and Ramdas Pophale) SiO2 
 PCOD9429270
Probable space group: P B A M
;
_chemical_formula_sum "Si O2"
_cell_formula_units_Z 56
_cell_length_a 15.000000
_cell_length_b 21.000000
_cell_length_c 9.000000
_cell_angle_alpha 90.000000
_cell_angle_beta 90.000000
_cell_angle_gamma 90.000000
_cell_volume 2835.000000
_symmetry_space_group_name_H-M "P B A M"
_symmetry_group_IT_number 55
_symmetry_cell_setting 'orthorhombic'
loop_
_space_group_symop_operation_xyz
x,y,z
-x,-y,z
1/2+x,1/2-y,-z
1/2-x,1/2+y,-z
-x,-y,-z
x,y,-z
1/2-x,1/2+y,z
1/2+x,1/2-y,z
loop_
_atom_site_type_symbol
_atom_site_label
_atom_site_fract_x
_atom_site_fract_y
_atom_site_fract_z
Si Si1 0.895039 0.495216 0.320629
Si Si2 0.438977 0.371302 0.821873
Si Si3 0.276063 0.455719 0.822353
Si Si4 0.199160 0.203544 0.671775
Si Si5 0.604021 0.435092 0.327264
Si Si6 0.876547 0.350797 0.319029
Si Si7 0.479435 0.754438 0.319322
O O1 0.888095 0.501119 0.500000
O O2 0.822643 0.541881 0.247563
O O3 0.867423 0.423649 0.273834
O O4 0.000000 0.500000 0.283231
O O5 0.338569 0.394580 0.789453
O O6 0.510121 0.421712 0.753679
O O7 0.465105 0.304335 0.747992
O O8 0.450641 0.368750 0.000000
O O9 0.333501 0.514089 0.753935
O O10 0.270281 0.462549 0.000000
O O11 0.212330 0.223159 0.500000
O O12 0.154607 0.133201 0.672816
O O13 0.296244 0.193206 0.739625
O O14 0.122343 0.248609 0.735416
O O15 0.591127 0.452886 0.500000
O O16 0.870421 0.351282 0.500000
O O17 0.970602 0.319371 0.281314
O O18 0.478995 0.747396 0.500000
#
# Coordination Sequence:
#
# PCOD9429270 Si02
#       7
#     8   8   8   8   8   8   8
#     4  10  21  38  59  83 108 140 187 241 284 326
#     4  10  21  35  50  76 117 149 177 222 273 329
#     4  11  22  35  53  78 111 151 181 216 275 335
#     4   8  14  27  49  75 103 134 168 216 271 320
#     4  10  18  31  55  83 109 139 180 224 269 326
#     4   9  16  32  55  79 108 136 174 231 280 320
#     4   9  18  32  53  79 104 140 186 224 273 331
#
# _framework density 19.753086
#
# number of rings (size 3 to 8) (size 9 to 14) (size 15 to 20)
#    0.000    2.429    1.429    2.571    0.000    4.286 
#    2.571    0.714    0.000    0.000    0.000    0.000 
#    0.000    0.000    0.000    0.000    0.000    0.000 
#
# Total GULP energy -312291.458483 kJ/mol
# GULP energy per Si atom -5576.633187 kJ/mol
# Density = 1.970813 g / cm^3
# Si number density = 19.753086 Si / 1000 Ang^3
#
#
#
# Elastic Constant Matrix: (Units=GPa)
#
#
# Indices 1 2 3 4 5 6 
#
# 1 109.1560 -5.7701 11.0029 0.0000 0.0000 0.0000
# 2 -5.7701 3.4709 -6.4942 0.0000 0.0000 0.0000
# 3 11.0029 -6.4942 37.1873 0.0000 0.0000 0.0000
# 4 0.0000 0.0000 0.0000 11.0725 0.0000 0.0000
# 5 0.0000 0.0000 0.0000 0.0000 23.1860 0.0000
# 6 0.0000 0.0000 0.0000 0.0000 0.0000 28.9773
#
#
#
# Elastic Compliance Matrix: (Units=1/GPa)
#
#
# Indices 1 2 3 4 5 6 
#
# 1 0.010044 0.016542 -0.000083 0.000000 0.000000 0.000000
# 2 0.016542 0.455177 0.074596 0.000000 0.000000 0.000000
# 3 -0.000083 0.074596 0.039943 0.000000 0.000000 0.000000
# 4 0.000000 0.000000 0.000000 0.090314 0.000000 0.000000
# 5 0.000000 0.000000 0.000000 0.000000 0.043129 0.000000
# 6 0.000000 0.000000 0.000000 0.000000 0.000000 0.034510
#
#
# Mechanical properties :
#
#
# Convention : Reuss Voigt Hill
#
# Bulk Modulus (GPa) = 1.45503 16.36571 8.91037
# Shear Modulus (GPa) = 6.94350 22.71887 14.83119
#
# Velocity S-wave (km/s) = 1.87691 3.39505 2.74310
# Velocity P-wave (km/s) = 2.33136 4.86535 3.81490
#
# Compressibility (1/GPa) = 0.68727242
#
# Stress axis : x y z
#
# Youngs Moduli (GPa) = 99.56204 2.19695 25.03595
#
# Poissons Ratio (x) = -0.03634 0.00208
# Poissons Ratio (y) = -1.64694 -1.86758
# Poissons Ratio (z) = 0.00826 -0.16388
#
# Static dielectric constant tensor:
#      x y z
#    x 1.740120 0.000000 0.000000 
#    y 0.000000 1.703160 0.000000 
#    z 0.000000 0.000000 1.653580 
# 
# From -- ./inp_files/6053.got.cif
#   From: 2010.05.17/outbox.ucp.g08.bks.cvg/sg55_4_cif.got.tgz:6053.got - 2010.06.11 16:36:00.
