data_PCOD9429356
_publ_section_title
;
Structure prediction by ZEFSAII (Michael W. Deem and Ramdas Pophale) SiO2 
 PCOD9429356
Probable space group: P B A M
;
_chemical_formula_sum "Si O2"
_cell_formula_units_Z 64
_cell_length_a 24.000000
_cell_length_b 15.000000
_cell_length_c 9.000000
_cell_angle_alpha 90.000000
_cell_angle_beta 90.000000
_cell_angle_gamma 90.000000
_cell_volume 3240.000000
_symmetry_space_group_name_H-M "P B A M"
_symmetry_group_IT_number 55
_symmetry_cell_setting 'orthorhombic'
loop_
_space_group_symop_operation_xyz
x,y,z
-x,-y,z
1/2+x,1/2-y,-z
1/2-x,1/2+y,-z
-x,-y,-z
x,y,-z
1/2-x,1/2+y,z
1/2+x,1/2-y,z
loop_
_atom_site_type_symbol
_atom_site_label
_atom_site_fract_x
_atom_site_fract_y
_atom_site_fract_z
Si Si1 0.195456 0.685983 0.819743
Si Si2 0.078346 0.744753 0.821616
Si Si3 0.119383 0.341625 0.675252
Si Si4 0.672871 0.515310 0.829011
Si Si5 0.704186 0.020654 0.819696
Si Si6 0.682247 0.301792 0.829535
Si Si7 0.496289 0.102327 0.677664
Si Si8 0.449893 0.436506 0.181871
O O1 0.142940 0.744420 0.773301
O O2 0.190593 0.581822 0.775751
O O3 0.255748 0.720617 0.773477
O O4 0.197238 0.685717 0.000000
O O5 0.051435 0.656366 0.757967
O O6 0.044772 0.832875 0.776237
O O7 0.077735 0.741690 0.000000
O O8 0.125046 0.354938 0.500000
O O9 0.158924 0.412110 0.757516
O O10 0.138221 0.244518 0.725637
O O11 0.055486 0.355362 0.715743
O O12 0.732882 0.544465 0.766811
O O13 0.677205 0.408069 0.832926
O O14 0.612320 0.537550 0.765189
O O15 0.671582 0.549200 0.000000
O O16 0.704785 0.023156 0.000000
O O17 0.675663 0.269908 0.000000
O O18 0.487726 0.106191 0.500000
O O19 0.500000 0.000000 0.722489
O O20 0.500000 0.500000 0.233192
O O21 0.449625 0.442422 0.000000
#
# Coordination Sequence:
#
# PCOD9429356 Si02
#       8
#     8   8   8   8   8   8   8   8
#     4   8  16  32  53  83 111 132 171 224 275 320
#     4  10  20  33  57  86 111 139 180 234 274 313
#     4  11  23  35  51  78 109 139 179 225 269 323
#     4   8  16  31  52  78 107 139 176 216 266 323
#     4   9  17  32  55  79 104 138 174 216 270 329
#     4   9  18  33  56  80 106 141 177 216 267 329
#     4  10  23  42  58  74 106 151 188 222 275 333
#     4   9  18  30  48  79 115 143 174 222 273 320
#
# _framework density 19.753086
#
# number of rings (size 3 to 8) (size 9 to 14) (size 15 to 20)
#    0.000    2.750    0.000    2.625    3.500    1.250 
#    0.000    3.125    0.000    1.125    0.000    0.000 
#    0.000    0.000    0.000    0.000    0.000    0.000 
#
# Total GULP energy -356771.599634 kJ/mol
# GULP energy per Si atom -5574.556244 kJ/mol
# Density = 1.970813 g / cm^3
# Si number density = 19.753086 Si / 1000 Ang^3
#
#
#
# Elastic Constant Matrix: (Units=GPa)
#
#
# Indices 1 2 3 4 5 6 
#
# 1 73.6406 20.6060 21.7392 0.0000 0.0000 0.0000
# 2 20.6060 38.4435 -3.0475 0.0000 0.0000 0.0000
# 3 21.7392 -3.0475 -12.7690 0.0000 0.0000 0.0000
# 4 0.0000 0.0000 0.0000 0.0616 0.0000 0.0000
# 5 0.0000 0.0000 0.0000 0.0000 34.1602 0.0000
# 6 0.0000 0.0000 0.0000 0.0000 0.0000 32.0050
#
#
#
# Elastic Compliance Matrix: (Units=1/GPa)
#
#
# Indices 1 2 3 4 5 6 
#
# 1 0.009562 -0.003764 0.017177 0.000000 0.000000 0.000000
# 2 -0.003764 0.027011 -0.012854 0.000000 0.000000 0.000000
# 3 0.017177 -0.012854 -0.046003 0.000000 0.000000 0.000000
# 4 0.000000 0.000000 0.000000 16.229728 0.000000 0.000000
# 5 0.000000 0.000000 0.000000 0.000000 0.029274 0.000000
# 6 0.000000 0.000000 0.000000 0.000000 0.000000 0.031245
#
#
# Mechanical properties :
#
#
# Convention : Reuss Voigt Hill
#
# Bulk Modulus (GPa) = -120.32180 19.76782 -50.27699
# Shear Modulus (GPa) = 0.30718 17.24651 8.77685
#
# Velocity S-wave (km/s) = 0.39478 2.95804 2.11020
# Velocity P-wave (km/s) = 7.79983 4.65788 4.42388
#
# Compressibility (1/GPa) = -0.00831105
#
# Stress axis : x y z
#
# Youngs Moduli (GPa) = 104.58299 37.02261 -21.73774
#
# Poissons Ratio (x) = 0.13934 0.37339
# Poissons Ratio (y) = 0.39360 -0.27941
# Poissons Ratio (z) = -1.79643 0.47588
#
# Static dielectric constant tensor:
#      x y z
#    x 1.711760 0.000000 0.000000 
#    y 0.000000 1.706000 0.000000 
#    z 0.000000 0.000000 1.658090 
# 
# From -- ./inp_files/9629.got.cif
#   From: 2010.05.17/outbox.ucp.g08.bks.cvg/sg55_5_cif.got.tgz:9629.got - 2010.06.11 16:36:00.
