data_PCOD9429811
_publ_section_title
;
Structure prediction by ZEFSAII (Michael W. Deem and Ramdas Pophale) SiO2 
 PCOD9429811
Probable space group: P C C N
;
_chemical_formula_sum "Si O2"
_cell_formula_units_Z 36
_cell_length_a 7.455497
_cell_length_b 15.285776
_cell_length_c 17.753118
_cell_angle_alpha 90.000000
_cell_angle_beta 90.000000
_cell_angle_gamma 90.000000
_cell_volume 2023.199601
_symmetry_space_group_name_H-M "P C C N"
_symmetry_group_IT_number 56
_symmetry_cell_setting 'orthorhombic'
loop_
_space_group_symop_operation_xyz
x,y,z
1/2-x,1/2-y,z
1/2+x,-y,1/2-z
-x,1/2+y,1/2-z
-x,-y,-z
1/2+x,1/2+y,-z
1/2-x,y,1/2+z
x,1/2-y,1/2+z
loop_
_atom_site_type_symbol
_atom_site_label
_atom_site_fract_x
_atom_site_fract_y
_atom_site_fract_z
Si Si1 0.105963 0.312277 0.330511
Si Si2 0.742206 0.569632 0.300702
Si Si3 0.166357 0.927996 0.326128
Si Si4 0.966002 0.996628 0.088003
Si Si5 0.250000 0.750000 0.746640
O O1 0.250000 0.250000 0.371265
O O2 0.216007 0.348788 0.256859
O O3 0.041225 0.398168 0.376685
O O4 0.929402 0.259532 0.303876
O O5 0.545445 0.565109 0.336570
O O6 0.779340 0.490120 0.243610
O O7 0.894390 0.556326 0.363580
O O8 0.235506 0.833921 0.300132
O O9 0.271775 0.962748 0.397063
O O10 0.000000 0.000000 0.000000
#
# Coordination Sequence:
#
# PCOD9429811 Si02
#       5
#     8   8   8   8   4
#     4  10  21  34  61  87 109 151 199 244 281 338
#     4  10  18  36  58  85 107 150 191 235 282 344
#     4  10  19  34  61  83 108 146 194 237 282 337
#     4  11  23  38  55  84 123 155 186 235 292 349
#     4  10  18  34  60  90 106 140 204 250 274 330
#
# _framework density 17.793597999999999
#
# number of rings (size 3 to 8) (size 9 to 14) (size 15 to 20)
#    0.000    1.778    6.667    1.333    3.111    0.889 
#    0.000    6.667    0.000    0.000    0.000    0.000 
#    0.000    0.000    0.000    0.000    0.000    0.000 
#
# Total GULP energy -200437.492446 kJ/mol
# GULP energy per Si atom -5567.708123 kJ/mol
# Density = 1.775310 g / cm^3
# Si number density = 17.793598 Si / 1000 Ang^3
#
#
#
# Elastic Constant Matrix: (Units=GPa)
#
#
# Indices 1 2 3 4 5 6 
#
# 1 90.5548 39.8084 22.3037 0.0000 0.0000 0.0000
# 2 39.8084 34.5811 -4.4211 0.0000 0.0000 0.0000
# 3 22.3037 -4.4211 79.2455 0.0000 0.0000 0.0000
# 4 0.0000 0.0000 0.0000 0.1453 0.0000 0.0000
# 5 0.0000 0.0000 0.0000 0.0000 37.9443 0.0000
# 6 0.0000 0.0000 0.0000 0.0000 0.0000 46.1394
#
#
#
# Elastic Compliance Matrix: (Units=1/GPa)
#
#
# Indices 1 2 3 4 5 6 
#
# 1 0.028416 -0.033976 -0.009893 0.000000 0.000000 0.000000
# 2 -0.033976 0.069749 0.013454 0.000000 0.000000 0.000000
# 3 -0.009893 0.013454 0.016154 0.000000 0.000000 0.000000
# 4 0.000000 0.000000 0.000000 6.883389 0.000000 0.000000
# 5 0.000000 0.000000 0.000000 0.000000 0.026354 0.000000
# 6 0.000000 0.000000 0.000000 0.000000 0.000000 0.021673
#
#
# Mechanical properties :
#
#
# Convention : Reuss Voigt Hill
#
# Bulk Modulus (GPa) = 18.69560 35.52928 27.11244
# Shear Modulus (GPa) = 0.70181 26.62515 13.66348
#
# Velocity S-wave (km/s) = 0.62871 3.87244 2.77408
# Velocity P-wave (km/s) = 3.32517 6.32497 5.05282
#
# Compressibility (1/GPa) = 0.05348853
#
# Stress axis : x y z
#
# Youngs Moduli (GPa) = 35.19187 14.33712 61.90410
#
# Poissons Ratio (x) = 0.48711 0.61242
# Poissons Ratio (y) = 1.19567 -0.83284
# Poissons Ratio (z) = 0.34816 -0.19289
#
# Static dielectric constant tensor:
#      x y z
#    x 1.645820 0.000000 0.000000 
#    y 0.000000 1.637930 0.000000 
#    z 0.000000 0.000000 1.577090 
# 
# From -- ./inp_files/10306.got.cif
#   From: 2010.05.17/outbox.cif.g08.bks.cpg/sg56_6_cif.got.tgz:10306.got - 2010.06.03 13:42:01.
