data_PCOD9429544
_publ_section_title
;
Structure prediction by ZEFSAII (Michael W. Deem and Ramdas Pophale) SiO2 
 PCOD9429544
Probable space group: P C C N
;
_chemical_formula_sum "Si O2"
_cell_formula_units_Z 48
_cell_length_a 24.464846
_cell_length_b 16.499829
_cell_length_c 5.342189
_cell_angle_alpha 90.000000
_cell_angle_beta 90.000000
_cell_angle_gamma 90.000000
_cell_volume 2156.458866
_symmetry_space_group_name_H-M "P C C N"
_symmetry_group_IT_number 56
_symmetry_cell_setting 'orthorhombic'
loop_
_space_group_symop_operation_xyz
x,y,z
1/2-x,1/2-y,z
1/2+x,-y,1/2-z
-x,1/2+y,1/2-z
-x,-y,-z
1/2+x,1/2+y,-z
1/2-x,y,1/2+z
x,1/2-y,1/2+z
loop_
_atom_site_type_symbol
_atom_site_label
_atom_site_fract_x
_atom_site_fract_y
_atom_site_fract_z
Si Si1 0.579588 0.718225 0.127222
Si Si2 0.942218 0.459831 0.063969
Si Si3 0.784869 0.034070 0.964746
Si Si4 0.603614 0.967314 0.570849
Si Si5 0.545337 0.220333 0.883766
Si Si6 0.687493 0.216625 0.588164
O O1 0.606948 0.738397 0.391284
O O2 0.578529 0.622503 0.082396
O O3 0.519053 0.757593 0.150586
O O4 0.925206 0.484254 0.343747
O O5 0.902856 0.492835 0.844461
O O6 0.948042 0.364592 0.022958
O O7 0.000000 0.500000 0.000000
O O8 0.741941 0.028267 0.192155
O O9 0.810470 0.124406 0.997961
O O10 0.832671 0.969489 0.002261
O O11 0.565894 0.217364 0.597523
O O12 0.750000 0.250000 0.622239
O O13 0.663864 0.271729 0.365584
#
# Coordination Sequence:
#
# PCOD9429544 Si02
#       6
#     8   8   8   8   8   8
#     4  10  20  39  64  90 118 169 218 257 313 407
#     4  12  23  41  65  95 136 170 214 278 330 384
#     4  12  23  41  66  92 131 173 215 271 330 379
#     4  12  26  42  66 105 129 169 230 274 326 398
#     4  10  19  35  59  83 122 172 211 246 322 383
#     4  10  16  32  59  86 110 162 220 241 311 389
#
# _framework density 22.258714000000001
#
# number of rings (size 3 to 8) (size 9 to 14) (size 15 to 20)
#    0.000    1.000    3.333    7.500    0.000    0.000 
#    0.000    5.000    0.000    3.000    0.000    0.000 
#    0.000    0.000    0.000    0.000    0.000    0.000 
#
# Total GULP energy -268421.893963 kJ/mol
# GULP energy per Si atom -5592.122791 kJ/mol
# Density = 2.220805 g / cm^3
# Si number density = 22.258714 Si / 1000 Ang^3
#
#
#
# Elastic Constant Matrix: (Units=GPa)
#
#
# Indices 1 2 3 4 5 6 
#
# 1 27.4384 3.7760 -8.8065 0.0000 0.0000 0.0000
# 2 3.7760 79.9989 0.1118 0.0000 0.0000 0.0000
# 3 -8.8065 0.1118 129.5011 0.0000 0.0000 0.0000
# 4 0.0000 0.0000 0.0000 27.7532 0.0000 0.0000
# 5 0.0000 0.0000 0.0000 0.0000 28.2857 0.0000
# 6 0.0000 0.0000 0.0000 0.0000 0.0000 8.7991
#
#
#
# Elastic Compliance Matrix: (Units=1/GPa)
#
#
# Indices 1 2 3 4 5 6 
#
# 1 0.037509 -0.001774 0.002552 0.000000 0.000000 0.000000
# 2 -0.001774 0.012584 -0.000131 0.000000 0.000000 0.000000
# 3 0.002552 -0.000131 0.007896 0.000000 0.000000 0.000000
# 4 0.000000 0.000000 0.000000 0.036032 0.000000 0.000000
# 5 0.000000 0.000000 0.000000 0.000000 0.035354 0.000000
# 6 0.000000 0.000000 0.000000 0.000000 0.000000 0.113648
#
#
# Mechanical properties :
#
#
# Convention : Reuss Voigt Hill
#
# Bulk Modulus (GPa) = 16.86860 25.23344 21.05102
# Shear Modulus (GPa) = 19.12127 29.09141 24.10634
#
# Velocity S-wave (km/s) = 2.93413 3.61912 3.29448
# Velocity P-wave (km/s) = 4.36734 5.36890 4.89381
#
# Compressibility (1/GPa) = 0.05928173
#
# Stress axis : x y z
#
# Youngs Moduli (GPa) = 26.66060 79.46541 126.65259
#
# Poissons Ratio (x) = 0.14097 -0.32325
# Poissons Ratio (y) = 0.04730 0.01665
# Poissons Ratio (z) = -0.06804 0.01045
#
# Static dielectric constant tensor:
#      x y z
#    x 2.243790 0.000000 0.000000 
#    y 0.000000 1.814390 0.000000 
#    z 0.000000 0.000000 1.966910 
# 
# From -- ./inp_files/536.got.cif
#   From: 2010.05.17/outbox.cif.g08.bks.cpg/sg56_1_cif.got.tgz:536.got - 2010.06.03 13:42:01.
