data_PCOD9429261
_publ_section_title
;
Structure prediction by ZEFSAII (Michael W. Deem and Ramdas Pophale) SiO2 
 PCOD9429261
Probable space group: P B A M
;
_chemical_formula_sum "Si O2"
_cell_formula_units_Z 56
_cell_length_a 18.000000
_cell_length_b 21.000000
_cell_length_c 9.000000
_cell_angle_alpha 90.000000
_cell_angle_beta 90.000000
_cell_angle_gamma 90.000000
_cell_volume 3402.000000
_symmetry_space_group_name_H-M "P B A M"
_symmetry_group_IT_number 55
_symmetry_cell_setting 'orthorhombic'
loop_
_space_group_symop_operation_xyz
x,y,z
-x,-y,z
1/2+x,1/2-y,-z
1/2-x,1/2+y,-z
-x,-y,-z
x,y,-z
1/2-x,1/2+y,z
1/2+x,1/2-y,z
loop_
_atom_site_type_symbol
_atom_site_label
_atom_site_fract_x
_atom_site_fract_y
_atom_site_fract_z
Si Si1 0.154622 0.141576 0.331144
Si Si2 0.723300 0.791180 0.832980
Si Si3 0.904673 0.223435 0.322981
Si Si4 0.817278 0.659241 0.832437
Si Si5 0.917651 0.975136 0.823691
Si Si6 0.060209 0.271905 0.669714
Si Si7 0.670005 0.601897 0.179265
O O1 0.177563 0.128806 0.500000
O O2 0.225009 0.152658 0.225687
O O3 0.103135 0.086308 0.269189
O O4 0.109266 0.207649 0.330606
O O5 0.658598 0.773730 0.719793
O O6 0.773697 0.727059 0.837776
O O7 0.695864 0.802165 0.000000
O O8 0.909733 0.214287 0.500000
O O9 0.881259 0.156739 0.249181
O O10 0.981998 0.250903 0.263052
O O11 0.892480 0.673467 0.747284
O O12 0.754536 0.612709 0.767505
O O13 0.834218 0.639440 0.000000
O O14 0.861734 0.032705 0.789461
O O15 0.913526 0.960793 0.000000
O O16 0.000000 0.000000 0.792033
O O17 0.047082 0.290938 0.500000
O O18 0.669746 0.611238 0.000000
#
# Coordination Sequence:
#
# PCOD9429261 Si02
#       7
#     8   8   8   8   8   8   8
#     4  10  19  31  46  65  91 122 155 188 222 263
#     4   9  17  30  46  64  87 116 149 183 222 267
#     4  10  18  28  44  67  92 116 144 181 225 266
#     4   8  15  27  43  61  82 111 146 182 216 256
#     4  10  20  32  46  65  91 124 158 189 221 260
#     4   9  18  29  42  64  92 117 142 179 224 267
#     4   9  18  31  44  62  89 120 154 186 217 259
#
# _framework density 16.460905
#
# number of rings (size 3 to 8) (size 9 to 14) (size 15 to 20)
#    0.000    2.714    0.000    3.000    0.000    6.000 
#    0.000    0.000    0.000    0.000    0.000    1.000 
#    0.000    8.000    0.000    0.000    0.000    0.000 
#
# Total GULP energy -311752.654857 kJ/mol
# GULP energy per Si atom -5567.011694 kJ/mol
# Density = 1.642344 g / cm^3
# Si number density = 16.460905 Si / 1000 Ang^3
#
#
#
# Elastic Constant Matrix: (Units=GPa)
#
#
# Indices 1 2 3 4 5 6 
#
# 1 3.7138 -11.5445 -2.5034 0.0000 0.0000 0.0000
# 2 -11.5445 18.3060 9.2486 0.0000 0.0000 0.0000
# 3 -2.5034 9.2486 14.9568 0.0000 0.0000 0.0000
# 4 0.0000 0.0000 0.0000 12.2747 0.0000 0.0000
# 5 0.0000 0.0000 0.0000 0.0000 22.6975 0.0000
# 6 0.0000 0.0000 0.0000 0.0000 0.0000 15.2257
#
#
#
# Elastic Compliance Matrix: (Units=1/GPa)
#
#
# Indices 1 2 3 4 5 6 
#
# 1 -0.215313 -0.170999 0.069700 0.000000 0.000000 0.000000
# 2 -0.170999 -0.056360 0.006229 0.000000 0.000000 0.000000
# 3 0.069700 0.006229 0.074673 0.000000 0.000000 0.000000
# 4 0.000000 0.000000 0.000000 0.081468 0.000000 0.000000
# 5 0.000000 0.000000 0.000000 0.000000 0.044058 0.000000
# 6 0.000000 0.000000 0.000000 0.000000 0.000000 0.065678
#
#
# Mechanical properties :
#
#
# Convention : Reuss Voigt Hill
#
# Bulk Modulus (GPa) = -2.58305 3.04199 0.22947
# Shear Modulus (GPa) = 90.41804 12.82463 51.62133
#
# Velocity S-wave (km/s) = 7.41945 2.79426 5.60607
# Velocity P-wave (km/s) = 8.47496 3.50179 6.48412
#
# Compressibility (1/GPa) = -0.38713886
#
# Stress axis : x y z
#
# Youngs Moduli (GPa) = -4.64440 -17.74319 13.39167
#
# Poissons Ratio (x) = -3.03407 -0.93340
# Poissons Ratio (y) = -0.79419 -0.08342
# Poissons Ratio (z) = 0.32372 0.11053
#
# Static dielectric constant tensor:
#      x y z
#    x 1.575270 0.000000 0.000000 
#    y 0.000000 1.527120 0.000000 
#    z 0.000000 0.000000 1.569970 
# 
# From -- ./inp_files/7818.got.cif
#   From: 2010.05.17/outbox.ucp.g08.bks.cvg/sg55_4_cif.got.tgz:7818.got - 2010.06.11 16:36:00.
