data_PCOD9429893
_publ_section_title
;
Structure prediction by ZEFSAII (Michael W. Deem and Ramdas Pophale) SiO2 
 PCOD9429893
Probable space group: P C C N
;
_chemical_formula_sum "Si O2"
_cell_formula_units_Z 52
_cell_length_a 11.989619
_cell_length_b 8.876012
_cell_length_c 26.147563
_cell_angle_alpha 90.000000
_cell_angle_beta 90.000000
_cell_angle_gamma 90.000000
_cell_volume 2782.623710
_symmetry_space_group_name_H-M "P C C N"
_symmetry_group_IT_number 56
_symmetry_cell_setting 'orthorhombic'
loop_
_space_group_symop_operation_xyz
x,y,z
1/2-x,1/2-y,z
1/2+x,-y,1/2-z
-x,1/2+y,1/2-z
-x,-y,-z
1/2+x,1/2+y,-z
1/2-x,y,1/2+z
x,1/2-y,1/2+z
loop_
_atom_site_type_symbol
_atom_site_label
_atom_site_fract_x
_atom_site_fract_y
_atom_site_fract_z
Si Si1 0.634770 0.051417 0.629956
Si Si2 0.120466 0.273614 0.853766
Si Si3 0.338453 0.029924 0.944186
Si Si4 0.250000 0.250000 0.527602
Si Si5 0.859971 0.316726 0.739123
Si Si6 0.005539 0.045998 0.696167
Si Si7 0.522436 0.696871 0.413359
O O1 0.671769 0.124671 0.682912
O O2 0.550066 0.158910 0.601275
O O3 0.574827 0.894956 0.645512
O O4 0.742958 0.031586 0.594175
O O5 0.250000 0.250000 0.841227
O O6 0.111050 0.330748 0.912107
O O7 0.075335 0.406316 0.818610
O O8 0.439566 0.909739 0.947681
O O9 0.274317 0.102709 0.992074
O O10 0.362909 0.251014 0.560853
O O11 0.750000 0.250000 0.764780
O O12 0.903436 0.459454 0.770494
O O13 0.947869 0.181496 0.727826
O O14 0.042803 0.111374 0.640934
#
# Coordination Sequence:
#
# PCOD9429893 Si02
#       7
#     8   8   8   4   8   8   8
#     4  10  18  37  63  91 116 150 203 261 292 349
#     4   9  16  33  61  86 116 147 196 252 288 340
#     4  10  19  38  63  88 111 155 207 249 300 354
#     4  12  22  40  60  86 122 166 200 244 322 366
#     4  11  21  37  61  88 118 157 205 243 297 364
#     4  10  22  39  56  90 122 161 197 246 304 359
#     4  10  23  38  60  84 130 155 199 259 301 362
#
# _framework density 18.687398999999999
#
# number of rings (size 3 to 8) (size 9 to 14) (size 15 to 20)
#    0.000    1.846    2.308    5.538    0.000    0.615 
#    8.308    0.000    0.000    0.000    0.000    0.000 
#    0.000    0.000    0.000    0.000    0.000    0.000 
#
# Total GULP energy -289637.328239 kJ/mol
# GULP energy per Si atom -5569.948620 kJ/mol
# Density = 1.864487 g / cm^3
# Si number density = 18.687399 Si / 1000 Ang^3
#
#
#
# Elastic Constant Matrix: (Units=GPa)
#
#
# Indices 1 2 3 4 5 6 
#
# 1 83.2630 37.8983 47.0899 0.0000 0.0000 0.0000
# 2 37.8983 117.5133 36.1014 0.0000 0.0000 0.0000
# 3 47.0899 36.1014 62.4025 0.0000 0.0000 0.0000
# 4 0.0000 0.0000 0.0000 -87.9920 0.0000 0.0000
# 5 0.0000 0.0000 0.0000 0.0000 4.5518 0.0000
# 6 0.0000 0.0000 0.0000 0.0000 0.0000 29.2098
#
#
#
# Elastic Compliance Matrix: (Units=1/GPa)
#
#
# Indices 1 2 3 4 5 6 
#
# 1 0.021481 -0.002369 -0.014839 0.000000 0.000000 0.000000
# 2 -0.002369 0.010610 -0.004351 0.000000 0.000000 0.000000
# 3 -0.014839 -0.004351 0.029740 0.000000 0.000000 0.000000
# 4 0.000000 0.000000 0.000000 -0.011365 0.000000 0.000000
# 5 0.000000 0.000000 0.000000 0.000000 0.219693 0.000000
# 6 0.000000 0.000000 0.000000 0.000000 0.000000 0.034235
#
#
# Mechanical properties :
#
#
# Convention : Reuss Voigt Hill
#
# Bulk Modulus (GPa) = 53.43803 56.15091 54.79447
# Shear Modulus (GPa) = 14.13426 -1.37349 6.38038
#
# Velocity S-wave (km/s) = 2.75317 -0.85824 1.84978
# Velocity P-wave (km/s) = 6.22611 5.39728 5.82645
#
# Compressibility (1/GPa) = 0.01871326
#
# Stress axis : x y z
#
# Youngs Moduli (GPa) = 46.55310 94.24875 33.62468
#
# Poissons Ratio (x) = 0.22326 0.49897
# Poissons Ratio (y) = 0.11027 0.14629
# Poissons Ratio (z) = 0.69082 0.41005
#
# Static dielectric constant tensor:
#      x y z
#    x 1.670420 0.000000 0.000000 
#    y 0.000000 1.690440 0.000000 
#    z 0.000000 0.000000 1.672390 
# 
# From -- ./inp_files/22277.got.cif
#   From: 2010.05.17/outbox.cif.g08.bks.cpg/sg56_12_cif.got.tgz:22277.got - 2010.06.03 13:42:01.
