data_PCOD9429529
_publ_section_title
;
Structure prediction by ZEFSAII (Michael W. Deem and Ramdas Pophale) SiO2 
 PCOD9429529
Probable space group: P C C N
;
_chemical_formula_sum "Si O2"
_cell_formula_units_Z 56
_cell_length_a 22.246462
_cell_length_b 21.945676
_cell_length_c 5.454855
_cell_angle_alpha 90.000000
_cell_angle_beta 90.000000
_cell_angle_gamma 90.000000
_cell_volume 2663.134654
_symmetry_space_group_name_H-M "P C C N"
_symmetry_group_IT_number 56
_symmetry_cell_setting 'orthorhombic'
loop_
_space_group_symop_operation_xyz
x,y,z
1/2-x,1/2-y,z
1/2+x,-y,1/2-z
-x,1/2+y,1/2-z
-x,-y,-z
1/2+x,1/2+y,-z
1/2-x,y,1/2+z
x,1/2-y,1/2+z
loop_
_atom_site_type_symbol
_atom_site_label
_atom_site_fract_x
_atom_site_fract_y
_atom_site_fract_z
Si Si1 0.726249 0.821947 0.138401
Si Si2 0.926695 0.004879 0.999003
Si Si3 0.725093 0.180570 0.516649
Si Si4 0.392129 0.222553 0.023042
Si Si5 0.485207 0.668887 0.498614
Si Si6 0.912755 0.149968 0.000543
Si Si7 0.558632 0.543774 0.498669
O O1 0.750000 0.750000 0.149810
O O2 0.759220 0.848305 0.902173
O O3 0.655336 0.826072 0.080410
O O4 0.906995 0.972094 0.248971
O O5 0.910384 0.076111 0.998528
O O6 0.907366 0.971873 0.749263
O O7 0.000000 0.000000 0.000000
O O8 0.750000 0.250000 0.521105
O O9 0.752000 0.151721 0.269910
O O10 0.653453 0.178313 0.505411
O O11 0.378182 0.226858 0.312303
O O12 0.463393 0.219032 0.001228
O O13 0.447048 0.668063 0.748576
O O14 0.528245 0.609456 0.494622
O O15 0.445816 0.669015 0.251845
O O16 0.500000 0.500000 0.500000
#
# Coordination Sequence:
#
# PCOD9429529 Si02
#       7
#     8   8   8   8   8   8   8
#     4  10  16  32  59  70  91 142 199 223 245 295
#     4  10  16  30  57  86 116 136 176 225 272 362
#     4  10  23  45  62  79 110 153 217 267 292 340
#     4  12  23  38  49  81 123 146 184 243 275 334
#     4  12  23  35  55  92 121 151 183 229 324 376
#     4  12  21  38  62  85 113 154 192 236 314 377
#     4  10  16  32  53  79 128 136 173 221 266 367
#
# _framework density 21.027851999999999
#
# number of rings (size 3 to 8) (size 9 to 14) (size 15 to 20)
#    0.000    1.143    8.571    1.714    0.000    0.000 
#   15.429    0.000    0.000    0.000    0.000    6.000 
#    0.000    0.000    0.000    0.000    0.000    0.000 
#
# Total GULP energy -312012.003184 kJ/mol
# GULP energy per Si atom -5571.642914 kJ/mol
# Density = 2.097999 g / cm^3
# Si number density = 21.027852 Si / 1000 Ang^3
#
#
#
# Elastic Constant Matrix: (Units=GPa)
#
#
# Indices 1 2 3 4 5 6 
#
# 1 98.5899 15.2896 29.0543 0.0000 0.0000 0.0000
# 2 15.2896 29.5032 9.8031 0.0000 0.0000 0.0000
# 3 29.0543 9.8031 186.1073 0.0000 0.0000 0.0000
# 4 0.0000 0.0000 0.0000 4.9915 0.0000 0.0000
# 5 0.0000 0.0000 0.0000 0.0000 17.0916 0.0000
# 6 0.0000 0.0000 0.0000 0.0000 0.0000 11.7740
#
#
#
# Elastic Compliance Matrix: (Units=1/GPa)
#
#
# Indices 1 2 3 4 5 6 
#
# 1 0.011426 -0.005423 -0.001498 0.000000 0.000000 0.000000
# 2 -0.005423 0.037073 -0.001106 0.000000 0.000000 0.000000
# 3 -0.001498 -0.001106 0.005665 0.000000 0.000000 0.000000
# 4 0.000000 0.000000 0.000000 0.200340 0.000000 0.000000
# 5 0.000000 0.000000 0.000000 0.000000 0.058508 0.000000
# 6 0.000000 0.000000 0.000000 0.000000 0.000000 0.084933
#
#
# Mechanical properties :
#
#
# Convention : Reuss Voigt Hill
#
# Bulk Modulus (GPa) = 26.24080 46.94383 36.59232
# Shear Modulus (GPa) = 11.71776 24.10833 17.91305
#
# Velocity S-wave (km/s) = 2.36317 3.38967 2.92185
# Velocity P-wave (km/s) = 4.46680 6.13945 5.36867
#
# Compressibility (1/GPa) = 0.03810859
#
# Stress axis : x y z
#
# Youngs Moduli (GPa) = 87.52299 26.97401 176.51083
#
# Poissons Ratio (x) = 0.14629 0.26442
# Poissons Ratio (y) = 0.47467 0.19524
# Poissons Ratio (z) = 0.13111 0.02984
#
# Static dielectric constant tensor:
#      x y z
#    x 1.775290 0.000000 0.000000 
#    y 0.000000 1.805410 0.000000 
#    z 0.000000 0.000000 2.131180 
# 
# From -- ./inp_files/918.got.cif
#   From: 2010.05.17/outbox.cif.g08.bks.cpg/sg56_1_cif.got.tgz:918.got - 2010.06.03 13:42:01.
