data_PCOD9429746
_publ_section_title
;
Structure prediction by ZEFSAII (Michael W. Deem and Ramdas Pophale) SiO2 
 PCOD9429746
Probable space group: P C C N
;
_chemical_formula_sum "Si O2"
_cell_formula_units_Z 60
_cell_length_a 15.420285
_cell_length_b 8.507921
_cell_length_c 24.035313
_cell_angle_alpha 90.000000
_cell_angle_beta 90.000000
_cell_angle_gamma 90.000000
_cell_volume 3153.302472
_symmetry_space_group_name_H-M "P C C N"
_symmetry_group_IT_number 56
_symmetry_cell_setting 'orthorhombic'
loop_
_space_group_symop_operation_xyz
x,y,z
1/2-x,1/2-y,z
1/2+x,-y,1/2-z
-x,1/2+y,1/2-z
-x,-y,-z
1/2+x,1/2+y,-z
1/2-x,y,1/2+z
x,1/2-y,1/2+z
loop_
_atom_site_type_symbol
_atom_site_label
_atom_site_fract_x
_atom_site_fract_y
_atom_site_fract_z
Si Si1 0.890687 0.999735 0.793341
Si Si2 0.462758 0.794118 0.902976
Si Si3 0.851869 0.281057 0.990111
Si Si4 0.396496 0.472832 0.074262
Si Si5 0.250000 0.250000 0.084561
Si Si6 0.122063 0.998570 0.614302
Si Si7 0.206720 0.916385 0.724413
Si Si8 0.557544 0.200698 0.718531
O O1 0.886698 0.021951 0.860535
O O2 0.958962 0.861280 0.781159
O O3 0.790409 0.971790 0.775975
O O4 0.926987 0.152024 0.759862
O O5 0.524145 0.650388 0.924765
O O6 0.524038 0.941389 0.886597
O O7 0.420874 0.745191 0.844779
O O8 0.396897 0.827919 0.952400
O O9 0.750000 0.250000 0.997638
O O10 0.861425 0.415492 0.943909
O O11 0.898805 0.127330 0.963468
O O12 0.310771 0.376650 0.054607
O O13 0.320014 0.154974 0.119503
O O14 0.160937 0.898179 0.664276
O O15 0.250000 0.750000 0.739570
O O16 0.124338 0.937316 0.763897
#
# Coordination Sequence:
#
# PCOD9429746 Si02
#       8
#     8   8   8   8   4   8   8   8
#     4  10  19  36  57  83 111 144 183 236 275 321
#     4  10  24  37  54  81 121 154 176 223 281 345
#     4  12  21  36  59  85 111 147 190 227 277 334
#     4  10  20  37  58  84 111 139 187 235 286 307
#     4  10  18  32  56  88 106 124 172 252 278 304
#     4  11  20  36  58  89 108 136 194 240 278 310
#     4  10  19  34  60  82 109 143 187 235 281 320
#     4  10  21  36  53  85 114 150 183 220 278 340
#
# _framework density 19.027671000000002
#
# number of rings (size 3 to 8) (size 9 to 14) (size 15 to 20)
#    0.000    1.600    2.667    3.600    0.000    1.600 
#    0.000    0.000    0.000    0.000    0.000    0.000 
#    0.000    0.000    0.000    0.000    0.000    0.000 
#
# Total GULP energy -334253.597242 kJ/mol
# GULP energy per Si atom -5570.893287 kJ/mol
# Density = 1.898436 g / cm^3
# Si number density = 19.027671 Si / 1000 Ang^3
#
#
#
# Elastic Constant Matrix: (Units=GPa)
#
#
# Indices 1 2 3 4 5 6 
#
# 1 96.0768 14.2383 64.2320 0.0000 0.0000 0.0000
# 2 14.2383 34.0411 8.3515 0.0000 0.0000 0.0000
# 3 64.2320 8.3515 84.7908 0.0000 0.0000 0.0000
# 4 0.0000 0.0000 0.0000 13.8320 0.0000 0.0000
# 5 0.0000 0.0000 0.0000 0.0000 25.9320 0.0000
# 6 0.0000 0.0000 0.0000 0.0000 0.0000 30.6354
#
#
#
# Elastic Compliance Matrix: (Units=1/GPa)
#
#
# Indices 1 2 3 4 5 6 
#
# 1 0.021961 -0.005231 -0.016121 0.000000 0.000000 0.000000
# 2 -0.005231 0.031349 0.000875 0.000000 0.000000 0.000000
# 3 -0.016121 0.000875 0.023920 0.000000 0.000000 0.000000
# 4 0.000000 0.000000 0.000000 0.072296 0.000000 0.000000
# 5 0.000000 0.000000 0.000000 0.000000 0.038562 0.000000
# 6 0.000000 0.000000 0.000000 0.000000 0.000000 0.032642
#
#
# Mechanical properties :
#
#
# Convention : Reuss Voigt Hill
#
# Bulk Modulus (GPa) = 27.56629 43.17250 35.36939
# Shear Modulus (GPa) = 18.26298 22.61902 20.44100
#
# Velocity S-wave (km/s) = 3.10144 3.45156 3.28117
# Velocity P-wave (km/s) = 5.22917 6.21473 5.74313
#
# Compressibility (1/GPa) = 0.03627620
#
# Stress axis : x y z
#
# Youngs Moduli (GPa) = 45.53444 31.89848 41.80593
#
# Poissons Ratio (x) = 0.16685 0.67397
# Poissons Ratio (y) = 0.23817 -0.03656
# Poissons Ratio (z) = 0.73408 -0.02790
#
# Static dielectric constant tensor:
#      x y z
#    x 1.712110 0.000000 0.000000 
#    y 0.000000 1.732870 0.000000 
#    z 0.000000 0.000000 1.647410 
# 
# From -- ./inp_files/21134.got.cif
#   From: 2010.05.17/outbox.cif.g08.bks.cpg/sg56_11_cif.got.tgz:21134.got - 2010.06.03 13:42:01.
