data_PCOD9429395
_publ_section_title
;
Structure prediction by ZEFSAII (Michael W. Deem and Ramdas Pophale) SiO2 
 PCOD9429395
Probable space group: P B A M
;
_chemical_formula_sum "Si O2"
_cell_formula_units_Z 64
_cell_length_a 15.000000
_cell_length_b 24.000000
_cell_length_c 9.000000
_cell_angle_alpha 90.000000
_cell_angle_beta 90.000000
_cell_angle_gamma 90.000000
_cell_volume 3240.000000
_symmetry_space_group_name_H-M "P B A M"
_symmetry_group_IT_number 55
_symmetry_cell_setting 'orthorhombic'
loop_
_space_group_symop_operation_xyz
x,y,z
-x,-y,z
1/2+x,1/2-y,-z
1/2-x,1/2+y,-z
-x,-y,-z
x,y,-z
1/2-x,1/2+y,z
1/2+x,1/2-y,z
loop_
_atom_site_type_symbol
_atom_site_label
_atom_site_fract_x
_atom_site_fract_y
_atom_site_fract_z
Si Si1 0.361705 0.418747 0.822425
Si Si2 0.442022 0.618318 0.820853
Si Si3 0.043994 0.361689 0.171287
Si Si4 0.986557 0.234649 0.827198
Si Si5 0.783627 0.959577 0.821198
Si Si6 0.139605 0.609251 0.321786
Si Si7 0.278982 0.840374 0.322504
Si Si8 0.305454 0.230772 0.322046
O O1 0.466185 0.413745 0.786703
O O2 0.321059 0.479151 0.790406
O O3 0.308102 0.372717 0.732071
O O4 0.352253 0.408453 0.000000
O O5 0.455014 0.682412 0.774084
O O6 0.357282 0.584774 0.765039
O O7 0.433398 0.618644 0.000000
O O8 0.137778 0.371312 0.249115
O O9 0.032566 0.294576 0.175585
O O10 0.959809 0.386494 0.257518
O O11 0.043741 0.379626 0.000000
O O12 0.898485 0.242445 0.730257
O O13 0.961005 0.223408 0.000000
O O14 0.692254 0.942982 0.743058
O O15 0.773646 0.954697 0.000000
O O16 0.137695 0.608540 0.500000
O O17 0.190196 0.666644 0.269899
O O18 0.286951 0.841334 0.500000
O O19 0.268561 0.775475 0.273123
O O20 0.302363 0.228855 0.500000
#
# Coordination Sequence:
#
# PCOD9429395 Si02
#       8
#     8   8   8   8   8   8   8   8
#     4  10  20  37  59  83 114 151 192 237 281 329
#     4   9  17  32  55  84 115 148 185 226 276 331
#     4  10  21  36  57  85 114 146 187 239 287 334
#     4   9  17  31  53  82 112 143 182 225 272 325
#     4  10  21  36  58  85 113 149 192 238 283 331
#     4  10  21  39  58  80 114 153 189 232 285 339
#     4  11  22  36  56  83 115 152 190 232 283 339
#     4   9  19  34  52  77 111 149 184 222 275 333
#
# _framework density 19.753086
#
# number of rings (size 3 to 8) (size 9 to 14) (size 15 to 20)
#    0.000    2.250    1.250    1.500    1.750    3.500 
#    0.000    1.875    0.000    5.250    0.000    0.000 
#    0.000    0.000    0.000    0.000    0.000    0.000 
#
# Total GULP energy -357009.673441 kJ/mol
# GULP energy per Si atom -5578.276148 kJ/mol
# Density = 1.970813 g / cm^3
# Si number density = 19.753086 Si / 1000 Ang^3
#
#
#
# Elastic Constant Matrix: (Units=GPa)
#
#
# Indices 1 2 3 4 5 6 
#
# 1 49.2609 -17.3660 5.5151 0.0000 0.0000 0.0000
# 2 -17.3660 8.9705 -3.1039 0.0000 0.0000 0.0000
# 3 5.5151 -3.1039 10.1791 0.0000 0.0000 0.0000
# 4 0.0000 0.0000 0.0000 15.6032 0.0000 0.0000
# 5 0.0000 0.0000 0.0000 0.0000 -19.2748 0.0000
# 6 0.0000 0.0000 0.0000 0.0000 0.0000 9.4310
#
#
#
# Elastic Compliance Matrix: (Units=1/GPa)
#
#
# Indices 1 2 3 4 5 6 
#
# 1 0.064040 0.125178 0.003473 0.000000 0.000000 0.000000
# 2 0.125178 0.369309 0.044792 0.000000 0.000000 0.000000
# 3 0.003473 0.044792 0.110018 0.000000 0.000000 0.000000
# 4 0.000000 0.000000 0.000000 0.064089 0.000000 0.000000
# 5 0.000000 0.000000 0.000000 0.000000 -0.051881 0.000000
# 6 0.000000 0.000000 0.000000 0.000000 0.000000 0.106034
#
#
# Mechanical properties :
#
#
# Convention : Reuss Voigt Hill
#
# Bulk Modulus (GPa) = 1.12327 4.27786 2.70057
# Shear Modulus (GPa) = 8.17699 6.70957 7.44328
#
# Velocity S-wave (km/s) = 2.03681 1.84502 1.94328
# Velocity P-wave (km/s) = 2.47009 2.59020 2.53086
#
# Compressibility (1/GPa) = 0.89025412
#
# Stress axis : x y z
#
# Youngs Moduli (GPa) = 15.61515 2.70776 9.08946
#
# Poissons Ratio (x) = -0.33895 -0.03157
# Poissons Ratio (y) = -1.95467 -0.40714
# Poissons Ratio (z) = -0.05424 -0.12129
#
# Static dielectric constant tensor:
#      x y z
#    x 1.685450 0.000000 0.000000 
#    y 0.000000 1.727100 0.000000 
#    z 0.000000 0.000000 1.666110 
# 
# From -- ./inp_files/6630.got.cif
#   From: 2010.05.17/outbox.ucp.g08.bks.cvg/sg55_4_cif.got.tgz:6630.got - 2010.06.11 16:36:00.
