data_PCOD9429854
_publ_section_title
;
Structure prediction by ZEFSAII (Michael W. Deem and Ramdas Pophale) SiO2 
 PCOD9429854
Probable space group: P C C N
;
_chemical_formula_sum "Si O2"
_cell_formula_units_Z 52
_cell_length_a 9.463572
_cell_length_b 10.370842
_cell_length_c 23.979255
_cell_angle_alpha 90.000000
_cell_angle_beta 90.000000
_cell_angle_gamma 90.000000
_cell_volume 2353.449017
_symmetry_space_group_name_H-M "P C C N"
_symmetry_group_IT_number 56
_symmetry_cell_setting 'orthorhombic'
loop_
_space_group_symop_operation_xyz
x,y,z
1/2-x,1/2-y,z
1/2+x,-y,1/2-z
-x,1/2+y,1/2-z
-x,-y,-z
1/2+x,1/2+y,-z
1/2-x,y,1/2+z
x,1/2-y,1/2+z
loop_
_atom_site_type_symbol
_atom_site_label
_atom_site_fract_x
_atom_site_fract_y
_atom_site_fract_z
Si Si1 0.750000 0.750000 0.281609
Si Si2 0.772342 0.542841 0.863851
Si Si3 0.951708 0.165396 0.873523
Si Si4 0.651000 0.957342 0.707452
Si Si5 0.320957 0.370605 0.018592
Si Si6 0.014051 0.429276 0.807083
Si Si7 0.121476 0.844633 0.995229
O O1 0.805889 0.640592 0.322529
O O2 0.860554 0.821763 0.242046
O O3 0.694763 0.405467 0.857092
O O4 0.763189 0.593033 0.926029
O O5 0.932952 0.534213 0.844770
O O6 0.987501 0.299445 0.843291
O O7 0.932505 0.175740 0.940334
O O8 0.072170 0.067353 0.850747
O O9 0.821197 0.965433 0.701110
O O10 0.574307 0.059400 0.748533
O O11 0.250000 0.250000 0.988275
O O12 0.333315 0.506694 0.987660
O O13 0.477055 0.328246 0.037931
O O14 0.250000 0.750000 0.984148
#
# Coordination Sequence:
#
# PCOD9429854 Si02
#       7
#     4   8   8   8   8   8   8
#     4  10  18  36  56  80 116 160 194 242 306 352
#     4  10  21  37  64  85 122 163 203 258 316 374
#     4  11  21  39  62  89 128 165 211 260 315 382
#     4  11  22  37  59  87 125 167 207 260 305 381
#     4  10  21  42  68  94 127 169 214 268 334 391
#     4  11  22  37  59  90 123 167 214 256 317 378
#     4  10  23  42  67  99 130 169 216 277 331 393
#
# _framework density 22.095230999999998
#
# number of rings (size 3 to 8) (size 9 to 14) (size 15 to 20)
#    0.000    1.538    2.308    4.154    0.000    1.846 
#    0.000    4.615    0.000    0.000    0.000    0.000 
#    0.000    0.000    0.000    0.000    0.000    0.000 
#
# Total GULP energy -289758.843976 kJ/mol
# GULP energy per Si atom -5572.285461 kJ/mol
# Density = 2.204494 g / cm^3
# Si number density = 22.095231 Si / 1000 Ang^3
#
#
#
# Elastic Constant Matrix: (Units=GPa)
#
#
# Indices 1 2 3 4 5 6 
#
# 1 145.7684 39.3277 3.2192 0.0000 0.0000 0.0000
# 2 39.3277 93.4467 1.1051 0.0000 0.0000 0.0000
# 3 3.2192 1.1051 26.2627 0.0000 0.0000 0.0000
# 4 0.0000 0.0000 0.0000 10.6743 0.0000 0.0000
# 5 0.0000 0.0000 0.0000 0.0000 -37.3103 0.0000
# 6 0.0000 0.0000 0.0000 0.0000 0.0000 33.8858
#
#
#
# Elastic Compliance Matrix: (Units=1/GPa)
#
#
# Indices 1 2 3 4 5 6 
#
# 1 0.007756 -0.003255 -0.000814 0.000000 0.000000 0.000000
# 2 -0.003255 0.012072 -0.000109 0.000000 0.000000 0.000000
# 3 -0.000814 -0.000109 0.038181 0.000000 0.000000 0.000000
# 4 0.000000 0.000000 0.000000 0.093683 0.000000 0.000000
# 5 0.000000 0.000000 0.000000 0.000000 -0.026802 0.000000
# 6 0.000000 0.000000 0.000000 0.000000 0.000000 0.029511
#
#
# Mechanical properties :
#
#
# Convention : Reuss Voigt Hill
#
# Bulk Modulus (GPa) = 20.13907 39.19797 29.66852
# Shear Modulus (GPa) = 27.88499 16.23835 22.06167
#
# Velocity S-wave (km/s) = 3.55637 2.71389 3.16330
# Velocity P-wave (km/s) = 5.09884 5.25350 5.17675
#
# Compressibility (1/GPa) = 0.04965474
#
# Stress axis : x y z
#
# Youngs Moduli (GPa) = 128.92813 82.83418 26.19096
#
# Poissons Ratio (x) = 0.26960 0.02131
# Poissons Ratio (y) = 0.41962 0.00286
# Poissons Ratio (z) = 0.10492 0.00903
#
# Static dielectric constant tensor:
#      x y z
#    x 1.833740 0.000000 0.000000 
#    y 0.000000 1.883800 0.000000 
#    z 0.000000 0.000000 1.841780 
# 
# From -- ./inp_files/22057.got.cif
#   From: 2010.05.17/outbox.cif.g08.bks.cpg/sg56_12_cif.got.tgz:22057.got - 2010.06.03 13:42:01.
