data_PCOD9429476
_publ_section_title
;
Structure prediction by ZEFSAII (Michael W. Deem and Ramdas Pophale) SiO2 
 PCOD9429476
Probable space group: P B A M
;
_chemical_formula_sum "Si O2"
_cell_formula_units_Z 64
_cell_length_a 15.000000
_cell_length_b 30.000000
_cell_length_c 9.000000
_cell_angle_alpha 90.000000
_cell_angle_beta 90.000000
_cell_angle_gamma 90.000000
_cell_volume 4050.000000
_symmetry_space_group_name_H-M "P B A M"
_symmetry_group_IT_number 55
_symmetry_cell_setting 'orthorhombic'
loop_
_space_group_symop_operation_xyz
x,y,z
-x,-y,z
1/2+x,1/2-y,-z
1/2-x,1/2+y,-z
-x,-y,-z
x,y,-z
1/2-x,1/2+y,z
1/2+x,1/2-y,z
loop_
_atom_site_type_symbol
_atom_site_label
_atom_site_fract_x
_atom_site_fract_y
_atom_site_fract_z
Si Si1 0.520316 0.223754 0.678132
Si Si2 0.530517 0.318269 0.826582
Si Si3 0.100225 0.946338 0.679719
Si Si4 0.336691 0.361557 0.171881
Si Si5 0.300337 0.634535 0.679371
Si Si6 0.338710 0.198054 0.821102
Si Si7 0.394630 0.547023 0.679437
Si Si8 0.231461 0.281984 0.322052
O O1 0.509059 0.222320 0.500000
O O2 0.507204 0.272823 0.744165
O O3 0.439183 0.197315 0.755556
O O4 0.625164 0.214150 0.710608
O O5 0.440206 0.346556 0.823668
O O6 0.612132 0.339474 0.737045
O O7 0.555408 0.311172 0.000000
O O8 0.104329 0.942108 0.500000
O O9 0.162048 0.910125 0.755942
O O10 0.995851 0.940772 0.724888
O O11 0.124745 0.996612 0.724322
O O12 0.279798 0.326405 0.265339
O O13 0.308223 0.361309 0.000000
O O14 0.292882 0.638779 0.500000
O O15 0.216106 0.655768 0.760532
O O16 0.322547 0.583659 0.722105
O O17 0.281887 0.240586 0.757993
O O18 0.340709 0.200458 0.000000
O O19 0.397755 0.546977 0.500000
O O20 0.240874 0.276058 0.500000
#
# Coordination Sequence:
#
# PCOD9429476 Si02
#       8
#     8   8   8   8   8   8   8   8
#     4  11  23  38  55  74  99 134 179 220 256 299
#     4  11  21  31  47  73 107 141 173 211 258 301
#     4   9  16  31  51  73 101 135 174 212 252 301
#     4  11  22  33  48  75 107 140 173 208 255 309
#     4  11  20  33  52  75 102 139 181 216 252 303
#     4  12  24  36  52  75 105 138 171 212 261 309
#     4   8  16  29  50  75 100 133 173 215 254 295
#     4  11  23  37  55  75  98 134 177 217 254 300
#
# _framework density 15.802469
#
# number of rings (size 3 to 8) (size 9 to 14) (size 15 to 20)
#    0.000    1.500    3.750    3.750    0.000    2.500 
#    0.000    2.500    0.000    0.000    0.000    0.875 
#    0.000    7.000    0.000    0.000    0.000    0.000 
#
# Total GULP energy -356954.159257 kJ/mol
# GULP energy per Si atom -5577.408738 kJ/mol
# Density = 1.576650 g / cm^3
# Si number density = 15.802469 Si / 1000 Ang^3
#
#
#
# Elastic Constant Matrix: (Units=GPa)
#
#
# Indices 1 2 3 4 5 6 
#
# 1 54.3930 15.1488 31.7065 0.0000 0.0000 0.0000
# 2 15.1488 78.5646 20.7189 0.0000 0.0000 0.0000
# 3 31.7065 20.7189 82.1835 0.0000 0.0000 0.0000
# 4 0.0000 0.0000 0.0000 -0.9578 0.0000 0.0000
# 5 0.0000 0.0000 0.0000 0.0000 21.4765 0.0000
# 6 0.0000 0.0000 0.0000 0.0000 0.0000 22.4538
#
#
#
# Elastic Compliance Matrix: (Units=1/GPa)
#
#
# Indices 1 2 3 4 5 6 
#
# 1 0.024118 -0.002353 -0.008712 0.000000 0.000000 0.000000
# 2 -0.002353 0.013864 -0.002588 0.000000 0.000000 0.000000
# 3 -0.008712 -0.002588 0.016181 0.000000 0.000000 0.000000
# 4 0.000000 0.000000 0.000000 -1.044063 0.000000 0.000000
# 5 0.000000 0.000000 0.000000 0.000000 0.046563 0.000000
# 6 0.000000 0.000000 0.000000 0.000000 0.000000 0.044536
#
#
# Mechanical properties :
#
#
# Convention : Reuss Voigt Hill
#
# Bulk Modulus (GPa) = 37.23078 38.92106 38.07592
# Shear Modulus (GPa) = -5.79681 18.43230 6.31774
#
# Velocity S-wave (km/s) = -1.91736 3.41899 2.00166
# Velocity P-wave (km/s) = 4.32546 6.34580 5.43041
#
# Compressibility (1/GPa) = 0.02685950
#
# Stress axis : x y z
#
# Youngs Moduli (GPa) = 41.46251 72.12684 61.80025
#
# Poissons Ratio (x) = 0.16972 0.53838
# Poissons Ratio (y) = 0.09756 0.15991
# Poissons Ratio (z) = 0.36121 0.18663
#
# Static dielectric constant tensor:
#      x y z
#    x 1.529980 0.000000 0.000000 
#    y 0.000000 1.558320 0.000000 
#    z 0.000000 0.000000 1.528420 
# 
# From -- ./inp_files/6911.got.cif
#   From: 2010.05.17/outbox.ucp.g08.bks.cvg/sg55_4_cif.got.tgz:6911.got - 2010.06.11 16:36:00.
