data_PCOD9429995
_publ_section_title
;
Structure prediction by ZEFSAII (Michael W. Deem and Ramdas Pophale) SiO2 
 PCOD9429995
Probable space group: P C C N
;
_chemical_formula_sum "Si O2"
_cell_formula_units_Z 56
_cell_length_a 7.019761
_cell_length_b 16.079905
_cell_length_c 24.087594
_cell_angle_alpha 90.000000
_cell_angle_beta 90.000000
_cell_angle_gamma 90.000000
_cell_volume 2718.937516
_symmetry_space_group_name_H-M "P C C N"
_symmetry_group_IT_number 56
_symmetry_cell_setting 'orthorhombic'
loop_
_space_group_symop_operation_xyz
x,y,z
1/2-x,1/2-y,z
1/2+x,-y,1/2-z
-x,1/2+y,1/2-z
-x,-y,-z
1/2+x,1/2+y,-z
1/2-x,y,1/2+z
x,1/2-y,1/2+z
loop_
_atom_site_type_symbol
_atom_site_label
_atom_site_fract_x
_atom_site_fract_y
_atom_site_fract_z
Si Si1 0.523936 0.246351 0.086220
Si Si2 0.296399 0.988260 0.577245
Si Si3 0.928189 0.402954 0.211858
Si Si4 0.045231 0.221591 0.209138
Si Si5 0.866567 0.545274 0.300404
Si Si6 0.449112 0.607943 0.988699
Si Si7 0.590697 0.435273 0.589168
O O1 0.750000 0.250000 0.097159
O O2 0.437006 0.283490 0.141955
O O3 0.499048 0.300139 0.031550
O O4 0.471983 0.150564 0.081488
O O5 0.385882 0.014885 0.636071
O O6 0.374108 0.052552 0.531010
O O7 0.066665 0.993330 0.580337
O O8 0.382999 0.903598 0.551878
O O9 0.913702 0.303091 0.220081
O O10 0.153166 0.418678 0.201972
O O11 0.839239 0.431604 0.152965
O O12 0.877515 0.465200 0.261044
O O13 0.250000 0.250000 0.233126
O O14 0.007434 0.124033 0.222070
O O15 0.268256 0.575337 0.951793
#
# Coordination Sequence:
#
# PCOD9429995 Si02
#       7
#     8   8   8   8   8   8   8
#     4   9  17  28  49  76  98 130 170 218 263 299
#     4  10  20  32  51  77 103 140 172 211 268 315
#     4   9  20  31  53  80 101 140 180 212 275 310
#     4   9  17  32  50  74 102 134 172 221 266 312
#     4  10  19  33  52  75 108 139 174 223 265 319
#     4  10  19  31  51  78 103 133 175 214 259 313
#     4   9  19  34  50  76 107 134 175 222 257 309
#
# _framework density 20.596278999999999
#
# number of rings (size 3 to 8) (size 9 to 14) (size 15 to 20)
#    0.000    2.571    1.429    1.286    2.000    1.143 
#    0.000    0.000    0.000   12.000    3.714    0.000 
#    0.000    0.000    0.000    0.000    0.000    0.000 
#
# Total GULP energy -311870.968827 kJ/mol
# GULP energy per Si atom -5569.124443 kJ/mol
# Density = 2.054940 g / cm^3
# Si number density = 20.596279 Si / 1000 Ang^3
#
#
#
# Elastic Constant Matrix: (Units=GPa)
#
#
# Indices 1 2 3 4 5 6 
#
# 1 48.1990 2.8236 5.5778 0.0000 0.0000 0.0000
# 2 2.8236 107.8470 58.2210 0.0000 0.0000 0.0000
# 3 5.5778 58.2210 79.2793 0.0000 0.0000 0.0000
# 4 0.0000 0.0000 0.0000 36.1318 0.0000 0.0000
# 5 0.0000 0.0000 0.0000 0.0000 24.9534 0.0000
# 6 0.0000 0.0000 0.0000 0.0000 0.0000 27.4965
#
#
#
# Elastic Compliance Matrix: (Units=1/GPa)
#
#
# Indices 1 2 3 4 5 6 
#
# 1 0.020929 0.000409 -0.001773 0.000000 0.000000 0.000000
# 2 0.000409 0.015371 -0.011317 0.000000 0.000000 0.000000
# 3 -0.001773 -0.011317 0.021049 0.000000 0.000000 0.000000
# 4 0.000000 0.000000 0.000000 0.027676 0.000000 0.000000
# 5 0.000000 0.000000 0.000000 0.000000 0.040075 0.000000
# 6 0.000000 0.000000 0.000000 0.000000 0.000000 0.036368
#
#
# Mechanical properties :
#
#
# Convention : Reuss Voigt Hill
#
# Bulk Modulus (GPa) = 31.26228 40.95224 36.10726
# Shear Modulus (GPa) = 25.31740 28.96319 27.14029
#
# Velocity S-wave (km/s) = 3.50983 3.75405 3.63399
# Velocity P-wave (km/s) = 5.62466 6.22230 5.93101
#
# Compressibility (1/GPa) = 0.03198743
#
# Stress axis : x y z
#
# Youngs Moduli (GPa) = 47.78172 65.05679 47.50735
#
# Poissons Ratio (x) = -0.02662 0.08423
# Poissons Ratio (y) = -0.01955 0.53764
# Poissons Ratio (z) = 0.08471 0.73625
#
# Static dielectric constant tensor:
#      x y z
#    x 1.824310 0.000000 0.000000 
#    y 0.000000 1.837420 0.000000 
#    z 0.000000 0.000000 1.743070 
# 
# From -- ./inp_files/18321.got.cif
#   From: 2010.05.17/outbox.cif.g08.bks.cpg/sg56_10_cif.got.tgz:18321.got - 2010.06.03 13:42:01.
