data_PCOD9429487
_publ_section_title
;
Structure prediction by ZEFSAII (Michael W. Deem and Ramdas Pophale) SiO2 
 PCOD9429487
Probable space group: P C C N
;
_chemical_formula_sum "Si O2"
_cell_formula_units_Z 64
_cell_length_a 20.693568
_cell_length_b 22.733420
_cell_length_c 5.513977
_cell_angle_alpha 90.000000
_cell_angle_beta 90.000000
_cell_angle_gamma 90.000000
_cell_volume 2593.970928
_symmetry_space_group_name_H-M "P C C N"
_symmetry_group_IT_number 56
_symmetry_cell_setting 'orthorhombic'
loop_
_space_group_symop_operation_xyz
x,y,z
1/2-x,1/2-y,z
1/2+x,-y,1/2-z
-x,1/2+y,1/2-z
-x,-y,-z
1/2+x,1/2+y,-z
1/2-x,y,1/2+z
x,1/2-y,1/2+z
loop_
_atom_site_type_symbol
_atom_site_label
_atom_site_fract_x
_atom_site_fract_y
_atom_site_fract_z
Si Si1 0.290144 0.962815 0.865278
Si Si2 0.709022 0.593935 0.666911
Si Si3 0.989777 0.594818 0.912885
Si Si4 0.612000 0.104563 0.401159
Si Si5 0.501641 0.721994 0.508208
Si Si6 0.675071 0.725699 0.712630
Si Si7 0.443581 0.509733 0.801705
Si Si8 0.145288 0.733222 0.475305
O O1 0.243827 0.957812 0.627087
O O2 0.342314 0.911882 0.822934
O O3 0.321098 0.028437 0.843734
O O4 0.751912 0.595856 0.421730
O O5 0.672078 0.655791 0.671821
O O6 0.039482 0.611814 0.698429
O O7 0.976924 0.655156 0.045681
O O8 0.932226 0.555468 0.803058
O O9 0.027792 0.551490 0.093407
O O10 0.631600 0.163784 0.533094
O O11 0.612017 0.046907 0.571367
O O12 0.522454 0.757656 0.743045
O O13 0.423067 0.730702 0.496349
O O14 0.750000 0.750000 0.724834
O O15 0.647864 0.757018 0.474114
O O16 0.500000 0.500000 0.000000
O O17 0.177931 0.745720 0.731248
#
# Coordination Sequence:
#
# PCOD9429487 Si02
#       8
#     8   8   8   8   8   8   8   8
#     4  10  25  40  55  79 108 156 204 250 301 353
#     4  10  16  29  44  65 101 122 164 216 265 329
#     4  10  19  33  56  87 123 147 194 244 295 367
#     4  11  21  36  61  78 119 155 197 253 301 357
#     4  10  18  30  50  83 115 147 190 237 287 339
#     4  10  14  20  39  68  89 116 145 197 276 314
#     4   9  20  33  53  88 118 154 183 232 300 363
#     4  10  19  31  53  86 107 144 194 243 298 345
#
# _framework density 24.672598000000001
#
# number of rings (size 3 to 8) (size 9 to 14) (size 15 to 20)
#    0.000    2.000    5.000    1.500    3.500    0.000 
#    0.000    0.000    0.000    2.250    0.000    1.750 
#    0.000    0.000    0.000    0.000    0.000    0.000 
#
# Total GULP energy -357661.022267 kJ/mol
# GULP energy per Si atom -5588.453473 kJ/mol
# Density = 2.461644 g / cm^3
# Si number density = 24.672598 Si / 1000 Ang^3
#
#
#
# Elastic Constant Matrix: (Units=GPa)
#
#
# Indices 1 2 3 4 5 6 
#
# 1 73.5262 19.2489 32.3430 0.0000 0.0000 0.0000
# 2 19.2489 133.3506 1.6536 0.0000 0.0000 0.0000
# 3 32.3430 1.6536 148.3447 0.0000 0.0000 0.0000
# 4 0.0000 0.0000 0.0000 14.9698 0.0000 0.0000
# 5 0.0000 0.0000 0.0000 0.0000 -0.5627 0.0000
# 6 0.0000 0.0000 0.0000 0.0000 0.0000 -0.2537
#
#
#
# Elastic Compliance Matrix: (Units=1/GPa)
#
#
# Indices 1 2 3 4 5 6 
#
# 1 0.015674 -0.002220 -0.003393 0.000000 0.000000 0.000000
# 2 -0.002220 0.007815 0.000397 0.000000 0.000000 0.000000
# 3 -0.003393 0.000397 0.007476 0.000000 0.000000 0.000000
# 4 0.000000 0.000000 0.000000 0.066801 0.000000 0.000000
# 5 0.000000 0.000000 0.000000 0.000000 -1.777168 0.000000
# 6 0.000000 0.000000 0.000000 0.000000 0.000000 -3.941383
#
#
# Mechanical properties :
#
#
# Convention : Reuss Voigt Hill
#
# Bulk Modulus (GPa) = 48.70212 51.30138 50.00175
# Shear Modulus (GPa) = -0.89230 22.96241 11.03505
#
# Velocity S-wave (km/s) = -0.60203 3.05402 2.11715
# Velocity P-wave (km/s) = 4.39306 5.76837 5.12704
#
# Compressibility (1/GPa) = 0.02053299
#
# Stress axis : x y z
#
# Youngs Moduli (GPa) = 63.79882 127.96511 133.75567
#
# Poissons Ratio (x) = 0.28414 0.45379
# Poissons Ratio (y) = 0.14166 -0.05310
# Poissons Ratio (z) = 0.21645 -0.05080
#
# Static dielectric constant tensor:
#      x y z
#    x 2.044640 0.000000 0.000000 
#    y 0.000000 2.004770 0.000000 
#    z 0.000000 0.000000 1.954930 
# 
# From -- ./inp_files/975.got.cif
#   From: 2010.05.17/outbox.cif.g08.bks.cpg/sg56_1_cif.got.tgz:975.got - 2010.06.03 13:42:01.
