data_PCOD9429785
_publ_section_title
;
Structure prediction by ZEFSAII (Michael W. Deem and Ramdas Pophale) SiO2 
 PCOD9429785
Probable space group: P C C N
;
_chemical_formula_sum "Si O2"
_cell_formula_units_Z 60
_cell_length_a 29.733099
_cell_length_b 13.554820
_cell_length_c 9.118340
_cell_angle_alpha 90.000000
_cell_angle_beta 90.000000
_cell_angle_gamma 90.000000
_cell_volume 3674.935437
_symmetry_space_group_name_H-M "P C C N"
_symmetry_group_IT_number 56
_symmetry_cell_setting 'orthorhombic'
loop_
_space_group_symop_operation_xyz
x,y,z
1/2-x,1/2-y,z
1/2+x,-y,1/2-z
-x,1/2+y,1/2-z
-x,-y,-z
1/2+x,1/2+y,-z
1/2-x,y,1/2+z
x,1/2-y,1/2+z
loop_
_atom_site_type_symbol
_atom_site_label
_atom_site_fract_x
_atom_site_fract_y
_atom_site_fract_z
Si Si1 0.750000 0.750000 0.565895
Si Si2 0.936925 0.134551 0.298753
Si Si3 0.951983 0.329637 0.133152
Si Si4 0.612502 0.840624 0.404388
Si Si5 0.538799 0.551138 0.702797
Si Si6 0.813736 0.687302 0.818521
Si Si7 0.887594 0.555292 0.702902
Si Si8 0.052469 0.336875 0.084760
O O1 0.783291 0.692470 0.673904
O O2 0.718713 0.685910 0.458412
O O3 0.930916 0.240644 0.223173
O O4 0.931314 0.148662 0.473567
O O5 0.902455 0.055588 0.231968
O O6 0.987978 0.091438 0.271853
O O7 0.956674 0.433471 0.219112
O O8 0.002999 0.295096 0.101725
O O9 0.655729 0.787650 0.330599
O O10 0.622990 0.914906 0.536405
O O11 0.586145 0.746409 0.470900
O O12 0.576686 0.892216 0.296416
O O13 0.548876 0.576139 0.532761
O O14 0.846985 0.595317 0.803053
O O15 0.929309 0.621250 0.762543
#
# Coordination Sequence:
#
# PCOD9429785 Si02
#       8
#     4   8   8   8   8   8   8   8
#     4  10  20  38  60  86 118 142 170 218 292 362
#     4  11  23  36  52  71 109 150 204 248 278 319
#     4  11  22  35  49  72 101 152 200 246 276 310
#     4  11  22  31  54  81 109 150 188 225 271 346
#     4  11  21  35  50  74 108 154 202 243 278 322
#     4  10  21  37  58  87 117 145 171 224 284 354
#     4  11  21  35  51  79 111 151 185 225 279 336
#     4  10  18  34  49  70 106 145 199 230 277 318
#
# _framework density 16.326817999999999
#
# number of rings (size 3 to 8) (size 9 to 14) (size 15 to 20)
#    0.000    1.333    5.333    2.400    5.600    0.533 
#    0.000    0.000    0.000    0.000    0.000    0.000 
#    0.000   18.133    0.000    0.000    0.000    0.000 
#
# Total GULP energy -334501.111077 kJ/mol
# GULP energy per Si atom -5575.018518 kJ/mol
# Density = 1.628966 g / cm^3
# Si number density = 16.326818 Si / 1000 Ang^3
#
#
#
# Elastic Constant Matrix: (Units=GPa)
#
#
# Indices 1 2 3 4 5 6 
#
# 1 63.6693 25.4754 26.5728 0.0000 0.0000 0.0000
# 2 25.4754 112.5244 33.0664 0.0000 0.0000 0.0000
# 3 26.5728 33.0664 59.6681 0.0000 0.0000 0.0000
# 4 0.0000 0.0000 0.0000 20.2278 0.0000 0.0000
# 5 0.0000 0.0000 0.0000 0.0000 22.6182 0.0000
# 6 0.0000 0.0000 0.0000 0.0000 0.0000 14.1422
#
#
#
# Elastic Compliance Matrix: (Units=1/GPa)
#
#
# Indices 1 2 3 4 5 6 
#
# 1 0.019759 -0.002255 -0.007550 0.000000 0.000000 0.000000
# 2 -0.002255 0.010873 -0.005021 0.000000 0.000000 0.000000
# 3 -0.007550 -0.005021 0.022904 0.000000 0.000000 0.000000
# 4 0.000000 0.000000 0.000000 0.049437 0.000000 0.000000
# 5 0.000000 0.000000 0.000000 0.000000 0.044212 0.000000
# 6 0.000000 0.000000 0.000000 0.000000 0.000000 0.070710
#
#
# Mechanical properties :
#
#
# Convention : Reuss Voigt Hill
#
# Bulk Modulus (GPa) = 41.86856 45.12120 43.49488
# Shear Modulus (GPa) = 19.56868 21.44746 20.50807
#
# Velocity S-wave (km/s) = 3.46578 3.62834 3.54799
# Velocity P-wave (km/s) = 6.45873 6.72677 6.59411
#
# Compressibility (1/GPa) = 0.02388427
#
# Stress axis : x y z
#
# Youngs Moduli (GPa) = 50.60866 91.97072 43.65956
#
# Poissons Ratio (x) = 0.20738 0.32964
# Poissons Ratio (y) = 0.11411 0.21923
# Poissons Ratio (z) = 0.38210 0.46182
#
# Static dielectric constant tensor:
#      x y z
#    x 1.554290 0.000000 0.000000 
#    y 0.000000 1.552430 0.000000 
#    z 0.000000 0.000000 1.577920 
# 
# From -- ./inp_files/4972.got.cif
#   From: 2010.05.17/outbox.cif.g08.bks.cpg/sg56_3_cif.got.tgz:4972.got - 2010.06.03 13:42:01.
