data_PCOD9429222
_publ_section_title
;
Structure prediction by ZEFSAII (Michael W. Deem and Ramdas Pophale) SiO2 
 PCOD9429222
Probable space group: P B A M
;
_chemical_formula_sum "Si O2"
_cell_formula_units_Z 56
_cell_length_a 6.860474
_cell_length_b 14.628144
_cell_length_c 20.119886
_cell_angle_alpha 90.000000
_cell_angle_beta 90.000000
_cell_angle_gamma 90.000000
_cell_volume 2019.151311
_symmetry_space_group_name_H-M "P B A M"
_symmetry_group_IT_number 55
_symmetry_cell_setting 'orthorhombic'
loop_
_space_group_symop_operation_xyz
x,y,z
-x,-y,z
1/2+x,1/2-y,-z
1/2-x,1/2+y,-z
-x,-y,-z
x,y,-z
1/2-x,1/2+y,z
1/2+x,1/2-y,z
loop_
_atom_site_type_symbol
_atom_site_label
_atom_site_fract_x
_atom_site_fract_y
_atom_site_fract_z
Si Si1 0.212803 0.423614 0.571696
Si Si2 0.830639 0.866125 0.429099
Si Si3 0.207144 0.384533 0.858029
Si Si4 0.846761 0.826221 0.856572
Si Si5 0.667835 0.329602 0.000000
Si Si6 0.280067 0.886981 0.000000
Si Si7 0.840951 0.864344 0.711567
Si Si8 0.267614 0.923135 0.713438
O O1 0.132229 0.392901 0.500000
O O2 0.228252 0.534110 0.568913
O O3 0.437954 0.389472 0.573512
O O4 0.126468 0.399070 0.644173
O O5 0.791722 0.819259 0.500000
O O6 0.783330 0.819651 0.358688
O O7 0.125758 0.282034 0.861714
O O8 0.444274 0.376778 0.855331
O O9 0.142333 0.420663 0.786630
O O10 0.167860 0.430129 0.929224
O O11 0.758429 0.837218 0.783133
O O12 0.748116 0.853042 0.927021
O O13 0.647430 0.219012 0.000000
O O14 0.453888 0.373696 0.000000
O O15 0.075925 0.859538 0.716800
O O16 0.796551 0.971978 0.704793
#
# Coordination Sequence:
#
# PCOD9429222 Si02
#       8
#     8   8   8   8   4   4   8   8
#     4   7   9  14  26  45  68  92 117 145 176 209
#     4   7   9  14  26  45  68  92 117 145 176 209
#     4   9  16  26  40  56  74  97 124 152 181 215
#     4   9  16  26  40  56  74  97 124 152 181 215
#     4   8  14  24  37  53  71  93 123 152 176 208
#     4   8  14  24  37  53  71  93 123 152 176 208
#     4   8  13  21  34  53  75  96 119 150 186 218
#     4   8  13  21  34  53  75  96 119 150 186 218
#
# _framework density 27.734428000000001
#
# number of rings (size 3 to 8) (size 9 to 14) (size 15 to 20)
#    0.000    4.000    0.000    2.571    0.000    0.000 
#    0.000    0.714    0.000    6.000    0.000    0.000 
#    0.000   11.429    0.000    7.143    0.000    5.714 
#
# Total GULP energy -312437.659078 kJ/mol
# GULP energy per Si atom -5579.243912 kJ/mol
# Density = 2.767130 g / cm^3
# Si number density = 27.734428 Si / 1000 Ang^3
#
#
#
# Elastic Constant Matrix: (Units=GPa)
#
#
# Indices 1 2 3 4 5 6 
#
# 1 84.6581 0.1531 20.1922 0.0000 0.0000 0.0000
# 2 0.1531 67.7618 25.1306 0.0000 0.0000 0.0000
# 3 20.1922 25.1306 448.7177 0.0000 0.0000 0.0000
# 4 0.0000 0.0000 0.0000 24.7543 0.0000 0.0000
# 5 0.0000 0.0000 0.0000 0.0000 -12.6337 0.0000
# 6 0.0000 0.0000 0.0000 0.0000 0.0000 11.0134
#
#
#
# Elastic Compliance Matrix: (Units=1/GPa)
#
#
# Indices 1 2 3 4 5 6 
#
# 1 0.011942 0.000176 -0.000547 0.000000 0.000000 0.000000
# 2 0.000176 0.015073 -0.000852 0.000000 0.000000 0.000000
# 3 -0.000547 -0.000852 0.002301 0.000000 0.000000 0.000000
# 4 0.000000 0.000000 0.000000 0.040397 0.000000 0.000000
# 5 0.000000 0.000000 0.000000 0.000000 -0.079153 0.000000
# 6 0.000000 0.000000 0.000000 0.000000 0.000000 0.090798
#
#
# Mechanical properties :
#
#
# Convention : Reuss Voigt Hill
#
# Bulk Modulus (GPa) = 37.21653 76.89883 57.05768
# Shear Modulus (GPa) = 53.90148 41.67091 47.78619
#
# Velocity S-wave (km/s) = 4.41328 3.88041 4.15540
# Velocity P-wave (km/s) = 6.27833 6.91837 6.60611
#
# Compressibility (1/GPa) = 0.02686978
#
# Stress axis : x y z
#
# Youngs Moduli (GPa) = 83.73506 66.34298 434.60844
#
# Poissons Ratio (x) = -0.01168 0.23785
# Poissons Ratio (y) = -0.01474 0.37033
# Poissons Ratio (z) = 0.04583 0.05653
#
# Static dielectric constant tensor:
#      x y z
#    x 2.141320 0.000000 0.000000 
#    y 0.000000 2.093250 0.000000 
#    z 0.000000 0.000000 2.222580 
# 
# From -- ./inp_files/22677.got.cif
#   From: 2010.05.17/outbox.cif.g08.bks.cpg/sg55_12_cif.got.tgz:22677.got - 2010.06.03 13:27:54.
