data_PCOD9429756
_publ_section_title
;
Structure prediction by ZEFSAII (Michael W. Deem and Ramdas Pophale) SiO2 
 PCOD9429756
Probable space group: P C C N
;
_chemical_formula_sum "Si O2"
_cell_formula_units_Z 36
_cell_length_a 8.193640
_cell_length_b 12.113628
_cell_length_c 13.610049
_cell_angle_alpha 90.000000
_cell_angle_beta 90.000000
_cell_angle_gamma 90.000000
_cell_volume 1350.861425
_symmetry_space_group_name_H-M "P C C N"
_symmetry_group_IT_number 56
_symmetry_cell_setting 'orthorhombic'
loop_
_space_group_symop_operation_xyz
x,y,z
1/2-x,1/2-y,z
1/2+x,-y,1/2-z
-x,1/2+y,1/2-z
-x,-y,-z
1/2+x,1/2+y,-z
1/2-x,y,1/2+z
x,1/2-y,1/2+z
loop_
_atom_site_type_symbol
_atom_site_label
_atom_site_fract_x
_atom_site_fract_y
_atom_site_fract_z
Si Si1 0.951628 0.893973 0.561212
Si Si2 0.250000 0.250000 0.218368
Si Si3 0.924356 0.660422 0.591776
Si Si4 0.398430 0.463767 0.150738
Si Si5 0.809843 0.125203 0.251000
O O1 0.973055 0.766154 0.527228
O O2 0.753970 0.890888 0.572353
O O3 0.075626 0.897770 0.653953
O O4 0.000000 0.000000 0.500000
O O5 0.109196 0.288885 0.297006
O O6 0.283075 0.357210 0.152253
O O7 0.063301 0.568586 0.582572
O O8 0.572550 0.406730 0.163262
O O9 0.333370 0.535133 0.243787
O O10 0.750000 0.250000 0.250056
#
# Coordination Sequence:
#
# PCOD9429756 Si02
#       5
#     8   4   8   8   8
#     4  10  21  42  68  91 128 186 229 272 319 392
#     4  10  18  32  60  98 136 160 198 264 346 400
#     4  10  20  40  66  98 130 173 221 275 334 391
#     4  12  20  37  66 102 139 162 211 276 347 408
#     4  12  22  37  68 100 134 174 217 270 347 398
#
# _framework density 26.649661999999999
#
# number of rings (size 3 to 8) (size 9 to 14) (size 15 to 20)
#    0.000    1.333    8.889    0.000    0.000    0.000 
#    0.000    3.333    4.889    0.000    0.000    0.000 
#    0.000    0.000    0.000    0.000    0.000    0.000 
#
# Total GULP energy -200740.471165 kJ/mol
# GULP energy per Si atom -5576.124199 kJ/mol
# Density = 2.658901 g / cm^3
# Si number density = 26.649662 Si / 1000 Ang^3
#
#
#
# Elastic Constant Matrix: (Units=GPa)
#
#
# Indices 1 2 3 4 5 6 
#
# 1 89.5152 80.1163 7.0250 0.0000 0.0000 0.0000
# 2 80.1163 314.0493 61.7487 0.0000 0.0000 0.0000
# 3 7.0250 61.7487 60.5321 0.0000 0.0000 0.0000
# 4 0.0000 0.0000 0.0000 39.9553 0.0000 0.0000
# 5 0.0000 0.0000 0.0000 0.0000 9.0192 0.0000
# 6 0.0000 0.0000 0.0000 0.0000 0.0000 82.9539
#
#
#
# Elastic Compliance Matrix: (Units=1/GPa)
#
#
# Indices 1 2 3 4 5 6 
#
# 1 0.014814 -0.004305 0.002672 0.000000 0.000000 0.000000
# 2 -0.004305 0.005234 -0.004840 0.000000 0.000000 0.000000
# 3 0.002672 -0.004840 0.021147 0.000000 0.000000 0.000000
# 4 0.000000 0.000000 0.000000 0.025028 0.000000 0.000000
# 5 0.000000 0.000000 0.000000 0.000000 0.110875 0.000000
# 6 0.000000 0.000000 0.000000 0.000000 0.000000 0.012055
#
#
# Mechanical properties :
#
#
# Convention : Reuss Voigt Hill
#
# Bulk Modulus (GPa) = 35.39767 84.65296 60.02532
# Shear Modulus (GPa) = 23.63910 47.39944 35.51927
#
# Velocity S-wave (km/s) = 2.98154 4.22194 3.65474
# Velocity P-wave (km/s) = 5.01639 7.45657 6.35471
#
# Compressibility (1/GPa) = 0.02825044
#
# Stress axis : x y z
#
# Youngs Moduli (GPa) = 67.50287 191.06258 47.28833
#
# Poissons Ratio (x) = 0.82244 -0.12635
# Poissons Ratio (y) = 0.29057 0.22885
# Poissons Ratio (z) = -0.18036 0.92465
#
# Static dielectric constant tensor:
#      x y z
#    x 2.171940 0.000000 0.000000 
#    y 0.000000 2.045560 0.000000 
#    z 0.000000 0.000000 2.302380 
# 
# From -- ./inp_files/17951.got.cif
#   From: 2010.05.17/outbox.cif.g08.bks.cpg/sg56_9_cif.got.tgz:17951.got - 2010.06.03 13:42:01.
