data_PCOD9429685
_publ_section_title
;
Structure prediction by ZEFSAII (Michael W. Deem and Ramdas Pophale) SiO2 
 PCOD9429685
Probable space group: P C C N
;
_chemical_formula_sum "Si O2"
_cell_formula_units_Z 64
_cell_length_a 23.626998
_cell_length_b 18.349493
_cell_length_c 8.493094
_cell_angle_alpha 90.000000
_cell_angle_beta 90.000000
_cell_angle_gamma 90.000000
_cell_volume 3682.125142
_symmetry_space_group_name_H-M "P C C N"
_symmetry_group_IT_number 56
_symmetry_cell_setting 'orthorhombic'
loop_
_space_group_symop_operation_xyz
x,y,z
1/2-x,1/2-y,z
1/2+x,-y,1/2-z
-x,1/2+y,1/2-z
-x,-y,-z
1/2+x,1/2+y,-z
1/2-x,y,1/2+z
x,1/2-y,1/2+z
loop_
_atom_site_type_symbol
_atom_site_label
_atom_site_fract_x
_atom_site_fract_y
_atom_site_fract_z
Si Si1 0.962131 0.580418 0.842192
Si Si2 0.869762 0.171571 0.546607
Si Si3 0.389072 0.554600 0.667402
Si Si4 0.493231 0.357209 0.328729
Si Si5 0.621970 0.402471 0.986868
Si Si6 0.967929 0.190737 0.810214
Si Si7 0.688375 0.280199 0.840531
Si Si8 0.457830 0.484400 0.148194
O O1 0.907508 0.529211 0.833622
O O2 0.976128 0.641773 0.714281
O O3 0.014891 0.525488 0.801014
O O4 0.964212 0.620974 0.007616
O O5 0.860159 0.089551 0.485671
O O6 0.926305 0.179912 0.655329
O O7 0.821383 0.203306 0.658292
O O8 0.860331 0.222704 0.394455
O O9 0.447005 0.601178 0.668197
O O10 0.364283 0.575746 0.835750
O O11 0.509694 0.272759 0.319695
O O12 0.458608 0.399226 0.191591
O O13 0.568641 0.346228 0.952565
O O14 0.674138 0.356879 0.921438
O O15 0.599947 0.474490 0.896130
O O16 0.750000 0.250000 0.868805
O O17 0.500000 0.500000 0.000000
#
# Coordination Sequence:
#
# PCOD9429685 Si02
#       8
#     8   8   8   8   8   8   8   8
#     4  10  21  30  45  66 101 129 172 210 255 305
#     4  11  22  33  53  66  96 127 175 214 265 308
#     4  11  19  33  48  70  89 133 172 219 257 308
#     4  11  20  28  44  64 103 126 170 212 251 299
#     4  10  20  34  51  69  96 131 176 220 261 310
#     4  10  22  31  46  74  97 139 172 215 257 304
#     4  11  23  37  52  73  96 127 171 221 267 307
#     4  10  18  30  46  69  92 127 170 215 251 305
#
# _framework density 17.381266
#
# number of rings (size 3 to 8) (size 9 to 14) (size 15 to 20)
#    0.000    1.500    3.750    4.875    5.250    0.000 
#    0.000    0.625    0.000    0.000    0.000    0.000 
#    0.000    0.000    0.000    1.125    2.250    0.625 
#
# Total GULP energy -356352.550870 kJ/mol
# GULP energy per Si atom -5568.008607 kJ/mol
# Density = 1.734171 g / cm^3
# Si number density = 17.381266 Si / 1000 Ang^3
#
#
#
# Elastic Constant Matrix: (Units=GPa)
#
#
# Indices 1 2 3 4 5 6 
#
# 1 42.6028 30.0750 24.0312 0.0000 0.0000 0.0000
# 2 30.0750 107.9240 33.1131 0.0000 0.0000 0.0000
# 3 24.0312 33.1131 82.9863 0.0000 0.0000 0.0000
# 4 0.0000 0.0000 0.0000 26.0468 0.0000 0.0000
# 5 0.0000 0.0000 0.0000 0.0000 11.6661 0.0000
# 6 0.0000 0.0000 0.0000 0.0000 0.0000 21.6880
#
#
#
# Elastic Compliance Matrix: (Units=1/GPa)
#
#
# Indices 1 2 3 4 5 6 
#
# 1 0.032038 -0.006930 -0.006512 0.000000 0.000000 0.000000
# 2 -0.006930 0.012057 -0.002804 0.000000 0.000000 0.000000
# 3 -0.006512 -0.002804 0.015055 0.000000 0.000000 0.000000
# 4 0.000000 0.000000 0.000000 0.038392 0.000000 0.000000
# 5 0.000000 0.000000 0.000000 0.000000 0.085718 0.000000
# 6 0.000000 0.000000 0.000000 0.000000 0.000000 0.046108
#
#
# Mechanical properties :
#
#
# Convention : Reuss Voigt Hill
#
# Bulk Modulus (GPa) = 37.51332 45.32796 41.42064
# Shear Modulus (GPa) = 18.46729 21.63312 20.05020
#
# Velocity S-wave (km/s) = 3.26311 3.53175 3.40008
# Velocity P-wave (km/s) = 5.98554 6.53959 6.26869
#
# Compressibility (1/GPa) = 0.02665720
#
# Stress axis : x y z
#
# Youngs Moduli (GPa) = 31.21270 82.93704 66.42289
#
# Poissons Ratio (x) = 0.57474 0.43258
# Poissons Ratio (y) = 0.21630 0.18627
# Poissons Ratio (z) = 0.20327 0.23258
#
# Static dielectric constant tensor:
#      x y z
#    x 1.611700 0.000000 0.000000 
#    y 0.000000 1.684420 0.000000 
#    z 0.000000 0.000000 1.760880 
# 
# From -- ./inp_files/5026.got.cif
#   From: 2010.05.17/outbox.cif.g08.bks.cpg/sg56_3_cif.got.tgz:5026.got - 2010.06.03 13:42:01.
