data_PCOD9429637
_publ_section_title
;
Structure prediction by ZEFSAII (Michael W. Deem and Ramdas Pophale) SiO2 
 PCOD9429637
Probable space group: P C C N
;
_chemical_formula_sum "Si O2"
_cell_formula_units_Z 56
_cell_length_a 9.501682
_cell_length_b 19.794327
_cell_length_c 16.841189
_cell_angle_alpha 90.000000
_cell_angle_beta 90.000000
_cell_angle_gamma 90.000000
_cell_volume 3167.480732
_symmetry_space_group_name_H-M "P C C N"
_symmetry_group_IT_number 56
_symmetry_cell_setting 'orthorhombic'
loop_
_space_group_symop_operation_xyz
x,y,z
1/2-x,1/2-y,z
1/2+x,-y,1/2-z
-x,1/2+y,1/2-z
-x,-y,-z
1/2+x,1/2+y,-z
1/2-x,y,1/2+z
x,1/2-y,1/2+z
loop_
_atom_site_type_symbol
_atom_site_label
_atom_site_fract_x
_atom_site_fract_y
_atom_site_fract_z
Si Si1 0.554096 0.122782 0.654199
Si Si2 0.922316 0.248647 0.555654
Si Si3 0.689799 0.401363 0.762041
Si Si4 0.290766 0.467365 0.129893
Si Si5 0.768205 0.063598 0.008344
Si Si6 0.648585 0.311198 0.902506
Si Si7 0.487484 0.903975 0.897899
O O1 0.528101 0.197500 0.620514
O O2 0.659590 0.124818 0.728919
O O3 0.409299 0.082877 0.662301
O O4 0.638204 0.082532 0.584474
O O5 0.750000 0.250000 0.560348
O O6 0.956241 0.278214 0.467621
O O7 0.976988 0.174059 0.573570
O O8 0.718975 0.470988 0.808015
O O9 0.611689 0.349914 0.822124
O O10 0.591744 0.410171 0.686047
O O11 0.143800 0.430290 0.114381
O O12 0.325306 0.502653 0.044957
O O13 0.609845 0.054862 0.039943
O O14 0.772711 0.130124 0.952664
O O15 0.750000 0.250000 0.880122
#
# Coordination Sequence:
#
# PCOD9429637 Si02
#       7
#     8   8   8   8   8   8   8
#     4  10  20  35  56  79 110 145 180 220 270 324
#     4  10  17  36  58  78 101 136 187 227 261 319
#     4  10  21  33  55  79 107 148 178 221 268 328
#     4  11  22  34  51  85 115 143 178 220 276 323
#     4   9  18  35  56  78 104 143 182 218 258 321
#     4   9  16  30  56  82  96 125 187 231 254 301
#     4  11  20  35  57  82 109 143 183 229 265 320
#
# _framework density 17.679666000000001
#
# number of rings (size 3 to 8) (size 9 to 14) (size 15 to 20)
#    0.000    2.000    5.714    1.714    2.000    0.571 
#    0.000    0.000    0.000    0.000    0.000    0.000 
#    0.000    0.000    0.000    0.000    0.000    0.000 
#
# Total GULP energy -311839.295483 kJ/mol
# GULP energy per Si atom -5568.558848 kJ/mol
# Density = 1.763943 g / cm^3
# Si number density = 17.679666 Si / 1000 Ang^3
#
#
#
# Elastic Constant Matrix: (Units=GPa)
#
#
# Indices 1 2 3 4 5 6 
#
# 1 45.5737 9.8656 3.4109 0.0000 0.0000 0.0000
# 2 9.8656 63.4449 17.5393 0.0000 0.0000 0.0000
# 3 3.4109 17.5393 74.8495 0.0000 0.0000 0.0000
# 4 0.0000 0.0000 0.0000 12.7766 0.0000 0.0000
# 5 0.0000 0.0000 0.0000 0.0000 5.5823 0.0000
# 6 0.0000 0.0000 0.0000 0.0000 0.0000 5.0193
#
#
#
# Elastic Compliance Matrix: (Units=1/GPa)
#
#
# Indices 1 2 3 4 5 6 
#
# 1 0.022710 -0.003470 -0.000222 0.000000 0.000000 0.000000
# 2 -0.003470 0.017384 -0.003915 0.000000 0.000000 0.000000
# 3 -0.000222 -0.003915 0.014288 0.000000 0.000000 0.000000
# 4 0.000000 0.000000 0.000000 0.078268 0.000000 0.000000
# 5 0.000000 0.000000 0.000000 0.000000 0.179137 0.000000
# 6 0.000000 0.000000 0.000000 0.000000 0.000000 0.199230
#
#
# Mechanical properties :
#
#
# Convention : Reuss Voigt Hill
#
# Bulk Modulus (GPa) = 25.53154 27.27775 26.40465
# Shear Modulus (GPa) = 9.27151 14.87914 12.07532
#
# Velocity S-wave (km/s) = 2.29250 2.90417 2.61627
# Velocity P-wave (km/s) = 4.63465 5.16798 4.90856
#
# Compressibility (1/GPa) = 0.03916725
#
# Stress axis : x y z
#
# Youngs Moduli (GPa) = 44.03290 57.52515 69.99017
#
# Poissons Ratio (x) = 0.19962 0.01552
# Poissons Ratio (y) = 0.15280 0.27404
# Poissons Ratio (z) = 0.00977 0.22523
#
# Static dielectric constant tensor:
#      x y z
#    x 1.591030 0.000000 0.000000 
#    y 0.000000 1.610990 0.000000 
#    z 0.000000 0.000000 1.637770 
# 
# From -- ./inp_files/15168.got.cif
#   From: 2010.05.17/outbox.cif.g08.bks.cpg/sg56_8_cif.got.tgz:15168.got - 2010.06.03 13:42:01.
