data_PCOD9429456
_publ_section_title
;
Structure prediction by ZEFSAII (Michael W. Deem and Ramdas Pophale) SiO2 
 PCOD9429456
Probable space group: P B A M
;
_chemical_formula_sum "Si O2"
_cell_formula_units_Z 48
_cell_length_a 24.000000
_cell_length_b 12.000000
_cell_length_c 9.000000
_cell_angle_alpha 90.000000
_cell_angle_beta 90.000000
_cell_angle_gamma 90.000000
_cell_volume 2592.000000
_symmetry_space_group_name_H-M "P B A M"
_symmetry_group_IT_number 55
_symmetry_cell_setting 'orthorhombic'
loop_
_space_group_symop_operation_xyz
x,y,z
-x,-y,z
1/2+x,1/2-y,-z
1/2-x,1/2+y,-z
-x,-y,-z
x,y,-z
1/2-x,1/2+y,z
1/2+x,1/2-y,z
loop_
_atom_site_type_symbol
_atom_site_label
_atom_site_fract_x
_atom_site_fract_y
_atom_site_fract_z
Si Si1 0.621431 0.228797 0.818965
Si Si2 0.270565 0.627586 0.820433
Si Si3 0.348397 0.180070 0.322951
Si Si4 0.341852 0.413787 0.168965
Si Si5 0.933610 0.492122 0.820185
Si Si6 0.049883 0.068977 0.829321
O O1 0.682315 0.279295 0.776048
O O2 0.574487 0.316881 0.764893
O O3 0.600868 0.105100 0.779032
O O4 0.621637 0.234065 0.000000
O O5 0.211217 0.640842 0.743080
O O6 0.295380 0.504721 0.787412
O O7 0.264633 0.634748 0.000000
O O8 0.349420 0.168113 0.500000
O O9 0.350432 0.309231 0.274116
O O10 0.399521 0.110072 0.251950
O O11 0.397980 0.486131 0.163125
O O12 0.329368 0.374344 0.000000
O O13 0.000000 0.500000 0.780626
O O14 0.931544 0.481245 0.000000
O O15 0.031920 0.096045 0.000000
O O16 0.000000 0.000000 0.756256
#
# Coordination Sequence:
#
# PCOD9429456 Si02
#       6
#     8   8   8   8   8   8
#     4   8  16  32  55  87 117 143 181 238 297 342
#     4   9  19  38  62  87 113 146 194 250 300 343
#     4  12  26  39  56  83 121 160 195 236 293 364
#     4   9  19  36  59  86 112 143 191 243 291 342
#     4  10  22  39  62  90 118 154 203 248 294 354
#     4   8  14  26  53  88 115 136 170 232 292 333
#
# _framework density 18.518519000000001
#
# number of rings (size 3 to 8) (size 9 to 14) (size 15 to 20)
#    0.000    2.667    0.000    3.500    4.667    1.000 
#    0.000    0.000    0.000    1.500    0.000    0.000 
#    0.000    0.000    0.000    0.000    0.000    0.000 
#
# Total GULP energy -267513.668520 kJ/mol
# GULP energy per Si atom -5573.201427 kJ/mol
# Density = 1.847637 g / cm^3
# Si number density = 18.518519 Si / 1000 Ang^3
#
#
#
# Elastic Constant Matrix: (Units=GPa)
#
#
# Indices 1 2 3 4 5 6 
#
# 1 79.2187 39.5789 24.5137 0.0000 0.0000 0.0000
# 2 39.5789 112.2950 38.2085 0.0000 0.0000 0.0000
# 3 24.5137 38.2085 41.8910 0.0000 0.0000 0.0000
# 4 0.0000 0.0000 0.0000 6.4072 0.0000 0.0000
# 5 0.0000 0.0000 0.0000 0.0000 6.3714 0.0000
# 6 0.0000 0.0000 0.0000 0.0000 0.0000 14.2640
#
#
#
# Elastic Compliance Matrix: (Units=1/GPa)
#
#
# Indices 1 2 3 4 5 6 
#
# 1 0.016381 -0.003642 -0.006264 0.000000 0.000000 0.000000
# 2 -0.003642 0.013722 -0.010385 0.000000 0.000000 0.000000
# 3 -0.006264 -0.010385 0.037009 0.000000 0.000000 0.000000
# 4 0.000000 0.000000 0.000000 0.156075 0.000000 0.000000
# 5 0.000000 0.000000 0.000000 0.000000 0.156950 0.000000
# 6 0.000000 0.000000 0.000000 0.000000 0.000000 0.070106
#
#
# Mechanical properties :
#
#
# Convention : Reuss Voigt Hill
#
# Bulk Modulus (GPa) = 37.69210 48.66742 43.17976
# Shear Modulus (GPa) = 10.00662 14.14876 12.07769
#
# Velocity S-wave (km/s) = 2.32708 2.76711 2.55658
# Velocity P-wave (km/s) = 5.25531 6.04539 5.66414
#
# Compressibility (1/GPa) = 0.02653076
#
# Stress axis : x y z
#
# Youngs Moduli (GPa) = 61.04490 72.87424 27.02074
#
# Poissons Ratio (x) = 0.26544 0.16925
# Poissons Ratio (y) = 0.22235 0.28060
# Poissons Ratio (z) = 0.38237 0.75677
#
# Static dielectric constant tensor:
#      x y z
#    x 1.649620 0.000000 0.000000 
#    y 0.000000 1.665390 0.000000 
#    z 0.000000 0.000000 1.620300 
# 
# From -- ./inp_files/9448.got.cif
#   From: 2010.05.17/outbox.ucp.g08.bks.cvg/sg55_5_cif.got.tgz:9448.got - 2010.06.11 16:36:00.
