data_PCOD9429399
_publ_section_title
;
Structure prediction by ZEFSAII (Michael W. Deem and Ramdas Pophale) SiO2 
 PCOD9429399
Probable space group: P B A M
;
_chemical_formula_sum "Si O2"
_cell_formula_units_Z 64
_cell_length_a 9.000000
_cell_length_b 24.000000
_cell_length_c 15.000000
_cell_angle_alpha 90.000000
_cell_angle_beta 90.000000
_cell_angle_gamma 90.000000
_cell_volume 3240.000000
_symmetry_space_group_name_H-M "P B A M"
_symmetry_group_IT_number 55
_symmetry_cell_setting 'orthorhombic'
loop_
_space_group_symop_operation_xyz
x,y,z
-x,-y,z
1/2+x,1/2-y,-z
1/2-x,1/2+y,-z
-x,-y,-z
x,y,-z
1/2-x,1/2+y,z
1/2+x,1/2-y,z
loop_
_atom_site_type_symbol
_atom_site_label
_atom_site_fract_x
_atom_site_fract_y
_atom_site_fract_z
Si Si1 0.709251 0.918979 0.102745
Si Si2 0.768555 0.954288 0.397056
Si Si3 0.881313 0.073157 0.398077
Si Si4 0.921093 0.370524 0.727306
Si Si5 0.881414 0.812646 0.100469
Si Si6 0.149406 0.964341 0.893772
Si Si7 0.139700 0.747736 0.805858
Si Si8 0.256347 0.367095 0.754626
O O1 0.595538 0.895977 0.173656
O O2 0.853927 0.878546 0.120056
O O3 0.733589 0.984669 0.113989
O O4 0.669818 0.908640 0.000000
O O5 0.714847 0.951926 0.500000
O O6 0.679055 0.910200 0.336267
O O7 0.943927 0.940561 0.398351
O O8 0.780102 0.019642 0.368746
O O9 0.839403 0.086264 0.500000
O O10 0.865810 0.121413 0.326869
O O11 0.877366 0.304383 0.736289
O O12 0.094927 0.376364 0.711377
O O13 0.721838 0.783181 0.112324
O O14 0.987948 0.778197 0.165189
O O15 0.937068 0.808487 0.000000
O O16 0.197085 0.911470 0.832955
O O17 0.135437 0.949582 0.000000
O O18 0.000000 0.000000 0.868210
O O19 0.235051 0.802403 0.781224
#
# Coordination Sequence:
#
# PCOD9429399 Si02
#       8
#     8   8   8   8   8   8   8   8
#     4   9  20  37  57  83 123 166 199 246 302 363
#     4   9  20  41  68  95 125 160 199 247 306 373
#     4   9  21  40  66  98 123 156 204 248 303 375
#     4  11  24  40  59  92 125 161 207 256 312 361
#     4  10  20  37  60  81 114 165 217 261 304 354
#     4  10  22  38  58  90 125 161 207 248 302 372
#     4  11  23  40  55  87 121 162 212 262 306 365
#     4  12  25  38  63  92 124 165 204 261 312 362
#
# _framework density 19.753086
#
# number of rings (size 3 to 8) (size 9 to 14) (size 15 to 20)
#    0.000    1.875    1.250    2.625    7.000    5.500 
#    0.000    3.125    0.000    0.000    0.000    0.000 
#    0.000    0.000    0.000    0.000    0.000    0.000 
#
# Total GULP energy -356493.380535 kJ/mol
# GULP energy per Si atom -5570.209071 kJ/mol
# Density = 1.970813 g / cm^3
# Si number density = 19.753086 Si / 1000 Ang^3
#
#
#
# Elastic Constant Matrix: (Units=GPa)
#
#
# Indices 1 2 3 4 5 6 
#
# 1 35.4957 5.8418 6.2080 0.0000 0.0000 0.0000
# 2 5.8418 110.4096 35.7793 0.0000 0.0000 0.0000
# 3 6.2080 35.7793 51.9181 0.0000 0.0000 0.0000
# 4 0.0000 0.0000 0.0000 -3.1190 0.0000 0.0000
# 5 0.0000 0.0000 0.0000 0.0000 -0.6776 0.0000
# 6 0.0000 0.0000 0.0000 0.0000 0.0000 27.3781
#
#
#
# Elastic Compliance Matrix: (Units=1/GPa)
#
#
# Indices 1 2 3 4 5 6 
#
# 1 0.028798 -0.000525 -0.003082 0.000000 0.000000 0.000000
# 2 -0.000525 0.011671 -0.007980 0.000000 0.000000 0.000000
# 3 -0.003082 -0.007980 0.025129 0.000000 0.000000 0.000000
# 4 0.000000 0.000000 0.000000 -0.320616 0.000000 0.000000
# 5 0.000000 0.000000 0.000000 0.000000 -1.475810 0.000000
# 6 0.000000 0.000000 0.000000 0.000000 0.000000 0.036526
#
#
# Mechanical properties :
#
#
# Convention : Reuss Voigt Hill
#
# Bulk Modulus (GPa) = 23.57150 32.60906 28.09028
# Shear Modulus (GPa) = -3.01753 14.71592 5.84920
#
# Velocity S-wave (km/s) = -1.23731 2.73242 1.72267
# Velocity P-wave (km/s) = 3.14924 5.14772 4.26712
#
# Compressibility (1/GPa) = 0.04242412
#
# Stress axis : x y z
#
# Youngs Moduli (GPa) = 34.72489 85.68193 39.79429
#
# Poissons Ratio (x) = 0.04499 0.12263
# Poissons Ratio (y) = 0.01823 0.31757
# Poissons Ratio (z) = 0.10701 0.68377
#
# Static dielectric constant tensor:
#      x y z
#    x 1.767050 0.000000 0.000000 
#    y 0.000000 1.695630 0.000000 
#    z 0.000000 0.000000 1.682910 
# 
# From -- ./inp_files/17792.got.cif
#   From: 2010.05.17/outbox.ucp.g08.bks.cvg/sg55_9_cif.got.tgz:17792.got - 2010.06.11 16:36:00.
