data_PCOD9429998
_publ_section_title
;
Structure prediction by ZEFSAII (Michael W. Deem and Ramdas Pophale) SiO2 
 PCOD9429998
Probable space group: P C C N
;
_chemical_formula_sum "Si O2"
_cell_formula_units_Z 48
_cell_length_a 19.506321
_cell_length_b 18.092928
_cell_length_c 5.617935
_cell_angle_alpha 90.000000
_cell_angle_beta 90.000000
_cell_angle_gamma 90.000000
_cell_volume 1982.717920
_symmetry_space_group_name_H-M "P C C N"
_symmetry_group_IT_number 56
_symmetry_cell_setting 'orthorhombic'
loop_
_space_group_symop_operation_xyz
x,y,z
1/2-x,1/2-y,z
1/2+x,-y,1/2-z
-x,1/2+y,1/2-z
-x,-y,-z
1/2+x,1/2+y,-z
1/2-x,y,1/2+z
x,1/2-y,1/2+z
loop_
_atom_site_type_symbol
_atom_site_label
_atom_site_fract_x
_atom_site_fract_y
_atom_site_fract_z
Si Si1 0.710934 0.348145 0.394825
Si Si2 0.933004 0.185433 0.561333
Si Si3 0.016486 0.073775 0.258667
Si Si4 0.744618 0.510360 0.916047
Si Si5 0.562200 0.781406 0.410203
Si Si6 0.095596 0.944411 0.125976
O O1 0.752065 0.330897 0.642073
O O2 0.635953 0.310548 0.404414
O O3 0.705056 0.438261 0.409446
O O4 0.989617 0.127155 0.463010
O O5 0.981251 0.244336 0.105527
O O6 0.905472 0.139639 0.787812
O O7 0.061782 0.130058 0.097286
O O8 0.950821 0.049989 0.107005
O O9 0.061455 0.002374 0.311284
O O10 0.748561 0.551670 0.665330
O O11 0.671100 0.471430 0.918300
O O12 0.590591 0.751232 0.660896
#
# Coordination Sequence:
#
# PCOD9429998 Si02
#       6
#     8   8   8   8   8   8
#     4  10  19  31  53  77 106 143 190 230 268 315
#     4  11  20  34  58  76 112 154 186 230 282 335
#     4  10  22  35  52  85 110 149 189 234 286 337
#     4  10  19  33  52  78 109 145 179 231 274 320
#     4  10  21  37  55  74 108 147 182 222 279 327
#     4  11  20  34  57  81 113 147 189 236 281 334
#
# _framework density 24.209191000000001
#
# number of rings (size 3 to 8) (size 9 to 14) (size 15 to 20)
#    0.000    1.667    5.000    2.500    0.000    0.000 
#    0.000    0.000    0.000   23.000    0.000    0.000 
#    0.000   16.000    0.000    0.000    0.000    0.000 
#
# Total GULP energy -267997.678848 kJ/mol
# GULP energy per Si atom -5583.284976 kJ/mol
# Density = 2.415409 g / cm^3
# Si number density = 24.209191 Si / 1000 Ang^3
#
#
#
# Elastic Constant Matrix: (Units=GPa)
#
#
# Indices 1 2 3 4 5 6 
#
# 1 20.0818 3.1173 3.1768 0.0000 0.0000 0.0000
# 2 3.1173 79.9941 5.3586 0.0000 0.0000 0.0000
# 3 3.1768 5.3586 167.0743 0.0000 0.0000 0.0000
# 4 0.0000 0.0000 0.0000 23.4245 0.0000 0.0000
# 5 0.0000 0.0000 0.0000 0.0000 22.7170 0.0000
# 6 0.0000 0.0000 0.0000 0.0000 0.0000 11.9391
#
#
#
# Elastic Compliance Matrix: (Units=1/GPa)
#
#
# Indices 1 2 3 4 5 6 
#
# 1 0.050232 -0.001898 -0.000894 0.000000 0.000000 0.000000
# 2 -0.001898 0.012600 -0.000368 0.000000 0.000000 0.000000
# 3 -0.000894 -0.000368 0.006014 0.000000 0.000000 0.000000
# 4 0.000000 0.000000 0.000000 0.042690 0.000000 0.000000
# 5 0.000000 0.000000 0.000000 0.000000 0.044020 0.000000
# 6 0.000000 0.000000 0.000000 0.000000 0.000000 0.083759
#
#
# Mechanical properties :
#
#
# Convention : Reuss Voigt Hill
#
# Bulk Modulus (GPa) = 15.99329 32.27285 24.13307
# Shear Modulus (GPa) = 18.76335 28.64928 23.70632
#
# Velocity S-wave (km/s) = 2.78699 3.44380 3.13266
# Velocity P-wave (km/s) = 4.12032 5.40118 4.80364
#
# Compressibility (1/GPa) = 0.06252622
#
# Stress axis : x y z
#
# Youngs Moduli (GPa) = 19.90749 79.36808 166.27404
#
# Poissons Ratio (x) = 0.15061 0.14869
# Poissons Ratio (y) = 0.03778 0.06119
# Poissons Ratio (z) = 0.01780 0.02921
#
# Static dielectric constant tensor:
#      x y z
#    x 1.923560 0.000000 0.000000 
#    y 0.000000 1.929200 0.000000 
#    z 0.000000 0.000000 2.181990 
# 
# From -- ./inp_files/898.got.cif
#   From: 2010.05.17/outbox.cif.g08.bks.cpg/sg56_1_cif.got.tgz:898.got - 2010.06.03 13:42:01.
