data_PCOD9429935
_publ_section_title
;
Structure prediction by ZEFSAII (Michael W. Deem and Ramdas Pophale) SiO2 
 PCOD9429935
Probable space group: P C C N
;
_chemical_formula_sum "Si O2"
_cell_formula_units_Z 52
_cell_length_a 8.960594
_cell_length_b 11.817447
_cell_length_c 21.569510
_cell_angle_alpha 90.000000
_cell_angle_beta 90.000000
_cell_angle_gamma 90.000000
_cell_volume 2284.024418
_symmetry_space_group_name_H-M "P C C N"
_symmetry_group_IT_number 56
_symmetry_cell_setting 'orthorhombic'
loop_
_space_group_symop_operation_xyz
x,y,z
1/2-x,1/2-y,z
1/2+x,-y,1/2-z
-x,1/2+y,1/2-z
-x,-y,-z
1/2+x,1/2+y,-z
1/2-x,y,1/2+z
x,1/2-y,1/2+z
loop_
_atom_site_type_symbol
_atom_site_label
_atom_site_fract_x
_atom_site_fract_y
_atom_site_fract_z
Si Si1 0.250000 0.250000 0.527587
Si Si2 0.018476 0.931164 0.698613
Si Si3 0.720142 0.624082 0.263542
Si Si4 0.031249 0.325703 0.934366
Si Si5 0.990134 0.086916 0.058528
Si Si6 0.516021 0.615783 0.143036
Si Si7 0.250000 0.750000 0.196822
Si Si8 0.250000 0.750000 0.492979
O O1 0.346815 0.341210 0.487248
O O2 0.371271 0.173056 0.561841
O O3 0.970265 0.896496 0.628881
O O4 0.126059 0.831891 0.726397
O O5 0.873509 0.935988 0.742091
O O6 0.115959 0.044001 0.695792
O O7 0.750000 0.750000 0.287771
O O8 0.623447 0.637237 0.200533
O O9 0.067666 0.198018 0.911834
O O10 0.868080 0.318748 0.964849
O O11 0.982317 0.010754 0.119415
O O12 0.845123 0.162876 0.047160
O O13 0.000000 0.000000 0.000000
O O14 0.351483 0.662362 0.158394
#
# Coordination Sequence:
#
# PCOD9429935 Si02
#       8
#     4   8   8   8   8   8   4   4
#     4  10  20  38  66 100 134 174 236 274 340 402
#     4  11  24  38  71 101 134 170 229 283 343 404
#     4  12  24  44  71 107 133 178 224 287 344 426
#     4  10  18  38  67  97 128 173 226 276 328 413
#     4  11  23  38  68  97 136 183 225 294 337 407
#     4  11  21  40  71  96 134 175 233 278 344 400
#     4  10  21  42  73 100 124 179 232 284 339 418
#     4  10  21  38  65  98 132 175 232 274 343 408
#
# _framework density 22.766832000000001
#
# number of rings (size 3 to 8) (size 9 to 14) (size 15 to 20)
#    0.000    1.231    6.154    3.692    0.000    0.000 
#    0.000    6.923   10.154    0.000    4.000    0.000 
#    0.000    0.000    0.000    0.000    0.000    0.000 
#
# Total GULP energy -290665.302516 kJ/mol
# GULP energy per Si atom -5589.717356 kJ/mol
# Density = 2.271501 g / cm^3
# Si number density = 22.766832 Si / 1000 Ang^3
#
#
#
# Elastic Constant Matrix: (Units=GPa)
#
#
# Indices 1 2 3 4 5 6 
#
# 1 95.1693 35.5650 12.2160 0.0000 0.0000 0.0000
# 2 35.5650 136.9697 28.6642 0.0000 0.0000 0.0000
# 3 12.2160 28.6642 31.9792 0.0000 0.0000 0.0000
# 4 0.0000 0.0000 0.0000 16.3159 0.0000 0.0000
# 5 0.0000 0.0000 0.0000 0.0000 -5.1617 0.0000
# 6 0.0000 0.0000 0.0000 0.0000 0.0000 39.8011
#
#
#
# Elastic Compliance Matrix: (Units=1/GPa)
#
#
# Indices 1 2 3 4 5 6 
#
# 1 0.011757 -0.002601 -0.002160 0.000000 0.000000 0.000000
# 2 -0.002601 0.009562 -0.007577 0.000000 0.000000 0.000000
# 3 -0.002160 -0.007577 0.038887 0.000000 0.000000 0.000000
# 4 0.000000 0.000000 0.000000 0.061290 0.000000 0.000000
# 5 0.000000 0.000000 0.000000 0.000000 -0.193735 0.000000
# 6 0.000000 0.000000 0.000000 0.000000 0.000000 0.025125
#
#
# Mechanical properties :
#
#
# Convention : Reuss Voigt Hill
#
# Bulk Modulus (GPa) = 28.14519 46.33427 37.23973
# Shear Modulus (GPa) = -471.90081 22.70259 -224.59911
#
# Velocity S-wave (km/s) = -14.41269 3.16124 -9.94314
# Velocity P-wave (km/s) = 16.26586 5.80693 10.74378
#
# Compressibility (1/GPa) = 0.03553005
#
# Stress axis : x y z
#
# Youngs Moduli (GPa) = 85.05768 104.58196 25.71544
#
# Poissons Ratio (x) = 0.27198 0.05554
# Poissons Ratio (y) = 0.22121 0.19485
# Poissons Ratio (z) = 0.18372 0.79244
#
# Static dielectric constant tensor:
#      x y z
#    x 4.287210 0.000000 0.000000 
#    y 0.000000 1.857150 0.000000 
#    z 0.000000 0.000000 1.885700 
# 
# From -- ./inp_files/22061.got.cif
#   From: 2010.05.17/outbox.cif.g08.bks.cpg/sg56_12_cif.got.tgz:22061.got - 2010.06.03 13:42:01.
