data_PCOD9429777
_publ_section_title
;
Structure prediction by ZEFSAII (Michael W. Deem and Ramdas Pophale) SiO2 
 PCOD9429777
Probable space group: P C C N
;
_chemical_formula_sum "Si O2"
_cell_formula_units_Z 40
_cell_length_a 16.800896
_cell_length_b 7.476984
_cell_length_c 16.112106
_cell_angle_alpha 90.000000
_cell_angle_beta 90.000000
_cell_angle_gamma 90.000000
_cell_volume 2024.003248
_symmetry_space_group_name_H-M "P C C N"
_symmetry_group_IT_number 56
_symmetry_cell_setting 'orthorhombic'
loop_
_space_group_symop_operation_xyz
x,y,z
1/2-x,1/2-y,z
1/2+x,-y,1/2-z
-x,1/2+y,1/2-z
-x,-y,-z
1/2+x,1/2+y,-z
1/2-x,y,1/2+z
x,1/2-y,1/2+z
loop_
_atom_site_type_symbol
_atom_site_label
_atom_site_fract_x
_atom_site_fract_y
_atom_site_fract_z
Si Si1 0.954982 0.165504 0.725622
Si Si2 0.953947 0.974820 0.131656
Si Si3 0.942425 0.501310 0.919712
Si Si4 0.887500 0.625087 0.462375
Si Si5 0.165651 0.668931 0.641015
O O1 0.929105 0.351737 0.684222
O O2 0.878981 0.096560 0.776674
O O3 0.998074 0.051705 0.655082
O O4 0.020788 0.169439 0.799447
O O5 0.031550 0.047190 0.081293
O O6 0.896836 0.899946 0.060831
O O7 0.884245 0.670096 0.935055
O O8 0.891537 0.323321 0.899940
O O9 0.000000 0.500000 0.000000
O O10 0.823458 0.491802 0.424023
O O11 0.250000 0.750000 0.662686
#
# Coordination Sequence:
#
# PCOD9429777 Si02
#       5
#     8   8   8   8   8
#     4  10  18  33  58  89 119 159 206 248 302 374
#     4   9  16  31  54  87 115 146 202 259 281 351
#     4  11  21  38  67  92 118 166 215 255 315 380
#     4   9  20  35  56  86 123 155 204 247 301 370
#     4  11  23  40  61  92 131 163 201 267 326 365
#
# _framework density 19.762815
#
# number of rings (size 3 to 8) (size 9 to 14) (size 15 to 20)
#    0.000    2.000    2.000    4.800    0.000    0.800 
#    0.000    4.000    0.000    0.000    0.000    0.000 
#    0.000    0.000    0.000    0.000    0.000    0.000 
#
# Total GULP energy -222777.974899 kJ/mol
# GULP energy per Si atom -5569.449372 kJ/mol
# Density = 1.971783 g / cm^3
# Si number density = 19.762815 Si / 1000 Ang^3
#
#
#
# Elastic Constant Matrix: (Units=GPa)
#
#
# Indices 1 2 3 4 5 6 
#
# 1 46.7312 4.8265 27.5930 0.0000 0.0000 0.0000
# 2 4.8265 109.2092 26.9019 0.0000 0.0000 0.0000
# 3 27.5930 26.9019 146.3170 0.0000 0.0000 0.0000
# 4 0.0000 0.0000 0.0000 26.4802 0.0000 0.0000
# 5 0.0000 0.0000 0.0000 0.0000 7.6892 0.0000
# 6 0.0000 0.0000 0.0000 0.0000 0.0000 18.9851
#
#
#
# Elastic Compliance Matrix: (Units=1/GPa)
#
#
# Indices 1 2 3 4 5 6 
#
# 1 0.024081 0.000057 -0.004552 0.000000 0.000000 0.000000
# 2 0.000057 0.009591 -0.001774 0.000000 0.000000 0.000000
# 3 -0.004552 -0.001774 0.008019 0.000000 0.000000 0.000000
# 4 0.000000 0.000000 0.000000 0.037764 0.000000 0.000000
# 5 0.000000 0.000000 0.000000 0.000000 0.130053 0.000000
# 6 0.000000 0.000000 0.000000 0.000000 0.000000 0.052673
#
#
# Mechanical properties :
#
#
# Convention : Reuss Voigt Hill
#
# Bulk Modulus (GPa) = 34.30157 46.76669 40.53413
# Shear Modulus (GPa) = 17.57862 26.82663 22.20263
#
# Velocity S-wave (km/s) = 2.98565 3.68833 3.35543
# Velocity P-wave (km/s) = 5.41108 6.46944 5.96379
#
# Compressibility (1/GPa) = 0.02915318
#
# Stress axis : x y z
#
# Youngs Moduli (GPa) = 41.52706 104.26155 124.70293
#
# Poissons Ratio (x) = -0.00594 0.56761
# Poissons Ratio (y) = -0.00237 0.22125
# Poissons Ratio (z) = 0.18902 0.18498
#
# Static dielectric constant tensor:
#      x y z
#    x 1.720900 0.000000 0.000000 
#    y 0.000000 1.773910 0.000000 
#    z 0.000000 0.000000 1.731870 
# 
# From -- ./inp_files/12075.got.cif
#   From: 2010.05.17/outbox.cif.g08.bks.cpg/sg56_7_cif.got.tgz:12075.got - 2010.06.03 13:42:01.
