data_PCOD9429938
_publ_section_title
;
Structure prediction by ZEFSAII (Michael W. Deem and Ramdas Pophale) SiO2 
 PCOD9429938
Probable space group: P C C N
;
_chemical_formula_sum "Si O2"
_cell_formula_units_Z 48
_cell_length_a 10.179427
_cell_length_b 16.833393
_cell_length_c 12.025275
_cell_angle_alpha 90.000000
_cell_angle_beta 90.000000
_cell_angle_gamma 90.000000
_cell_volume 2060.582522
_symmetry_space_group_name_H-M "P C C N"
_symmetry_group_IT_number 56
_symmetry_cell_setting 'orthorhombic'
loop_
_space_group_symop_operation_xyz
x,y,z
1/2-x,1/2-y,z
1/2+x,-y,1/2-z
-x,1/2+y,1/2-z
-x,-y,-z
1/2+x,1/2+y,-z
1/2-x,y,1/2+z
x,1/2-y,1/2+z
loop_
_atom_site_type_symbol
_atom_site_label
_atom_site_fract_x
_atom_site_fract_y
_atom_site_fract_z
Si Si1 0.386505 0.400144 0.202197
Si Si2 0.699711 0.053673 0.185914
Si Si3 0.508724 0.158521 0.289446
Si Si4 0.400369 0.899243 0.470797
Si Si5 0.614911 0.171994 0.823457
Si Si6 0.750000 0.750000 0.776770
Si Si7 0.750000 0.250000 0.021979
O O1 0.300858 0.469895 0.252221
O O2 0.482307 0.430466 0.105999
O O3 0.474554 0.368616 0.305376
O O4 0.319924 0.320268 0.156349
O O5 0.556369 0.096246 0.194638
O O6 0.772782 0.049981 0.066873
O O7 0.787442 0.112193 0.262206
O O8 0.546680 0.116015 0.405720
O O9 0.598941 0.237499 0.280699
O O10 0.362828 0.197210 0.285882
O O11 0.356597 0.810217 0.428781
O O12 0.666430 0.188853 0.946569
#
# Coordination Sequence:
#
# PCOD9429938 Si02
#       7
#     8   8   8   8   8   4   4
#     4  10  24  38  60  92 135 170 216 265 339 404
#     4  11  21  38  64  95 131 168 219 279 328 391
#     4  10  21  42  67  93 130 173 219 280 329 396
#     4  10  23  38  68  94 119 173 227 259 328 398
#     4   9  18  39  60  89 126 161 216 279 315 371
#     4  10  24  42  62  90 138 180 208 284 344 386
#     4  10  18  38  68  96 112 164 232 268 314 382
#
# _framework density 23.294384999999998
#
# number of rings (size 3 to 8) (size 9 to 14) (size 15 to 20)
#    0.000    2.000    3.333    0.000   11.667    1.333 
#    0.000    0.833    0.000    0.000    0.000    0.000 
#    0.000    0.000    0.000    0.000    0.000    0.000 
#
# Total GULP energy -267263.046258 kJ/mol
# GULP energy per Si atom -5567.980130 kJ/mol
# Density = 2.324137 g / cm^3
# Si number density = 23.294385 Si / 1000 Ang^3
#
#
#
# Elastic Constant Matrix: (Units=GPa)
#
#
# Indices 1 2 3 4 5 6 
#
# 1 78.0855 21.2826 11.7529 0.0000 0.0000 0.0000
# 2 21.2826 109.2640 2.7644 0.0000 0.0000 0.0000
# 3 11.7529 2.7644 52.9512 0.0000 0.0000 0.0000
# 4 0.0000 0.0000 0.0000 30.6823 0.0000 0.0000
# 5 0.0000 0.0000 0.0000 0.0000 15.4803 0.0000
# 6 0.0000 0.0000 0.0000 0.0000 0.0000 36.0112
#
#
#
# Elastic Compliance Matrix: (Units=1/GPa)
#
#
# Indices 1 2 3 4 5 6 
#
# 1 0.013974 -0.002647 -0.002963 0.000000 0.000000 0.000000
# 2 -0.002647 0.009666 0.000083 0.000000 0.000000 0.000000
# 3 -0.002963 0.000083 0.019539 0.000000 0.000000 0.000000
# 4 0.000000 0.000000 0.000000 0.032592 0.000000 0.000000
# 5 0.000000 0.000000 0.000000 0.000000 0.064598 0.000000
# 6 0.000000 0.000000 0.000000 0.000000 0.000000 0.027769
#
#
# Mechanical properties :
#
#
# Convention : Reuss Voigt Hill
#
# Bulk Modulus (GPa) = 31.12993 34.65561 32.89277
# Shear Modulus (GPa) = 26.32961 30.06815 28.19888
#
# Velocity S-wave (km/s) = 3.36564 3.59665 3.48306
# Velocity P-wave (km/s) = 5.33817 5.67075 5.50697
#
# Compressibility (1/GPa) = 0.03212343
#
# Stress axis : x y z
#
# Youngs Moduli (GPa) = 71.56176 103.45951 51.18037
#
# Poissons Ratio (x) = 0.27385 0.15167
# Poissons Ratio (y) = 0.18942 -0.00424
# Poissons Ratio (z) = 0.21207 -0.00858
#
# Static dielectric constant tensor:
#      x y z
#    x 2.027830 0.000000 0.000000 
#    y 0.000000 1.894110 0.000000 
#    z 0.000000 0.000000 1.927590 
# 
# From -- ./inp_files/11656.got.cif
#   From: 2010.05.17/outbox.cif.g08.bks.cpg/sg56_6_cif.got.tgz:11656.got - 2010.06.03 13:42:01.
