data_PCOD9429393
_publ_section_title
;
Structure prediction by ZEFSAII (Michael W. Deem and Ramdas Pophale) SiO2 
 PCOD9429393
Probable space group: P B A M
;
_chemical_formula_sum "Si O2"
_cell_formula_units_Z 64
_cell_length_a 9.000000
_cell_length_b 18.000000
_cell_length_c 21.000000
_cell_angle_alpha 90.000000
_cell_angle_beta 90.000000
_cell_angle_gamma 90.000000
_cell_volume 3402.000000
_symmetry_space_group_name_H-M "P B A M"
_symmetry_group_IT_number 55
_symmetry_cell_setting 'orthorhombic'
loop_
_space_group_symop_operation_xyz
x,y,z
-x,-y,z
1/2+x,1/2-y,-z
1/2-x,1/2+y,-z
-x,-y,-z
x,y,-z
1/2-x,1/2+y,z
1/2+x,1/2-y,z
loop_
_atom_site_type_symbol
_atom_site_label
_atom_site_fract_x
_atom_site_fract_y
_atom_site_fract_z
Si Si1 0.413385 0.386695 0.428283
Si Si2 0.154686 0.642388 0.318999
Si Si3 0.482446 0.714341 0.681982
Si Si4 0.423328 0.418470 0.074761
Si Si5 0.742802 0.461429 0.428139
Si Si6 0.170283 0.519860 0.928702
Si Si7 0.520505 0.289152 0.171395
Si Si8 0.839650 0.351117 0.826885
O O1 0.390781 0.355659 0.500000
O O2 0.422252 0.329467 0.370653
O O3 0.577814 0.424290 0.428418
O O4 0.293042 0.451725 0.417813
O O5 0.018821 0.699195 0.328792
O O6 0.310512 0.689075 0.324391
O O7 0.166592 0.578184 0.371876
O O8 0.145097 0.617506 0.245015
O O9 0.529570 0.696817 0.755105
O O10 0.500000 0.500000 0.086316
O O11 0.254571 0.443365 0.085450
O O12 0.466371 0.352246 0.122007
O O13 0.445895 0.398990 0.000000
O O14 0.804300 0.451227 0.500000
O O15 0.190447 0.583883 0.876987
O O16 0.000000 0.500000 0.930726
O O17 0.219226 0.544425 0.000000
O O18 0.471841 0.205251 0.155685
O O19 0.697060 0.297502 0.172946
#
# Coordination Sequence:
#
# PCOD9429393 Si02
#       8
#     8   8   8   8   8   8   8   8
#     4   8  14  26  45  71  98 125 165 211 250 292
#     4   9  18  32  50  70 102 131 167 205 250 296
#     4   9  18  32  48  72  99 132 164 209 249 298
#     4  10  20  37  57  77 104 135 171 215 257 305
#     4   8  14  26  46  71  98 127 163 210 253 292
#     4  10  22  39  57  79 107 136 170 215 262 311
#     4  10  21  35  53  78 106 140 175 216 262 311
#     4  10  21  36  54  77 108 139 175 216 259 312
#
# _framework density 18.812463000000001
#
# number of rings (size 3 to 8) (size 9 to 14) (size 15 to 20)
#    0.000    2.750    1.250    0.750    1.750    2.000 
#    2.250    0.000    0.000    0.000    0.000    1.750 
#    0.000    0.000    0.000    0.000    0.000    0.000 
#
# Total GULP energy -356439.359134 kJ/mol
# GULP energy per Si atom -5569.364986 kJ/mol
# Density = 1.876965 g / cm^3
# Si number density = 18.812463 Si / 1000 Ang^3
#
#
#
# Elastic Constant Matrix: (Units=GPa)
#
#
# Indices 1 2 3 4 5 6 
#
# 1 27.7887 -9.7022 -7.3175 0.0000 0.0000 0.0000
# 2 -9.7022 26.6281 29.9704 0.0000 0.0000 0.0000
# 3 -7.3175 29.9704 85.0535 0.0000 0.0000 0.0000
# 4 0.0000 0.0000 0.0000 34.8778 0.0000 0.0000
# 5 0.0000 0.0000 0.0000 0.0000 15.9875 0.0000
# 6 0.0000 0.0000 0.0000 0.0000 0.0000 24.8353
#
#
#
# Elastic Compliance Matrix: (Units=1/GPa)
#
#
# Indices 1 2 3 4 5 6 
#
# 1 0.041665 0.018473 -0.002925 0.000000 0.000000 0.000000
# 2 0.018473 0.070428 -0.023228 0.000000 0.000000 0.000000
# 3 -0.002925 -0.023228 0.019690 0.000000 0.000000 0.000000
# 4 0.000000 0.000000 0.000000 0.028672 0.000000 0.000000
# 5 0.000000 0.000000 0.000000 0.000000 0.062549 0.000000
# 6 0.000000 0.000000 0.000000 0.000000 0.000000 0.040265
#
#
# Mechanical properties :
#
#
# Convention : Reuss Voigt Hill
#
# Bulk Modulus (GPa) = 8.58920 18.37464 13.48192
# Shear Modulus (GPa) = 15.75118 23.57475 19.66297
#
# Velocity S-wave (km/s) = 2.89671 3.54382 3.23648
# Velocity P-wave (km/s) = 3.97033 5.15105 4.59874
#
# Compressibility (1/GPa) = 0.11642523
#
# Stress axis : x y z
#
# Youngs Moduli (GPa) = 24.00078 14.19888 50.78622
#
# Poissons Ratio (x) = -0.26230 0.14853
# Poissons Ratio (y) = -0.44337 1.17964
# Poissons Ratio (z) = 0.07020 0.32980
#
# Static dielectric constant tensor:
#      x y z
#    x 1.752440 0.000000 0.000000 
#    y 0.000000 1.623840 0.000000 
#    z 0.000000 0.000000 1.663070 
# 
# From -- ./inp_files/22715.got.cif
#   From: 2010.05.17/outbox.ucp.g08.bks.cvg/sg55_12_cif.got.tgz:22715.got - 2010.06.11 16:36:00.
