data_PCOD9429769
_publ_section_title
;
Structure prediction by ZEFSAII (Michael W. Deem and Ramdas Pophale) SiO2 
 PCOD9429769
Probable space group: P C C N
;
_chemical_formula_sum "Si O2"
_cell_formula_units_Z 48
_cell_length_a 8.047314
_cell_length_b 18.667651
_cell_length_c 15.984822
_cell_angle_alpha 90.000000
_cell_angle_beta 90.000000
_cell_angle_gamma 90.000000
_cell_volume 2401.311081
_symmetry_space_group_name_H-M "P C C N"
_symmetry_group_IT_number 56
_symmetry_cell_setting 'orthorhombic'
loop_
_space_group_symop_operation_xyz
x,y,z
1/2-x,1/2-y,z
1/2+x,-y,1/2-z
-x,1/2+y,1/2-z
-x,-y,-z
1/2+x,1/2+y,-z
1/2-x,y,1/2+z
x,1/2-y,1/2+z
loop_
_atom_site_type_symbol
_atom_site_label
_atom_site_fract_x
_atom_site_fract_y
_atom_site_fract_z
Si Si1 0.087524 0.351065 0.786045
Si Si2 0.190541 0.324204 0.121535
Si Si3 0.298784 0.480854 0.564340
Si Si4 0.574608 0.211524 0.253065
Si Si5 0.732558 0.431755 0.780145
Si Si6 0.327064 0.477812 0.386901
O O1 0.187447 0.343284 0.699513
O O2 0.191640 0.396814 0.852861
O O3 0.033296 0.269324 0.804667
O O4 0.917655 0.397239 0.776128
O O5 0.250000 0.250000 0.080942
O O6 0.184735 0.395120 0.067307
O O7 0.016878 0.306350 0.166427
O O8 0.204052 0.512763 0.644331
O O9 0.232211 0.498663 0.471981
O O10 0.482034 0.512659 0.583204
O O11 0.750000 0.250000 0.237215
O O12 0.610991 0.135258 0.293694
O O13 0.702815 0.471192 0.692239
#
# Coordination Sequence:
#
# PCOD9429769 Si02
#       6
#     8   8   8   8   8   8
#     4   9  19  33  56  80 110 149 185 230 285 337
#     4  10  18  33  55  78 110 144 182 227 284 335
#     4  10  20  33  57  83 111 149 186 230 286 344
#     4   9  18  33  58  81 105 148 190 227 282 340
#     4  10  18  34  59  81 111 145 189 236 279 336
#     4  10  19  34  57  83 112 149 189 229 287 342
#
# _framework density 19.989080999999999
#
# number of rings (size 3 to 8) (size 9 to 14) (size 15 to 20)
#    0.000    2.333    3.333    0.000    0.000    0.000 
#    0.000    3.333   11.000    0.000    0.000    0.000 
#    0.000    0.000    0.000    0.000    0.000    0.000 
#
# Total GULP energy -267322.212960 kJ/mol
# GULP energy per Si atom -5569.212770 kJ/mol
# Density = 1.994359 g / cm^3
# Si number density = 19.989081 Si / 1000 Ang^3
#
#
#
# Elastic Constant Matrix: (Units=GPa)
#
#
# Indices 1 2 3 4 5 6 
#
# 1 26.4080 4.2605 0.7510 0.0000 0.0000 0.0000
# 2 4.2605 127.7072 47.8836 0.0000 0.0000 0.0000
# 3 0.7510 47.8836 115.2638 0.0000 0.0000 0.0000
# 4 0.0000 0.0000 0.0000 11.8167 0.0000 0.0000
# 5 0.0000 0.0000 0.0000 0.0000 -27.8704 0.0000
# 6 0.0000 0.0000 0.0000 0.0000 0.0000 19.3262
#
#
#
# Elastic Compliance Matrix: (Units=1/GPa)
#
#
# Indices 1 2 3 4 5 6 
#
# 1 0.038083 -0.001395 0.000331 0.000000 0.000000 0.000000
# 2 -0.001395 0.009326 -0.003865 0.000000 0.000000 0.000000
# 3 0.000331 -0.003865 0.010279 0.000000 0.000000 0.000000
# 4 0.000000 0.000000 0.000000 0.084626 0.000000 0.000000
# 5 0.000000 0.000000 0.000000 0.000000 -0.035880 0.000000
# 6 0.000000 0.000000 0.000000 0.000000 0.000000 0.051743
#
#
# Mechanical properties :
#
#
# Convention : Reuss Voigt Hill
#
# Bulk Modulus (GPa) = 20.90696 41.68549 31.29622
# Shear Modulus (GPa) = 27.17713 15.08677 21.13195
#
# Velocity S-wave (km/s) = 3.69127 2.75025 3.25495
# Velocity P-wave (km/s) = 5.35250 5.56638 5.46049
#
# Compressibility (1/GPa) = 0.04783097
#
# Stress axis : x y z
#
# Youngs Moduli (GPa) = 26.25853 107.22459 97.28265
#
# Poissons Ratio (x) = 0.14955 -0.03223
# Poissons Ratio (y) = 0.03662 0.37602
# Poissons Ratio (z) = -0.00870 0.41445
#
# Static dielectric constant tensor:
#      x y z
#    x 1.782500 0.000000 0.000000 
#    y 0.000000 1.730880 0.000000 
#    z 0.000000 0.000000 1.718680 
# 
# From -- ./inp_files/10696.got.cif
#   From: 2010.05.17/outbox.cif.g08.bks.cpg/sg56_6_cif.got.tgz:10696.got - 2010.06.03 13:42:01.
