data_PCOD9429918
_publ_section_title
;
Structure prediction by ZEFSAII (Michael W. Deem and Ramdas Pophale) SiO2 
 PCOD9429918
Probable space group: P C C N
;
_chemical_formula_sum "Si O2"
_cell_formula_units_Z 44
_cell_length_a 13.635498
_cell_length_b 9.562243
_cell_length_c 17.700390
_cell_angle_alpha 90.000000
_cell_angle_beta 90.000000
_cell_angle_gamma 90.000000
_cell_volume 2307.882082
_symmetry_space_group_name_H-M "P C C N"
_symmetry_group_IT_number 56
_symmetry_cell_setting 'orthorhombic'
loop_
_space_group_symop_operation_xyz
x,y,z
1/2-x,1/2-y,z
1/2+x,-y,1/2-z
-x,1/2+y,1/2-z
-x,-y,-z
1/2+x,1/2+y,-z
1/2-x,y,1/2+z
x,1/2-y,1/2+z
loop_
_atom_site_type_symbol
_atom_site_label
_atom_site_fract_x
_atom_site_fract_y
_atom_site_fract_z
Si Si1 0.250000 0.250000 0.674867
Si Si2 0.121347 0.382265 0.050153
Si Si3 0.647880 0.670043 0.083042
Si Si4 0.557858 0.706260 0.728202
Si Si5 0.448349 0.906107 0.836692
Si Si6 0.271070 0.591285 0.439940
O O1 0.301034 0.358582 0.617718
O O2 0.160991 0.302022 0.726675
O O3 0.017414 0.401768 0.089510
O O4 0.117119 0.247413 0.994501
O O5 0.162741 0.508864 0.000687
O O6 0.750000 0.750000 0.102579
O O7 0.576019 0.703913 0.151927
O O8 0.676466 0.508327 0.072030
O O9 0.480138 0.780626 0.782460
O O10 0.529151 0.551443 0.704321
O O11 0.336482 0.904285 0.863997
O O12 0.250000 0.750000 0.462344
#
# Coordination Sequence:
#
# PCOD9429918 Si02
#       6
#     4   8   8   8   8   8
#     4  10  18  38  64  84 114 164 208 230 296 394
#     4  10  20  41  66  85 114 164 210 242 294 372
#     4  10  18  39  66  80 113 170 200 233 306 371
#     4  11  22  38  61  89 123 160 199 247 310 363
#     4  11  24  40  61  92 124 159 201 254 305 365
#     4  11  22  38  62  91 118 152 205 262 299 349
#
# _framework density 19.065097999999999
#
# number of rings (size 3 to 8) (size 9 to 14) (size 15 to 20)
#    0.000    1.455    7.273    0.545    2.545    0.000 
#    3.273    0.909    0.000    0.000    0.000    0.000 
#    0.000    0.000    0.000    0.000    0.000    0.000 
#
# Total GULP energy -245535.082118 kJ/mol
# GULP energy per Si atom -5580.342775 kJ/mol
# Density = 1.902170 g / cm^3
# Si number density = 19.065098 Si / 1000 Ang^3
#
#
#
# Elastic Constant Matrix: (Units=GPa)
#
#
# Indices 1 2 3 4 5 6 
#
# 1 35.4691 33.8326 30.1009 0.0000 0.0000 0.0000
# 2 33.8326 113.1618 33.6529 0.0000 0.0000 0.0000
# 3 30.1009 33.6529 100.9760 0.0000 0.0000 0.0000
# 4 0.0000 0.0000 0.0000 15.8444 0.0000 0.0000
# 5 0.0000 0.0000 0.0000 0.0000 11.7479 0.0000
# 6 0.0000 0.0000 0.0000 0.0000 0.0000 13.7026
#
#
#
# Elastic Compliance Matrix: (Units=1/GPa)
#
#
# Indices 1 2 3 4 5 6 
#
# 1 0.047757 -0.011149 -0.010520 0.000000 0.000000 0.000000
# 2 -0.011149 0.012412 -0.000813 0.000000 0.000000 0.000000
# 3 -0.010520 -0.000813 0.013310 0.000000 0.000000 0.000000
# 4 0.000000 0.000000 0.000000 0.063114 0.000000 0.000000
# 5 0.000000 0.000000 0.000000 0.000000 0.085122 0.000000
# 6 0.000000 0.000000 0.000000 0.000000 0.000000 0.072979
#
#
# Mechanical properties :
#
#
# Convention : Reuss Voigt Hill
#
# Bulk Modulus (GPa) = 35.07107 49.41998 42.24552
# Shear Modulus (GPa) = 14.31991 18.39367 16.35679
#
# Velocity S-wave (km/s) = 2.74361 3.10946 2.93225
# Velocity P-wave (km/s) = 5.33590 6.23455 5.80265
#
# Compressibility (1/GPa) = 0.02851353
#
# Stress axis : x y z
#
# Youngs Moduli (GPa) = 20.93940 80.56652 75.12900
#
# Poissons Ratio (x) = 0.89827 0.79039
# Poissons Ratio (y) = 0.23346 0.06108
# Poissons Ratio (z) = 0.22029 0.06550
#
# Static dielectric constant tensor:
#      x y z
#    x 1.672030 0.000000 0.000000 
#    y 0.000000 1.652790 0.000000 
#    z 0.000000 0.000000 1.670000 
# 
# From -- ./inp_files/14676.got.cif
#   From: 2010.05.17/outbox.cif.g08.bks.cpg/sg56_8_cif.got.tgz:14676.got - 2010.06.03 13:42:01.
