data_PCOD9429633
_publ_section_title
;
Structure prediction by ZEFSAII (Michael W. Deem and Ramdas Pophale) SiO2 
 PCOD9429633
Probable space group: P C C N
;
_chemical_formula_sum "Si O2"
_cell_formula_units_Z 32
_cell_length_a 7.775132
_cell_length_b 5.375076
_cell_length_c 35.980288
_cell_angle_alpha 90.000000
_cell_angle_beta 90.000000
_cell_angle_gamma 90.000000
_cell_volume 1503.685512
_symmetry_space_group_name_H-M "P C C N"
_symmetry_group_IT_number 56
_symmetry_cell_setting 'orthorhombic'
loop_
_space_group_symop_operation_xyz
x,y,z
1/2-x,1/2-y,z
1/2+x,-y,1/2-z
-x,1/2+y,1/2-z
-x,-y,-z
1/2+x,1/2+y,-z
1/2-x,y,1/2+z
x,1/2-y,1/2+z
loop_
_atom_site_type_symbol
_atom_site_label
_atom_site_fract_x
_atom_site_fract_y
_atom_site_fract_z
Si Si1 0.635790 0.001770 0.033180
Si Si2 0.074531 0.386023 0.263665
Si Si3 0.953503 0.006027 0.617782
Si Si4 0.440513 0.492157 0.850838
O O1 0.750000 0.750000 0.032495
O O2 0.546069 0.016579 0.073510
O O3 0.750000 0.250000 0.029795
O O4 0.500000 0.000000 0.000000
O O5 0.250000 0.250000 0.252314
O O6 0.077997 0.458983 0.306978
O O7 0.051920 0.649912 0.242875
O O8 0.029844 0.749678 0.632381
O O9 0.026339 0.251121 0.637096
O O10 0.751976 0.999586 0.631163
#
# Coordination Sequence:
#
# PCOD9429633 Si02
#       4
#     8   8   8   8
#     4  12  23  40  64 102 133 167 210 271 320 379
#     4  12  25  40  64  98 131 165 212 271 328 377
#     4  10  17  34  63  90 111 162 233 246 279 375
#     4  10  18  34  63  88 112 161 229 250 280 376
#
# _framework density 21.281047000000001
#
# number of rings (size 3 to 8) (size 9 to 14) (size 15 to 20)
#    0.000    1.000    7.500    3.000    3.500    0.000 
#    0.000    0.000    0.000   15.000    0.000    0.000 
#    0.000    0.000    0.000    0.000    0.000    0.000 
#
# Total GULP energy -178666.789667 kJ/mol
# GULP energy per Si atom -5583.337177 kJ/mol
# Density = 2.123261 g / cm^3
# Si number density = 21.281047 Si / 1000 Ang^3
#
#
#
# Elastic Constant Matrix: (Units=GPa)
#
#
# Indices 1 2 3 4 5 6 
#
# 1 24.4834 4.6442 -5.9107 0.0000 0.0000 0.0000
# 2 4.6442 193.1199 -2.7498 0.0000 0.0000 0.0000
# 3 -5.9107 -2.7498 78.5433 0.0000 0.0000 0.0000
# 4 0.0000 0.0000 0.0000 38.2533 0.0000 0.0000
# 5 0.0000 0.0000 0.0000 0.0000 19.6440 0.0000
# 6 0.0000 0.0000 0.0000 0.0000 0.0000 15.9695
#
#
#
# Elastic Compliance Matrix: (Units=1/GPa)
#
#
# Indices 1 2 3 4 5 6 
#
# 1 0.041777 -0.000960 0.003110 0.000000 0.000000 0.000000
# 2 -0.000960 0.005203 0.000110 0.000000 0.000000 0.000000
# 3 0.003110 0.000110 0.012970 0.000000 0.000000 0.000000
# 4 0.000000 0.000000 0.000000 0.026142 0.000000 0.000000
# 5 0.000000 0.000000 0.000000 0.000000 0.050906 0.000000
# 6 0.000000 0.000000 0.000000 0.000000 0.000000 0.062619
#
#
# Mechanical properties :
#
#
# Convention : Reuss Voigt Hill
#
# Bulk Modulus (GPa) = 15.51133 32.01267 23.76200
# Shear Modulus (GPa) = 23.08542 34.78422 28.93482
#
# Velocity S-wave (km/s) = 3.29719 4.04730 3.69135
# Velocity P-wave (km/s) = 4.66903 6.07588 5.41831
#
# Compressibility (1/GPa) = 0.06446902
#
# Stress axis : x y z
#
# Youngs Moduli (GPa) = 23.93663 192.20459 77.10260
#
# Poissons Ratio (x) = 0.18459 -0.23981
# Poissons Ratio (y) = 0.02299 -0.00847
# Poissons Ratio (z) = -0.07445 -0.02112
#
# Static dielectric constant tensor:
#      x y z
#    x 1.782210 0.000000 0.000000 
#    y 0.000000 1.788250 0.000000 
#    z 0.000000 0.000000 1.719010 
# 
# From -- ./inp_files/22641.got.cif
#   From: 2010.05.17/outbox.cif.g08.bks.cpg/sg56_12_cif.got.tgz:22641.got - 2010.06.03 13:42:01.
