data_PCOD9429349
_publ_section_title
;
Structure prediction by ZEFSAII (Michael W. Deem and Ramdas Pophale) SiO2 
 PCOD9429349
Probable space group: P B A M
;
_chemical_formula_sum "Si O2"
_cell_formula_units_Z 48
_cell_length_a 15.000000
_cell_length_b 9.000000
_cell_length_c 18.000000
_cell_angle_alpha 90.000000
_cell_angle_beta 90.000000
_cell_angle_gamma 90.000000
_cell_volume 2430.000000
_symmetry_space_group_name_H-M "P B A M"
_symmetry_group_IT_number 55
_symmetry_cell_setting 'orthorhombic'
loop_
_space_group_symop_operation_xyz
x,y,z
-x,-y,z
1/2+x,1/2-y,-z
1/2-x,1/2+y,-z
-x,-y,-z
x,y,-z
1/2-x,1/2+y,z
1/2+x,1/2-y,z
loop_
_atom_site_type_symbol
_atom_site_label
_atom_site_fract_x
_atom_site_fract_y
_atom_site_fract_z
Si Si1 0.176477 0.173910 0.678355
Si Si2 0.633889 0.677237 0.325329
Si Si3 0.547508 0.662125 0.835104
Si Si4 0.020861 0.329587 0.411505
Si Si5 0.784545 0.035789 0.913301
Si Si6 0.859924 0.733217 0.848016
O O1 0.278155 0.222910 0.665546
O O2 0.109959 0.264595 0.625400
O O3 0.152833 0.222725 0.762195
O O4 0.160154 0.997105 0.670646
O O5 0.588551 0.703313 0.244668
O O6 0.560240 0.725577 0.384747
O O7 0.500000 0.500000 0.827327
O O8 0.631239 0.638488 0.889362
O O9 0.466579 0.767920 0.860837
O O10 0.029091 0.327710 0.500000
O O11 0.000000 0.500000 0.387965
O O12 0.697655 0.088487 0.867798
O O13 0.815608 0.868985 0.893901
O O14 0.766520 0.050099 0.000000
#
# Coordination Sequence:
#
# PCOD9429349 Si02
#       6
#     8   8   8   8   8   8
#     4  12  22  40  70  98 131 179 227 274 331 402
#     4  12  22  41  68  99 133 172 226 277 329 400
#     4  10  19  37  62  90 122 166 221 263 320 390
#     4  11  26  46  68 101 138 173 219 279 344 401
#     4  11  23  38  61  92 129 169 215 273 329 384
#     4  11  21  40  63  90 126 171 217 269 326 399
#
# _framework density 19.753086
#
# number of rings (size 3 to 8) (size 9 to 14) (size 15 to 20)
#    0.000    0.833    6.667    2.000    0.000    5.667 
#    0.000    0.833    0.000    2.000    0.000    0.000 
#    0.000    0.000    0.000    0.000    0.000    0.000 
#
# Total GULP energy -268454.422286 kJ/mol
# GULP energy per Si atom -5592.800464 kJ/mol
# Density = 1.970813 g / cm^3
# Si number density = 19.753086 Si / 1000 Ang^3
#
#
#
# Elastic Constant Matrix: (Units=GPa)
#
#
# Indices 1 2 3 4 5 6 
#
# 1 88.7188 13.3327 21.8807 0.0000 0.0000 0.0000
# 2 13.3327 62.0272 26.7825 0.0000 0.0000 0.0000
# 3 21.8807 26.7825 79.0256 0.0000 0.0000 0.0000
# 4 0.0000 0.0000 0.0000 22.6853 0.0000 0.0000
# 5 0.0000 0.0000 0.0000 0.0000 26.4194 0.0000
# 6 0.0000 0.0000 0.0000 0.0000 0.0000 33.7587
#
#
#
# Elastic Compliance Matrix: (Units=1/GPa)
#
#
# Indices 1 2 3 4 5 6 
#
# 1 0.012195 -0.001363 -0.002915 0.000000 0.000000 0.000000
# 2 -0.001363 0.019038 -0.006075 0.000000 0.000000 0.000000
# 3 -0.002915 -0.006075 0.015520 0.000000 0.000000 0.000000
# 4 0.000000 0.000000 0.000000 0.044081 0.000000 0.000000
# 5 0.000000 0.000000 0.000000 0.000000 0.037851 0.000000
# 6 0.000000 0.000000 0.000000 0.000000 0.000000 0.029622
#
#
# Mechanical properties :
#
#
# Convention : Reuss Voigt Hill
#
# Bulk Modulus (GPa) = 38.39005 39.30703 38.84854
# Shear Modulus (GPa) = 26.63899 27.75775 27.19837
#
# Velocity S-wave (km/s) = 3.67631 3.75271 3.71471
# Velocity P-wave (km/s) = 6.12352 6.22250 6.17321
#
# Compressibility (1/GPa) = 0.02604842
#
# Stress axis : x y z
#
# Youngs Moduli (GPa) = 81.99922 52.52681 64.43311
#
# Poissons Ratio (x) = 0.07158 0.18781
# Poissons Ratio (y) = 0.11175 0.39142
# Poissons Ratio (z) = 0.23901 0.31909
#
# Static dielectric constant tensor:
#      x y z
#    x 1.697200 0.000000 0.000000 
#    y 0.000000 1.711240 0.000000 
#    z 0.000000 0.000000 1.670660 
# 
# From -- ./inp_files/21489.got.cif
#   From: 2010.05.17/outbox.ucp.g08.bks.cvg/sg55_11_cif.got.tgz:21489.got - 2010.06.11 16:36:00.
