data_PCOD9429568
_publ_section_title
;
Structure prediction by ZEFSAII (Michael W. Deem and Ramdas Pophale) SiO2 
 PCOD9429568
Probable space group: P C C N
;
_chemical_formula_sum "Si O2"
_cell_formula_units_Z 60
_cell_length_a 7.642488
_cell_length_b 12.220214
_cell_length_c 28.000245
_cell_angle_alpha 90.000000
_cell_angle_beta 90.000000
_cell_angle_gamma 90.000000
_cell_volume 2615.022369
_symmetry_space_group_name_H-M "P C C N"
_symmetry_group_IT_number 56
_symmetry_cell_setting 'orthorhombic'
loop_
_space_group_symop_operation_xyz
x,y,z
1/2-x,1/2-y,z
1/2+x,-y,1/2-z
-x,1/2+y,1/2-z
-x,-y,-z
1/2+x,1/2+y,-z
1/2-x,y,1/2+z
x,1/2-y,1/2+z
loop_
_atom_site_type_symbol
_atom_site_label
_atom_site_fract_x
_atom_site_fract_y
_atom_site_fract_z
Si Si1 0.250000 0.250000 0.435678
Si Si2 0.913260 0.330362 0.783861
Si Si3 0.606231 0.929797 0.135518
Si Si4 0.245244 0.619510 0.423334
Si Si5 0.698386 0.961628 0.498397
Si Si6 0.330583 0.370100 0.097647
Si Si7 0.148618 0.071852 0.206302
Si Si8 0.095140 0.116457 0.791082
O O1 0.123996 0.174506 0.401132
O O2 0.306557 0.152095 0.471614
O O3 0.750000 0.250000 0.780199
O O4 0.944558 0.414785 0.827725
O O5 0.977607 0.374404 0.732432
O O6 0.063290 0.243092 0.797471
O O7 0.782145 0.926644 0.167298
O O8 0.628387 0.050016 0.111782
O O9 0.250000 0.750000 0.424974
O O10 0.291291 0.559629 0.473276
O O11 0.038984 0.606440 0.410020
O O12 0.755283 0.944254 0.443883
O O13 0.500000 0.000000 0.500000
O O14 0.250000 0.250000 0.088068
O O15 0.309420 0.390468 0.153567
O O16 0.308399 0.095292 0.241301
O O17 0.089091 0.946402 0.207504
#
# Coordination Sequence:
#
# PCOD9429568 Si02
#       8
#     4   8   8   8   8   8   8   8
#     4  10  16  36  70  94 122 176 226 278 334 412
#     4  11  23  40  62  98 137 181 236 292 347 422
#     4  10  19  39  68  93 130 182 225 277 344 417
#     4  10  22  42  66 100 138 178 221 281 361 422
#     4   9  20  36  68  96 129 175 224 276 340 414
#     4  11  21  41  65 101 129 175 236 281 341 416
#     4  11  23  40  62  94 133 182 222 287 350 408
#     4  11  21  42  62  90 132 175 232 277 341 417
#
# _framework density 22.944353
#
# number of rings (size 3 to 8) (size 9 to 14) (size 15 to 20)
#    0.000    1.600    3.333    2.800    0.000    0.533 
#   12.000    0.667    0.000    3.200    0.000    0.000 
#    0.000    0.000    0.000    0.000    0.000    0.000 
#
# Total GULP energy -334372.792033 kJ/mol
# GULP energy per Si atom -5572.879867 kJ/mol
# Density = 2.289213 g / cm^3
# Si number density = 22.944353 Si / 1000 Ang^3
#
#
#
# Elastic Constant Matrix: (Units=GPa)
#
#
# Indices 1 2 3 4 5 6 
#
# 1 53.8839 21.4059 26.4633 0.0000 0.0000 0.0000
# 2 21.4059 157.0934 66.0027 0.0000 0.0000 0.0000
# 3 26.4633 66.0027 162.5297 0.0000 0.0000 0.0000
# 4 0.0000 0.0000 0.0000 17.9582 0.0000 0.0000
# 5 0.0000 0.0000 0.0000 0.0000 17.5855 0.0000
# 6 0.0000 0.0000 0.0000 0.0000 0.0000 33.3548
#
#
#
# Elastic Compliance Matrix: (Units=1/GPa)
#
#
# Indices 1 2 3 4 5 6 
#
# 1 0.020533 -0.001680 -0.002661 0.000000 0.000000 0.000000
# 2 -0.001680 0.007813 -0.002899 0.000000 0.000000 0.000000
# 3 -0.002661 -0.002899 0.007763 0.000000 0.000000 0.000000
# 4 0.000000 0.000000 0.000000 0.055685 0.000000 0.000000
# 5 0.000000 0.000000 0.000000 0.000000 0.056865 0.000000
# 6 0.000000 0.000000 0.000000 0.000000 0.000000 0.029981
#
#
# Mechanical properties :
#
#
# Convention : Reuss Voigt Hill
#
# Bulk Modulus (GPa) = 46.23504 66.80565 56.52034
# Shear Modulus (GPa) = 24.95902 31.08872 28.02387
#
# Velocity S-wave (km/s) = 3.30177 3.68497 3.49862
# Velocity P-wave (km/s) = 5.89324 6.87641 6.40372
#
# Compressibility (1/GPa) = 0.02162862
#
# Stress axis : x y z
#
# Youngs Moduli (GPa) = 48.70307 127.99804 128.81077
#
# Poissons Ratio (x) = 0.21501 0.34276
# Poissons Ratio (y) = 0.08181 0.37344
# Poissons Ratio (z) = 0.12960 0.37109
#
# Static dielectric constant tensor:
#      x y z
#    x 1.970510 0.000000 0.000000 
#    y 0.000000 1.891030 0.000000 
#    z 0.000000 0.000000 1.881060 
# 
# From -- ./inp_files/22110.got.cif
#   From: 2010.05.17/outbox.cif.g08.bks.cpg/sg56_12_cif.got.tgz:22110.got - 2010.06.03 13:42:01.
