data_PCOD9429734
_publ_section_title
;
Structure prediction by ZEFSAII (Michael W. Deem and Ramdas Pophale) SiO2 
 PCOD9429734
Probable space group: P C C N
;
_chemical_formula_sum "Si O2"
_cell_formula_units_Z 56
_cell_length_a 8.558482
_cell_length_b 20.337473
_cell_length_c 14.909511
_cell_angle_alpha 90.000000
_cell_angle_beta 90.000000
_cell_angle_gamma 90.000000
_cell_volume 2595.118124
_symmetry_space_group_name_H-M "P C C N"
_symmetry_group_IT_number 56
_symmetry_cell_setting 'orthorhombic'
loop_
_space_group_symop_operation_xyz
x,y,z
1/2-x,1/2-y,z
1/2+x,-y,1/2-z
-x,1/2+y,1/2-z
-x,-y,-z
1/2+x,1/2+y,-z
1/2-x,y,1/2+z
x,1/2-y,1/2+z
loop_
_atom_site_type_symbol
_atom_site_label
_atom_site_fract_x
_atom_site_fract_y
_atom_site_fract_z
Si Si1 0.735941 0.945075 0.261222
Si Si2 0.523797 0.389672 0.656691
Si Si3 0.316843 0.817264 0.293742
Si Si4 0.377408 0.193200 0.820422
Si Si5 0.315869 0.368474 0.505807
Si Si6 0.218269 0.989140 0.428198
Si Si7 0.013820 0.415121 0.582300
O O1 0.687918 0.873642 0.223849
O O2 0.726843 0.993379 0.177748
O O3 0.625277 0.954505 0.347358
O O4 0.914521 0.941122 0.292216
O O5 0.652834 0.356725 0.720517
O O6 0.396246 0.347965 0.599857
O O7 0.611006 0.425449 0.574578
O O8 0.250000 0.750000 0.334052
O O9 0.444237 0.799300 0.216399
O O10 0.414356 0.862843 0.360378
O O11 0.250000 0.250000 0.800012
O O12 0.371981 0.178079 0.926421
O O13 0.339990 0.445595 0.476994
O O14 0.128648 0.373130 0.519325
O O15 0.385558 0.963284 0.459632
#
# Coordination Sequence:
#
# PCOD9429734 Si02
#       7
#     8   8   8   8   8   8   8
#     4   9  18  33  55  80 107 145 187 223 262 311
#     4  10  20  35  55  82 112 143 180 223 267 317
#     4  10  21  38  58  79 103 137 182 228 269 315
#     4  10  21  38  58  78 104 140 180 223 273 324
#     4  10  21  36  54  80 114 145 175 217 274 329
#     4  10  18  32  53  81 112 146 182 221 264 313
#     4   9  19  34  54  80 110 144 182 221 265 319
#
# _framework density 21.578979
#
# number of rings (size 3 to 8) (size 9 to 14) (size 15 to 20)
#    0.000    2.286    0.000    2.571    0.000    2.286 
#    0.000   12.143    0.000    0.000    0.000    0.000 
#    0.000    0.000    0.000    0.000    0.000    0.000 
#
# Total GULP energy -311760.876964 kJ/mol
# GULP energy per Si atom -5567.158517 kJ/mol
# Density = 2.152986 g / cm^3
# Si number density = 21.578979 Si / 1000 Ang^3
#
#
#
# Elastic Constant Matrix: (Units=GPa)
#
#
# Indices 1 2 3 4 5 6 
#
# 1 145.2009 21.5231 26.6213 0.0000 0.0000 0.0000
# 2 21.5231 47.6696 -6.0448 0.0000 0.0000 0.0000
# 3 26.6213 -6.0448 60.3796 0.0000 0.0000 0.0000
# 4 0.0000 0.0000 0.0000 4.9542 0.0000 0.0000
# 5 0.0000 0.0000 0.0000 0.0000 17.4870 0.0000
# 6 0.0000 0.0000 0.0000 0.0000 0.0000 17.9395
#
#
#
# Elastic Compliance Matrix: (Units=1/GPa)
#
#
# Indices 1 2 3 4 5 6 
#
# 1 0.008262 -0.004246 -0.004068 0.000000 0.000000 0.000000
# 2 -0.004246 0.023430 0.004218 0.000000 0.000000 0.000000
# 3 -0.004068 0.004218 0.018778 0.000000 0.000000 0.000000
# 4 0.000000 0.000000 0.000000 0.201848 0.000000 0.000000
# 5 0.000000 0.000000 0.000000 0.000000 0.057185 0.000000
# 6 0.000000 0.000000 0.000000 0.000000 0.000000 0.055743
#
#
# Mechanical properties :
#
#
# Convention : Reuss Voigt Hill
#
# Bulk Modulus (GPa) = 23.65355 37.49436 30.57396
# Shear Modulus (GPa) = 12.90218 22.15284 17.52751
#
# Velocity S-wave (km/s) = 2.44786 3.20753 2.85309
# Velocity P-wave (km/s) = 4.35598 5.57949 5.00526
#
# Compressibility (1/GPa) = 0.04227696
#
# Stress axis : x y z
#
# Youngs Moduli (GPa) = 121.03224 42.68065 53.25465
#
# Poissons Ratio (x) = 0.18123 0.21664
# Poissons Ratio (y) = 0.51394 -0.22462
# Poissons Ratio (z) = 0.49235 -0.18002
#
# Static dielectric constant tensor:
#      x y z
#    x 1.864770 0.000000 0.000000 
#    y 0.000000 1.832830 0.000000 
#    z 0.000000 0.000000 1.795200 
# 
# From -- ./inp_files/15184.got.cif
#   From: 2010.05.17/outbox.cif.g08.bks.cpg/sg56_8_cif.got.tgz:15184.got - 2010.06.03 13:42:01.
