data_PCOD9429712
_publ_section_title
;
Structure prediction by ZEFSAII (Michael W. Deem and Ramdas Pophale) SiO2 
 PCOD9429712
Probable space group: P C C N
;
_chemical_formula_sum "Si O2"
_cell_formula_units_Z 56
_cell_length_a 19.167729
_cell_length_b 18.337117
_cell_length_c 9.144806
_cell_angle_alpha 90.000000
_cell_angle_beta 90.000000
_cell_angle_gamma 90.000000
_cell_volume 3214.224545
_symmetry_space_group_name_H-M "P C C N"
_symmetry_group_IT_number 56
_symmetry_cell_setting 'orthorhombic'
loop_
_space_group_symop_operation_xyz
x,y,z
1/2-x,1/2-y,z
1/2+x,-y,1/2-z
-x,1/2+y,1/2-z
-x,-y,-z
1/2+x,1/2+y,-z
1/2-x,y,1/2+z
x,1/2-y,1/2+z
loop_
_atom_site_type_symbol
_atom_site_label
_atom_site_fract_x
_atom_site_fract_y
_atom_site_fract_z
Si Si1 0.750000 0.250000 0.952393
Si Si2 0.460087 0.926913 0.834851
Si Si3 0.530379 0.203507 0.627615
Si Si4 0.655890 0.194020 0.194868
Si Si5 0.472024 0.406173 0.352249
Si Si6 0.750000 0.750000 0.350113
Si Si7 0.152367 0.292426 0.896929
Si Si8 0.958132 0.818259 0.174029
O O1 0.709972 0.194479 0.060299
O O2 0.803540 0.209265 0.844520
O O3 0.393741 0.876345 0.799249
O O4 0.525331 0.897692 0.737286
O O5 0.448455 0.012326 0.813567
O O6 0.480247 0.912308 0.003633
O O7 0.605564 0.237024 0.660063
O O8 0.513865 0.131509 0.720056
O O9 0.512379 0.194702 0.458376
O O10 0.477792 0.264289 0.693242
O O11 0.407567 0.352925 0.390000
O O12 0.697934 0.706571 0.456769
O O13 0.796772 0.701349 0.242029
O O14 0.115325 0.212307 0.883404
#
# Coordination Sequence:
#
# PCOD9429712 Si02
#       8
#     4   8   8   8   8   4   8   8
#     4  10  20  30  52  72  96 134 172 204 242 292
#     4  10  20  34  53  76 103 133 165 210 264 303
#     4  10  18  31  54  77 100 128 163 212 259 296
#     4  10  18  33  50  75 100 129 170 208 244 298
#     4  10  20  34  53  76 103 133 165 210 264 303
#     4  10  20  30  52  72  96 134 172 204 242 292
#     4  10  18  33  50  75 100 129 170 208 244 298
#     4  10  18  31  54  77 100 128 163 212 259 296
#
# _framework density 17.422554999999999
#
# number of rings (size 3 to 8) (size 9 to 14) (size 15 to 20)
#    0.000    2.000    0.000    8.571    0.000    0.571 
#    0.000    1.429    0.000    6.857    0.000    0.000 
#    0.000    0.000    0.000    0.000    0.000    0.000 
#
# Total GULP energy -312250.276838 kJ/mol
# GULP energy per Si atom -5575.897801 kJ/mol
# Density = 1.738290 g / cm^3
# Si number density = 17.422555 Si / 1000 Ang^3
#
#
#
# Elastic Constant Matrix: (Units=GPa)
#
#
# Indices 1 2 3 4 5 6 
#
# 1 69.3371 25.2848 14.4103 0.0000 0.0000 0.0000
# 2 25.2848 93.6819 21.3570 0.0000 0.0000 0.0000
# 3 14.4103 21.3570 80.1962 0.0000 0.0000 0.0000
# 4 0.0000 0.0000 0.0000 17.3397 0.0000 0.0000
# 5 0.0000 0.0000 0.0000 0.0000 33.2863 0.0000
# 6 0.0000 0.0000 0.0000 0.0000 0.0000 17.7041
#
#
#
# Elastic Compliance Matrix: (Units=1/GPa)
#
#
# Indices 1 2 3 4 5 6 
#
# 1 0.016255 -0.003962 -0.001866 0.000000 0.000000 0.000000
# 2 -0.003962 0.012330 -0.002572 0.000000 0.000000 0.000000
# 3 -0.001866 -0.002572 0.013490 0.000000 0.000000 0.000000
# 4 0.000000 0.000000 0.000000 0.057671 0.000000 0.000000
# 5 0.000000 0.000000 0.000000 0.000000 0.030042 0.000000
# 6 0.000000 0.000000 0.000000 0.000000 0.000000 0.056484
#
#
# Mechanical properties :
#
#
# Convention : Reuss Voigt Hill
#
# Bulk Modulus (GPa) = 39.56353 40.59106 40.07729
# Shear Modulus (GPa) = 23.64115 25.81024 24.72569
#
# Velocity S-wave (km/s) = 3.68765 3.85311 3.77128
# Velocity P-wave (km/s) = 6.39446 6.56839 6.48201
#
# Compressibility (1/GPa) = 0.02527580
#
# Stress axis : x y z
#
# Youngs Moduli (GPa) = 61.52034 81.10300 74.13155
#
# Poissons Ratio (x) = 0.32132 0.13831
# Poissons Ratio (y) = 0.24373 0.19064
# Poissons Ratio (z) = 0.11478 0.20857
#
# Static dielectric constant tensor:
#      x y z
#    x 1.631070 0.000000 0.000000 
#    y 0.000000 1.581480 0.000000 
#    z 0.000000 0.000000 1.600210 
# 
# From -- ./inp_files/4202.got.cif
#   From: 2010.05.17/outbox.cif.g08.bks.cpg/sg56_3_cif.got.tgz:4202.got - 2010.06.03 13:42:01.
