data_PCOD9429829
_publ_section_title
;
Structure prediction by ZEFSAII (Michael W. Deem and Ramdas Pophale) SiO2 
 PCOD9429829
Probable space group: P C C N
;
_chemical_formula_sum "Si O2"
_cell_formula_units_Z 48
_cell_length_a 18.936894
_cell_length_b 8.136077
_cell_length_c 13.443673
_cell_angle_alpha 90.000000
_cell_angle_beta 90.000000
_cell_angle_gamma 90.000000
_cell_volume 2071.293959
_symmetry_space_group_name_H-M "P C C N"
_symmetry_group_IT_number 56
_symmetry_cell_setting 'orthorhombic'
loop_
_space_group_symop_operation_xyz
x,y,z
1/2-x,1/2-y,z
1/2+x,-y,1/2-z
-x,1/2+y,1/2-z
-x,-y,-z
1/2+x,1/2+y,-z
1/2-x,y,1/2+z
x,1/2-y,1/2+z
loop_
_atom_site_type_symbol
_atom_site_label
_atom_site_fract_x
_atom_site_fract_y
_atom_site_fract_z
Si Si1 0.206760 0.900146 0.171467
Si Si2 0.196228 0.119055 0.789928
Si Si3 0.864614 0.201673 0.166861
Si Si4 0.047542 0.929956 0.136168
Si Si5 0.059884 0.049680 0.697497
Si Si6 0.992658 0.231816 0.538462
O O1 0.250000 0.750000 0.123396
O O2 0.183878 0.835442 0.281670
O O3 0.131535 0.933849 0.124156
O O4 0.260417 0.045774 0.195328
O O5 0.250000 0.250000 0.834795
O O6 0.120111 0.171968 0.744305
O O7 0.176166 0.966419 0.862092
O O8 0.913434 0.274801 0.082242
O O9 0.907882 0.122114 0.262383
O O10 0.014005 0.928513 0.245610
O O11 0.012062 0.779283 0.076041
O O12 0.020626 0.100250 0.089415
O O13 0.042672 0.090140 0.583325
#
# Coordination Sequence:
#
# PCOD9429829 Si02
#       6
#     8   8   8   8   8   8
#     4  10  18  35  56  79 113 148 184 232 287 339
#     4   9  18  32  56  82 106 148 187 229 285 340
#     4   8  18  32  55  81 104 143 189 227 282 341
#     4  10  20  32  60  80 108 153 191 226 288 339
#     4   9  18  33  57  81 110 141 193 230 276 341
#     4  10  18  35  56  82 109 144 193 236 277 345
#
# _framework density 23.173919999999999
#
# number of rings (size 3 to 8) (size 9 to 14) (size 15 to 20)
#    1.000    1.667    1.667    1.000    0.000    0.000 
#    0.000    3.333    3.667    0.000    0.000    0.000 
#    0.000    0.000    0.000    0.000    0.000    0.000 
#
# Total GULP energy -267209.403609 kJ/mol
# GULP energy per Si atom -5566.862575 kJ/mol
# Density = 2.312118 g / cm^3
# Si number density = 23.173920 Si / 1000 Ang^3
#
#
#
# Elastic Constant Matrix: (Units=GPa)
#
#
# Indices 1 2 3 4 5 6 
#
# 1 101.1200 -4.1669 1.2929 0.0000 0.0000 0.0000
# 2 -4.1669 47.3885 -11.8522 0.0000 0.0000 0.0000
# 3 1.2929 -11.8522 39.2241 0.0000 0.0000 0.0000
# 4 0.0000 0.0000 0.0000 12.3060 0.0000 0.0000
# 5 0.0000 0.0000 0.0000 0.0000 9.6294 0.0000
# 6 0.0000 0.0000 0.0000 0.0000 0.0000 42.2307
#
#
#
# Elastic Compliance Matrix: (Units=1/GPa)
#
#
# Indices 1 2 3 4 5 6 
#
# 1 0.009925 0.000856 -0.000069 0.000000 0.000000 0.000000
# 2 0.000856 0.022901 0.006892 0.000000 0.000000 0.000000
# 3 -0.000069 0.006892 0.027579 0.000000 0.000000 0.000000
# 4 0.000000 0.000000 0.000000 0.081261 0.000000 0.000000
# 5 0.000000 0.000000 0.000000 0.000000 0.103849 0.000000
# 6 0.000000 0.000000 0.000000 0.000000 0.000000 0.023679
#
#
# Mechanical properties :
#
#
# Convention : Reuss Voigt Hill
#
# Bulk Modulus (GPa) = 13.19903 17.58668 15.39285
# Shear Modulus (GPa) = 17.91523 26.33047 22.12285
#
# Velocity S-wave (km/s) = 2.78344 3.37443 3.09308
# Velocity P-wave (km/s) = 4.00476 4.77366 4.40601
#
# Compressibility (1/GPa) = 0.07576312
#
# Stress axis : x y z
#
# Youngs Moduli (GPa) = 100.75189 43.66605 36.25917
#
# Poissons Ratio (x) = -0.03736 0.00249
# Poissons Ratio (y) = -0.08620 -0.24989
# Poissons Ratio (z) = 0.00691 -0.30094
#
# Static dielectric constant tensor:
#      x y z
#    x 1.924730 0.000000 0.000000 
#    y 0.000000 2.017730 0.000000 
#    z 0.000000 0.000000 1.883430 
# 
# From -- ./inp_files/12990.got.cif
#   From: 2010.05.17/outbox.cif.g08.bks.cpg/sg56_7_cif.got.tgz:12990.got - 2010.06.03 13:42:01.
