data_PCOD9429980
_publ_section_title
;
Structure prediction by ZEFSAII (Michael W. Deem and Ramdas Pophale) SiO2 
 PCOD9429980
Probable space group: P C C N
;
_chemical_formula_sum "Si O2"
_cell_formula_units_Z 52
_cell_length_a 15.248560
_cell_length_b 7.961612
_cell_length_c 22.873495
_cell_angle_alpha 90.000000
_cell_angle_beta 90.000000
_cell_angle_gamma 90.000000
_cell_volume 2776.913619
_symmetry_space_group_name_H-M "P C C N"
_symmetry_group_IT_number 56
_symmetry_cell_setting 'orthorhombic'
loop_
_space_group_symop_operation_xyz
x,y,z
1/2-x,1/2-y,z
1/2+x,-y,1/2-z
-x,1/2+y,1/2-z
-x,-y,-z
1/2+x,1/2+y,-z
1/2-x,y,1/2+z
x,1/2-y,1/2+z
loop_
_atom_site_type_symbol
_atom_site_label
_atom_site_fract_x
_atom_site_fract_y
_atom_site_fract_z
Si Si1 0.010870 0.796051 0.354046
Si Si2 0.250000 0.250000 0.807520
Si Si3 0.165452 0.408597 0.196247
Si Si4 0.689044 0.416091 0.865499
Si Si5 0.926971 0.255005 0.273713
Si Si6 0.428611 0.170305 0.862366
Si Si7 0.012297 0.527446 0.568326
O O1 0.066964 0.775147 0.294914
O O2 0.910374 0.795234 0.331259
O O3 0.020401 0.639281 0.397211
O O4 0.035902 0.982940 0.376885
O O5 0.297085 0.368219 0.760017
O O6 0.325886 0.170324 0.847465
O O7 0.242880 0.438394 0.149948
O O8 0.118541 0.584994 0.206898
O O9 0.750000 0.250000 0.876062
O O10 0.630934 0.393389 0.806317
O O11 0.614762 0.442769 0.914257
O O12 0.021984 0.238322 0.303679
O O13 0.458701 0.308684 0.909591
O O14 0.000000 0.500000 0.500000
#
# Coordination Sequence:
#
# PCOD9429980 Si02
#       7
#     8   4   8   8   8   8   8
#     4  11  21  37  62  92 124 163 197 245 313 373
#     4  12  18  32  54  90 132 150 190 250 316 374
#     4  10  19  29  57  93 122 158 188 246 308 368
#     4   9  19  37  61  92 122 155 208 260 305 362
#     4   9  18  34  56  89 127 155 186 239 314 378
#     4  10  23  37  58  89 122 158 198 250 303 374
#     4  11  25  45  63  81 119 171 217 252 304 362
#
# _framework density 18.725826000000001
#
# number of rings (size 3 to 8) (size 9 to 14) (size 15 to 20)
#    0.000    1.846    1.538    3.692    6.462    0.615 
#    0.000    5.385    0.000    0.000    0.000    0.000 
#    0.000    0.000    0.000    0.000    0.000    0.000 
#
# Total GULP energy -289931.199391 kJ/mol
# GULP energy per Si atom -5575.599988 kJ/mol
# Density = 1.868320 g / cm^3
# Si number density = 18.725826 Si / 1000 Ang^3
#
#
#
# Elastic Constant Matrix: (Units=GPa)
#
#
# Indices 1 2 3 4 5 6 
#
# 1 114.0619 28.2817 37.9024 0.0000 0.0000 0.0000
# 2 28.2817 103.3617 52.8330 0.0000 0.0000 0.0000
# 3 37.9024 52.8330 127.7921 0.0000 0.0000 0.0000
# 4 0.0000 0.0000 0.0000 20.4491 0.0000 0.0000
# 5 0.0000 0.0000 0.0000 0.0000 16.2592 0.0000
# 6 0.0000 0.0000 0.0000 0.0000 0.0000 19.3294
#
#
#
# Elastic Compliance Matrix: (Units=1/GPa)
#
#
# Indices 1 2 3 4 5 6 
#
# 1 0.009914 -0.001534 -0.002306 0.000000 0.000000 0.000000
# 2 -0.001534 0.012504 -0.004715 0.000000 0.000000 0.000000
# 3 -0.002306 -0.004715 0.010458 0.000000 0.000000 0.000000
# 4 0.000000 0.000000 0.000000 0.048902 0.000000 0.000000
# 5 0.000000 0.000000 0.000000 0.000000 0.061504 0.000000
# 6 0.000000 0.000000 0.000000 0.000000 0.000000 0.051735
#
#
# Mechanical properties :
#
#
# Convention : Reuss Voigt Hill
#
# Bulk Modulus (GPa) = 63.42345 64.80555 64.11450
# Shear Modulus (GPa) = 23.00097 26.28745 24.64421
#
# Velocity S-wave (km/s) = 3.50852 3.75081 3.63168
# Velocity P-wave (km/s) = 7.09619 7.31032 7.20405
#
# Compressibility (1/GPa) = 0.01576704
#
# Stress axis : x y z
#
# Youngs Moduli (GPa) = 100.86911 79.97207 95.61638
#
# Poissons Ratio (x) = 0.12266 0.22052
# Poissons Ratio (y) = 0.15471 0.45081
# Poissons Ratio (z) = 0.23263 0.37705
#
# Static dielectric constant tensor:
#      x y z
#    x 1.697580 0.000000 0.000000 
#    y 0.000000 1.629870 0.000000 
#    z 0.000000 0.000000 1.609010 
# 
# From -- ./inp_files/19062.got.cif
#   From: 2010.05.17/outbox.cif.g08.bks.cpg/sg56_10_cif.got.tgz:19062.got - 2010.06.03 13:42:01.
