data_PCOD9429422
_publ_section_title
;
Structure prediction by ZEFSAII (Michael W. Deem and Ramdas Pophale) SiO2 
 PCOD9429422
Probable space group: P B A M
;
_chemical_formula_sum "Si O2"
_cell_formula_units_Z 48
_cell_length_a 18.000000
_cell_length_b 15.000000
_cell_length_c 9.000000
_cell_angle_alpha 90.000000
_cell_angle_beta 90.000000
_cell_angle_gamma 90.000000
_cell_volume 2430.000000
_symmetry_space_group_name_H-M "P B A M"
_symmetry_group_IT_number 55
_symmetry_cell_setting 'orthorhombic'
loop_
_space_group_symop_operation_xyz
x,y,z
-x,-y,z
1/2+x,1/2-y,-z
1/2-x,1/2+y,-z
-x,-y,-z
x,y,-z
1/2-x,1/2+y,z
1/2+x,1/2-y,z
loop_
_atom_site_type_symbol
_atom_site_label
_atom_site_fract_x
_atom_site_fract_y
_atom_site_fract_z
Si Si1 0.922710 0.715733 0.323757
Si Si2 0.122378 0.908379 0.177940
Si Si3 0.289703 0.100114 0.826069
Si Si4 0.630132 0.407419 0.322949
Si Si5 0.703491 0.106244 0.828239
Si Si6 0.429149 0.217129 0.821187
O O1 0.930253 0.712042 0.500000
O O2 0.913029 0.818747 0.276921
O O3 0.849556 0.664110 0.272712
O O4 0.996197 0.678102 0.246893
O O5 0.209480 0.889676 0.210952
O O6 0.079117 0.820283 0.224398
O O7 0.100980 0.000879 0.253309
O O8 0.116829 0.919112 0.000000
O O9 0.214471 0.106018 0.733568
O O10 0.354877 0.165121 0.775907
O O11 0.316803 0.998030 0.818731
O O12 0.272198 0.118894 0.000000
O O13 0.629124 0.414416 0.500000
O O14 0.695898 0.135332 0.000000
O O15 0.432659 0.213286 0.000000
#
# Coordination Sequence:
#
# PCOD9429422 Si02
#       6
#     8   8   8   8   8   8
#     4  11  24  37  50  76 113 148 179 213 260 318
#     4   9  19  36  59  84 105 133 178 226 268 311
#     4   9  19  37  60  83 105 133 176 225 267 312
#     4  10  21  36  55  79 108 143 178 215 264 317
#     4   9  18  35  59  82 104 134 174 221 267 311
#     4  10  21  37  57  80 107 141 179 220 267 315
#
# _framework density 19.753086
#
# number of rings (size 3 to 8) (size 9 to 14) (size 15 to 20)
#    0.000    2.333    0.000    3.000    0.000    9.333 
#    0.000    6.667    0.000    0.000    0.000    0.000 
#    0.000    0.000    0.000    0.000    0.000    0.000 
#
# Total GULP energy -267994.095528 kJ/mol
# GULP energy per Si atom -5583.210324 kJ/mol
# Density = 1.970813 g / cm^3
# Si number density = 19.753086 Si / 1000 Ang^3
#
#
#
# Elastic Constant Matrix: (Units=GPa)
#
#
# Indices 1 2 3 4 5 6 
#
# 1 39.4844 30.9615 16.4435 0.0000 0.0000 0.0000
# 2 30.9615 46.6457 19.3800 0.0000 0.0000 0.0000
# 3 16.4435 19.3800 3.2965 0.0000 0.0000 0.0000
# 4 0.0000 0.0000 0.0000 38.9027 0.0000 0.0000
# 5 0.0000 0.0000 0.0000 0.0000 25.9569 0.0000
# 6 0.0000 0.0000 0.0000 0.0000 0.0000 -55.8701
#
#
#
# Elastic Compliance Matrix: (Units=1/GPa)
#
#
# Indices 1 2 3 4 5 6 
#
# 1 0.046236 -0.045151 0.034807 0.000000 0.000000 0.000000
# 2 -0.045151 0.029230 0.053380 0.000000 0.000000 0.000000
# 3 0.034807 0.053380 -0.184087 0.000000 0.000000 0.000000
# 4 0.000000 0.000000 0.000000 0.025705 0.000000 0.000000
# 5 0.000000 0.000000 0.000000 0.000000 0.038525 0.000000
# 6 0.000000 0.000000 0.000000 0.000000 0.000000 -0.017899
#
#
# Mechanical properties :
#
#
# Convention : Reuss Voigt Hill
#
# Bulk Modulus (GPa) = -44.34555 24.77740 -9.78407
# Shear Modulus (GPa) = -32.07615 3.30735 -14.38440
#
# Velocity S-wave (km/s) = -4.03408 1.29537 -2.70146
# Velocity P-wave (km/s) = 6.64809 3.84813 3.83334
#
# Compressibility (1/GPa) = -0.02255018
#
# Stress axis : x y z
#
# Youngs Moduli (GPa) = 21.62832 34.21190 -5.43220
#
# Poissons Ratio (x) = 1.54469 0.18908
# Poissons Ratio (y) = 0.97653 0.28997
# Poissons Ratio (z) = -0.75281 -1.82622
#
# Static dielectric constant tensor:
#      x y z
#    x 1.666320 0.000000 0.000000 
#    y 0.000000 1.707200 0.000000 
#    z 0.000000 0.000000 1.657780 
# 
# From -- ./inp_files/5597.got.cif
#   From: 2010.05.17/outbox.ucp.g08.bks.cvg/sg55_3_cif.got.tgz:5597.got - 2010.06.11 16:36:00.
