data_PCOD9429469
_publ_section_title
;
Structure prediction by ZEFSAII (Michael W. Deem and Ramdas Pophale) SiO2 
 PCOD9429469
Probable space group: P B A M
;
_chemical_formula_sum "Si O2"
_cell_formula_units_Z 56
_cell_length_a 15.000000
_cell_length_b 21.000000
_cell_length_c 9.000000
_cell_angle_alpha 90.000000
_cell_angle_beta 90.000000
_cell_angle_gamma 90.000000
_cell_volume 2835.000000
_symmetry_space_group_name_H-M "P B A M"
_symmetry_group_IT_number 55
_symmetry_cell_setting 'orthorhombic'
loop_
_space_group_symop_operation_xyz
x,y,z
-x,-y,z
1/2+x,1/2-y,-z
1/2-x,1/2+y,-z
-x,-y,-z
x,y,-z
1/2-x,1/2+y,z
1/2+x,1/2-y,z
loop_
_atom_site_type_symbol
_atom_site_label
_atom_site_fract_x
_atom_site_fract_y
_atom_site_fract_z
Si Si1 0.715831 0.505012 0.173223
Si Si2 0.586599 0.042802 0.176533
Si Si3 0.616653 0.759214 0.322423
Si Si4 0.590025 0.622312 0.825034
Si Si5 0.406876 0.597210 0.677074
Si Si6 0.576998 0.179084 0.676520
Si Si7 0.303420 0.715265 0.178292
O O1 0.820561 0.506633 0.207134
O O2 0.674247 0.575494 0.186475
O O3 0.658916 0.459589 0.278073
O O4 0.703824 0.484993 0.000000
O O5 0.582554 0.106509 0.272209
O O6 0.500000 0.000000 0.204963
O O7 0.587659 0.058960 0.000000
O O8 0.631376 0.759372 0.500000
O O9 0.606034 0.687643 0.261584
O O10 0.522967 0.794731 0.292567
O O11 0.702666 0.788209 0.240211
O O12 0.503162 0.589386 0.753627
O O13 0.574035 0.634934 0.000000
O O14 0.416488 0.603277 0.500000
O O15 0.362592 0.660132 0.747307
O O16 0.593247 0.186188 0.500000
O O17 0.649666 0.219816 0.766879
O O18 0.304061 0.710840 0.000000
#
# Coordination Sequence:
#
# PCOD9429469 Si02
#       7
#     8   8   8   8   8   8   8
#     4  10  23  42  63  92 128 169 218 268 322 384
#     4  10  23  43  67  96 130 171 221 270 319 383
#     4  11  24  41  65  97 134 170 211 265 325 385
#     4  11  22  40  66  96 130 172 218 264 320 390
#     4  12  25  41  63  94 130 167 214 270 331 388
#     4  11  24  43  67  97 133 170 212 266 326 387
#     4  12  25  42  67  95 129 172 220 269 324 388
#
# _framework density 19.753086
#
# number of rings (size 3 to 8) (size 9 to 14) (size 15 to 20)
#    0.000    1.000    1.429    5.143    2.000    6.571 
#    0.000    0.000    0.000    0.000    0.000    0.000 
#    0.000    0.000    0.000    0.000    0.000    0.000 
#
# Total GULP energy -313382.720857 kJ/mol
# GULP energy per Si atom -5596.120015 kJ/mol
# Density = 1.970813 g / cm^3
# Si number density = 19.753086 Si / 1000 Ang^3
#
#
#
# Elastic Constant Matrix: (Units=GPa)
#
#
# Indices 1 2 3 4 5 6 
#
# 1 96.6295 -12.6834 20.1056 0.0000 0.0000 0.0000
# 2 -12.6834 30.7420 0.5292 0.0000 0.0000 0.0000
# 3 20.1056 0.5292 86.7782 0.0000 0.0000 0.0000
# 4 0.0000 0.0000 0.0000 38.9311 0.0000 0.0000
# 5 0.0000 0.0000 0.0000 0.0000 30.9654 0.0000
# 6 0.0000 0.0000 0.0000 0.0000 0.0000 20.6332
#
#
#
# Elastic Compliance Matrix: (Units=1/GPa)
#
#
# Indices 1 2 3 4 5 6 
#
# 1 0.011543 0.004809 -0.002704 0.000000 0.000000 0.000000
# 2 0.004809 0.034535 -0.001325 0.000000 0.000000 0.000000
# 3 -0.002704 -0.001325 0.012158 0.000000 0.000000 0.000000
# 4 0.000000 0.000000 0.000000 0.025686 0.000000 0.000000
# 5 0.000000 0.000000 0.000000 0.000000 0.032294 0.000000
# 6 0.000000 0.000000 0.000000 0.000000 0.000000 0.048466
#
#
# Mechanical properties :
#
#
# Convention : Reuss Voigt Hill
#
# Bulk Modulus (GPa) = 16.72329 25.56140 21.14234
# Shear Modulus (GPa) = 27.31437 31.85249 29.58343
#
# Velocity S-wave (km/s) = 3.72262 4.01999 3.87416
# Velocity P-wave (km/s) = 5.19247 5.87500 5.54425
#
# Compressibility (1/GPa) = 0.05979685
#
# Stress axis : x y z
#
# Youngs Moduli (GPa) = 86.63616 28.95571 82.24965
#
# Poissons Ratio (x) = -0.13924 0.22237
# Poissons Ratio (y) = -0.41661 0.10896
# Poissons Ratio (z) = 0.23423 0.03836
#
# Static dielectric constant tensor:
#      x y z
#    x 1.680160 0.000000 0.000000 
#    y 0.000000 1.694470 0.000000 
#    z 0.000000 0.000000 1.660180 
# 
# From -- ./inp_files/6134.got.cif
#   From: 2010.05.17/outbox.ucp.g08.bks.cvg/sg55_4_cif.got.tgz:6134.got - 2010.06.11 16:36:00.
