data_PCOD9429548
_publ_section_title
;
Structure prediction by ZEFSAII (Michael W. Deem and Ramdas Pophale) SiO2 
 PCOD9429548
Probable space group: P C C N
;
_chemical_formula_sum "Si O2"
_cell_formula_units_Z 28
_cell_length_a 11.476642
_cell_length_b 7.176205
_cell_length_c 12.247230
_cell_angle_alpha 90.000000
_cell_angle_beta 90.000000
_cell_angle_gamma 90.000000
_cell_volume 1008.666379
_symmetry_space_group_name_H-M "P C C N"
_symmetry_group_IT_number 56
_symmetry_cell_setting 'orthorhombic'
loop_
_space_group_symop_operation_xyz
x,y,z
1/2-x,1/2-y,z
1/2+x,-y,1/2-z
-x,1/2+y,1/2-z
-x,-y,-z
1/2+x,1/2+y,-z
1/2-x,y,1/2+z
x,1/2-y,1/2+z
loop_
_atom_site_type_symbol
_atom_site_label
_atom_site_fract_x
_atom_site_fract_y
_atom_site_fract_z
Si Si1 0.619559 0.996300 0.285033
Si Si2 0.250000 0.750000 0.866143
Si Si3 0.030189 0.253227 0.406217
Si Si4 0.186681 0.478648 0.042887
O O1 0.645286 0.180627 0.210774
O O2 0.518859 0.048161 0.370649
O O3 0.738942 0.964017 0.348805
O O4 0.587249 0.835285 0.202164
O O5 0.262839 0.573445 0.946551
O O6 0.917091 0.127829 0.436479
O O7 0.122975 0.207125 0.500680
#
# Coordination Sequence:
#
# PCOD9429548 Si02
#       4
#     8   4   8   8
#     4  11  20  38  66  95 130 166 221 264 323 386
#     4  10  16  32  68  84 120 170 204 260 310 372
#     4  10  21  36  68  93 125 174 219 259 334 380
#     4  10  19  37  64  93 128 166 221 264 316 392
#
# _framework density 27.759426000000001
#
# number of rings (size 3 to 8) (size 9 to 14) (size 15 to 20)
#    0.000    1.714    5.714    0.000    0.000    0.000 
#    0.000    2.857    6.286    0.000    0.000    0.000 
#    0.000    0.000    0.000    0.000    0.000    0.000 
#
# Total GULP energy -157093.823557 kJ/mol
# GULP energy per Si atom -5610.493698 kJ/mol
# Density = 2.769624 g / cm^3
# Si number density = 27.759426 Si / 1000 Ang^3
#
#
#
# Elastic Constant Matrix: (Units=GPa)
#
#
# Indices 1 2 3 4 5 6 
#
# 1 135.4578 25.4404 63.2408 0.0000 0.0000 0.0000
# 2 25.4404 98.0975 26.4893 0.0000 0.0000 0.0000
# 3 63.2408 26.4893 122.1671 0.0000 0.0000 0.0000
# 4 0.0000 0.0000 0.0000 43.3491 0.0000 0.0000
# 5 0.0000 0.0000 0.0000 0.0000 65.0120 0.0000
# 6 0.0000 0.0000 0.0000 0.0000 0.0000 47.5554
#
#
#
# Elastic Compliance Matrix: (Units=1/GPa)
#
#
# Indices 1 2 3 4 5 6 
#
# 1 0.009878 -0.001254 -0.004842 0.000000 0.000000 0.000000
# 2 -0.001254 0.010987 -0.001733 0.000000 0.000000 0.000000
# 3 -0.004842 -0.001733 0.011068 0.000000 0.000000 0.000000
# 4 0.000000 0.000000 0.000000 0.023069 0.000000 0.000000
# 5 0.000000 0.000000 0.000000 0.000000 0.015382 0.000000
# 6 0.000000 0.000000 0.000000 0.000000 0.000000 0.021028
#
#
# Mechanical properties :
#
#
# Convention : Reuss Voigt Hill
#
# Bulk Modulus (GPa) = 61.44359 65.11815 63.28087
# Shear Modulus (GPa) = 44.44657 47.22010 45.83334
#
# Velocity S-wave (km/s) = 4.00576 4.12885 4.06777
# Velocity P-wave (km/s) = 6.60130 6.79991 6.70134
#
# Compressibility (1/GPa) = 0.01627509
#
# Stress axis : x y z
#
# Youngs Moduli (GPa) = 101.23139 91.01479 90.35411
#
# Poissons Ratio (x) = 0.11417 0.43746
# Poissons Ratio (y) = 0.12699 0.15658
# Poissons Ratio (z) = 0.49012 0.15773
#
# Static dielectric constant tensor:
#      x y z
#    x 2.105950 0.000000 0.000000 
#    y 0.000000 2.173560 0.000000 
#    z 0.000000 0.000000 2.097540 
# 
# From -- ./inp_files/5893.got.cif
#   From: 2010.05.17/outbox.cif.g08.bks.cpg/sg56_3_cif.got.tgz:5893.got - 2010.06.03 13:42:01.
