data_PCOD9429565
_publ_section_title
;
Structure prediction by ZEFSAII (Michael W. Deem and Ramdas Pophale) SiO2 
 PCOD9429565
Probable space group: P C C N
;
_chemical_formula_sum "Si O2"
_cell_formula_units_Z 60
_cell_length_a 11.710460
_cell_length_b 16.278162
_cell_length_c 17.917828
_cell_angle_alpha 90.000000
_cell_angle_beta 90.000000
_cell_angle_gamma 90.000000
_cell_volume 3415.581751
_symmetry_space_group_name_H-M "P C C N"
_symmetry_group_IT_number 56
_symmetry_cell_setting 'orthorhombic'
loop_
_space_group_symop_operation_xyz
x,y,z
1/2-x,1/2-y,z
1/2+x,-y,1/2-z
-x,1/2+y,1/2-z
-x,-y,-z
1/2+x,1/2+y,-z
1/2-x,y,1/2+z
x,1/2-y,1/2+z
loop_
_atom_site_type_symbol
_atom_site_label
_atom_site_fract_x
_atom_site_fract_y
_atom_site_fract_z
Si Si1 0.877746 0.971931 0.032474
Si Si2 0.083092 0.612543 0.865589
Si Si3 0.343987 0.456085 0.656731
Si Si4 0.250000 0.750000 0.512712
Si Si5 0.826174 0.668198 0.423289
Si Si6 0.669964 0.082433 0.972000
Si Si7 0.188678 0.538130 0.315516
Si Si8 0.413696 0.703069 0.879196
O O1 0.868376 0.979744 0.121580
O O2 0.846461 0.883030 0.999493
O O3 0.782519 0.035722 0.002404
O O4 0.000000 0.000000 0.000000
O O5 0.177870 0.552286 0.832796
O O6 0.111932 0.706834 0.847153
O O7 0.957778 0.596775 0.836563
O O8 0.090878 0.599003 0.955579
O O9 0.241055 0.396820 0.629768
O O10 0.372105 0.523131 0.592639
O O11 0.322010 0.502388 0.733596
O O12 0.199325 0.826471 0.557000
O O13 0.155834 0.708686 0.457597
O O14 0.750000 0.750000 0.432015
O O15 0.951632 0.691776 0.393431
O O16 0.130940 0.626832 0.331133
#
# Coordination Sequence:
#
# PCOD9429565 Si02
#       8
#     8   8   8   4   8   8   8   8
#     4  10  18  35  61  84 109 149 198 238 274 344
#     4  10  20  39  61  79 112 156 201 231 283 350
#     4  11  24  36  57  88 122 154 184 239 297 350
#     4  10  16  36  60  84 106 154 196 248 274 332
#     4  11  22  37  60  86 112 155 200 240 287 349
#     4   9  19  34  57  84 110 147 196 235 279 333
#     4  11  22  37  60  88 115 153 189 237 296 341
#     4  11  18  37  62  81 110 148 202 235 287 341
#
# _framework density 17.566554
#
# number of rings (size 3 to 8) (size 9 to 14) (size 15 to 20)
#    0.000    1.600    6.667    0.400    1.867    0.000 
#    2.400    0.667    2.933    0.000    0.000    0.000 
#    0.000    0.000    0.000    0.000    0.000    0.000 
#
# Total GULP energy -334395.891951 kJ/mol
# GULP energy per Si atom -5573.264866 kJ/mol
# Density = 1.752657 g / cm^3
# Si number density = 17.566554 Si / 1000 Ang^3
#
#
#
# Elastic Constant Matrix: (Units=GPa)
#
#
# Indices 1 2 3 4 5 6 
#
# 1 84.2954 12.1606 18.0767 0.0000 0.0000 0.0000
# 2 12.1606 100.9443 39.4517 0.0000 0.0000 0.0000
# 3 18.0767 39.4517 76.7803 0.0000 0.0000 0.0000
# 4 0.0000 0.0000 0.0000 23.3352 0.0000 0.0000
# 5 0.0000 0.0000 0.0000 0.0000 14.6324 0.0000
# 6 0.0000 0.0000 0.0000 0.0000 0.0000 26.0791
#
#
#
# Elastic Compliance Matrix: (Units=1/GPa)
#
#
# Indices 1 2 3 4 5 6 
#
# 1 0.012510 -0.000445 -0.002716 0.000000 0.000000 0.000000
# 2 -0.000445 0.012412 -0.006273 0.000000 0.000000 0.000000
# 3 -0.002716 -0.006273 0.016887 0.000000 0.000000 0.000000
# 4 0.000000 0.000000 0.000000 0.042854 0.000000 0.000000
# 5 0.000000 0.000000 0.000000 0.000000 0.068341 0.000000
# 6 0.000000 0.000000 0.000000 0.000000 0.000000 0.038345
#
#
# Mechanical properties :
#
#
# Convention : Reuss Voigt Hill
#
# Bulk Modulus (GPa) = 43.59299 44.59977 44.09638
# Shear Modulus (GPa) = 22.95017 25.63140 24.29079
#
# Velocity S-wave (km/s) = 3.61843 3.82396 3.72262
# Velocity P-wave (km/s) = 6.50593 6.70381 6.60561
#
# Compressibility (1/GPa) = 0.02293947
#
# Stress axis : x y z
#
# Youngs Moduli (GPa) = 79.93723 80.56988 59.21823
#
# Poissons Ratio (x) = 0.03589 0.16086
# Poissons Ratio (y) = 0.03560 0.37145
# Poissons Ratio (z) = 0.21714 0.50538
#
# Static dielectric constant tensor:
#      x y z
#    x 1.606460 0.000000 0.000000 
#    y 0.000000 1.623170 0.000000 
#    z 0.000000 0.000000 1.589730 
# 
# From -- ./inp_files/15757.got.cif
#   From: 2010.05.17/outbox.cif.g08.bks.cpg/sg56_8_cif.got.tgz:15757.got - 2010.06.03 13:42:01.
