data_PCOD9429465
_publ_section_title
;
Structure prediction by ZEFSAII (Michael W. Deem and Ramdas Pophale) SiO2 
 PCOD9429465
Probable space group: P B A M
;
_chemical_formula_sum "Si O2"
_cell_formula_units_Z 56
_cell_length_a 21.000000
_cell_length_b 15.000000
_cell_length_c 9.000000
_cell_angle_alpha 90.000000
_cell_angle_beta 90.000000
_cell_angle_gamma 90.000000
_cell_volume 2835.000000
_symmetry_space_group_name_H-M "P B A M"
_symmetry_group_IT_number 55
_symmetry_cell_setting 'orthorhombic'
loop_
_space_group_symop_operation_xyz
x,y,z
-x,-y,z
1/2+x,1/2-y,-z
1/2-x,1/2+y,-z
-x,-y,-z
x,y,-z
1/2-x,1/2+y,z
1/2+x,1/2-y,z
loop_
_atom_site_type_symbol
_atom_site_label
_atom_site_fract_x
_atom_site_fract_y
_atom_site_fract_z
Si Si1 0.399787 0.292565 0.822213
Si Si2 0.599751 0.026667 0.673085
Si Si3 0.681531 0.388637 0.675686
Si Si4 0.739667 0.738490 0.824856
Si Si5 0.730375 0.030865 0.827976
Si Si6 0.926595 0.017168 0.678548
Si Si7 0.485776 0.151597 0.327927
O O1 0.333130 0.246445 0.772702
O O2 0.404231 0.391435 0.754554
O O3 0.457674 0.230722 0.769399
O O4 0.398067 0.299629 0.000000
O O5 0.620555 0.035659 0.500000
O O6 0.657144 0.021150 0.785871
O O7 0.554803 0.111166 0.708518
O O8 0.559308 0.935658 0.681829
O O9 0.679567 0.376563 0.500000
O O10 0.707814 0.298608 0.746763
O O11 0.730780 0.465691 0.722308
O O12 0.614517 0.431039 0.725439
O O13 0.751615 0.633695 0.804265
O O14 0.742286 0.758320 0.000000
O O15 0.742963 0.008090 0.000000
O O16 0.919233 0.027264 0.500000
O O17 0.000000 0.000000 0.712280
O O18 0.486410 0.181004 0.500000
#
# Coordination Sequence:
#
# PCOD9429465 Si02
#       7
#     8   8   8   8   8   8   8
#     4  11  22  38  60  87 117 157 204 244 296 367
#     4   9  19  36  57  84 116 154 198 241 295 351
#     4  11  23  39  63  91 118 155 204 254 304 362
#     4  10  23  40  59  85 120 159 196 242 303 362
#     4  11  22  38  59  85 121 156 190 241 299 355
#     4  10  23  43  64  87 118 156 200 252 308 359
#     4   9  19  36  57  82 117 155 193 244 295 348
#
# _framework density 19.753086
#
# number of rings (size 3 to 8) (size 9 to 14) (size 15 to 20)
#    0.000    1.857    1.429    3.000    0.000    7.714 
#    0.000    5.714    0.000    0.000    0.000    0.000 
#    0.000    0.000    0.000    0.000    0.000    0.000 
#
# Total GULP energy -312729.153782 kJ/mol
# GULP energy per Si atom -5584.449175 kJ/mol
# Density = 1.970813 g / cm^3
# Si number density = 19.753086 Si / 1000 Ang^3
#
#
#
# Elastic Constant Matrix: (Units=GPa)
#
#
# Indices 1 2 3 4 5 6 
#
# 1 54.3004 -16.2207 7.8051 0.0000 0.0000 0.0000
# 2 -16.2207 13.1485 6.6090 0.0000 0.0000 0.0000
# 3 7.8051 6.6090 14.1710 0.0000 0.0000 0.0000
# 4 0.0000 0.0000 0.0000 20.4981 0.0000 0.0000
# 5 0.0000 0.0000 0.0000 0.0000 16.5546 0.0000
# 6 0.0000 0.0000 0.0000 0.0000 0.0000 -175.4452
#
#
#
# Elastic Compliance Matrix: (Units=1/GPa)
#
#
# Indices 1 2 3 4 5 6 
#
# 1 0.092456 0.182417 -0.135998 0.000000 0.000000 0.000000
# 2 0.182417 0.459252 -0.314655 0.000000 0.000000 0.000000
# 3 -0.135998 -0.314655 0.292219 0.000000 0.000000 0.000000
# 4 0.000000 0.000000 0.000000 0.048785 0.000000 0.000000
# 5 0.000000 0.000000 0.000000 0.000000 0.060406 0.000000
# 6 0.000000 0.000000 0.000000 0.000000 0.000000 -0.005700
#
#
# Mechanical properties :
#
#
# Convention : Reuss Voigt Hill
#
# Bulk Modulus (GPa) = 3.25250 8.66742 5.95996
# Shear Modulus (GPa) = 3.15184 -22.11675 -9.48245
#
# Velocity S-wave (km/s) = 1.26455 -3.34976 -2.19338
# Velocity P-wave (km/s) = 1.94480 3.25020 1.84140
#
# Compressibility (1/GPa) = 0.30745537
#
# Stress axis : x y z
#
# Youngs Moduli (GPa) = 10.81593 2.17745 3.42209
#
# Poissons Ratio (x) = -0.39720 0.46540
# Poissons Ratio (y) = -1.97301 1.07678
# Poissons Ratio (z) = 1.47094 0.68515
#
# Static dielectric constant tensor:
#      x y z
#    x 1.742470 0.000000 0.000000 
#    y 0.000000 1.678230 0.000000 
#    z 0.000000 0.000000 1.665800 
# 
# From -- ./inp_files/5978.got.cif
#   From: 2010.05.17/outbox.ucp.g08.bks.cvg/sg55_3_cif.got.tgz:5978.got - 2010.06.11 16:36:00.
