data_PCOD9429736
_publ_section_title
;
Structure prediction by ZEFSAII (Michael W. Deem and Ramdas Pophale) SiO2 
 PCOD9429736
Probable space group: P C C N
;
_chemical_formula_sum "Si O2"
_cell_formula_units_Z 60
_cell_length_a 11.512051
_cell_length_b 11.500259
_cell_length_c 21.772529
_cell_angle_alpha 90.000000
_cell_angle_beta 90.000000
_cell_angle_gamma 90.000000
_cell_volume 2882.499256
_symmetry_space_group_name_H-M "P C C N"
_symmetry_group_IT_number 56
_symmetry_cell_setting 'orthorhombic'
loop_
_space_group_symop_operation_xyz
x,y,z
1/2-x,1/2-y,z
1/2+x,-y,1/2-z
-x,1/2+y,1/2-z
-x,-y,-z
1/2+x,1/2+y,-z
1/2-x,y,1/2+z
x,1/2-y,1/2+z
loop_
_atom_site_type_symbol
_atom_site_label
_atom_site_fract_x
_atom_site_fract_y
_atom_site_fract_z
Si Si1 0.691063 0.996808 0.635035
Si Si2 0.625483 0.605783 0.556209
Si Si3 0.485581 0.652137 0.443030
Si Si4 0.312491 0.099548 0.742089
Si Si5 0.750000 0.250000 0.584422
Si Si6 0.983649 0.336665 0.827663
Si Si7 0.052059 0.911494 0.187366
Si Si8 0.575967 0.598911 0.314010
O O1 0.718908 0.132668 0.622437
O O2 0.743934 0.923204 0.577727
O O3 0.763433 0.961861 0.695805
O O4 0.559728 0.959200 0.650086
O O5 0.587672 0.664818 0.492776
O O6 0.563436 0.479508 0.554888
O O7 0.566039 0.670662 0.612924
O O8 0.368810 0.726538 0.452961
O O9 0.532851 0.665816 0.374018
O O10 0.428551 0.160972 0.768850
O O11 0.194603 0.148484 0.712999
O O12 0.353101 0.010477 0.689692
O O13 0.917207 0.459558 0.828485
O O14 0.911467 0.218450 0.829688
O O15 0.015289 0.899835 0.258834
#
# Coordination Sequence:
#
# PCOD9429736 Si02
#       8
#     8   8   8   8   4   8   8   8
#     4   9  19  32  51  75 103 136 174 215 257 315
#     4   8  16  33  52  73  96 131 175 213 254 303
#     4   9  17  32  54  76 103 131 173 222 257 313
#     4   9  19  32  48  76 106 135 173 217 268 321
#     4  10  18  32  54  80 102 134 174 214 268 308
#     4   9  18  33  52  73 101 137 177 214 261 316
#     4  10  19  32  51  75 105 136 172 216 259 318
#     4   9  19  32  49  77 104 134 173 216 266 314
#
# _framework density 20.815270000000002
#
# number of rings (size 3 to 8) (size 9 to 14) (size 15 to 20)
#    0.000    2.933    0.000    2.400    0.000   11.733 
#    0.000    5.333    0.000    8.000    0.000    0.000 
#    0.000    0.000    0.000    0.000    0.000    0.000 
#
# Total GULP energy -334037.806008 kJ/mol
# GULP energy per Si atom -5567.296767 kJ/mol
# Density = 2.076789 g / cm^3
# Si number density = 20.815270 Si / 1000 Ang^3
#
#
#
# Elastic Constant Matrix: (Units=GPa)
#
#
# Indices 1 2 3 4 5 6 
#
# 1 81.0846 3.0890 31.1410 0.0000 0.0000 0.0000
# 2 3.0890 41.5169 3.6086 0.0000 0.0000 0.0000
# 3 31.1410 3.6086 75.3333 0.0000 0.0000 0.0000
# 4 0.0000 0.0000 0.0000 -1.5559 0.0000 0.0000
# 5 0.0000 0.0000 0.0000 0.0000 -18.5460 0.0000
# 6 0.0000 0.0000 0.0000 0.0000 0.0000 22.7168
#
#
#
# Elastic Compliance Matrix: (Units=1/GPa)
#
#
# Indices 1 2 3 4 5 6 
#
# 1 0.014674 -0.000567 -0.006039 0.000000 0.000000 0.000000
# 2 -0.000567 0.024209 -0.000925 0.000000 0.000000 0.000000
# 3 -0.006039 -0.000925 0.015815 0.000000 0.000000 0.000000
# 4 0.000000 0.000000 0.000000 -0.642696 0.000000 0.000000
# 5 0.000000 0.000000 0.000000 0.000000 -0.053920 0.000000
# 6 0.000000 0.000000 0.000000 0.000000 0.000000 0.044020
#
#
# Mechanical properties :
#
#
# Convention : Reuss Voigt Hill
#
# Bulk Modulus (GPa) = 25.22953 30.40132 27.81543
# Shear Modulus (GPa) = -8.77771 11.19606 1.20917
#
# Velocity S-wave (km/s) = -2.05575 2.32173 0.76300
# Velocity P-wave (km/s) = 2.55190 4.67164 3.76407
#
# Compressibility (1/GPa) = 0.03963609
#
# Stress axis : x y z
#
# Youngs Moduli (GPa) = 68.14996 41.30662 63.23165
#
# Poissons Ratio (x) = 0.02342 0.38183
# Poissons Ratio (y) = 0.03863 0.05851
# Poissons Ratio (z) = 0.41153 0.03822
#
# Static dielectric constant tensor:
#      x y z
#    x 1.777140 0.000000 0.000000 
#    y 0.000000 1.573320 0.000000 
#    z 0.000000 0.000000 1.742700 
# 
# From -- ./inp_files/18827.got.cif
#   From: 2010.05.17/outbox.cif.g08.bks.cpg/sg56_10_cif.got.tgz:18827.got - 2010.06.03 13:42:01.
