data_PCOD9429666
_publ_section_title
;
Structure prediction by ZEFSAII (Michael W. Deem and Ramdas Pophale) SiO2 
 PCOD9429666
Probable space group: P C C N
;
_chemical_formula_sum "Si O2"
_cell_formula_units_Z 48
_cell_length_a 8.371272
_cell_length_b 17.203187
_cell_length_c 12.457360
_cell_angle_alpha 90.000000
_cell_angle_beta 90.000000
_cell_angle_gamma 90.000000
_cell_volume 1794.016275
_symmetry_space_group_name_H-M "P C C N"
_symmetry_group_IT_number 56
_symmetry_cell_setting 'orthorhombic'
loop_
_space_group_symop_operation_xyz
x,y,z
1/2-x,1/2-y,z
1/2+x,-y,1/2-z
-x,1/2+y,1/2-z
-x,-y,-z
1/2+x,1/2+y,-z
1/2-x,y,1/2+z
x,1/2-y,1/2+z
loop_
_atom_site_type_symbol
_atom_site_label
_atom_site_fract_x
_atom_site_fract_y
_atom_site_fract_z
Si Si1 0.767630 0.943150 0.298701
Si Si2 0.750000 0.750000 0.005574
Si Si3 0.750000 0.250000 0.292255
Si Si4 0.113485 0.405538 0.959526
Si Si5 0.093730 0.895484 0.209295
Si Si6 0.003912 0.838424 0.859642
Si Si7 0.200375 0.920557 0.436464
O O1 0.828158 0.917653 0.416922
O O2 0.608741 0.892223 0.286080
O O3 0.911077 0.923823 0.216422
O O4 0.707836 0.031260 0.311869
O O5 0.812139 0.676479 0.072298
O O6 0.605972 0.718054 0.930960
O O7 0.650435 0.181796 0.352152
O O8 0.885192 0.209191 0.220249
O O9 0.922028 0.401505 0.968025
O O10 0.168657 0.487963 0.911068
O O11 0.130726 0.875814 0.333667
O O12 0.114828 0.895456 0.933747
#
# Coordination Sequence:
#
# PCOD9429666 Si02
#       7
#     8   4   4   8   8   8   8
#     4  10  20  33  53  76 102 136 172 206 252 310
#     4  10  18  28  48  76 102 126 170 214 246 290
#     4  10  18  30  52  76 100 128 168 214 254 294
#     4   9  19  34  53  76 101 132 169 209 251 303
#     4  10  19  33  53  75 102 135 172 211 254 303
#     4  10  18  31  51  75 101 133 169 210 251 302
#     4   9  18  33  54  74 101 136 169 203 254 310
#
# _framework density 26.755610000000001
#
# number of rings (size 3 to 8) (size 9 to 14) (size 15 to 20)
#    0.000    2.333    0.000    6.000    0.000    2.667 
#    0.000    0.000    0.000   32.000    0.000    0.000 
#    0.000    0.000    0.000    0.000    0.000    0.000 
#
# Total GULP energy -268405.176381 kJ/mol
# GULP energy per Si atom -5591.774508 kJ/mol
# Density = 2.669471 g / cm^3
# Si number density = 26.755610 Si / 1000 Ang^3
#
#
#
# Elastic Constant Matrix: (Units=GPa)
#
#
# Indices 1 2 3 4 5 6 
#
# 1 201.5470 97.7520 30.3931 0.0000 0.0000 0.0000
# 2 97.7520 203.5521 19.3715 0.0000 0.0000 0.0000
# 3 30.3931 19.3715 38.2568 0.0000 0.0000 0.0000
# 4 0.0000 0.0000 0.0000 34.2391 0.0000 0.0000
# 5 0.0000 0.0000 0.0000 0.0000 40.7341 0.0000
# 6 0.0000 0.0000 0.0000 0.0000 0.0000 72.1657
#
#
#
# Elastic Compliance Matrix: (Units=1/GPa)
#
#
# Indices 1 2 3 4 5 6 
#
# 1 0.007023 -0.002986 -0.004068 0.000000 0.000000 0.000000
# 2 -0.002986 0.006431 -0.000884 0.000000 0.000000 0.000000
# 3 -0.004068 -0.000884 0.029819 0.000000 0.000000 0.000000
# 4 0.000000 0.000000 0.000000 0.029206 0.000000 0.000000
# 5 0.000000 0.000000 0.000000 0.000000 0.024549 0.000000
# 6 0.000000 0.000000 0.000000 0.000000 0.000000 0.013857
#
#
# Mechanical properties :
#
#
# Convention : Reuss Voigt Hill
#
# Bulk Modulus (GPa) = 36.50024 82.04323 59.27173
# Shear Modulus (GPa) = 36.79374 49.15038 42.97206
#
# Velocity S-wave (km/s) = 3.71236 4.29069 4.01196
# Velocity P-wave (km/s) = 5.66103 7.43486 6.60774
#
# Compressibility (1/GPa) = 0.02739708
#
# Stress axis : x y z
#
# Youngs Moduli (GPa) = 142.38803 155.50477 33.53618
#
# Poissons Ratio (x) = 0.46427 0.13642
# Poissons Ratio (y) = 0.42511 0.02966
# Poissons Ratio (z) = 0.57919 0.13751
#
# Static dielectric constant tensor:
#      x y z
#    x 2.146310 0.000000 0.000000 
#    y 0.000000 2.116950 0.000000 
#    z 0.000000 0.000000 2.197140 
# 
# From -- ./inp_files/16569.got.cif
#   From: 2010.05.17/outbox.cif.g08.bks.cpg/sg56_9_cif.got.tgz:16569.got - 2010.06.03 13:42:01.
