data_PCOD9429636
_publ_section_title
;
Structure prediction by ZEFSAII (Michael W. Deem and Ramdas Pophale) SiO2 
 PCOD9429636
Probable space group: P C C N
;
_chemical_formula_sum "Si O2"
_cell_formula_units_Z 60
_cell_length_a 25.699345
_cell_length_b 4.971625
_cell_length_c 18.010711
_cell_angle_alpha 90.000000
_cell_angle_beta 90.000000
_cell_angle_gamma 90.000000
_cell_volume 2301.183627
_symmetry_space_group_name_H-M "P C C N"
_symmetry_group_IT_number 56
_symmetry_cell_setting 'orthorhombic'
loop_
_space_group_symop_operation_xyz
x,y,z
1/2-x,1/2-y,z
1/2+x,-y,1/2-z
-x,1/2+y,1/2-z
-x,-y,-z
1/2+x,1/2+y,-z
1/2-x,y,1/2+z
x,1/2-y,1/2+z
loop_
_atom_site_type_symbol
_atom_site_label
_atom_site_fract_x
_atom_site_fract_y
_atom_site_fract_z
Si Si1 0.844898 0.508619 0.727685
Si Si2 0.180053 0.145215 0.090081
Si Si3 0.886366 0.343017 0.871867
Si Si4 0.069087 0.939612 0.484097
Si Si5 0.250000 0.750000 0.186571
Si Si6 0.516115 0.187668 0.647111
Si Si7 0.567185 0.822165 0.230581
Si Si8 0.861430 0.952580 0.055367
O O1 0.791500 0.400226 0.760571
O O2 0.870074 0.806801 0.736521
O O3 0.844500 0.500872 0.639563
O O4 0.888009 0.372673 0.783421
O O5 0.224179 0.985292 0.135612
O O6 0.130944 0.954859 0.108335
O O7 0.184539 0.127209 0.001260
O O8 0.160213 0.444332 0.108544
O O9 0.933668 0.413999 0.926241
O O10 0.092183 0.230503 0.459576
O O11 0.023458 0.780685 0.439092
O O12 0.117139 0.743233 0.466294
O O13 0.460973 0.182772 0.689436
O O14 0.548289 0.421591 0.686547
O O15 0.543770 0.915251 0.676814
#
# Coordination Sequence:
#
# PCOD9429636 Si02
#       8
#     8   8   8   8   4   8   8   8
#     4  11  21  39  56  94 113 157 188 261 282 352
#     4   9  20  40  53  80 103 160 183 230 275 365
#     4   9  21  34  58  78 119 143 191 225 306 325
#     4  10  17  36  56  86 109 161 184 236 275 366
#     4  10  24  38  62  78 126 150 196 230 316 336
#     4  10  18  35  56  87 116 158 189 239 292 352
#     4  10  21  32  57  86 122 148 196 241 293 342
#     4  10  20  33  62  80 114 140 204 232 284 328
#
# _framework density 26.073539
#
# number of rings (size 3 to 8) (size 9 to 14) (size 15 to 20)
#    0.000    2.133    2.667    0.000    0.000    6.933 
#    0.000    0.667    0.000    4.800    0.000   16.800 
#    0.000    0.000    0.000    0.000    0.000    0.000 
#
# Total GULP energy -334645.046893 kJ/mol
# GULP energy per Si atom -5577.417448 kJ/mol
# Density = 2.601419 g / cm^3
# Si number density = 26.073539 Si / 1000 Ang^3
#
#
#
# Elastic Constant Matrix: (Units=GPa)
#
#
# Indices 1 2 3 4 5 6 
#
# 1 105.6596 21.1040 10.4762 0.0000 0.0000 0.0000
# 2 21.1040 142.2968 30.9430 0.0000 0.0000 0.0000
# 3 10.4762 30.9430 143.4202 0.0000 0.0000 0.0000
# 4 0.0000 0.0000 0.0000 41.2829 0.0000 0.0000
# 5 0.0000 0.0000 0.0000 0.0000 26.6072 0.0000
# 6 0.0000 0.0000 0.0000 0.0000 0.0000 30.8696
#
#
#
# Elastic Compliance Matrix: (Units=1/GPa)
#
#
# Indices 1 2 3 4 5 6 
#
# 1 0.009777 -0.001359 -0.000421 0.000000 0.000000 0.000000
# 2 -0.001359 0.007562 -0.001532 0.000000 0.000000 0.000000
# 3 -0.000421 -0.001532 0.007334 0.000000 0.000000 0.000000
# 4 0.000000 0.000000 0.000000 0.024223 0.000000 0.000000
# 5 0.000000 0.000000 0.000000 0.000000 0.037584 0.000000
# 6 0.000000 0.000000 0.000000 0.000000 0.000000 0.032394
#
#
# Mechanical properties :
#
#
# Convention : Reuss Voigt Hill
#
# Bulk Modulus (GPa) = 55.40258 57.38032 56.39145
# Shear Modulus (GPa) = 38.01839 41.67549 39.84694
#
# Velocity S-wave (km/s) = 3.82268 4.00231 3.91353
# Velocity P-wave (km/s) = 6.38581 6.58885 6.48812
#
# Compressibility (1/GPa) = 0.01804970
#
# Stress axis : x y z
#
# Youngs Moduli (GPa) = 102.27611 132.23563 136.35345
#
# Poissons Ratio (x) = 0.17964 0.05742
# Poissons Ratio (y) = 0.13894 0.20894
# Poissons Ratio (z) = 0.04307 0.20263
#
# Static dielectric constant tensor:
#      x y z
#    x 2.091720 0.000000 0.000000 
#    y 0.000000 2.120230 0.000000 
#    z 0.000000 0.000000 2.229860 
# 
# From -- ./inp_files/17046.got.cif
#   From: 2010.05.17/outbox.cif.g08.bks.cpg/sg56_9_cif.got.tgz:17046.got - 2010.06.03 13:42:01.
