data_PCOD9429310
_publ_section_title
;
Structure prediction by ZEFSAII (Michael W. Deem and Ramdas Pophale) SiO2 
 PCOD9429310
Probable space group: P B A M
;
_chemical_formula_sum "Si O2"
_cell_formula_units_Z 64
_cell_length_a 30.000000
_cell_length_b 12.000000
_cell_length_c 9.000000
_cell_angle_alpha 90.000000
_cell_angle_beta 90.000000
_cell_angle_gamma 90.000000
_cell_volume 3240.000000
_symmetry_space_group_name_H-M "P B A M"
_symmetry_group_IT_number 55
_symmetry_cell_setting 'orthorhombic'
loop_
_space_group_symop_operation_xyz
x,y,z
-x,-y,z
1/2+x,1/2-y,-z
1/2-x,1/2+y,-z
-x,-y,-z
x,y,-z
1/2-x,1/2+y,z
1/2+x,1/2-y,z
loop_
_atom_site_type_symbol
_atom_site_label
_atom_site_fract_x
_atom_site_fract_y
_atom_site_fract_z
Si Si1 0.277797 0.556730 0.674693
Si Si2 0.420034 0.467282 0.828713
Si Si3 0.062843 0.341078 0.319749
Si Si4 0.526144 0.716538 0.320724
Si Si5 0.814982 0.396933 0.829204
Si Si6 0.632082 0.332896 0.678948
Si Si7 0.676440 0.633675 0.835417
Si Si8 0.409749 0.078478 0.321020
O O1 0.271467 0.574001 0.500000
O O2 0.230636 0.564105 0.754465
O O3 0.317355 0.640785 0.728798
O O4 0.299143 0.436841 0.710118
O O5 0.459609 0.399261 0.752599
O O6 0.401830 0.574718 0.742260
O O7 0.376299 0.387544 0.824959
O O8 0.429954 0.493684 0.000000
O O9 0.060135 0.340929 0.500000
O O10 0.109831 0.284032 0.279202
O O11 0.062746 0.469148 0.272881
O O12 0.021151 0.266763 0.269950
O O13 0.525515 0.703803 0.500000
O O14 0.563178 0.810177 0.282486
O O15 0.813492 0.262762 0.825703
O O16 0.860512 0.428033 0.746143
O O17 0.817154 0.433882 0.000000
O O18 0.632332 0.342065 0.500000
O O19 0.690250 0.591538 0.000000
O O20 0.406090 0.076684 0.500000
#
# Coordination Sequence:
#
# PCOD9429310 Si02
#       8
#     8   8   8   8   8   8   8   8
#     4  10  21  35  55  83 109 140 185 235 284 334
#     4  10  19  34  56  80 110 144 186 233 277 326
#     4   9  19  36  57  82 115 151 185 230 286 341
#     4  10  19  33  57  85 112 147 190 233 282 336
#     4  11  22  37  57  82 112 147 187 227 281 343
#     4   9  19  37  57  78 109 147 187 231 284 339
#     4   9  19  36  55  75 105 146 183 225 278 332
#     4  10  20  35  57  84 113 146 191 238 279 329
#
# _framework density 19.753086
#
# number of rings (size 3 to 8) (size 9 to 14) (size 15 to 20)
#    0.000    2.250    1.250    1.500    0.000    5.000 
#    0.000    5.625    0.000    1.500    0.000    0.000 
#    0.000    0.000    0.000    0.000    0.000    0.000 
#
# Total GULP energy -357021.769631 kJ/mol
# GULP energy per Si atom -5578.465150 kJ/mol
# Density = 1.970813 g / cm^3
# Si number density = 19.753086 Si / 1000 Ang^3
#
#
#
# Elastic Constant Matrix: (Units=GPa)
#
#
# Indices 1 2 3 4 5 6 
#
# 1 88.4742 13.9482 22.3495 0.0000 0.0000 0.0000
# 2 13.9482 -26.0095 -15.3330 0.0000 0.0000 0.0000
# 3 22.3495 -15.3330 9.0008 0.0000 0.0000 0.0000
# 4 0.0000 0.0000 0.0000 16.1695 0.0000 0.0000
# 5 0.0000 0.0000 0.0000 0.0000 3.5389 0.0000
# 6 0.0000 0.0000 0.0000 0.0000 0.0000 20.3652
#
#
#
# Elastic Compliance Matrix: (Units=1/GPa)
#
#
# Indices 1 2 3 4 5 6 
#
# 1 0.011780 0.011755 -0.009225 0.000000 0.000000 0.000000
# 2 0.011755 -0.007452 -0.041884 0.000000 0.000000 0.000000
# 3 -0.009225 -0.041884 0.062656 0.000000 0.000000 0.000000
# 4 0.000000 0.000000 0.000000 0.061845 0.000000 0.000000
# 5 0.000000 0.000000 0.000000 0.000000 0.282578 0.000000
# 6 0.000000 0.000000 0.000000 0.000000 0.000000 0.049103
#
#
# Mechanical properties :
#
#
# Convention : Reuss Voigt Hill
#
# Bulk Modulus (GPa) = -85.30507 12.59942 -36.35283
# Shear Modulus (GPa) = 9.34041 11.38143 10.36092
#
# Velocity S-wave (km/s) = 2.17689 2.40299 2.29273
# Velocity P-wave (km/s) = 6.07955 3.75386 3.38153
#
# Compressibility (1/GPa) = -0.01172263
#
# Stress axis : x y z
#
# Youngs Moduli (GPa) = 84.89158 -134.18648 15.96009
#
# Poissons Ratio (x) = 1.57738 0.14723
# Poissons Ratio (y) = -0.99791 0.66847
# Poissons Ratio (z) = 0.78309 -5.62023
#
# Static dielectric constant tensor:
#      x y z
#    x 1.687780 0.000000 0.000000 
#    y 0.000000 1.701990 0.000000 
#    z 0.000000 0.000000 1.686560 
# 
# From -- ./inp_files/10760.got.cif
#   From: 2010.05.17/outbox.ucp.g08.bks.cvg/sg55_6_cif.got.tgz:10760.got - 2010.06.11 16:36:00.
