data_PCOD9429945
_publ_section_title
;
Structure prediction by ZEFSAII (Michael W. Deem and Ramdas Pophale) SiO2 
 PCOD9429945
Probable space group: P C C N
;
_chemical_formula_sum "Si O2"
_cell_formula_units_Z 48
_cell_length_a 9.446790
_cell_length_b 13.179183
_cell_length_c 15.759122
_cell_angle_alpha 90.000000
_cell_angle_beta 90.000000
_cell_angle_gamma 90.000000
_cell_volume 1962.026041
_symmetry_space_group_name_H-M "P C C N"
_symmetry_group_IT_number 56
_symmetry_cell_setting 'orthorhombic'
loop_
_space_group_symop_operation_xyz
x,y,z
1/2-x,1/2-y,z
1/2+x,-y,1/2-z
-x,1/2+y,1/2-z
-x,-y,-z
1/2+x,1/2+y,-z
1/2-x,y,1/2+z
x,1/2-y,1/2+z
loop_
_atom_site_type_symbol
_atom_site_label
_atom_site_fract_x
_atom_site_fract_y
_atom_site_fract_z
Si Si1 0.750000 0.750000 0.692621
Si Si2 0.479077 0.193459 0.079053
Si Si3 0.733307 0.902876 0.061164
Si Si4 0.467267 0.508281 0.658605
Si Si5 0.750000 0.250000 0.989745
Si Si6 0.447428 0.113446 0.688176
Si Si7 0.315272 0.550407 0.071814
O O1 0.683297 0.829624 0.625291
O O2 0.848792 0.817204 0.751909
O O3 0.474078 0.308498 0.112049
O O4 0.458552 0.113526 0.156082
O O5 0.360587 0.160019 0.009458
O O6 0.638546 0.186206 0.044574
O O7 0.617908 0.960792 0.118898
O O8 0.831880 0.983008 0.012938
O O9 0.439314 0.566636 0.746407
O O10 0.351916 0.545615 0.592226
O O11 0.656780 0.331058 0.938052
O O12 0.380777 0.012844 0.648207
#
# Coordination Sequence:
#
# PCOD9429945 Si02
#       7
#     4   8   8   8   4   8   8
#     4  10  20  38  68  96 118 158 212 262 318 350
#     4  11  22  43  63  93 122 166 214 255 316 372
#     4  10  18  39  68  88 118 171 207 261 302 395
#     4  10  21  41  63  84 129 171 196 257 333 375
#     4  12  24  40  70  88 124 172 210 260 312 384
#     4  11  25  39  63  98 128 161 213 269 307 391
#     4  11  22  43  63  93 122 166 214 255 316 372
#
# _framework density 24.464507999999999
#
# number of rings (size 3 to 8) (size 9 to 14) (size 15 to 20)
#    0.000    1.333    3.333    4.000    0.000    3.333 
#    6.000    0.000    0.000    0.000    0.000    0.000 
#    0.000    0.000    0.000    0.000    0.000    0.000 
#
# Total GULP energy -268038.367487 kJ/mol
# GULP energy per Si atom -5584.132656 kJ/mol
# Density = 2.440883 g / cm^3
# Si number density = 24.464508 Si / 1000 Ang^3
#
#
#
# Elastic Constant Matrix: (Units=GPa)
#
#
# Indices 1 2 3 4 5 6 
#
# 1 37.0481 2.9106 9.3652 0.0000 0.0000 0.0000
# 2 2.9106 129.4342 53.1674 0.0000 0.0000 0.0000
# 3 9.3652 53.1674 74.8232 0.0000 0.0000 0.0000
# 4 0.0000 0.0000 0.0000 41.0008 0.0000 0.0000
# 5 0.0000 0.0000 0.0000 0.0000 10.0572 0.0000
# 6 0.0000 0.0000 0.0000 0.0000 0.0000 18.5732
#
#
#
# Elastic Compliance Matrix: (Units=1/GPa)
#
#
# Indices 1 2 3 4 5 6 
#
# 1 0.027993 0.001144 -0.004316 0.000000 0.000000 0.000000
# 2 0.001144 0.010957 -0.007929 0.000000 0.000000 0.000000
# 3 -0.004316 -0.007929 0.019539 0.000000 0.000000 0.000000
# 4 0.000000 0.000000 0.000000 0.024390 0.000000 0.000000
# 5 0.000000 0.000000 0.000000 0.000000 0.099432 0.000000
# 6 0.000000 0.000000 0.000000 0.000000 0.000000 0.053841
#
#
# Mechanical properties :
#
#
# Convention : Reuss Voigt Hill
#
# Bulk Modulus (GPa) = 27.55883 41.35466 34.45674
# Shear Modulus (GPa) = 18.48765 25.65040 22.06902
#
# Velocity S-wave (km/s) = 2.75197 3.24153 3.00673
# Velocity P-wave (km/s) = 4.62461 5.56333 5.11555
#
# Compressibility (1/GPa) = 0.03628602
#
# Stress axis : x y z
#
# Youngs Moduli (GPa) = 35.72300 91.26406 51.17899
#
# Poissons Ratio (x) = -0.10436 0.22090
# Poissons Ratio (y) = -0.04085 0.40580
# Poissons Ratio (z) = 0.15419 0.72364
#
# Static dielectric constant tensor:
#      x y z
#    x 1.950980 0.000000 0.000000 
#    y 0.000000 2.045450 0.000000 
#    z 0.000000 0.000000 1.968070 
# 
# From -- ./inp_files/15648.got.cif
#   From: 2010.05.17/outbox.cif.g08.bks.cpg/sg56_8_cif.got.tgz:15648.got - 2010.06.03 13:42:01.
