data_PCOD9429516
_publ_section_title
;
Structure prediction by ZEFSAII (Michael W. Deem and Ramdas Pophale) SiO2 
 PCOD9429516
Probable space group: P C C N
;
_chemical_formula_sum "Si O2"
_cell_formula_units_Z 56
_cell_length_a 21.860533
_cell_length_b 27.597862
_cell_length_c 5.235899
_cell_angle_alpha 90.000000
_cell_angle_beta 90.000000
_cell_angle_gamma 90.000000
_cell_volume 3158.838669
_symmetry_space_group_name_H-M "P C C N"
_symmetry_group_IT_number 56
_symmetry_cell_setting 'orthorhombic'
loop_
_space_group_symop_operation_xyz
x,y,z
1/2-x,1/2-y,z
1/2+x,-y,1/2-z
-x,1/2+y,1/2-z
-x,-y,-z
1/2+x,1/2+y,-z
1/2-x,y,1/2+z
x,1/2-y,1/2+z
loop_
_atom_site_type_symbol
_atom_site_label
_atom_site_fract_x
_atom_site_fract_y
_atom_site_fract_z
Si Si1 0.832795 0.717660 0.267403
Si Si2 0.688438 0.614130 0.644353
Si Si3 0.825269 0.573997 0.644014
Si Si4 0.397994 0.716488 0.791728
Si Si5 0.707750 0.137595 0.719259
Si Si6 0.209077 0.528784 0.229379
Si Si7 0.029590 0.280454 0.808600
O O1 0.823311 0.744608 0.535491
O O2 0.795598 0.668715 0.224269
O O3 0.903309 0.699165 0.247085
O O4 0.752288 0.585266 0.610952
O O5 0.655253 0.608981 0.373598
O O6 0.650418 0.588943 0.869270
O O7 0.832243 0.518151 0.718921
O O8 0.393143 0.755516 0.561427
O O9 0.345367 0.676955 0.769053
O O10 0.466077 0.693722 0.759252
O O11 0.746128 0.143090 0.458126
O O12 0.682443 0.082497 0.734668
O O13 0.261984 0.525678 0.447029
O O14 0.028034 0.235503 0.605100
#
# Coordination Sequence:
#
# PCOD9429516 Si02
#       7
#     8   8   8   8   8   8   8
#     4  10  19  32  45  65  92 116 148 189 222 258
#     4  10  18  28  46  65  85 116 150 184 219 267
#     4  10  17  30  43  63  87 114 150 186 221 266
#     4  10  19  32  48  67  94 125 153 178 214 263
#     4  10  21  30  45  71  96 121 152 175 223 263
#     4  10  16  30  46  62  88 115 149 191 212 253
#     4   8  16  30  48  63  82 117 155 186 214 250
#
# _framework density 17.728034000000001
#
# number of rings (size 3 to 8) (size 9 to 14) (size 15 to 20)
#    0.000    2.286    2.857    1.714    0.000    1.714 
#    0.000    8.571    0.000    0.000    0.000    2.000 
#    0.000    0.000    0.000    0.000    0.000    0.000 
#
# Total GULP energy -311809.045017 kJ/mol
# GULP energy per Si atom -5568.018661 kJ/mol
# Density = 1.768768 g / cm^3
# Si number density = 17.728034 Si / 1000 Ang^3
#
#
#
# Elastic Constant Matrix: (Units=GPa)
#
#
# Indices 1 2 3 4 5 6 
#
# 1 45.3936 26.6392 -4.3722 0.0000 0.0000 0.0000
# 2 26.6392 61.7662 -9.8204 0.0000 0.0000 0.0000
# 3 -4.3722 -9.8204 73.9933 0.0000 0.0000 0.0000
# 4 0.0000 0.0000 0.0000 21.8835 0.0000 0.0000
# 5 0.0000 0.0000 0.0000 0.0000 10.1973 0.0000
# 6 0.0000 0.0000 0.0000 0.0000 0.0000 0.8342
#
#
#
# Elastic Compliance Matrix: (Units=1/GPa)
#
#
# Indices 1 2 3 4 5 6 
#
# 1 0.029495 -0.012712 0.000056 0.000000 0.000000 0.000000
# 2 -0.012712 0.022018 0.002171 0.000000 0.000000 0.000000
# 3 0.000056 0.002171 0.013806 0.000000 0.000000 0.000000
# 4 0.000000 0.000000 0.000000 0.045696 0.000000 0.000000
# 5 0.000000 0.000000 0.000000 0.000000 0.098065 0.000000
# 6 0.000000 0.000000 0.000000 0.000000 0.000000 1.198793
#
#
# Mechanical properties :
#
#
# Convention : Reuss Voigt Hill
#
# Bulk Modulus (GPa) = 22.54873 22.89404 22.72138
# Shear Modulus (GPa) = 3.46350 17.83010 10.64680
#
# Velocity S-wave (km/s) = 1.39926 3.17481 2.45330
# Velocity P-wave (km/s) = 3.91886 5.13627 4.56830
#
# Compressibility (1/GPa) = 0.04434839
#
# Stress axis : x y z
#
# Youngs Moduli (GPa) = 33.90417 45.41774 72.43138
#
# Poissons Ratio (x) = 0.57735 -0.00403
# Poissons Ratio (y) = 0.43099 -0.15725
# Poissons Ratio (z) = -0.00189 -0.09860
#
# Static dielectric constant tensor:
#      x y z
#    x 1.639990 0.000000 0.000000 
#    y 0.000000 1.607400 0.000000 
#    z 0.000000 0.000000 1.700740 
# 
# From -- ./inp_files/956.got.cif
#   From: 2010.05.17/outbox.cif.g08.bks.cpg/sg56_1_cif.got.tgz:956.got - 2010.06.03 13:42:01.
