data_PCOD9429672
_publ_section_title
;
Structure prediction by ZEFSAII (Michael W. Deem and Ramdas Pophale) SiO2 
 PCOD9429672
Probable space group: P C C N
;
_chemical_formula_sum "Si O2"
_cell_formula_units_Z 64
_cell_length_a 30.114370
_cell_length_b 27.497442
_cell_length_c 5.329669
_cell_angle_alpha 90.000000
_cell_angle_beta 90.000000
_cell_angle_gamma 90.000000
_cell_volume 4413.329109
_symmetry_space_group_name_H-M "P C C N"
_symmetry_group_IT_number 56
_symmetry_cell_setting 'orthorhombic'
loop_
_space_group_symop_operation_xyz
x,y,z
1/2-x,1/2-y,z
1/2+x,-y,1/2-z
-x,1/2+y,1/2-z
-x,-y,-z
1/2+x,1/2+y,-z
1/2-x,y,1/2+z
x,1/2-y,1/2+z
loop_
_atom_site_type_symbol
_atom_site_label
_atom_site_fract_x
_atom_site_fract_y
_atom_site_fract_z
Si Si1 0.927074 0.226524 0.431984
Si Si2 0.118150 0.514407 0.995876
Si Si3 0.774623 0.358076 0.076052
Si Si4 0.222865 0.525717 0.953809
Si Si5 0.012609 0.921091 0.991582
Si Si6 0.428508 0.018707 0.496934
Si Si7 0.176332 0.728572 0.075120
Si Si8 0.441415 0.612723 0.490769
O O1 0.947097 0.255199 0.669156
O O2 0.875307 0.241520 0.409894
O O3 0.927043 0.168614 0.474739
O O4 0.171332 0.511916 0.979003
O O5 0.101352 0.489089 0.251071
O O6 0.097048 0.570054 0.993047
O O7 0.098450 0.486696 0.754375
O O8 0.738961 0.345635 0.859151
O O9 0.779579 0.415535 0.056127
O O10 0.817146 0.327499 0.994207
O O11 0.252125 0.511014 0.196561
O O12 0.032091 0.892248 0.229109
O O13 0.039213 0.971934 0.998994
O O14 0.026370 0.898543 0.725715
O O15 0.960822 0.934759 0.012697
O O16 0.196406 0.742013 0.342435
#
# Coordination Sequence:
#
# PCOD9429672 Si02
#       8
#     8   8   8   8   8   8   8   8
#     4  10  20  32  43  57  77 101 133 169 200 233
#     4  10  18  29  46  62  80 108 135 163 209 258
#     4  10  20  31  42  54  69  89 117 159 205 249
#     4  10  20  32  43  57  77 101 133 169 200 233
#     4   9  17  28  43  65  87 103 124 158 202 253
#     4   9  17  28  43  65  87 103 124 158 202 253
#     4  10  20  31  42  54  69  89 117 159 205 249
#     4  10  18  29  46  62  80 108 135 163 209 258
#
# _framework density 14.501525000000001
#
# number of rings (size 3 to 8) (size 9 to 14) (size 15 to 20)
#    0.000    2.250    0.000    3.750    0.000    4.500 
#    0.000    7.500    0.000    0.000    0.000    0.000 
#    0.000    0.000    0.000    0.000    0.000    0.000 
#
# Total GULP energy -356339.653385 kJ/mol
# GULP energy per Si atom -5567.807084 kJ/mol
# Density = 1.446852 g / cm^3
# Si number density = 14.501525 Si / 1000 Ang^3
#
#
#
# Elastic Constant Matrix: (Units=GPa)
#
#
# Indices 1 2 3 4 5 6 
#
# 1 69.7638 14.1937 43.7475 0.0000 0.0000 0.0000
# 2 14.1937 10.2961 13.0589 0.0000 0.0000 0.0000
# 3 43.7475 13.0589 120.1574 0.0000 0.0000 0.0000
# 4 0.0000 0.0000 0.0000 10.6293 0.0000 0.0000
# 5 0.0000 0.0000 0.0000 0.0000 11.2796 0.0000
# 6 0.0000 0.0000 0.0000 0.0000 0.0000 17.6843
#
#
#
# Elastic Compliance Matrix: (Units=1/GPa)
#
#
# Indices 1 2 3 4 5 6 
#
# 1 0.022832 -0.024278 -0.005674 0.000000 0.000000 0.000000
# 2 -0.024278 0.138469 -0.006210 0.000000 0.000000 0.000000
# 3 -0.005674 -0.006210 0.011063 0.000000 0.000000 0.000000
# 4 0.000000 0.000000 0.000000 0.094079 0.000000 0.000000
# 5 0.000000 0.000000 0.000000 0.000000 0.088655 0.000000
# 6 0.000000 0.000000 0.000000 0.000000 0.000000 0.056547
#
#
# Mechanical properties :
#
#
# Convention : Reuss Voigt Hill
#
# Bulk Modulus (GPa) = 9.99599 38.02415 24.01007
# Shear Modulus (GPa) = 9.66528 16.53314 13.09921
#
# Velocity S-wave (km/s) = 2.58447 3.38020 3.00875
# Velocity P-wave (km/s) = 3.97668 6.44298 5.35378
#
# Compressibility (1/GPa) = 0.10004013
#
# Stress axis : x y z
#
# Youngs Moduli (GPa) = 43.79898 7.22184 90.39017
#
# Poissons Ratio (x) = 0.17533 0.51288
# Poissons Ratio (y) = 1.06335 0.56130
# Poissons Ratio (z) = 0.24852 0.04485
#
# Static dielectric constant tensor:
#      x y z
#    x 1.483810 0.000000 0.000000 
#    y 0.000000 1.465710 0.000000 
#    z 0.000000 0.000000 1.528240 
# 
# From -- ./inp_files/1157.got.cif
#   From: 2010.05.17/outbox.cif.g08.bks.cpg/sg56_1_cif.got.tgz:1157.got - 2010.06.03 13:42:01.
