data_PCOD9429866
_publ_section_title
;
Structure prediction by ZEFSAII (Michael W. Deem and Ramdas Pophale) SiO2 
 PCOD9429866
Probable space group: P C C N
;
_chemical_formula_sum "Si O2"
_cell_formula_units_Z 52
_cell_length_a 6.124908
_cell_length_b 21.637557
_cell_length_c 19.249181
_cell_angle_alpha 90.000000
_cell_angle_beta 90.000000
_cell_angle_gamma 90.000000
_cell_volume 2551.056344
_symmetry_space_group_name_H-M "P C C N"
_symmetry_group_IT_number 56
_symmetry_cell_setting 'orthorhombic'
loop_
_space_group_symop_operation_xyz
x,y,z
1/2-x,1/2-y,z
1/2+x,-y,1/2-z
-x,1/2+y,1/2-z
-x,-y,-z
1/2+x,1/2+y,-z
1/2-x,y,1/2+z
x,1/2-y,1/2+z
loop_
_atom_site_type_symbol
_atom_site_label
_atom_site_fract_x
_atom_site_fract_y
_atom_site_fract_z
Si Si1 0.867782 0.469045 0.836295
Si Si2 0.122407 0.311321 0.509434
Si Si3 0.704730 0.440851 0.607515
Si Si4 0.603656 0.666636 0.352324
Si Si5 0.250000 0.750000 0.901772
Si Si6 0.906042 0.434940 0.468685
Si Si7 0.411460 0.417554 0.210811
O O1 0.698274 0.445709 0.893697
O O2 0.755150 0.524322 0.791663
O O3 0.946099 0.420270 0.779694
O O4 0.081964 0.495296 0.876320
O O5 0.250000 0.250000 0.478346
O O6 0.276746 0.328617 0.573855
O O7 0.892266 0.291796 0.545344
O O8 0.067187 0.375420 0.469387
O O9 0.554364 0.391316 0.644577
O O10 0.719194 0.424574 0.526684
O O11 0.938440 0.431196 0.643423
O O12 0.437769 0.722998 0.351841
O O13 0.785900 0.647051 0.297646
O O14 0.000000 0.500000 0.500000
#
# Coordination Sequence:
#
# PCOD9429866 Si02
#       7
#     8   8   8   8   4   8   8
#     4  11  23  34  57  83 135 174 214 253 343 403
#     4  10  21  37  60  93 130 165 210 261 335 396
#     4  11  20  37  56  87 134 163 205 264 325 389
#     4  10  19  34  60  86 125 159 213 267 313 388
#     4  10  18  36  60  90 124 162 208 262 326 378
#     4  12  21  38  61  98 135 163 214 280 335 393
#     4  11  20  36  53  86 130 178 209 261 328 412
#
# _framework density 20.383711000000002
#
# number of rings (size 3 to 8) (size 9 to 14) (size 15 to 20)
#    0.000    1.231    6.154    1.385    0.000    0.000 
#    0.000    0.000    0.000    0.000    0.000   14.000 
#    4.615    0.000    0.000    0.000    0.000    0.000 
#
# Total GULP energy -289594.507932 kJ/mol
# GULP energy per Si atom -5569.125153 kJ/mol
# Density = 2.033732 g / cm^3
# Si number density = 20.383711 Si / 1000 Ang^3
#
#
#
# Elastic Constant Matrix: (Units=GPa)
#
#
# Indices 1 2 3 4 5 6 
#
# 1 86.8615 45.0556 23.5182 0.0000 0.0000 0.0000
# 2 45.0556 108.1971 33.2756 0.0000 0.0000 0.0000
# 3 23.5182 33.2756 83.8600 0.0000 0.0000 0.0000
# 4 0.0000 0.0000 0.0000 19.0952 0.0000 0.0000
# 5 0.0000 0.0000 0.0000 0.0000 15.9510 0.0000
# 6 0.0000 0.0000 0.0000 0.0000 0.0000 39.9437
#
#
#
# Elastic Compliance Matrix: (Units=1/GPa)
#
#
# Indices 1 2 3 4 5 6 
#
# 1 0.014963 -0.005627 -0.001964 0.000000 0.000000 0.000000
# 2 -0.005627 0.012643 -0.003439 0.000000 0.000000 0.000000
# 3 -0.001964 -0.003439 0.013840 0.000000 0.000000 0.000000
# 4 0.000000 0.000000 0.000000 0.052369 0.000000 0.000000
# 5 0.000000 0.000000 0.000000 0.000000 0.062692 0.000000
# 6 0.000000 0.000000 0.000000 0.000000 0.000000 0.025035
#
#
# Mechanical properties :
#
#
# Convention : Reuss Voigt Hill
#
# Bulk Modulus (GPa) = 51.57988 53.62416 52.60202
# Shear Modulus (GPa) = 23.80234 26.80259 25.30247
#
# Velocity S-wave (km/s) = 3.42089 3.63009 3.52704
# Velocity P-wave (km/s) = 6.40021 6.62832 6.51526
#
# Compressibility (1/GPa) = 0.01938740
#
# Stress axis : x y z
#
# Youngs Moduli (GPa) = 66.83154 79.09405 72.25543
#
# Poissons Ratio (x) = 0.44507 0.14187
# Poissons Ratio (y) = 0.37606 0.24847
# Poissons Ratio (z) = 0.13122 0.27198
#
# Static dielectric constant tensor:
#      x y z
#    x 1.865700 0.000000 0.000000 
#    y 0.000000 1.845780 0.000000 
#    z 0.000000 0.000000 1.732910 
# 
# From -- ./inp_files/17574.got.cif
#   From: 2010.05.17/outbox.cif.g08.bks.cpg/sg56_9_cif.got.tgz:17574.got - 2010.06.03 13:42:01.
