data_PCOD9429103
_publ_section_title
;
Structure prediction by ZEFSAII (Michael W. Deem and Ramdas Pophale) SiO2 
 PCOD9429103
Probable space group: P B A M
;
_chemical_formula_sum "Si O2"
_cell_formula_units_Z 48
_cell_length_a 28.302349
_cell_length_b 9.411150
_cell_length_c 8.993224
_cell_angle_alpha 90.000000
_cell_angle_beta 90.000000
_cell_angle_gamma 90.000000
_cell_volume 2395.414027
_symmetry_space_group_name_H-M "P B A M"
_symmetry_group_IT_number 55
_symmetry_cell_setting 'orthorhombic'
loop_
_space_group_symop_operation_xyz
x,y,z
-x,-y,z
1/2+x,1/2-y,-z
1/2-x,1/2+y,-z
-x,-y,-z
x,y,-z
1/2-x,1/2+y,z
1/2+x,1/2-y,z
loop_
_atom_site_type_symbol
_atom_site_label
_atom_site_fract_x
_atom_site_fract_y
_atom_site_fract_z
Si Si1 0.364669 0.031650 0.174004
Si Si2 0.954941 0.604645 0.328145
Si Si3 0.615066 0.683650 0.676788
Si Si4 0.199313 0.014196 0.322155
Si Si5 0.222766 0.316414 0.175687
Si Si6 0.986663 0.164560 0.830137
O O1 0.412315 0.959616 0.234370
O O2 0.322068 0.921124 0.191735
O O3 0.357863 0.176591 0.265057
O O4 0.369152 0.066337 0.000000
O O5 0.940482 0.619015 0.500000
O O6 0.000000 0.500000 0.321730
O O7 0.974082 0.750526 0.261246
O O8 0.608248 0.694827 0.500000
O O9 0.646618 0.545012 0.708822
O O10 0.564509 0.682298 0.756110
O O11 0.204708 0.027035 0.500000
O O12 0.234703 0.894954 0.259242
O O13 0.210712 0.163434 0.244561
O O14 0.233477 0.300766 0.000000
O O15 0.985308 0.218096 0.000000
O O16 0.000000 0.000000 0.831282
#
# Coordination Sequence:
#
# PCOD9429103 Si02
#       6
#     8   8   8   8   8   8
#     4  11  24  41  65  95 127 167 212 261 316 374
#     4  11  23  40  64  94 126 167 214 260 312 373
#     4  11  24  42  64  94 127 167 213 260 316 376
#     4  11  25  44  68  97 130 168 211 261 318 380
#     4  11  25  44  68  98 130 167 211 261 317 380
#     4  11  25  42  63  92 127 168 213 262 317 375
#
# _framework density 20.03829
#
# number of rings (size 3 to 8) (size 9 to 14) (size 15 to 20)
#    0.000    1.000    1.667    4.000    2.333   10.000 
#    0.000    0.000    0.000    0.000    0.000    0.000 
#    0.000    0.000    0.000    0.000    0.000    0.000 
#
# Total GULP energy -268619.027602 kJ/mol
# GULP energy per Si atom -5596.229742 kJ/mol
# Density = 1.999268 g / cm^3
# Si number density = 20.038290 Si / 1000 Ang^3
#
#
#
# Elastic Constant Matrix: (Units=GPa)
#
#
# Indices 1 2 3 4 5 6 
#
# 1 47.0299 -2.3526 17.0181 0.0000 0.0000 0.0000
# 2 -2.3526 85.1507 13.4028 0.0000 0.0000 0.0000
# 3 17.0181 13.4028 52.6747 0.0000 0.0000 0.0000
# 4 0.0000 0.0000 0.0000 43.6169 0.0000 0.0000
# 5 0.0000 0.0000 0.0000 0.0000 1.0934 0.0000
# 6 0.0000 0.0000 0.0000 0.0000 0.0000 26.6449
#
#
#
# Elastic Compliance Matrix: (Units=1/GPa)
#
#
# Indices 1 2 3 4 5 6 
#
# 1 0.024399 0.001995 -0.008390 0.000000 0.000000 0.000000
# 2 0.001995 0.012397 -0.003799 0.000000 0.000000 0.000000
# 3 -0.008390 -0.003799 0.022662 0.000000 0.000000 0.000000
# 4 0.000000 0.000000 0.000000 0.022927 0.000000 0.000000
# 5 0.000000 0.000000 0.000000 0.000000 0.914544 0.000000
# 6 0.000000 0.000000 0.000000 0.000000 0.000000 0.037531
#
#
# Mechanical properties :
#
#
# Convention : Reuss Voigt Hill
#
# Bulk Modulus (GPa) = 25.59582 26.77688 26.18635
# Shear Modulus (GPa) = 4.68221 24.72351 14.70286
#
# Velocity S-wave (km/s) = 1.53026 3.51638 2.71170
# Velocity P-wave (km/s) = 3.99042 5.46612 4.78549
#
# Compressibility (1/GPa) = 0.03906888
#
# Stress axis : x y z
#
# Youngs Moduli (GPa) = 40.98535 80.66515 44.12714
#
# Poissons Ratio (x) = -0.16091 0.37024
# Poissons Ratio (y) = -0.08176 0.16763
# Poissons Ratio (z) = 0.34388 0.30643
#
# Static dielectric constant tensor:
#      x y z
#    x 1.687940 0.000000 0.000000 
#    y 0.000000 1.698360 0.000000 
#    z 0.000000 0.000000 1.676100 
# 
# From -- ./inp_files/2784.got.cif
#   From: 2010.05.17/outbox.cif.g08.bks.cpg/sg55_2_cif.got.tgz:2784.got - 2010.06.03 13:27:54.
