data_PCOD9429388
_publ_section_title
;
Structure prediction by ZEFSAII (Michael W. Deem and Ramdas Pophale) SiO2 
 PCOD9429388
Probable space group: P B A M
;
_chemical_formula_sum "Si O2"
_cell_formula_units_Z 64
_cell_length_a 24.000000
_cell_length_b 15.000000
_cell_length_c 9.000000
_cell_angle_alpha 90.000000
_cell_angle_beta 90.000000
_cell_angle_gamma 90.000000
_cell_volume 3240.000000
_symmetry_space_group_name_H-M "P B A M"
_symmetry_group_IT_number 55
_symmetry_cell_setting 'orthorhombic'
loop_
_space_group_symop_operation_xyz
x,y,z
-x,-y,z
1/2+x,1/2-y,-z
1/2-x,1/2+y,-z
-x,-y,-z
x,y,-z
1/2-x,1/2+y,z
1/2+x,1/2-y,z
loop_
_atom_site_type_symbol
_atom_site_label
_atom_site_fract_x
_atom_site_fract_y
_atom_site_fract_z
Si Si1 0.452370 0.066588 0.320334
Si Si2 0.958853 0.084204 0.830281
Si Si3 0.514736 0.247723 0.320328
Si Si4 0.759918 0.267198 0.319483
Si Si5 0.175425 0.548422 0.680075
Si Si6 0.133279 0.214849 0.674512
Si Si7 0.860611 0.991968 0.327891
Si Si8 0.238669 0.920071 0.824126
O O1 0.450644 0.056447 0.500000
O O2 0.474915 0.164980 0.289780
O O3 0.389024 0.051883 0.271294
O O4 0.500000 0.000000 0.263419
O O5 0.991014 0.167972 0.765152
O O6 0.908726 0.058390 0.721753
O O7 0.939486 0.099453 0.000000
O O8 0.000000 0.000000 0.832448
O O9 0.515383 0.263003 0.500000
O O10 0.579041 0.232508 0.271479
O O11 0.761740 0.261089 0.500000
O O12 0.793759 0.357496 0.281163
O O13 0.695479 0.273581 0.265838
O O14 0.779232 0.174075 0.249032
O O15 0.178448 0.540555 0.500000
O O16 0.206391 0.463646 0.751103
O O17 0.138426 0.236575 0.500000
O O18 0.119539 0.109866 0.687380
O O19 0.843860 0.004451 0.500000
O O20 0.809009 0.009923 0.221318
O O21 0.244373 0.910948 0.000000
#
# Coordination Sequence:
#
# PCOD9429388 Si02
#       8
#     8   8   8   8   8   8   8   8
#     4   9  20  37  62  93 121 153 206 267 311 347
#     4  11  23  37  54  86 129 167 198 240 303 369
#     4  10  20  36  60  90 119 159 207 254 303 360
#     4  10  21  39  63  92 119 156 209 262 310 366
#     4  10  21  41  66  92 122 161 211 262 309 365
#     4   9  18  34  60  90 116 147 203 262 307 357
#     4  11  21  39  63  88 118 158 207 256 301 361
#     4  12  26  41  60  91 126 163 200 248 321 386
#
# _framework density 19.753086
#
# number of rings (size 3 to 8) (size 9 to 14) (size 15 to 20)
#    0.000    1.750    2.500    1.875    3.500    1.000 
#    0.000    1.250    0.000    0.750    0.000    0.000 
#    0.000    0.000    0.000    0.000    0.000    0.000 
#
# Total GULP energy -357137.136816 kJ/mol
# GULP energy per Si atom -5580.267763 kJ/mol
# Density = 1.970813 g / cm^3
# Si number density = 19.753086 Si / 1000 Ang^3
#
#
#
# Elastic Constant Matrix: (Units=GPa)
#
#
# Indices 1 2 3 4 5 6 
#
# 1 85.5810 -2.2746 2.7865 0.0000 0.0000 0.0000
# 2 -2.2746 46.0236 22.2208 0.0000 0.0000 0.0000
# 3 2.7865 22.2208 40.4024 0.0000 0.0000 0.0000
# 4 0.0000 0.0000 0.0000 9.1172 0.0000 0.0000
# 5 0.0000 0.0000 0.0000 0.0000 10.6984 0.0000
# 6 0.0000 0.0000 0.0000 0.0000 0.0000 28.5219
#
#
#
# Elastic Compliance Matrix: (Units=1/GPa)
#
#
# Indices 1 2 3 4 5 6 
#
# 1 0.011770 0.001326 -0.001541 0.000000 0.000000 0.000000
# 2 0.001326 0.029733 -0.016444 0.000000 0.000000 0.000000
# 3 -0.001541 -0.016444 0.033901 0.000000 0.000000 0.000000
# 4 0.000000 0.000000 0.000000 0.109683 0.000000 0.000000
# 5 0.000000 0.000000 0.000000 0.000000 0.093472 0.000000
# 6 0.000000 0.000000 0.000000 0.000000 0.000000 0.035061
#
#
# Mechanical properties :
#
#
# Convention : Reuss Voigt Hill
#
# Bulk Modulus (GPa) = 23.76098 24.16360 23.96229
# Shear Modulus (GPa) = 13.85163 19.61910 16.73537
#
# Velocity S-wave (km/s) = 2.65096 3.15495 2.91388
# Velocity P-wave (km/s) = 4.62874 5.05282 4.84542
#
# Compressibility (1/GPa) = 0.04208580
#
# Stress axis : x y z
#
# Youngs Moduli (GPa) = 84.96004 33.63273 29.49734
#
# Poissons Ratio (x) = -0.04459 0.04545
# Poissons Ratio (y) = -0.11263 0.48506
# Poissons Ratio (z) = 0.13091 0.55306
#
# Static dielectric constant tensor:
#      x y z
#    x 1.741570 0.000000 0.000000 
#    y 0.000000 1.712620 0.000000 
#    z 0.000000 0.000000 1.659420 
# 
# From -- ./inp_files/9788.got.cif
#   From: 2010.05.17/outbox.ucp.g08.bks.cvg/sg55_5_cif.got.tgz:9788.got - 2010.06.11 16:36:00.
