data_PCOD9429764
_publ_section_title
;
Structure prediction by ZEFSAII (Michael W. Deem and Ramdas Pophale) SiO2 
 PCOD9429764
Probable space group: P C C N
;
_chemical_formula_sum "Si O2"
_cell_formula_units_Z 60
_cell_length_a 28.207308
_cell_length_b 6.188007
_cell_length_c 19.291705
_cell_angle_alpha 90.000000
_cell_angle_beta 90.000000
_cell_angle_gamma 90.000000
_cell_volume 3367.309606
_symmetry_space_group_name_H-M "P C C N"
_symmetry_group_IT_number 56
_symmetry_cell_setting 'orthorhombic'
loop_
_space_group_symop_operation_xyz
x,y,z
1/2-x,1/2-y,z
1/2+x,-y,1/2-z
-x,1/2+y,1/2-z
-x,-y,-z
1/2+x,1/2+y,-z
1/2-x,y,1/2+z
x,1/2-y,1/2+z
loop_
_atom_site_type_symbol
_atom_site_label
_atom_site_fract_x
_atom_site_fract_y
_atom_site_fract_z
Si Si1 0.204575 0.129171 0.715808
Si Si2 0.952073 0.825243 0.300359
Si Si3 0.483345 0.312172 0.448075
Si Si4 0.443468 0.526128 0.310910
Si Si5 0.377217 0.661090 0.744409
Si Si6 0.938567 0.959702 0.934671
Si Si7 0.661487 0.482815 0.873543
Si Si8 0.750000 0.250000 0.376114
O O1 0.250000 0.250000 0.749609
O O2 0.178714 0.294415 0.662443
O O3 0.164201 0.011454 0.761243
O O4 0.228512 0.939335 0.671222
O O5 0.931592 0.660591 0.243754
O O6 0.951657 0.711405 0.374673
O O7 0.006573 0.876588 0.284324
O O8 0.918917 0.033524 0.295626
O O9 0.500000 0.500000 0.500000
O O10 0.455456 0.419930 0.384551
O O11 0.451537 0.144601 0.491749
O O12 0.529063 0.172443 0.424401
O O13 0.403038 0.708335 0.305953
O O14 0.355117 0.832942 0.690789
O O15 0.883187 0.997021 0.923429
O O16 0.705416 0.365077 0.911475
#
# Coordination Sequence:
#
# PCOD9429764 Si02
#       8
#     8   8   8   8   8   8   8   4
#     4   9  17  32  50  80 118 142 175 230 298 357
#     4  12  21  34  55  79 110 152 199 238 278 343
#     4  11  25  38  51  75 118 160 197 238 282 343
#     4  12  22  33  51  78 110 154 203 241 278 343
#     4  11  20  30  53  81 111 150 185 239 292 340
#     4  11  22  37  55  76 110 164 193 232 294 342
#     4  10  18  33  52  81 111 146 182 232 295 349
#     4   8  18  28  52  80 114 138 168 236 298 348
#
# _framework density 17.818379
#
# number of rings (size 3 to 8) (size 9 to 14) (size 15 to 20)
#    0.000    1.333    5.333    1.600    0.000    0.000 
#    0.000    0.000    0.000    0.000    0.000    0.000 
#    0.000  187.733    0.000    0.000    0.000    0.000 
#
# Total GULP energy -334517.581246 kJ/mol
# GULP energy per Si atom -5575.293021 kJ/mol
# Density = 1.777782 g / cm^3
# Si number density = 17.818379 Si / 1000 Ang^3
#
#
#
# Elastic Constant Matrix: (Units=GPa)
#
#
# Indices 1 2 3 4 5 6 
#
# 1 138.9798 59.7446 26.7981 0.0000 0.0000 0.0000
# 2 59.7446 101.7736 30.4383 0.0000 0.0000 0.0000
# 3 26.7981 30.4383 54.4169 0.0000 0.0000 0.0000
# 4 0.0000 0.0000 0.0000 26.6707 0.0000 0.0000
# 5 0.0000 0.0000 0.0000 0.0000 19.6700 0.0000
# 6 0.0000 0.0000 0.0000 0.0000 0.0000 55.7544
#
#
#
# Elastic Compliance Matrix: (Units=1/GPa)
#
#
# Indices 1 2 3 4 5 6 
#
# 1 0.009790 -0.005170 -0.001929 0.000000 0.000000 0.000000
# 2 -0.005170 0.014530 -0.005581 0.000000 0.000000 0.000000
# 3 -0.001929 -0.005581 0.022449 0.000000 0.000000 0.000000
# 4 0.000000 0.000000 0.000000 0.037494 0.000000 0.000000
# 5 0.000000 0.000000 0.000000 0.000000 0.050839 0.000000
# 6 0.000000 0.000000 0.000000 0.000000 0.000000 0.017936
#
#
# Mechanical properties :
#
#
# Convention : Reuss Voigt Hill
#
# Bulk Modulus (GPa) = 46.71313 58.79247 52.75280
# Shear Modulus (GPa) = 26.94922 32.29832 29.62377
#
# Velocity S-wave (km/s) = 3.89323 4.26213 4.08185
# Velocity P-wave (km/s) = 6.81783 7.56889 7.20315
#
# Compressibility (1/GPa) = 0.02140726
#
# Stress axis : x y z
#
# Youngs Moduli (GPa) = 102.14795 68.82347 44.54604
#
# Poissons Ratio (x) = 0.35581 0.08594
# Poissons Ratio (y) = 0.52810 0.24863
# Poissons Ratio (z) = 0.19707 0.38413
#
# Static dielectric constant tensor:
#      x y z
#    x 1.661650 0.000000 0.000000 
#    y 0.000000 1.672630 0.000000 
#    z 0.000000 0.000000 1.567900 
# 
# From -- ./inp_files/17114.got.cif
#   From: 2010.05.17/outbox.cif.g08.bks.cpg/sg56_9_cif.got.tgz:17114.got - 2010.06.03 13:42:01.
