data_PCOD9429343
_publ_section_title
;
Structure prediction by ZEFSAII (Michael W. Deem and Ramdas Pophale) SiO2 
 PCOD9429343
Probable space group: P B A M
;
_chemical_formula_sum "Si O2"
_cell_formula_units_Z 48
_cell_length_a 30.000000
_cell_length_b 9.000000
_cell_length_c 9.000000
_cell_angle_alpha 90.000000
_cell_angle_beta 90.000000
_cell_angle_gamma 90.000000
_cell_volume 2430.000000
_symmetry_space_group_name_H-M "P B A M"
_symmetry_group_IT_number 55
_symmetry_cell_setting 'orthorhombic'
loop_
_space_group_symop_operation_xyz
x,y,z
-x,-y,z
1/2+x,1/2-y,-z
1/2-x,1/2+y,-z
-x,-y,-z
x,y,-z
1/2-x,1/2+y,z
1/2+x,1/2-y,z
loop_
_atom_site_type_symbol
_atom_site_label
_atom_site_fract_x
_atom_site_fract_y
_atom_site_fract_z
Si Si1 0.454774 0.673640 0.320332
Si Si2 0.452279 0.344003 0.178822
Si Si3 0.354721 0.199589 0.831111
Si Si4 0.299734 0.965361 0.673548
Si Si5 0.705129 0.514066 0.169159
Si Si6 0.137252 0.232357 0.177079
O O1 0.456998 0.675228 0.500000
O O2 0.449158 0.505412 0.256960
O O3 0.502327 0.725859 0.249505
O O4 0.409735 0.754366 0.261579
O O5 0.404776 0.260384 0.199225
O O6 0.458131 0.361513 0.000000
O O7 0.315920 0.323126 0.837607
O O8 0.335354 0.095483 0.703319
O O9 0.356460 0.132672 0.000000
O O10 0.297586 0.925895 0.500000
O O11 0.249716 0.998133 0.733008
O O12 0.322982 0.840762 0.774307
O O13 0.661358 0.422162 0.217471
O O14 0.716666 0.466180 0.000000
O O15 0.128871 0.236050 0.000000
#
# Coordination Sequence:
#
# PCOD9429343 Si02
#       6
#     8   8   8   8   8   8
#     4  11  21  34  57  91 124 151 186 241 303 349
#     4  10  19  36  61  88 116 152 201 242 282 347
#     4  10  21  40  63  87 114 154 202 243 284 341
#     4  12  26  39  55  87 125 158 190 240 304 355
#     4  10  21  40  64  87 111 152 206 248 284 340
#     4  11  22  41  64  86 115 158 204 245 285 344
#
# _framework density 19.753086
#
# number of rings (size 3 to 8) (size 9 to 14) (size 15 to 20)
#    0.000    1.333    1.667    6.000    0.000    7.333 
#    0.000    0.833    0.000    5.000    0.000    0.000 
#    0.000    0.000    0.000    0.000    0.000    0.000 
#
# Total GULP energy -267616.439768 kJ/mol
# GULP energy per Si atom -5575.342495 kJ/mol
# Density = 1.970813 g / cm^3
# Si number density = 19.753086 Si / 1000 Ang^3
#
#
#
# Elastic Constant Matrix: (Units=GPa)
#
#
# Indices 1 2 3 4 5 6 
#
# 1 148.6726 -9.4050 58.8840 0.0000 0.0000 0.0000
# 2 -9.4050 9.7793 -1.1293 0.0000 0.0000 0.0000
# 3 58.8840 -1.1293 104.9184 0.0000 0.0000 0.0000
# 4 0.0000 0.0000 0.0000 19.1278 0.0000 0.0000
# 5 0.0000 0.0000 0.0000 0.0000 32.6874 0.0000
# 6 0.0000 0.0000 0.0000 0.0000 0.0000 -9.7205
#
#
#
# Elastic Compliance Matrix: (Units=1/GPa)
#
#
# Indices 1 2 3 4 5 6 
#
# 1 0.009281 0.008335 -0.005119 0.000000 0.000000 0.000000
# 2 0.008335 0.109869 -0.003495 0.000000 0.000000 0.000000
# 3 -0.005119 -0.003495 0.012367 0.000000 0.000000 0.000000
# 4 0.000000 0.000000 0.000000 0.052280 0.000000 0.000000
# 5 0.000000 0.000000 0.000000 0.000000 0.030593 0.000000
# 6 0.000000 0.000000 0.000000 0.000000 0.000000 -0.102875
#
#
# Mechanical properties :
#
#
# Convention : Reuss Voigt Hill
#
# Bulk Modulus (GPa) = 7.63605 40.00774 23.82190
# Shear Modulus (GPa) = 32.10760 22.75364 27.43062
#
# Velocity S-wave (km/s) = 4.03606 3.39765 3.73054
# Velocity P-wave (km/s) = 5.05903 5.97411 5.53551
#
# Compressibility (1/GPa) = 0.13095771
#
# Stress axis : x y z
#
# Youngs Moduli (GPa) = 107.74791 9.10172 80.86285
#
# Poissons Ratio (x) = -0.07586 0.41394
# Poissons Ratio (y) = -0.89804 0.28263
# Poissons Ratio (z) = 0.55157 0.03181
#
# Static dielectric constant tensor:
#      x y z
#    x 1.668420 0.000000 0.000000 
#    y 0.000000 1.900260 0.000000 
#    z 0.000000 0.000000 1.677920 
# 
# From -- ./inp_files/10492.got.cif
#   From: 2010.05.17/outbox.ucp.g08.bks.cvg/sg55_6_cif.got.tgz:10492.got - 2010.06.11 16:36:00.
