data_PCOD9429564
_publ_section_title
;
Structure prediction by ZEFSAII (Michael W. Deem and Ramdas Pophale) SiO2 
 PCOD9429564
Probable space group: P C C N
;
_chemical_formula_sum "Si O2"
_cell_formula_units_Z 56
_cell_length_a 8.178427
_cell_length_b 14.879386
_cell_length_c 22.298736
_cell_angle_alpha 90.000000
_cell_angle_beta 90.000000
_cell_angle_gamma 90.000000
_cell_volume 2713.532564
_symmetry_space_group_name_H-M "P C C N"
_symmetry_group_IT_number 56
_symmetry_cell_setting 'orthorhombic'
loop_
_space_group_symop_operation_xyz
x,y,z
1/2-x,1/2-y,z
1/2+x,-y,1/2-z
-x,1/2+y,1/2-z
-x,-y,-z
1/2+x,1/2+y,-z
1/2-x,y,1/2+z
x,1/2-y,1/2+z
loop_
_atom_site_type_symbol
_atom_site_label
_atom_site_fract_x
_atom_site_fract_y
_atom_site_fract_z
Si Si1 0.596164 0.819181 0.352303
Si Si2 0.020622 0.707358 0.755616
Si Si3 0.250000 0.750000 0.655970
Si Si4 0.549144 0.526822 0.933158
Si Si5 0.237545 0.052370 0.365695
Si Si6 0.250000 0.250000 0.330056
Si Si7 0.371058 0.930194 0.118676
Si Si8 0.282396 0.457042 0.728034
O O1 0.750000 0.750000 0.355244
O O2 0.456888 0.762557 0.317019
O O3 0.565239 0.867507 0.415579
O O4 0.644796 0.903796 0.309952
O O5 0.896395 0.768064 0.716138
O O6 0.929096 0.615211 0.768296
O O7 0.152273 0.691295 0.704770
O O8 0.150901 0.822197 0.617090
O O9 0.393434 0.494219 0.894555
O O10 0.722297 0.477999 0.917018
O O11 0.500000 0.500000 0.000000
O O12 0.275862 0.159367 0.365821
O O13 0.231915 0.022827 0.295805
O O14 0.058203 0.041396 0.395455
O O15 0.344492 0.962847 0.187046
#
# Coordination Sequence:
#
# PCOD9429564 Si02
#       8
#     8   8   4   8   8   4   8   8
#     4   9  17  39  63  86 125 169 208 267 328 389
#     4  10  17  31  55  87 131 159 195 253 319 405
#     4  12  22  32  56 102 136 156 204 262 332 410
#     4  11  27  45  62  91 125 176 234 270 308 382
#     4  11  22  37  65  90 131 168 205 266 327 382
#     4  10  16  36  54  92 124 158 196 248 330 396
#     4  11  24  38  62  96 131 170 209 265 329 390
#     4   9  19  33  58  97 128 158 200 250 332 404
#
# _framework density 20.637305999999999
#
# number of rings (size 3 to 8) (size 9 to 14) (size 15 to 20)
#    0.000    1.714    5.000    1.714    8.000    0.571 
#    1.286    0.000    0.000    2.571    0.000    0.000 
#    0.000    0.000    0.000    0.000    0.000    0.000 
#
# Total GULP energy -311909.218058 kJ/mol
# GULP energy per Si atom -5569.807465 kJ/mol
# Density = 2.059033 g / cm^3
# Si number density = 20.637306 Si / 1000 Ang^3
#
#
#
# Elastic Constant Matrix: (Units=GPa)
#
#
# Indices 1 2 3 4 5 6 
#
# 1 98.7983 25.0835 29.9338 0.0000 0.0000 0.0000
# 2 25.0835 60.1745 9.8537 0.0000 0.0000 0.0000
# 3 29.9338 9.8537 77.1253 0.0000 0.0000 0.0000
# 4 0.0000 0.0000 0.0000 -17.1202 0.0000 0.0000
# 5 0.0000 0.0000 0.0000 0.0000 17.1683 0.0000
# 6 0.0000 0.0000 0.0000 0.0000 0.0000 22.3130
#
#
#
# Elastic Compliance Matrix: (Units=1/GPa)
#
#
# Indices 1 2 3 4 5 6 
#
# 1 0.012577 -0.004538 -0.004302 0.000000 0.000000 0.000000
# 2 -0.004538 0.018611 -0.000616 0.000000 0.000000 0.000000
# 3 -0.004302 -0.000616 0.014714 0.000000 0.000000 0.000000
# 4 0.000000 0.000000 0.000000 -0.058410 0.000000 0.000000
# 5 0.000000 0.000000 0.000000 0.000000 0.058247 0.000000
# 6 0.000000 0.000000 0.000000 0.000000 0.000000 0.044817
#
#
# Mechanical properties :
#
#
# Convention : Reuss Voigt Hill
#
# Bulk Modulus (GPa) = 37.05108 40.64890 38.84999
# Shear Modulus (GPa) = 42.20660 15.88736 29.04698
#
# Velocity S-wave (km/s) = 4.52725 2.77760 3.75573
# Velocity P-wave (km/s) = 6.73204 5.47963 6.13786
#
# Compressibility (1/GPa) = 0.02698977
#
# Stress axis : x y z
#
# Youngs Moduli (GPa) = 79.50930 53.73152 67.96156
#
# Poissons Ratio (x) = 0.24385 0.29234
# Poissons Ratio (y) = 0.36084 0.04189
# Poissons Ratio (z) = 0.34202 0.03312
#
# Static dielectric constant tensor:
#      x y z
#    x 1.753220 0.000000 0.000000 
#    y 0.000000 1.494470 0.000000 
#    z 0.000000 0.000000 1.737860 
# 
# From -- ./inp_files/18271.got.cif
#   From: 2010.05.17/outbox.cif.g08.bks.cpg/sg56_10_cif.got.tgz:18271.got - 2010.06.03 13:42:01.
