data_PCOD9429479
_publ_section_title
;
Structure prediction by ZEFSAII (Michael W. Deem and Ramdas Pophale) SiO2 
 PCOD9429479
Probable space group: P B A M
;
_chemical_formula_sum "Si O2"
_cell_formula_units_Z 48
_cell_length_a 15.000000
_cell_length_b 9.000000
_cell_length_c 18.000000
_cell_angle_alpha 90.000000
_cell_angle_beta 90.000000
_cell_angle_gamma 90.000000
_cell_volume 2430.000000
_symmetry_space_group_name_H-M "P B A M"
_symmetry_group_IT_number 55
_symmetry_cell_setting 'orthorhombic'
loop_
_space_group_symop_operation_xyz
x,y,z
-x,-y,z
1/2+x,1/2-y,-z
1/2-x,1/2+y,-z
-x,-y,-z
x,y,-z
1/2-x,1/2+y,z
1/2+x,1/2-y,z
loop_
_atom_site_type_symbol
_atom_site_label
_atom_site_fract_x
_atom_site_fract_y
_atom_site_fract_z
Si Si1 0.694512 0.360874 0.915236
Si Si2 0.641237 0.676738 0.150722
Si Si3 0.961940 0.669037 0.136041
Si Si4 0.132927 0.323698 0.703314
Si Si5 0.825330 0.322669 0.693242
Si Si6 0.015918 0.678532 0.415769
O O1 0.784263 0.284473 0.885189
O O2 0.666755 0.505578 0.866264
O O3 0.620208 0.230532 0.911966
O O4 0.705517 0.412067 0.000000
O O5 0.544248 0.720801 0.121051
O O6 0.638413 0.728214 0.236676
O O7 0.921124 0.687340 0.219241
O O8 0.000000 0.500000 0.127141
O O9 0.162331 0.498636 0.701981
O O10 0.221798 0.225379 0.692925
O O11 0.063930 0.276531 0.639090
O O12 0.888776 0.287987 0.622652
O O13 0.010866 0.735665 0.500000
O O14 0.000000 0.500000 0.418906
#
# Coordination Sequence:
#
# PCOD9429479 Si02
#       6
#     8   8   8   8   8   8
#     4  12  28  45  66  97 132 169 216 276 338 397
#     4  12  23  43  67  94 128 172 218 271 327 396
#     4  12  23  42  69  94 127 169 224 274 327 393
#     4  11  21  39  63  98 126 169 222 269 319 390
#     4  11  21  38  67  95 127 170 224 264 319 391
#     4   9  19  38  64  95 134 172 210 264 328 389
#
# _framework density 19.753086
#
# number of rings (size 3 to 8) (size 9 to 14) (size 15 to 20)
#    0.000    0.833    5.000    3.500    0.000    3.000 
#    0.000    0.833    0.000    1.000    0.000    0.000 
#    0.000    0.000    0.000    0.000    0.000    0.000 
#
# Total GULP energy -268076.448605 kJ/mol
# GULP energy per Si atom -5584.926013 kJ/mol
# Density = 1.970813 g / cm^3
# Si number density = 19.753086 Si / 1000 Ang^3
#
#
#
# Elastic Constant Matrix: (Units=GPa)
#
#
# Indices 1 2 3 4 5 6 
#
# 1 123.7488 32.3628 22.2463 0.0000 0.0000 0.0000
# 2 32.3628 79.7856 28.9970 0.0000 0.0000 0.0000
# 3 22.2463 28.9970 103.7766 0.0000 0.0000 0.0000
# 4 0.0000 0.0000 0.0000 22.9066 0.0000 0.0000
# 5 0.0000 0.0000 0.0000 0.0000 72.5406 0.0000
# 6 0.0000 0.0000 0.0000 0.0000 0.0000 41.6264
#
#
#
# Elastic Compliance Matrix: (Units=1/GPa)
#
#
# Indices 1 2 3 4 5 6 
#
# 1 0.009137 -0.003333 -0.001027 0.000000 0.000000 0.000000
# 2 -0.003333 0.015166 -0.003523 0.000000 0.000000 0.000000
# 3 -0.001027 -0.003523 0.010841 0.000000 0.000000 0.000000
# 4 0.000000 0.000000 0.000000 0.043656 0.000000 0.000000
# 5 0.000000 0.000000 0.000000 0.000000 0.013785 0.000000
# 6 0.000000 0.000000 0.000000 0.000000 0.000000 0.024023
#
#
# Mechanical properties :
#
#
# Convention : Reuss Voigt Hill
#
# Bulk Modulus (GPa) = 51.60774 52.72482 52.16628
# Shear Modulus (GPa) = 36.01424 42.32838 39.17131
#
# Velocity S-wave (km/s) = 4.27455 4.63414 4.45797
# Velocity P-wave (km/s) = 7.10954 7.44201 7.27767
#
# Compressibility (1/GPa) = 0.01937694
#
# Stress axis : x y z
#
# Youngs Moduli (GPa) = 109.44270 65.93734 92.24434
#
# Poissons Ratio (x) = 0.21976 0.09478
# Poissons Ratio (y) = 0.36475 0.32499
# Poissons Ratio (z) = 0.11245 0.23231
#
# Static dielectric constant tensor:
#      x y z
#    x 1.700790 0.000000 0.000000 
#    y 0.000000 1.678270 0.000000 
#    z 0.000000 0.000000 1.729080 
# 
# From -- ./inp_files/21497.got.cif
#   From: 2010.05.17/outbox.ucp.g08.bks.cvg/sg55_11_cif.got.tgz:21497.got - 2010.06.11 16:36:00.
