data_PCOD9429041
_publ_section_title
;
Structure prediction by ZEFSAII (Michael W. Deem and Ramdas Pophale) SiO2 
 PCOD9429041
Probable space group: P B A M
;
_chemical_formula_sum "Si O2"
_cell_formula_units_Z 48
_cell_length_a 24.758725
_cell_length_b 10.770696
_cell_length_c 7.874182
_cell_angle_alpha 90.000000
_cell_angle_beta 90.000000
_cell_angle_gamma 90.000000
_cell_volume 2099.797880
_symmetry_space_group_name_H-M "P B A M"
_symmetry_group_IT_number 55
_symmetry_cell_setting 'orthorhombic'
loop_
_space_group_symop_operation_xyz
x,y,z
-x,-y,z
1/2+x,1/2-y,-z
1/2-x,1/2+y,-z
-x,-y,-z
x,y,-z
1/2-x,1/2+y,z
1/2+x,1/2-y,z
loop_
_atom_site_type_symbol
_atom_site_label
_atom_site_fract_x
_atom_site_fract_y
_atom_site_fract_z
Si Si1 0.696159 0.141731 0.207725
Si Si2 0.417254 0.769641 0.804761
Si Si3 0.524760 0.871736 0.304709
Si Si4 0.271205 0.132311 0.207539
Si Si5 0.121798 0.772078 0.191678
Si Si6 0.561982 0.485540 0.302103
O O1 0.633338 0.151144 0.260838
O O2 0.724617 0.270927 0.260923
O O3 0.724897 0.012579 0.262165
O O4 0.696204 0.141546 0.000000
O O5 0.473163 0.782858 0.705595
O O6 0.406170 0.623172 0.793244
O O7 0.427012 0.804089 0.000000
O O8 0.542860 0.882331 0.500000
O O9 0.573852 0.827368 0.193465
O O10 0.500000 0.000000 0.245494
O O11 0.325787 0.203723 0.261523
O O12 0.270282 0.128063 0.000000
O O13 0.095670 0.888299 0.285641
O O14 0.134673 0.812630 0.000000
O O15 0.500000 0.500000 0.236035
O O16 0.558284 0.453975 0.500000
#
# Coordination Sequence:
#
# PCOD9429041 Si02
#       6
#     8   8   8   8   8   8
#     4   9  19  35  57  88 124 156 191 244 306 359
#     4  11  22  36  60  90 118 151 200 253 300 353
#     4  11  23  38  57  82 117 163 199 237 302 369
#     4   9  19  35  57  88 124 156 191 244 306 359
#     4  11  22  36  60  90 118 151 200 253 300 353
#     4  11  23  39  59  85 122 162 196 239 302 369
#
# _framework density 22.859344
#
# number of rings (size 3 to 8) (size 9 to 14) (size 15 to 20)
#    0.000    1.667    1.667    3.000    2.333    3.333 
#    0.000    0.000    0.000    4.000    0.000    0.000 
#    0.000    0.000    0.000    0.000    0.000    0.000 
#
# Total GULP energy -268052.494111 kJ/mol
# GULP energy per Si atom -5584.426961 kJ/mol
# Density = 2.280732 g / cm^3
# Si number density = 22.859344 Si / 1000 Ang^3
#
#
#
# Elastic Constant Matrix: (Units=GPa)
#
#
# Indices 1 2 3 4 5 6 
#
# 1 65.3802 -3.8391 -0.1288 0.0000 0.0000 0.0000
# 2 -3.8391 77.5291 0.5489 0.0000 0.0000 0.0000
# 3 -0.1288 0.5489 33.4318 0.0000 0.0000 0.0000
# 4 0.0000 0.0000 0.0000 -59.4020 0.0000 0.0000
# 5 0.0000 0.0000 0.0000 0.0000 66.2512 0.0000
# 6 0.0000 0.0000 0.0000 0.0000 0.0000 36.3742
#
#
#
# Elastic Compliance Matrix: (Units=1/GPa)
#
#
# Indices 1 2 3 4 5 6 
#
# 1 0.015340 0.000759 0.000047 0.000000 0.000000 0.000000
# 2 0.000759 0.012937 -0.000210 0.000000 0.000000 0.000000
# 3 0.000047 -0.000210 0.029915 0.000000 0.000000 0.000000
# 4 0.000000 0.000000 0.000000 -0.016834 0.000000 0.000000
# 5 0.000000 0.000000 0.000000 0.000000 0.015094 0.000000
# 6 0.000000 0.000000 0.000000 0.000000 0.000000 0.027492
#
#
# Mechanical properties :
#
#
# Convention : Reuss Voigt Hill
#
# Bulk Modulus (GPa) = 16.83916 18.83368 17.83642
# Shear Modulus (GPa) = 48.75836 20.62868 34.69352
#
# Velocity S-wave (km/s) = 4.62342 3.00729 3.89999
# Velocity P-wave (km/s) = 5.99031 4.50724 5.30090
#
# Compressibility (1/GPa) = 0.05938538
#
# Stress axis : x y z
#
# Youngs Moduli (GPa) = 65.18977 77.29490 33.42774
#
# Poissons Ratio (x) = -0.05869 -0.00156
# Poissons Ratio (y) = -0.04950 0.00700
# Poissons Ratio (z) = -0.00304 0.01619
#
# Static dielectric constant tensor:
#      x y z
#    x 1.882300 0.000000 0.000000 
#    y 0.000000 1.989280 0.000000 
#    z 0.000000 0.000000 1.819970 
# 
# From -- ./inp_files/10077.got.cif
#   From: 2010.05.17/outbox.cif.g08.bks.cpg/sg55_6_cif.got.tgz:10077.got - 2010.06.03 13:27:54.
