data_PCOD9429644
_publ_section_title
;
Structure prediction by ZEFSAII (Michael W. Deem and Ramdas Pophale) SiO2 
 PCOD9429644
Probable space group: P C C N
;
_chemical_formula_sum "Si O2"
_cell_formula_units_Z 56
_cell_length_a 13.830757
_cell_length_b 14.251369
_cell_length_c 15.405621
_cell_angle_alpha 90.000000
_cell_angle_beta 90.000000
_cell_angle_gamma 90.000000
_cell_volume 3036.559152
_symmetry_space_group_name_H-M "P C C N"
_symmetry_group_IT_number 56
_symmetry_cell_setting 'orthorhombic'
loop_
_space_group_symop_operation_xyz
x,y,z
1/2-x,1/2-y,z
1/2+x,-y,1/2-z
-x,1/2+y,1/2-z
-x,-y,-z
1/2+x,1/2+y,-z
1/2-x,y,1/2+z
x,1/2-y,1/2+z
loop_
_atom_site_type_symbol
_atom_site_label
_atom_site_fract_x
_atom_site_fract_y
_atom_site_fract_z
Si Si1 0.642045 0.285399 0.170841
Si Si2 0.144487 0.769254 0.519164
Si Si3 0.532497 0.651199 0.282743
Si Si4 0.387247 0.522451 0.525069
Si Si5 0.337413 0.320409 0.544253
Si Si6 0.452889 0.270734 0.374145
Si Si7 0.049180 0.562732 0.211151
O O1 0.750000 0.250000 0.189987
O O2 0.566298 0.207565 0.203427
O O3 0.608558 0.380903 0.217025
O O4 0.632336 0.292851 0.066819
O O5 0.250000 0.750000 0.556728
O O6 0.138812 0.877396 0.484208
O O7 0.060945 0.752363 0.588817
O O8 0.595232 0.668888 0.370142
O O9 0.579810 0.695940 0.196795
O O10 0.515755 0.541448 0.266671
O O11 0.500000 0.500000 0.500000
O O12 0.323218 0.429423 0.514039
O O13 0.384486 0.546985 0.626768
O O14 0.250000 0.250000 0.564529
O O15 0.390740 0.276990 0.460775
O O16 0.463230 0.370042 0.323610
#
# Coordination Sequence:
#
# PCOD9429644 Si02
#       7
#     8   8   8   8   8   8   8
#     4  10  20  36  60  89 122 155 199 250 299 360
#     4  10  19  35  62  90 117 155 201 246 299 360
#     4  10  21  39  62  85 124 162 199 254 304 359
#     4  10  17  36  64  81 109 161 211 236 281 371
#     4  11  22  39  62  89 118 158 212 255 297 358
#     4  10  20  38  61  86 119 161 201 246 305 358
#     4   9  19  35  59  86 112 157 205 236 294 359
#
# _framework density 18.441927
#
# number of rings (size 3 to 8) (size 9 to 14) (size 15 to 20)
#    0.000    2.000    4.286    0.857    0.000    5.714 
#    5.143    9.286    0.000    0.000    0.000    0.000 
#    0.000    0.000    0.000    0.000    0.000    0.000 
#
# Total GULP energy -311879.911114 kJ/mol
# GULP energy per Si atom -5569.284127 kJ/mol
# Density = 1.839995 g / cm^3
# Si number density = 18.441927 Si / 1000 Ang^3
#
#
#
# Elastic Constant Matrix: (Units=GPa)
#
#
# Indices 1 2 3 4 5 6 
#
# 1 47.4959 31.5002 10.0146 0.0000 0.0000 0.0000
# 2 31.5002 98.8913 41.9583 0.0000 0.0000 0.0000
# 3 10.0146 41.9583 100.0718 0.0000 0.0000 0.0000
# 4 0.0000 0.0000 0.0000 35.4798 0.0000 0.0000
# 5 0.0000 0.0000 0.0000 0.0000 1.7280 0.0000
# 6 0.0000 0.0000 0.0000 0.0000 0.0000 20.0486
#
#
#
# Elastic Compliance Matrix: (Units=1/GPa)
#
#
# Indices 1 2 3 4 5 6 
#
# 1 0.026791 -0.008997 0.001091 0.000000 0.000000 0.000000
# 2 -0.008997 0.015322 -0.005524 0.000000 0.000000 0.000000
# 3 0.001091 -0.005524 0.012200 0.000000 0.000000 0.000000
# 4 0.000000 0.000000 0.000000 0.028185 0.000000 0.000000
# 5 0.000000 0.000000 0.000000 0.000000 0.578703 0.000000
# 6 0.000000 0.000000 0.000000 0.000000 0.000000 0.049879
#
#
# Mechanical properties :
#
#
# Convention : Reuss Voigt Hill
#
# Bulk Modulus (GPa) = 36.42515 45.93391 41.17953
# Shear Modulus (GPa) = 6.69264 22.31702 14.50483
#
# Velocity S-wave (km/s) = 1.90707 3.48246 2.80753
# Velocity P-wave (km/s) = 4.96421 6.41338 5.73475
#
# Compressibility (1/GPa) = 0.02745356
#
# Stress axis : x y z
#
# Youngs Moduli (GPa) = 37.32554 65.26756 81.96975
#
# Poissons Ratio (x) = 0.58720 -0.08944
# Poissons Ratio (y) = 0.33581 0.45278
# Poissons Ratio (z) = -0.04073 0.36052
#
# Static dielectric constant tensor:
#      x y z
#    x 1.649810 0.000000 0.000000 
#    y 0.000000 1.701150 0.000000 
#    z 0.000000 0.000000 1.668470 
# 
# From -- ./inp_files/12372.got.cif
#   From: 2010.05.17/outbox.cif.g08.bks.cpg/sg56_7_cif.got.tgz:12372.got - 2010.06.03 13:42:01.
