data_PCOD9429955
_publ_section_title
;
Structure prediction by ZEFSAII (Michael W. Deem and Ramdas Pophale) SiO2 
 PCOD9429955
Probable space group: P C C N
;
_chemical_formula_sum "Si O2"
_cell_formula_units_Z 56
_cell_length_a 15.037406
_cell_length_b 12.813815
_cell_length_c 14.805486
_cell_angle_alpha 90.000000
_cell_angle_beta 90.000000
_cell_angle_gamma 90.000000
_cell_volume 2852.817849
_symmetry_space_group_name_H-M "P C C N"
_symmetry_group_IT_number 56
_symmetry_cell_setting 'orthorhombic'
loop_
_space_group_symop_operation_xyz
x,y,z
1/2-x,1/2-y,z
1/2+x,-y,1/2-z
-x,1/2+y,1/2-z
-x,-y,-z
1/2+x,1/2+y,-z
1/2-x,y,1/2+z
x,1/2-y,1/2+z
loop_
_atom_site_type_symbol
_atom_site_label
_atom_site_fract_x
_atom_site_fract_y
_atom_site_fract_z
Si Si1 0.749038 0.130959 0.539224
Si Si2 0.417804 0.001623 0.933967
Si Si3 0.146111 0.216716 0.731574
Si Si4 0.455281 0.431579 0.238954
Si Si5 0.188664 0.342873 0.037765
Si Si6 0.293307 0.971851 0.635643
Si Si7 0.654198 0.015462 0.700987
O O1 0.750000 0.250000 0.570080
O O2 0.709691 0.119899 0.437991
O O3 0.695997 0.055172 0.607517
O O4 0.849935 0.089812 0.541579
O O5 0.447071 0.003985 0.831493
O O6 0.366111 0.108090 0.957380
O O7 0.500000 0.000000 0.000000
O O8 0.250000 0.250000 0.737971
O O9 0.084628 0.315481 0.753560
O O10 0.131197 0.191950 0.624745
O O11 0.137650 0.109426 0.787740
O O12 0.389459 0.491344 0.169871
O O13 0.558390 0.430928 0.212824
O O14 0.250000 0.250000 0.005678
O O15 0.251277 0.431891 0.080021
O O16 0.226386 0.956444 0.720490
#
# Coordination Sequence:
#
# PCOD9429955 Si02
#       7
#     8   8   8   8   8   8   8
#     4  11  25  45  68  91 138 185 221 275 341 404
#     4  11  23  41  65  95 127 173 228 272 326 412
#     4  10  18  40  65  93 129 174 219 276 341 398
#     4  12  22  40  69  97 135 175 221 285 346 399
#     4   9  17  35  63  89 124 164 208 274 324 385
#     4  10  21  44  63  93 132 168 223 274 327 401
#     4  11  24  43  66 100 135 172 227 280 337 410
#
# _framework density 19.629715000000001
#
# number of rings (size 3 to 8) (size 9 to 14) (size 15 to 20)
#    0.000    1.429    5.714    2.571    0.000    6.286 
#    5.143    0.000    0.000    0.000    0.000    0.000 
#    0.000    0.000    0.000    0.000    0.000    0.000 
#
# Total GULP energy -312628.583114 kJ/mol
# GULP energy per Si atom -5582.653270 kJ/mol
# Density = 1.958504 g / cm^3
# Si number density = 19.629715 Si / 1000 Ang^3
#
#
#
# Elastic Constant Matrix: (Units=GPa)
#
#
# Indices 1 2 3 4 5 6 
#
# 1 104.9833 29.7358 29.4049 0.0000 0.0000 0.0000
# 2 29.7358 81.5984 10.6801 0.0000 0.0000 0.0000
# 3 29.4049 10.6801 76.1460 0.0000 0.0000 0.0000
# 4 0.0000 0.0000 0.0000 15.7051 0.0000 0.0000
# 5 0.0000 0.0000 0.0000 0.0000 28.8302 0.0000
# 6 0.0000 0.0000 0.0000 0.0000 0.0000 20.8432
#
#
#
# Elastic Compliance Matrix: (Units=1/GPa)
#
#
# Indices 1 2 3 4 5 6 
#
# 1 0.011704 -0.003742 -0.003995 0.000000 0.000000 0.000000
# 2 -0.003742 0.013681 -0.000474 0.000000 0.000000 0.000000
# 3 -0.003995 -0.000474 0.014742 0.000000 0.000000 0.000000
# 4 0.000000 0.000000 0.000000 0.063674 0.000000 0.000000
# 5 0.000000 0.000000 0.000000 0.000000 0.034686 0.000000
# 6 0.000000 0.000000 0.000000 0.000000 0.000000 0.047977
#
#
# Mechanical properties :
#
#
# Convention : Reuss Voigt Hill
#
# Bulk Modulus (GPa) = 42.18497 44.70769 43.44633
# Shear Modulus (GPa) = 23.72062 25.93617 24.82839
#
# Velocity S-wave (km/s) = 3.47998 3.63887 3.56031
# Velocity P-wave (km/s) = 6.13873 6.36240 6.25157
#
# Compressibility (1/GPa) = 0.02370512
#
# Stress axis : x y z
#
# Youngs Moduli (GPa) = 85.43905 73.09448 67.83442
#
# Poissons Ratio (x) = 0.27355 0.27099
# Poissons Ratio (y) = 0.31974 0.03213
# Poissons Ratio (z) = 0.34132 0.03462
#
# Static dielectric constant tensor:
#      x y z
#    x 1.677000 0.000000 0.000000 
#    y 0.000000 1.710660 0.000000 
#    z 0.000000 0.000000 1.711770 
# 
# From -- ./inp_files/12292.got.cif
#   From: 2010.05.17/outbox.cif.g08.bks.cpg/sg56_7_cif.got.tgz:12292.got - 2010.06.03 13:42:01.
