data_PCOD9429054
_publ_section_title
;
Structure prediction by ZEFSAII (Michael W. Deem and Ramdas Pophale) SiO2 
 PCOD9429054
Probable space group: P B A M
;
_chemical_formula_sum "Si O2"
_cell_formula_units_Z 40
_cell_length_a 29.162738
_cell_length_b 9.543085
_cell_length_c 8.838793
_cell_angle_alpha 90.000000
_cell_angle_beta 90.000000
_cell_angle_gamma 90.000000
_cell_volume 2459.858079
_symmetry_space_group_name_H-M "P B A M"
_symmetry_group_IT_number 55
_symmetry_cell_setting 'orthorhombic'
loop_
_space_group_symop_operation_xyz
x,y,z
-x,-y,z
1/2+x,1/2-y,-z
1/2-x,1/2+y,-z
-x,-y,-z
x,y,-z
1/2-x,1/2+y,z
1/2+x,1/2-y,z
loop_
_atom_site_type_symbol
_atom_site_label
_atom_site_fract_x
_atom_site_fract_y
_atom_site_fract_z
Si Si1 0.947327 0.017816 0.819910
Si Si2 0.293359 0.140984 0.180080
Si Si3 0.869843 0.180286 0.677098
Si Si4 0.368929 0.631583 0.677796
Si Si5 0.786386 0.667179 0.317750
O O1 0.915767 0.885328 0.771342
O O2 0.920840 0.145576 0.737523
O O3 0.945002 0.036401 0.000000
O O4 0.000000 0.000000 0.774612
O O5 0.342037 0.207279 0.228547
O O6 0.255135 0.243834 0.249217
O O7 0.287449 0.988204 0.251992
O O8 0.289124 0.134536 0.000000
O O9 0.869913 0.216020 0.500000
O O10 0.846818 0.024743 0.694060
O O11 0.379985 0.646866 0.500000
O O12 0.333328 0.750157 0.721980
O O13 0.782425 0.664123 0.500000
#
# Coordination Sequence:
#
# PCOD9429054 Si02
#       5
#     8   8   8   8   8
#     4   9  17  30  53  83 112 140 174 222 275 322
#     4  12  24  36  53  79 109 142 181 226 273 320
#     4   9  18  34  54  77 105 140 180 220 264 318
#     4   8  18  33  53  77 103 138 180 218 260 315
#     4  11  22  38  56  75 106 146 184 221 268 324
#
# _framework density 16.261099999999999
#
# number of rings (size 3 to 8) (size 9 to 14) (size 15 to 20)
#    1.200    1.000    0.000    4.200    0.000    4.800 
#    0.000    0.000    0.000    1.200    0.000    8.400 
#    0.000    0.000    0.000    0.000    0.000    0.000 
#
# Total GULP energy -222712.629782 kJ/mol
# GULP energy per Si atom -5567.815745 kJ/mol
# Density = 1.622409 g / cm^3
# Si number density = 16.261100 Si / 1000 Ang^3
#
#
#
# Elastic Constant Matrix: (Units=GPa)
#
#
# Indices 1 2 3 4 5 6 
#
# 1 89.5754 31.7320 42.5104 0.0000 0.0000 0.0000
# 2 31.7320 72.1055 36.9191 0.0000 0.0000 0.0000
# 3 42.5104 36.9191 82.4899 0.0000 0.0000 0.0000
# 4 0.0000 0.0000 0.0000 21.1179 0.0000 0.0000
# 5 0.0000 0.0000 0.0000 0.0000 25.9902 0.0000
# 6 0.0000 0.0000 0.0000 0.0000 0.0000 21.9399
#
#
#
# Elastic Compliance Matrix: (Units=1/GPa)
#
#
# Indices 1 2 3 4 5 6 
#
# 1 0.015441 -0.003530 -0.006377 0.000000 0.000000 0.000000
# 2 -0.003530 0.018798 -0.006594 0.000000 0.000000 0.000000
# 3 -0.006377 -0.006594 0.018361 0.000000 0.000000 0.000000
# 4 0.000000 0.000000 0.000000 0.047353 0.000000 0.000000
# 5 0.000000 0.000000 0.000000 0.000000 0.038476 0.000000
# 6 0.000000 0.000000 0.000000 0.000000 0.000000 0.045579
#
#
# Mechanical properties :
#
#
# Convention : Reuss Voigt Hill
#
# Bulk Modulus (GPa) = 51.02931 51.83264 51.43098
# Shear Modulus (GPa) = 22.36701 22.67689 22.52195
#
# Velocity S-wave (km/s) = 3.71279 3.73842 3.72562
# Velocity P-wave (km/s) = 7.05897 7.11188 7.08547
#
# Compressibility (1/GPa) = 0.01959658
#
# Stress axis : x y z
#
# Youngs Moduli (GPa) = 64.76348 53.19619 54.46436
#
# Poissons Ratio (x) = 0.18777 0.34735
# Poissons Ratio (y) = 0.22860 0.35916
# Poissons Ratio (z) = 0.41303 0.35079
#
# Static dielectric constant tensor:
#      x y z
#    x 1.548380 0.000000 0.000000 
#    y 0.000000 1.535190 0.000000 
#    z 0.000000 0.000000 1.537090 
# 
# From -- ./inp_files/10390.got.cif
#   From: 2010.05.17/outbox.cif.g08.bks.cpg/sg55_6_cif.got.tgz:10390.got - 2010.06.03 13:27:54.
