data_PCOD9429279
_publ_section_title
;
Structure prediction by ZEFSAII (Michael W. Deem and Ramdas Pophale) SiO2 
 PCOD9429279
Probable space group: P B A M
;
_chemical_formula_sum "Si O2"
_cell_formula_units_Z 64
_cell_length_a 21.000000
_cell_length_b 9.000000
_cell_length_c 18.000000
_cell_angle_alpha 90.000000
_cell_angle_beta 90.000000
_cell_angle_gamma 90.000000
_cell_volume 3402.000000
_symmetry_space_group_name_H-M "P B A M"
_symmetry_group_IT_number 55
_symmetry_cell_setting 'orthorhombic'
loop_
_space_group_symop_operation_xyz
x,y,z
-x,-y,z
1/2+x,1/2-y,-z
1/2-x,1/2+y,-z
-x,-y,-z
x,y,-z
1/2-x,1/2+y,z
1/2+x,1/2-y,z
loop_
_atom_site_type_symbol
_atom_site_label
_atom_site_fract_x
_atom_site_fract_y
_atom_site_fract_z
Si Si1 0.685577 0.750889 0.858033
Si Si2 0.998911 0.177344 0.268735
Si Si3 0.372818 0.795015 0.781488
Si Si4 0.057999 0.885601 0.419330
Si Si5 0.561667 0.912893 0.154266
Si Si6 0.745230 0.765946 0.304129
Si Si7 0.699502 0.518932 0.588653
Si Si8 0.314608 0.594046 0.089258
O O1 0.619424 0.825190 0.885273
O O2 0.697220 0.773671 0.767791
O O3 0.744860 0.834054 0.896887
O O4 0.685708 0.575877 0.879816
O O5 0.959778 0.203688 0.345004
O O6 0.968059 0.285098 0.207201
O O7 0.073019 0.221332 0.269629
O O8 0.000000 0.000000 0.252029
O O9 0.307330 0.804600 0.735967
O O10 0.359424 0.693764 0.855526
O O11 0.400294 0.954575 0.804527
O O12 0.062449 0.806321 0.500000
O O13 0.122838 0.978320 0.410344
O O14 0.000000 0.000000 0.423533
O O15 0.500000 0.000000 0.119251
O O16 0.717645 0.674525 0.373355
O O17 0.770828 0.909719 0.348909
O O18 0.718228 0.501864 0.500000
O O19 0.329254 0.598033 0.000000
#
# Coordination Sequence:
#
# PCOD9429279 Si02
#       8
#     8   8   8   8   8   8   8   8
#     4  11  21  37  61  90 115 151 198 239 297 362
#     4  10  18  33  59  85 112 152 200 246 289 342
#     4  10  21  37  59  87 115 151 196 238 292 355
#     4   9  18  32  51  78 110 147 195 247 298 349
#     4  10  21  36  58  85 117 152 195 244 285 342
#     4  11  20  35  55  79 113 150 193 245 291 349
#     4  11  22  34  51  78 113 153 195 242 297 344
#     4  11  23  40  65  93 122 150 185 245 306 363
#
# _framework density 18.812463000000001
#
# number of rings (size 3 to 8) (size 9 to 14) (size 15 to 20)
#    0.000    1.625    0.000    7.500    0.000    0.000 
#    0.000    1.250    0.000   21.375    0.000    0.000 
#    0.000    0.000    0.000    0.000    0.000    0.000 
#
# Total GULP energy -356357.952352 kJ/mol
# GULP energy per Si atom -5568.093005 kJ/mol
# Density = 1.876965 g / cm^3
# Si number density = 18.812463 Si / 1000 Ang^3
#
#
#
# Elastic Constant Matrix: (Units=GPa)
#
#
# Indices 1 2 3 4 5 6 
#
# 1 64.6668 32.6850 4.4736 0.0000 0.0000 0.0000
# 2 32.6850 97.4323 15.7895 0.0000 0.0000 0.0000
# 3 4.4736 15.7895 103.1790 0.0000 0.0000 0.0000
# 4 0.0000 0.0000 0.0000 25.6262 0.0000 0.0000
# 5 0.0000 0.0000 0.0000 0.0000 23.1501 0.0000
# 6 0.0000 0.0000 0.0000 0.0000 0.0000 33.6992
#
#
#
# Elastic Compliance Matrix: (Units=1/GPa)
#
#
# Indices 1 2 3 4 5 6 
#
# 1 0.018624 -0.006272 0.000152 0.000000 0.000000 0.000000
# 2 -0.006272 0.012637 -0.001662 0.000000 0.000000 0.000000
# 3 0.000152 -0.001662 0.009940 0.000000 0.000000 0.000000
# 4 0.000000 0.000000 0.000000 0.039023 0.000000 0.000000
# 5 0.000000 0.000000 0.000000 0.000000 0.043196 0.000000
# 6 0.000000 0.000000 0.000000 0.000000 0.000000 0.029674
#
#
# Mechanical properties :
#
#
# Convention : Reuss Voigt Hill
#
# Bulk Modulus (GPa) = 39.00668 41.24160 40.12414
# Shear Modulus (GPa) = 28.21632 30.65043 29.43337
#
# Velocity S-wave (km/s) = 3.87702 4.04079 3.95975
# Velocity P-wave (km/s) = 6.38915 6.61368 6.50238
#
# Compressibility (1/GPa) = 0.02563663
#
# Stress axis : x y z
#
# Youngs Moduli (GPa) = 53.69538 79.13294 100.60766
#
# Poissons Ratio (x) = 0.49634 -0.01533
# Poissons Ratio (y) = 0.33679 0.16720
# Poissons Ratio (z) = -0.00818 0.13151
#
# Static dielectric constant tensor:
#      x y z
#    x 1.696310 0.000000 0.000000 
#    y 0.000000 1.714890 0.000000 
#    z 0.000000 0.000000 1.675680 
# 
# From -- ./inp_files/21939.got.cif
#   From: 2010.05.17/outbox.ucp.g08.bks.cvg/sg55_11_cif.got.tgz:21939.got - 2010.06.11 16:36:00.
