data_PCOD9429728
_publ_section_title
;
Structure prediction by ZEFSAII (Michael W. Deem and Ramdas Pophale) SiO2 
 PCOD9429728
Probable space group: P C C N
;
_chemical_formula_sum "Si O2"
_cell_formula_units_Z 60
_cell_length_a 19.280221
_cell_length_b 13.629342
_cell_length_c 9.496587
_cell_angle_alpha 90.000000
_cell_angle_beta 90.000000
_cell_angle_gamma 90.000000
_cell_volume 2495.482039
_symmetry_space_group_name_H-M "P C C N"
_symmetry_group_IT_number 56
_symmetry_cell_setting 'orthorhombic'
loop_
_space_group_symop_operation_xyz
x,y,z
1/2-x,1/2-y,z
1/2+x,-y,1/2-z
-x,1/2+y,1/2-z
-x,-y,-z
1/2+x,1/2+y,-z
1/2-x,y,1/2+z
x,1/2-y,1/2+z
loop_
_atom_site_type_symbol
_atom_site_label
_atom_site_fract_x
_atom_site_fract_y
_atom_site_fract_z
Si Si1 0.821164 0.444442 0.696399
Si Si2 0.361834 0.900333 0.014127
Si Si3 0.750000 0.250000 0.105268
Si Si4 0.820163 0.545158 0.192455
Si Si5 0.963381 0.265576 0.825763
Si Si6 0.616906 0.622686 0.957402
Si Si7 0.046650 0.621611 0.450542
Si Si8 0.124942 0.246844 0.303857
O O1 0.794637 0.330361 0.690089
O O2 0.754010 0.503644 0.652222
O O3 0.891857 0.447886 0.605637
O O4 0.834737 0.467887 0.858558
O O5 0.305310 0.815669 0.980236
O O6 0.428016 0.850080 0.083141
O O7 0.372710 0.969346 0.880702
O O8 0.837098 0.552006 0.358899
O O9 0.829486 0.656293 0.142089
O O10 0.938523 0.164129 0.894877
O O11 0.949027 0.288694 0.663277
O O12 0.045207 0.270071 0.845709
O O13 0.534948 0.592558 0.945608
O O14 0.624642 0.725413 0.864119
O O15 0.640166 0.652886 0.114347
#
# Coordination Sequence:
#
# PCOD9429728 Si02
#       8
#     8   8   4   8   8   8   8   8
#     4  10  19  32  52  80 124 156 193 235 294 368
#     4  10  19  31  52  82 121 158 190 235 292 363
#     4  10  18  32  50  78 112 164 194 222 286 362
#     4   9  20  34  54  85 118 150 197 250 303 351
#     4   9  16  29  51  86 114 149 195 231 290 356
#     4   8  16  33  59  87 112 146 201 250 307 352
#     4   9  16  30  52  88 115 154 193 239 291 367
#     4   8  16  32  58  85 110 146 194 252 300 356
#
# _framework density 24.04345
#
# number of rings (size 3 to 8) (size 9 to 14) (size 15 to 20)
#    0.800    2.133    1.333    0.400    0.000    0.533 
#    0.000    0.000    5.867    2.400    0.000    7.467 
#    0.000    0.267    0.000    0.000    0.000    0.000 
#
# Total GULP energy -334507.713917 kJ/mol
# GULP energy per Si atom -5575.128565 kJ/mol
# Density = 2.398873 g / cm^3
# Si number density = 24.043450 Si / 1000 Ang^3
#
#
#
# Elastic Constant Matrix: (Units=GPa)
#
#
# Indices 1 2 3 4 5 6 
#
# 1 51.5885 18.1339 16.6638 0.0000 0.0000 0.0000
# 2 18.1339 54.9664 15.5504 0.0000 0.0000 0.0000
# 3 16.6638 15.5504 83.5410 0.0000 0.0000 0.0000
# 4 0.0000 0.0000 0.0000 42.6652 0.0000 0.0000
# 5 0.0000 0.0000 0.0000 0.0000 27.3556 0.0000
# 6 0.0000 0.0000 0.0000 0.0000 0.0000 38.1086
#
#
#
# Elastic Compliance Matrix: (Units=1/GPa)
#
#
# Indices 1 2 3 4 5 6 
#
# 1 0.022766 -0.006572 -0.003318 0.000000 0.000000 0.000000
# 2 -0.006572 0.021101 -0.002617 0.000000 0.000000 0.000000
# 3 -0.003318 -0.002617 0.013119 0.000000 0.000000 0.000000
# 4 0.000000 0.000000 0.000000 0.023438 0.000000 0.000000
# 5 0.000000 0.000000 0.000000 0.000000 0.036556 0.000000
# 6 0.000000 0.000000 0.000000 0.000000 0.000000 0.026241
#
#
# Mechanical properties :
#
#
# Convention : Reuss Voigt Hill
#
# Bulk Modulus (GPa) = 31.27638 32.31022 31.79330
# Shear Modulus (GPa) = 27.94975 30.94240 29.44608
#
# Velocity S-wave (km/s) = 3.41320 3.59128 3.50337
# Velocity P-wave (km/s) = 5.34507 5.53749 5.44213
#
# Compressibility (1/GPa) = 0.03197301
#
# Stress axis : x y z
#
# Youngs Moduli (GPa) = 43.92514 47.39005 76.22484
#
# Poissons Ratio (x) = 0.31145 0.25290
# Poissons Ratio (y) = 0.28868 0.19947
# Poissons Ratio (z) = 0.14573 0.12402
#
# Static dielectric constant tensor:
#      x y z
#    x 1.912840 0.000000 0.000000 
#    y 0.000000 2.022450 0.000000 
#    z 0.000000 0.000000 1.948760 
# 
# From -- ./inp_files/8732.got.cif
#   From: 2010.05.17/outbox.cif.g08.bks.cpg/sg56_5_cif.got.tgz:8732.got - 2010.06.03 13:42:01.
