data_PCOD9429714
_publ_section_title
;
Structure prediction by ZEFSAII (Michael W. Deem and Ramdas Pophale) SiO2 
 PCOD9429714
Probable space group: P C C N
;
_chemical_formula_sum "Si O2"
_cell_formula_units_Z 52
_cell_length_a 12.386970
_cell_length_b 12.007980
_cell_length_c 19.008385
_cell_angle_alpha 90.000000
_cell_angle_beta 90.000000
_cell_angle_gamma 90.000000
_cell_volume 2827.354478
_symmetry_space_group_name_H-M "P C C N"
_symmetry_group_IT_number 56
_symmetry_cell_setting 'orthorhombic'
loop_
_space_group_symop_operation_xyz
x,y,z
1/2-x,1/2-y,z
1/2+x,-y,1/2-z
-x,1/2+y,1/2-z
-x,-y,-z
1/2+x,1/2+y,-z
1/2-x,y,1/2+z
x,1/2-y,1/2+z
loop_
_atom_site_type_symbol
_atom_site_label
_atom_site_fract_x
_atom_site_fract_y
_atom_site_fract_z
Si Si1 0.450303 0.555508 0.300473
Si Si2 0.944901 0.825279 0.172607
Si Si3 0.600441 0.360604 0.317612
Si Si4 0.626013 0.282154 0.154823
Si Si5 0.485037 0.514917 0.917798
Si Si6 0.250000 0.250000 0.740245
Si Si7 0.300269 0.013130 0.680046
O O1 0.527902 0.593285 0.237214
O O2 0.507135 0.450021 0.333381
O O3 0.435367 0.664056 0.347380
O O4 0.342642 0.523716 0.257685
O O5 0.852442 0.750713 0.207200
O O6 0.052085 0.754762 0.153323
O O7 0.917742 0.908132 0.110117
O O8 0.610392 0.331761 0.234064
O O9 0.710833 0.420762 0.340194
O O10 0.750000 0.250000 0.143930
O O11 0.577893 0.373054 0.102781
O O12 0.598949 0.516081 0.874121
O O13 0.500000 0.500000 0.000000
O O14 0.255549 0.138295 0.692778
#
# Coordination Sequence:
#
# PCOD9429714 Si02
#       7
#     8   8   8   8   8   4   8
#     4  10  18  31  54  88 120 138 179 244 308 355
#     4  10  21  34  58  85 122 150 191 244 300 365
#     4  11  19  34  58  97 117 142 190 258 319 356
#     4  11  20  34  59  88 117 151 195 246 305 363
#     4  11  25  44  55  77 119 169 207 241 292 367
#     4  12  18  32  64  96 120 146 188 252 330 354
#     4  11  20  34  60  90 121 157 192 249 315 366
#
# _framework density 18.391749999999998
#
# number of rings (size 3 to 8) (size 9 to 14) (size 15 to 20)
#    0.000    1.231    7.692    0.923    0.000    0.000 
#    2.769    0.769    0.000    0.923    0.000    0.000 
#    0.000    0.000    0.000    0.000    0.000    0.000 
#
# Total GULP energy -289705.287141 kJ/mol
# GULP energy per Si atom -5571.255522 kJ/mol
# Density = 1.834989 g / cm^3
# Si number density = 18.391750 Si / 1000 Ang^3
#
#
#
# Elastic Constant Matrix: (Units=GPa)
#
#
# Indices 1 2 3 4 5 6 
#
# 1 60.8970 25.4339 13.3797 0.0000 0.0000 0.0000
# 2 25.4339 113.3372 35.2046 0.0000 0.0000 0.0000
# 3 13.3797 35.2046 58.6263 0.0000 0.0000 0.0000
# 4 0.0000 0.0000 0.0000 4.5469 0.0000 0.0000
# 5 0.0000 0.0000 0.0000 0.0000 10.8422 0.0000
# 6 0.0000 0.0000 0.0000 0.0000 0.0000 42.5131
#
#
#
# Elastic Compliance Matrix: (Units=1/GPa)
#
#
# Indices 1 2 3 4 5 6 
#
# 1 0.018328 -0.003459 -0.002106 0.000000 0.000000 0.000000
# 2 -0.003459 0.011499 -0.006116 0.000000 0.000000 0.000000
# 3 -0.002106 -0.006116 0.021210 0.000000 0.000000 0.000000
# 4 0.000000 0.000000 0.000000 0.219929 0.000000 0.000000
# 5 0.000000 0.000000 0.000000 0.000000 0.092232 0.000000
# 6 0.000000 0.000000 0.000000 0.000000 0.000000 0.023522
#
#
# Mechanical properties :
#
#
# Convention : Reuss Voigt Hill
#
# Bulk Modulus (GPa) = 36.13137 42.32186 39.22661
# Shear Modulus (GPa) = 11.92441 22.16994 17.04718
#
# Velocity S-wave (km/s) = 2.54905 3.47569 3.04779
# Velocity P-wave (km/s) = 5.32462 6.25848 5.81034
#
# Compressibility (1/GPa) = 0.02767678
#
# Stress axis : x y z
#
# Youngs Moduli (GPa) = 54.55987 86.96332 47.14712
#
# Poissons Ratio (x) = 0.30080 0.09928
# Poissons Ratio (y) = 0.18872 0.28834
# Poissons Ratio (z) = 0.11489 0.53184
#
# Static dielectric constant tensor:
#      x y z
#    x 1.722380 0.000000 0.000000 
#    y 0.000000 1.671190 0.000000 
#    z 0.000000 0.000000 1.596150 
# 
# From -- ./inp_files/16284.got.cif
#   From: 2010.05.17/outbox.cif.g08.bks.cpg/sg56_9_cif.got.tgz:16284.got - 2010.06.03 13:42:01.
