data_PCOD9429878
_publ_section_title
;
Structure prediction by ZEFSAII (Michael W. Deem and Ramdas Pophale) SiO2 
 PCOD9429878
Probable space group: P C C N
;
_chemical_formula_sum "Si O2"
_cell_formula_units_Z 56
_cell_length_a 14.361383
_cell_length_b 8.301516
_cell_length_c 21.382839
_cell_angle_alpha 90.000000
_cell_angle_beta 90.000000
_cell_angle_gamma 90.000000
_cell_volume 2549.288810
_symmetry_space_group_name_H-M "P C C N"
_symmetry_group_IT_number 56
_symmetry_cell_setting 'orthorhombic'
loop_
_space_group_symop_operation_xyz
x,y,z
1/2-x,1/2-y,z
1/2+x,-y,1/2-z
-x,1/2+y,1/2-z
-x,-y,-z
1/2+x,1/2+y,-z
1/2-x,y,1/2+z
x,1/2-y,1/2+z
loop_
_atom_site_type_symbol
_atom_site_label
_atom_site_fract_x
_atom_site_fract_y
_atom_site_fract_z
Si Si1 0.617080 0.027158 0.797416
Si Si2 0.540923 0.677535 0.778758
Si Si3 0.250000 0.250000 0.369988
Si Si4 0.202069 0.966246 0.275164
Si Si5 0.622958 0.047843 0.942106
Si Si6 0.403963 0.718954 0.378078
Si Si7 0.927843 0.864466 0.557801
Si Si8 0.250000 0.750000 0.974340
O O1 0.533302 0.143211 0.776468
O O2 0.635666 0.008699 0.870504
O O3 0.585127 0.853575 0.771810
O O4 0.712631 0.080350 0.767386
O O5 0.622607 0.549951 0.767146
O O6 0.488133 0.682168 0.846243
O O7 0.242554 0.096101 0.324967
O O8 0.154362 0.238172 0.410565
O O9 0.155121 0.832069 0.317668
O O10 0.537132 0.177461 0.941369
O O11 0.710606 0.115430 0.979671
O O12 0.594076 0.897626 0.985349
O O13 0.428067 0.542820 0.408180
O O14 0.335218 0.799673 0.428469
#
# Coordination Sequence:
#
# PCOD9429878 Si02
#       8
#     8   8   4   8   8   8   8   4
#     4  12  24  40  65  97 136 170 218 279 342 415
#     4  12  22  42  66 100 133 177 220 275 351 405
#     4  10  18  36  64  92 126 170 224 264 330 424
#     4  11  22  38  64  97 136 172 217 281 342 401
#     4  10  21  40  59  89 126 173 219 277 330 395
#     4  10  20  40  64  93 124 174 221 275 324 411
#     4   9  19  38  63  84 121 171 224 265 332 389
#     4  10  22  40  66  92 128 174 234 274 340 390
#
# _framework density 21.966912000000001
#
# number of rings (size 3 to 8) (size 9 to 14) (size 15 to 20)
#    0.000    1.429    4.286    1.714    0.000    1.143 
#    2.571    0.000    0.000    8.571    0.000    0.000 
#    0.000    0.000    0.000    0.000    0.000    0.000 
#
# Total GULP energy -312593.948451 kJ/mol
# GULP energy per Si atom -5582.034794 kJ/mol
# Density = 2.191691 g / cm^3
# Si number density = 21.966912 Si / 1000 Ang^3
#
#
#
# Elastic Constant Matrix: (Units=GPa)
#
#
# Indices 1 2 3 4 5 6 
#
# 1 127.3967 31.2356 45.9695 0.0000 0.0000 0.0000
# 2 31.2356 31.4546 22.7121 0.0000 0.0000 0.0000
# 3 45.9695 22.7121 117.9838 0.0000 0.0000 0.0000
# 4 0.0000 0.0000 0.0000 6.4954 0.0000 0.0000
# 5 0.0000 0.0000 0.0000 0.0000 54.0731 0.0000
# 6 0.0000 0.0000 0.0000 0.0000 0.0000 32.7442
#
#
#
# Elastic Compliance Matrix: (Units=1/GPa)
#
#
# Indices 1 2 3 4 5 6 
#
# 1 0.010991 -0.009085 -0.002534 0.000000 0.000000 0.000000
# 2 -0.009085 0.044434 -0.005014 0.000000 0.000000 0.000000
# 3 -0.002534 -0.005014 0.010428 0.000000 0.000000 0.000000
# 4 0.000000 0.000000 0.000000 0.153955 0.000000 0.000000
# 5 0.000000 0.000000 0.000000 0.000000 0.018494 0.000000
# 6 0.000000 0.000000 0.000000 0.000000 0.000000 0.030540
#
#
# Mechanical properties :
#
#
# Convention : Reuss Voigt Hill
#
# Bulk Modulus (GPa) = 30.68596 52.96326 41.82461
# Shear Modulus (GPa) = 15.97596 30.45706 23.21651
#
# Velocity S-wave (km/s) = 2.69973 3.72761 3.25450
# Velocity P-wave (km/s) = 4.87007 6.53373 5.76225
#
# Compressibility (1/GPa) = 0.03258819
#
# Stress axis : x y z
#
# Youngs Moduli (GPa) = 90.98117 22.50514 95.89546
#
# Poissons Ratio (x) = 0.20447 0.24295
# Poissons Ratio (y) = 0.82660 0.48080
# Poissons Ratio (z) = 0.23050 0.11284
#
# Static dielectric constant tensor:
#      x y z
#    x 1.887790 0.000000 0.000000 
#    y 0.000000 1.848210 0.000000 
#    z 0.000000 0.000000 1.797990 
# 
# From -- ./inp_files/19145.got.cif
#   From: 2010.05.17/outbox.cif.g08.bks.cpg/sg56_10_cif.got.tgz:19145.got - 2010.06.03 13:42:01.
