data_PCOD9429062
_publ_section_title
;
Structure prediction by ZEFSAII (Michael W. Deem and Ramdas Pophale) SiO2 
 PCOD9429062
Probable space group: P B A M
;
_chemical_formula_sum "Si O2"
_cell_formula_units_Z 56
_cell_length_a 7.721271
_cell_length_b 15.476725
_cell_length_c 21.882014
_cell_angle_alpha 90.000000
_cell_angle_beta 90.000000
_cell_angle_gamma 90.000000
_cell_volume 2614.900409
_symmetry_space_group_name_H-M "P B A M"
_symmetry_group_IT_number 55
_symmetry_cell_setting 'orthorhombic'
loop_
_space_group_symop_operation_xyz
x,y,z
-x,-y,z
1/2+x,1/2-y,-z
1/2-x,1/2+y,-z
-x,-y,-z
x,y,-z
1/2-x,1/2+y,z
1/2+x,1/2-y,z
loop_
_atom_site_type_symbol
_atom_site_label
_atom_site_fract_x
_atom_site_fract_y
_atom_site_fract_z
Si Si1 0.726653 0.923454 0.500000
Si Si2 0.215496 0.630760 0.631841
Si Si3 0.704224 0.529522 0.850443
Si Si4 0.202441 0.626643 0.069854
Si Si5 0.818465 0.686031 0.631358
Si Si6 0.302533 0.469187 0.711225
Si Si7 0.103527 0.814614 0.070045
Si Si8 0.813359 0.624408 0.500000
O O1 0.792750 0.889177 0.435252
O O2 0.521812 0.895624 0.500000
O O3 0.755480 0.026395 0.500000
O O4 0.308679 0.716587 0.655244
O O5 0.216411 0.545797 0.672745
O O6 0.016265 0.657318 0.628088
O O7 0.500000 0.500000 0.850142
O O8 0.807824 0.455010 0.885984
O O9 0.761843 0.538889 0.780557
O O10 0.707030 0.619336 0.887299
O O11 0.109203 0.714846 0.089909
O O12 0.405908 0.653032 0.068681
O O13 0.151121 0.605333 0.000000
O O14 0.718919 0.619370 0.674494
O O15 0.757339 0.675119 0.560923
O O16 0.500000 0.500000 0.714072
O O17 0.170824 0.817305 0.000000
#
# Coordination Sequence:
#
# PCOD9429062 Si02
#       8
#     4   8   8   8   8   8   8   4
#     4   9  17  34  60  85 110 140 176 227 282 331
#     4  11  22  39  61  84 112 145 184 229 280 332
#     4   9  19  35  55  77 106 144 183 220 262 320
#     4   9  17  32  55  81 107 137 175 220 269 318
#     4  11  22  39  61  84 112 145 184 229 280 332
#     4  11  23  39  56  80 113 150 191 230 272 325
#     4   9  17  32  55  81 107 137 175 220 269 318
#     4   9  17  34  60  85 110 140 176 227 282 331
#
# _framework density 21.41573
#
# number of rings (size 3 to 8) (size 9 to 14) (size 15 to 20)
#    0.000    2.143    1.429    2.143    0.000    2.857 
#    0.000    9.286    0.000    3.429    0.000    0.000 
#    0.000    0.000    0.000    0.000    0.000    0.000 
#
# Total GULP energy -312851.998401 kJ/mol
# GULP energy per Si atom -5586.642829 kJ/mol
# Density = 2.136699 g / cm^3
# Si number density = 21.415730 Si / 1000 Ang^3
#
#
#
# Elastic Constant Matrix: (Units=GPa)
#
#
# Indices 1 2 3 4 5 6 
#
# 1 17.9364 8.2925 12.0858 0.0000 0.0000 0.0000
# 2 8.2925 90.1348 38.8172 0.0000 0.0000 0.0000
# 3 12.0858 38.8172 102.5878 0.0000 0.0000 0.0000
# 4 0.0000 0.0000 0.0000 -17.2903 0.0000 0.0000
# 5 0.0000 0.0000 0.0000 0.0000 11.1803 0.0000
# 6 0.0000 0.0000 0.0000 0.0000 0.0000 20.8065
#
#
#
# Elastic Compliance Matrix: (Units=1/GPa)
#
#
# Indices 1 2 3 4 5 6 
#
# 1 0.061240 -0.003019 -0.006072 0.000000 0.000000 0.000000
# 2 -0.003019 0.013403 -0.004716 0.000000 0.000000 0.000000
# 3 -0.006072 -0.004716 0.012247 0.000000 0.000000 0.000000
# 4 0.000000 0.000000 0.000000 -0.057836 0.000000 0.000000
# 5 0.000000 0.000000 0.000000 0.000000 0.089443 0.000000
# 6 0.000000 0.000000 0.000000 0.000000 0.000000 0.048062
#
#
# Mechanical properties :
#
#
# Convention : Reuss Voigt Hill
#
# Bulk Modulus (GPa) = 16.87013 36.56110 26.71561
# Shear Modulus (GPa) = 23.37179 13.03687 18.20433
#
# Velocity S-wave (km/s) = 3.30712 2.46997 2.91872
# Velocity P-wave (km/s) = 4.74102 5.02429 4.88471
#
# Compressibility (1/GPa) = 0.05927636
#
# Stress axis : x y z
#
# Youngs Moduli (GPa) = 16.32918 74.60937 81.64945
#
# Poissons Ratio (x) = 0.22525 0.49580
# Poissons Ratio (y) = 0.04930 0.38504
# Poissons Ratio (z) = 0.09916 0.35184
#
# Static dielectric constant tensor:
#      x y z
#    x 1.829590 0.000000 0.000000 
#    y 0.000000 1.779850 0.000000 
#    z 0.000000 0.000000 1.764580 
# 
# From -- ./inp_files/22657.got.cif
#   From: 2010.05.17/outbox.cif.g08.bks.cpg/sg55_12_cif.got.tgz:22657.got - 2010.06.03 13:27:54.
