data_PCOD9429848
_publ_section_title
;
Structure prediction by ZEFSAII (Michael W. Deem and Ramdas Pophale) SiO2 
 PCOD9429848
Probable space group: P C C N
;
_chemical_formula_sum "Si O2"
_cell_formula_units_Z 64
_cell_length_a 27.347711
_cell_length_b 11.082889
_cell_length_c 8.594866
_cell_angle_alpha 90.000000
_cell_angle_beta 90.000000
_cell_angle_gamma 90.000000
_cell_volume 2605.032078
_symmetry_space_group_name_H-M "P C C N"
_symmetry_group_IT_number 56
_symmetry_cell_setting 'orthorhombic'
loop_
_space_group_symop_operation_xyz
x,y,z
1/2-x,1/2-y,z
1/2+x,-y,1/2-z
-x,1/2+y,1/2-z
-x,-y,-z
1/2+x,1/2+y,-z
1/2-x,y,1/2+z
x,1/2-y,1/2+z
loop_
_atom_site_type_symbol
_atom_site_label
_atom_site_fract_x
_atom_site_fract_y
_atom_site_fract_z
Si Si1 0.403981 0.705969 0.565814
Si Si2 0.642031 0.683339 0.491823
Si Si3 0.105469 0.064968 0.999891
Si Si4 0.294896 0.569116 0.083595
Si Si5 0.289861 0.161055 0.738745
Si Si6 0.327080 0.728483 0.811678
Si Si7 0.031487 0.555803 0.643925
Si Si8 0.061130 0.025443 0.678080
O O1 0.356653 0.666790 0.671079
O O2 0.374391 0.724714 0.407624
O O3 0.434981 0.826659 0.608624
O O4 0.441719 0.597917 0.582698
O O5 0.613971 0.800387 0.557496
O O6 0.673671 0.618560 0.624892
O O7 0.679215 0.749686 0.372617
O O8 0.600516 0.605585 0.411134
O O9 0.154393 0.999286 0.050048
O O10 0.071057 0.052333 0.151603
O O11 0.084286 0.999631 0.848392
O O12 0.265550 0.452270 0.146725
O O13 0.299432 0.663795 0.223510
O O14 0.292928 0.648664 0.925323
O O15 0.250000 0.250000 0.812405
O O16 0.000000 0.500000 0.500000
O O17 0.992393 0.576452 0.779350
#
# Coordination Sequence:
#
# PCOD9429848 Si02
#       8
#     8   8   8   8   8   8   8   8
#     4  11  20  37  59  90 125 180 239 277 349 405
#     4  11  23  42  67  99 138 180 240 287 372 421
#     4  10  19  39  59  90 137 182 228 293 349 417
#     4  10  20  37  67 104 138 176 233 287 360 433
#     4  11  24  44  71 106 140 183 231 299 366 460
#     4  10  18  35  63  95 134 177 222 292 342 421
#     4  10  21  37  59  87 136 186 237 286 346 403
#     4  11  22  37  61  91 132 192 231 303 341 426
#
# _framework density 24.567837000000001
#
# number of rings (size 3 to 8) (size 9 to 14) (size 15 to 20)
#    0.000    1.500    5.000    1.875    1.750    0.000 
#    0.000    0.625    0.000    0.000    3.250   18.375 
#    0.000    0.000    0.000    0.000    0.000    0.000 
#
# Total GULP energy -356654.573413 kJ/mol
# GULP energy per Si atom -5572.727710 kJ/mol
# Density = 2.451192 g / cm^3
# Si number density = 24.567837 Si / 1000 Ang^3
#
#
#
# Elastic Constant Matrix: (Units=GPa)
#
#
# Indices 1 2 3 4 5 6 
#
# 1 49.0674 27.4503 26.3956 0.0000 0.0000 0.0000
# 2 27.4503 109.9077 31.9158 0.0000 0.0000 0.0000
# 3 26.3956 31.9158 93.1899 0.0000 0.0000 0.0000
# 4 0.0000 0.0000 0.0000 36.2695 0.0000 0.0000
# 5 0.0000 0.0000 0.0000 0.0000 20.0279 0.0000
# 6 0.0000 0.0000 0.0000 0.0000 0.0000 29.6057
#
#
#
# Elastic Compliance Matrix: (Units=1/GPa)
#
#
# Indices 1 2 3 4 5 6 
#
# 1 0.026201 -0.004874 -0.005752 0.000000 0.000000 0.000000
# 2 -0.004874 0.011010 -0.002390 0.000000 0.000000 0.000000
# 3 -0.005752 -0.002390 0.013179 0.000000 0.000000 0.000000
# 4 0.000000 0.000000 0.000000 0.027571 0.000000 0.000000
# 5 0.000000 0.000000 0.000000 0.000000 0.049930 0.000000
# 6 0.000000 0.000000 0.000000 0.000000 0.000000 0.033777
#
#
# Mechanical properties :
#
#
# Convention : Reuss Voigt Hill
#
# Bulk Modulus (GPa) = 41.05515 47.07650 44.06582
# Shear Modulus (GPa) = 25.53371 28.27417 26.90394
#
# Velocity S-wave (km/s) = 3.22734 3.39611 3.31280
# Velocity P-wave (km/s) = 5.53487 5.88061 5.71036
#
# Compressibility (1/GPa) = 0.02435748
#
# Stress axis : x y z
#
# Youngs Moduli (GPa) = 38.16659 90.82779 75.88009
#
# Poissons Ratio (x) = 0.44265 0.43648
# Poissons Ratio (y) = 0.18601 0.18137
# Poissons Ratio (z) = 0.21954 0.21710
#
# Static dielectric constant tensor:
#      x y z
#    x 2.037210 0.000000 0.000000 
#    y 0.000000 2.060370 0.000000 
#    z 0.000000 0.000000 2.049990 
# 
# From -- ./inp_files/5219.got.cif
#   From: 2010.05.17/outbox.cif.g08.bks.cpg/sg56_3_cif.got.tgz:5219.got - 2010.06.03 13:42:01.
