data_PCOD9429528
_publ_section_title
;
Structure prediction by ZEFSAII (Michael W. Deem and Ramdas Pophale) SiO2 
 PCOD9429528
Probable space group: P C C N
;
_chemical_formula_sum "Si O2"
_cell_formula_units_Z 40
_cell_length_a 21.224185
_cell_length_b 14.536313
_cell_length_c 5.430909
_cell_angle_alpha 90.000000
_cell_angle_beta 90.000000
_cell_angle_gamma 90.000000
_cell_volume 1675.551628
_symmetry_space_group_name_H-M "P C C N"
_symmetry_group_IT_number 56
_symmetry_cell_setting 'orthorhombic'
loop_
_space_group_symop_operation_xyz
x,y,z
1/2-x,1/2-y,z
1/2+x,-y,1/2-z
-x,1/2+y,1/2-z
-x,-y,-z
1/2+x,1/2+y,-z
1/2-x,y,1/2+z
x,1/2-y,1/2+z
loop_
_atom_site_type_symbol
_atom_site_label
_atom_site_fract_x
_atom_site_fract_y
_atom_site_fract_z
Si Si1 0.820881 0.712098 0.597575
Si Si2 0.969155 0.235133 0.566067
Si Si3 0.333179 0.804410 0.449633
Si Si4 0.853196 0.506163 0.543050
Si Si5 0.071637 0.528191 0.954170
O O1 0.750000 0.750000 0.620064
O O2 0.850677 0.762720 0.361370
O O3 0.818277 0.603306 0.548555
O O4 0.005852 0.249553 0.315784
O O5 0.910147 0.305592 0.559025
O O6 0.934142 0.137999 0.565173
O O7 0.316222 0.745726 0.693015
O O8 0.313451 0.910806 0.471517
O O9 0.898160 0.506856 0.301001
O O10 0.889324 0.499629 0.804511
O O11 0.000000 0.500000 0.000000
#
# Coordination Sequence:
#
# PCOD9429528 Si02
#       5
#     8   8   8   8   8
#     4  10  23  45  70  93 121 162 223 287 341 400
#     4  10  16  32  51  72 114 154 205 243 287 361
#     4  10  16  30  56  84 114 146 200 242 294 378
#     4  12  21  38  64  88 121 164 218 265 319 406
#     4  12  23  35  53  89 130 172 212 256 316 385
#
# _framework density 23.872737000000001
#
# number of rings (size 3 to 8) (size 9 to 14) (size 15 to 20)
#    0.000    1.200    8.000    1.800    0.000    0.000 
#    0.000    6.000    0.000    0.000    0.000   16.800 
#    0.000    0.000    0.000    0.000    0.000    0.000 
#
# Total GULP energy -223471.804540 kJ/mol
# GULP energy per Si atom -5586.795113 kJ/mol
# Density = 2.381840 g / cm^3
# Si number density = 23.872737 Si / 1000 Ang^3
#
#
#
# Elastic Constant Matrix: (Units=GPa)
#
#
# Indices 1 2 3 4 5 6 
#
# 1 37.5653 9.3005 17.4582 0.0000 0.0000 0.0000
# 2 9.3005 160.4764 41.1662 0.0000 0.0000 0.0000
# 3 17.4582 41.1662 255.5115 0.0000 0.0000 0.0000
# 4 0.0000 0.0000 0.0000 31.5161 0.0000 0.0000
# 5 0.0000 0.0000 0.0000 0.0000 17.7512 0.0000
# 6 0.0000 0.0000 0.0000 0.0000 0.0000 -35.4195
#
#
#
# Elastic Compliance Matrix: (Units=1/GPa)
#
#
# Indices 1 2 3 4 5 6 
#
# 1 0.027702 -0.001168 -0.001705 0.000000 0.000000 0.000000
# 2 -0.001168 0.006549 -0.000975 0.000000 0.000000 0.000000
# 3 -0.001705 -0.000975 0.004187 0.000000 0.000000 0.000000
# 4 0.000000 0.000000 0.000000 0.031730 0.000000 0.000000
# 5 0.000000 0.000000 0.000000 0.000000 0.056334 0.000000
# 6 0.000000 0.000000 0.000000 0.000000 0.000000 -0.028233
#
#
# Mechanical properties :
#
#
# Convention : Reuss Voigt Hill
#
# Bulk Modulus (GPa) = 32.52860 65.48922 49.00891
# Shear Modulus (GPa) = 43.02444 28.47811 35.75127
#
# Velocity S-wave (km/s) = 4.24989 3.45760 3.87405
# Velocity P-wave (km/s) = 6.14308 6.59031 6.37062
#
# Compressibility (1/GPa) = 0.03074218
#
# Stress axis : x y z
#
# Youngs Moduli (GPa) = 36.09880 152.68676 238.81570
#
# Poissons Ratio (x) = 0.17837 0.40707
# Poissons Ratio (y) = 0.04217 0.23293
# Poissons Ratio (z) = 0.06153 0.14893
#
# Static dielectric constant tensor:
#      x y z
#    x 2.015200 0.000000 0.000000 
#    y 0.000000 2.211820 0.000000 
#    z 0.000000 0.000000 2.023200 
# 
# From -- ./inp_files/1175.got.cif
#   From: 2010.05.17/outbox.cif.g08.bks.cpg/sg56_1_cif.got.tgz:1175.got - 2010.06.03 13:42:01.
