data_PCOD9429382
_publ_section_title
;
Structure prediction by ZEFSAII (Michael W. Deem and Ramdas Pophale) SiO2 
 PCOD9429382
Probable space group: P B A M
;
_chemical_formula_sum "Si O2"
_cell_formula_units_Z 64
_cell_length_a 18.000000
_cell_length_b 21.000000
_cell_length_c 9.000000
_cell_angle_alpha 90.000000
_cell_angle_beta 90.000000
_cell_angle_gamma 90.000000
_cell_volume 3402.000000
_symmetry_space_group_name_H-M "P B A M"
_symmetry_group_IT_number 55
_symmetry_cell_setting 'orthorhombic'
loop_
_space_group_symop_operation_xyz
x,y,z
-x,-y,z
1/2+x,1/2-y,-z
1/2-x,1/2+y,-z
-x,-y,-z
x,y,-z
1/2-x,1/2+y,z
1/2+x,1/2-y,z
loop_
_atom_site_type_symbol
_atom_site_label
_atom_site_fract_x
_atom_site_fract_y
_atom_site_fract_z
Si Si1 0.794299 0.407336 0.821710
Si Si2 0.051036 0.560813 0.320619
Si Si3 0.191980 0.740406 0.821185
Si Si4 0.288180 0.850733 0.325136
Si Si5 0.532067 0.699964 0.177407
Si Si6 0.455475 0.437678 0.675946
Si Si7 0.285482 0.480631 0.324366
Si Si8 0.458620 0.814179 0.326023
O O1 0.869782 0.438245 0.758163
O O2 0.792616 0.332730 0.773162
O O3 0.730299 0.453581 0.759761
O O4 0.794446 0.408113 0.000000
O O5 0.060488 0.559435 0.500000
O O6 0.000000 0.500000 0.281652
O O7 0.011516 0.627434 0.279518
O O8 0.247271 0.792942 0.756038
O O9 0.109857 0.765571 0.779255
O O10 0.196362 0.741044 0.000000
O O11 0.267294 0.848384 0.500000
O O12 0.265046 0.921157 0.271611
O O13 0.375471 0.839933 0.312262
O O14 0.527727 0.629376 0.245547
O O15 0.471061 0.749568 0.236008
O O16 0.529379 0.695191 0.000000
O O17 0.500000 0.500000 0.730029
O O18 0.471492 0.429954 0.500000
O O19 0.369059 0.455361 0.692820
O O20 0.270999 0.491356 0.500000
O O21 0.473379 0.800833 0.500000
#
# Coordination Sequence:
#
# PCOD9429382 Si02
#       8
#     8   8   8   8   8   8   8   8
#     4  11  23  38  57  85 121 157 197 242 289 352
#     4  10  20  36  58  83 116 155 195 242 293 347
#     4  10  22  39  58  84 119 157 198 242 290 352
#     4  10  21  38  62  89 115 152 201 249 297 353
#     4  11  22  39  62  86 121 161 200 245 298 362
#     4  10  22  41  66  93 121 154 201 258 306 354
#     4  10  21  39  61  87 121 158 199 247 301 357
#     4  10  21  36  58  88 119 151 197 250 299 353
#
# _framework density 18.812463000000001
#
# number of rings (size 3 to 8) (size 9 to 14) (size 15 to 20)
#    0.000    1.750    2.500    1.500    0.000    6.500 
#    0.000    5.000    0.000    0.000    0.000    0.000 
#    0.000    0.000    0.000    0.000    0.000    0.000 
#
# Total GULP energy -357346.127739 kJ/mol
# GULP energy per Si atom -5583.533246 kJ/mol
# Density = 1.876965 g / cm^3
# Si number density = 18.812463 Si / 1000 Ang^3
#
#
#
# Elastic Constant Matrix: (Units=GPa)
#
#
# Indices 1 2 3 4 5 6 
#
# 1 20.7257 22.7714 14.6762 0.0000 0.0000 0.0000
# 2 22.7714 165.0527 41.7394 0.0000 0.0000 0.0000
# 3 14.6762 41.7394 26.9950 0.0000 0.0000 0.0000
# 4 0.0000 0.0000 0.0000 33.5811 0.0000 0.0000
# 5 0.0000 0.0000 0.0000 0.0000 20.5563 0.0000
# 6 0.0000 0.0000 0.0000 0.0000 0.0000 39.1696
#
#
#
# Elastic Compliance Matrix: (Units=1/GPa)
#
#
# Indices 1 2 3 4 5 6 
#
# 1 0.078452 -0.000062 -0.042556 0.000000 0.000000 0.000000
# 2 -0.000062 0.009949 -0.015349 0.000000 0.000000 0.000000
# 3 -0.042556 -0.015349 0.083913 0.000000 0.000000 0.000000
# 4 0.000000 0.000000 0.000000 0.029779 0.000000 0.000000
# 5 0.000000 0.000000 0.000000 0.000000 0.048647 0.000000
# 6 0.000000 0.000000 0.000000 0.000000 0.000000 0.025530
#
#
# Mechanical properties :
#
#
# Convention : Reuss Voigt Hill
#
# Bulk Modulus (GPa) = 17.73689 41.23861 29.48775
# Shear Modulus (GPa) = 12.16558 27.56716 19.86637
#
# Velocity S-wave (km/s) = 2.54574 3.83216 3.25317
# Velocity P-wave (km/s) = 4.25321 6.44586 5.46072
#
# Compressibility (1/GPa) = 0.05637966
#
# Stress axis : x y z
#
# Youngs Moduli (GPa) = 12.74668 100.51515 11.91715
#
# Poissons Ratio (x) = 0.00621 0.50715
# Poissons Ratio (y) = 0.00079 0.18292
# Poissons Ratio (z) = 0.54245 1.54281
#
# Static dielectric constant tensor:
#      x y z
#    x 1.677760 0.000000 0.000000 
#    y 0.000000 1.632160 0.000000 
#    z 0.000000 0.000000 1.641740 
# 
# From -- ./inp_files/8064.got.cif
#   From: 2010.05.17/outbox.ucp.g08.bks.cvg/sg55_5_cif.got.tgz:8064.got - 2010.06.11 16:36:00.
