data_PCOD9429472
_publ_section_title
;
Structure prediction by ZEFSAII (Michael W. Deem and Ramdas Pophale) SiO2 
 PCOD9429472
Probable space group: P B A M
;
_chemical_formula_sum "Si O2"
_cell_formula_units_Z 58
_cell_length_a 9.000000
_cell_length_b 18.000000
_cell_length_c 18.000000
_cell_angle_alpha 90.000000
_cell_angle_beta 90.000000
_cell_angle_gamma 90.000000
_cell_volume 2916.000000
_symmetry_space_group_name_H-M "P B A M"
_symmetry_group_IT_number 55
_symmetry_cell_setting 'orthorhombic'
loop_
_space_group_symop_operation_xyz
x,y,z
-x,-y,z
1/2+x,1/2-y,-z
1/2-x,1/2+y,-z
-x,-y,-z
x,y,-z
1/2-x,1/2+y,z
1/2+x,1/2-y,z
loop_
_atom_site_type_symbol
_atom_site_label
_atom_site_fract_x
_atom_site_fract_y
_atom_site_fract_z
Si Si1 0.045204 0.585329 0.910379
Si Si2 0.388704 0.609609 0.134880
Si Si3 0.323961 0.990893 0.415153
Si Si4 0.670446 0.761994 0.712418
Si Si5 0.375980 0.354358 0.587060
Si Si6 0.595342 0.218146 0.179942
Si Si7 0.365612 0.590777 0.306348
Si Si8 0.000000 0.000000 0.000000
O O1 0.212882 0.599419 0.882527
O O2 0.000000 0.500000 0.891547
O O3 0.942582 0.649270 0.873730
O O4 0.040092 0.591407 0.000000
O O5 0.416506 0.699790 0.140782
O O6 0.413549 0.578864 0.219857
O O7 0.469524 0.564170 0.067780
O O8 0.282513 0.017540 0.500000
O O9 0.241140 0.032432 0.347769
O O10 0.500000 0.000000 0.407680
O O11 0.270253 0.905762 0.412407
O O12 0.650034 0.719205 0.635431
O O13 0.746979 0.713627 0.778226
O O14 0.517926 0.785553 0.750740
O O15 0.774549 0.832422 0.699117
O O16 0.417632 0.342969 0.500000
O O17 0.499171 0.397694 0.636121
#
# Coordination Sequence:
#
# PCOD9429472 Si02
#       8
#     8   8   8   8   8   8   8   2
#     4  11  25  47  69 104 142 178 235 301 362 425
#     4  11  25  46  68 104 143 180 241 287 356 432
#     4  10  24  42  63  98 133 174 231 284 348 415
#     4  11  23  44  66 102 130 177 235 279 343 418
#     4  11  24  42  66  98 137 178 231 287 347 416
#     4  11  23  47  73  97 141 186 236 289 352 434
#     4  11  23  42  69  95 136 184 223 287 338 425
#     4  12  28  44  70 108 144 180 230 316 346 424
#
# _framework density 19.890260999999999
#
# number of rings (size 3 to 8) (size 9 to 14) (size 15 to 20)
#    0.000    1.103    6.207    0.828    4.828    4.966 
#    0.000    0.000    0.000    0.000    0.000    0.000 
#    0.000    0.000    0.000    0.000    0.000    0.000 
#
# Total GULP energy -323183.479426 kJ/mol
# GULP energy per Si atom -5572.128956 kJ/mol
# Density = 1.984499 g / cm^3
# Si number density = 19.890261 Si / 1000 Ang^3
#
#
#
# Elastic Constant Matrix: (Units=GPa)
#
#
# Indices 1 2 3 4 5 6 
#
# 1 43.2994 15.2150 12.1772 0.0000 0.0000 0.0000
# 2 15.2150 107.2578 59.9606 0.0000 0.0000 0.0000
# 3 12.1772 59.9606 178.2151 0.0000 0.0000 0.0000
# 4 0.0000 0.0000 0.0000 44.6600 0.0000 0.0000
# 5 0.0000 0.0000 0.0000 0.0000 30.3018 0.0000
# 6 0.0000 0.0000 0.0000 0.0000 0.0000 32.9030
#
#
#
# Elastic Compliance Matrix: (Units=1/GPa)
#
#
# Indices 1 2 3 4 5 6 
#
# 1 0.024362 -0.003110 -0.000618 0.000000 0.000000 0.000000
# 2 -0.003110 0.011880 -0.003785 0.000000 0.000000 0.000000
# 3 -0.000618 -0.003785 0.006927 0.000000 0.000000 0.000000
# 4 0.000000 0.000000 0.000000 0.022391 0.000000 0.000000
# 5 0.000000 0.000000 0.000000 0.000000 0.033001 0.000000
# 6 0.000000 0.000000 0.000000 0.000000 0.000000 0.030392
#
#
# Mechanical properties :
#
#
# Convention : Reuss Voigt Hill
#
# Bulk Modulus (GPa) = 35.53311 55.94199 45.73755
# Shear Modulus (GPa) = 32.60284 37.66758 35.13521
#
# Velocity S-wave (km/s) = 4.05302 4.35647 4.20748
# Velocity P-wave (km/s) = 6.30920 7.31379 6.82999
#
# Compressibility (1/GPa) = 0.02814277
#
# Stress axis : x y z
#
# Youngs Moduli (GPa) = 41.04790 84.17331 144.36745
#
# Poissons Ratio (x) = 0.26180 0.08924
# Poissons Ratio (y) = 0.12767 0.54637
# Poissons Ratio (z) = 0.02537 0.31856
#
# Static dielectric constant tensor:
#      x y z
#    x 1.764540 0.000000 0.000000 
#    y 0.000000 1.722120 0.000000 
#    z 0.000000 0.000000 1.688330 
# 
# From -- ./inp_files/20985.got.cif
#   From: 2010.05.17/outbox.ucp.g08.bks.cvg/sg55_11_cif.got.tgz:20985.got - 2010.06.11 16:36:00.
