data_PCOD9429871
_publ_section_title
;
Structure prediction by ZEFSAII (Michael W. Deem and Ramdas Pophale) SiO2 
 PCOD9429871
Probable space group: P C C N
;
_chemical_formula_sum "Si O2"
_cell_formula_units_Z 48
_cell_length_a 7.446423
_cell_length_b 15.320560
_cell_length_c 18.005440
_cell_angle_alpha 90.000000
_cell_angle_beta 90.000000
_cell_angle_gamma 90.000000
_cell_volume 2054.121280
_symmetry_space_group_name_H-M "P C C N"
_symmetry_group_IT_number 56
_symmetry_cell_setting 'orthorhombic'
loop_
_space_group_symop_operation_xyz
x,y,z
1/2-x,1/2-y,z
1/2+x,-y,1/2-z
-x,1/2+y,1/2-z
-x,-y,-z
1/2+x,1/2+y,-z
1/2-x,y,1/2+z
x,1/2-y,1/2+z
loop_
_atom_site_type_symbol
_atom_site_label
_atom_site_fract_x
_atom_site_fract_y
_atom_site_fract_z
Si Si1 0.166844 0.564112 0.899991
Si Si2 0.750000 0.750000 0.421353
Si Si3 0.711291 0.933941 0.978765
Si Si4 0.750000 0.250000 0.820694
Si Si5 0.961165 0.183218 0.182149
Si Si6 0.481727 0.985694 0.243820
Si Si7 0.153441 0.569104 0.643633
O O1 0.303588 0.639629 0.870628
O O2 0.073962 0.527445 0.826761
O O3 0.999894 0.582292 0.957049
O O4 0.250094 0.481672 0.944047
O O5 0.716330 0.836601 0.469063
O O6 0.579181 0.750900 0.365989
O O7 0.800178 0.001733 0.920652
O O8 0.598440 0.228213 0.758987
O O9 0.691424 0.330381 0.871926
O O10 0.065927 0.098051 0.213196
O O11 0.297303 0.950794 0.209603
O O12 0.470755 0.054144 0.310987
#
# Coordination Sequence:
#
# PCOD9429871 Si02
#       7
#     8   4   8   4   8   8   8
#     4  10  21  43  65  84 123 174 209 254 331 379
#     4  12  24  38  60  98 126 162 218 260 322 384
#     4  10  23  41  66  88 129 167 208 263 316 393
#     4  10  20  36  62  90 126 162 214 262 310 388
#     4  11  22  37  63  93 124 166 211 271 319 378
#     4  10  18  36  62  88 117 160 211 252 320 367
#     4  10  20  36  59  91 120 162 206 260 309 374
#
# _framework density 23.367654999999999
#
# number of rings (size 3 to 8) (size 9 to 14) (size 15 to 20)
#    0.000    1.667    5.000    1.000    2.333    0.667 
#    0.000    8.333    0.000    0.000    0.000    0.000 
#    0.000    0.000    0.000    0.000    0.000    0.000 
#
# Total GULP energy -267360.276924 kJ/mol
# GULP energy per Si atom -5570.005769 kJ/mol
# Density = 2.331447 g / cm^3
# Si number density = 23.367655 Si / 1000 Ang^3
#
#
#
# Elastic Constant Matrix: (Units=GPa)
#
#
# Indices 1 2 3 4 5 6 
#
# 1 51.6946 -0.5165 14.5178 0.0000 0.0000 0.0000
# 2 -0.5165 105.0737 9.3847 0.0000 0.0000 0.0000
# 3 14.5178 9.3847 82.6853 0.0000 0.0000 0.0000
# 4 0.0000 0.0000 0.0000 14.8401 0.0000 0.0000
# 5 0.0000 0.0000 0.0000 0.0000 16.5650 0.0000
# 6 0.0000 0.0000 0.0000 0.0000 0.0000 38.3122
#
#
#
# Elastic Compliance Matrix: (Units=1/GPa)
#
#
# Indices 1 2 3 4 5 6 
#
# 1 0.020366 0.000424 -0.003624 0.000000 0.000000 0.000000
# 2 0.000424 0.009623 -0.001167 0.000000 0.000000 0.000000
# 3 -0.003624 -0.001167 0.012863 0.000000 0.000000 0.000000
# 4 0.000000 0.000000 0.000000 0.067385 0.000000 0.000000
# 5 0.000000 0.000000 0.000000 0.000000 0.060368 0.000000
# 6 0.000000 0.000000 0.000000 0.000000 0.000000 0.026101
#
#
# Mechanical properties :
#
#
# Convention : Reuss Voigt Hill
#
# Bulk Modulus (GPa) = 29.30936 31.80285 30.55611
# Shear Modulus (GPa) = 23.06124 28.34795 25.70460
#
# Velocity S-wave (km/s) = 3.14488 3.48678 3.32023
# Velocity P-wave (km/s) = 5.07514 5.46347 5.27288
#
# Compressibility (1/GPa) = 0.03411879
#
# Stress axis : x y z
#
# Youngs Moduli (GPa) = 49.10055 103.91324 77.74381
#
# Poissons Ratio (x) = -0.04404 0.28174
# Poissons Ratio (y) = -0.02081 0.09070
# Poissons Ratio (z) = 0.17794 0.12123
#
# Static dielectric constant tensor:
#      x y z
#    x 2.137150 0.000000 0.000000 
#    y 0.000000 2.060910 0.000000 
#    z 0.000000 0.000000 1.812100 
# 
# From -- ./inp_files/15007.got.cif
#   From: 2010.05.17/outbox.cif.g08.bks.cpg/sg56_8_cif.got.tgz:15007.got - 2010.06.03 13:42:01.
