data_PCOD9429313
_publ_section_title
;
Structure prediction by ZEFSAII (Michael W. Deem and Ramdas Pophale) SiO2 
 PCOD9429313
Probable space group: P B A M
;
_chemical_formula_sum "Si O2"
_cell_formula_units_Z 64
_cell_length_a 18.000000
_cell_length_b 21.000000
_cell_length_c 9.000000
_cell_angle_alpha 90.000000
_cell_angle_beta 90.000000
_cell_angle_gamma 90.000000
_cell_volume 3402.000000
_symmetry_space_group_name_H-M "P B A M"
_symmetry_group_IT_number 55
_symmetry_cell_setting 'orthorhombic'
loop_
_space_group_symop_operation_xyz
x,y,z
-x,-y,z
1/2+x,1/2-y,-z
1/2-x,1/2+y,-z
-x,-y,-z
x,y,-z
1/2-x,1/2+y,z
1/2+x,1/2-y,z
loop_
_atom_site_type_symbol
_atom_site_label
_atom_site_fract_x
_atom_site_fract_y
_atom_site_fract_z
Si Si1 0.146888 0.316760 0.820771
Si Si2 0.821372 0.533050 0.821451
Si Si3 0.591587 0.404903 0.320190
Si Si4 0.562822 0.656186 0.319525
Si Si5 0.277610 0.694079 0.320010
Si Si6 0.513943 0.795262 0.320625
Si Si7 0.637263 0.898252 0.678820
Si Si8 0.660466 0.538816 0.680521
O O1 0.156264 0.392881 0.781783
O O2 0.204646 0.263728 0.752167
O O3 0.065685 0.297267 0.758613
O O4 0.150315 0.312156 0.000000
O O5 0.859771 0.468555 0.753846
O O6 0.738196 0.527652 0.759189
O O7 0.825466 0.528694 0.000000
O O8 0.589406 0.404867 0.500000
O O9 0.513079 0.377801 0.268512
O O10 0.655276 0.354271 0.279276
O O11 0.609262 0.477852 0.278897
O O12 0.564093 0.655908 0.500000
O O13 0.558538 0.730502 0.277020
O O14 0.627769 0.607650 0.274356
O O15 0.276365 0.702972 0.500000
O O16 0.204109 0.651901 0.281180
O O17 0.502535 0.792186 0.500000
O O18 0.562432 0.858207 0.288605
O O19 0.643038 0.907753 0.500000
O O20 0.668783 0.538030 0.500000
#
# Coordination Sequence:
#
# PCOD9429313 Si02
#       8
#     8   8   8   8   8   8   8   8
#     4  11  25  42  59  84 118 160 204 239 286 353
#     4  11  25  42  58  81 118 159 199 243 291 349
#     4   9  15  29  55  86 117 149 185 229 285 348
#     4   9  17  30  54  89 122 149 182 231 291 346
#     4  10  19  36  63  90 118 151 190 242 295 347
#     4  10  21  39  62  90 118 148 194 251 302 350
#     4  10  22  40  64  93 118 146 196 250 301 355
#     4  10  19  33  58  88 117 152 195 239 285 344
#
# _framework density 18.812463000000001
#
# number of rings (size 3 to 8) (size 9 to 14) (size 15 to 20)
#    0.000    2.000    2.500    1.125    1.750    5.000 
#    0.000    3.125    0.000    0.750    0.000    0.000 
#    0.000    0.000    0.000    0.000    0.000    0.000 
#
# Total GULP energy -356777.533524 kJ/mol
# GULP energy per Si atom -5574.648961 kJ/mol
# Density = 1.876965 g / cm^3
# Si number density = 18.812463 Si / 1000 Ang^3
#
#
#
# Elastic Constant Matrix: (Units=GPa)
#
#
# Indices 1 2 3 4 5 6 
#
# 1 24.3056 9.5353 4.4474 0.0000 0.0000 0.0000
# 2 9.5353 164.6173 29.6702 0.0000 0.0000 0.0000
# 3 4.4474 29.6702 32.1376 0.0000 0.0000 0.0000
# 4 0.0000 0.0000 0.0000 31.2443 0.0000 0.0000
# 5 0.0000 0.0000 0.0000 0.0000 11.6353 0.0000
# 6 0.0000 0.0000 0.0000 0.0000 0.0000 40.0884
#
#
#
# Elastic Compliance Matrix: (Units=1/GPa)
#
#
# Indices 1 2 3 4 5 6 
#
# 1 0.042598 -0.001685 -0.004339 0.000000 0.000000 0.000000
# 2 -0.001685 0.007354 -0.006556 0.000000 0.000000 0.000000
# 3 -0.004339 -0.006556 0.037769 0.000000 0.000000 0.000000
# 4 0.000000 0.000000 0.000000 0.032006 0.000000 0.000000
# 5 0.000000 0.000000 0.000000 0.000000 0.085945 0.000000
# 6 0.000000 0.000000 0.000000 0.000000 0.000000 0.024945
#
#
# Mechanical properties :
#
#
# Convention : Reuss Voigt Hill
#
# Bulk Modulus (GPa) = 15.98458 34.26292 25.12375
# Shear Modulus (GPa) = 18.07459 28.42078 23.24768
#
# Velocity S-wave (km/s) = 3.10300 3.89104 3.51915
# Velocity P-wave (km/s) = 4.62098 6.19995 5.46776
#
# Compressibility (1/GPa) = 0.06256029
#
# Stress axis : x y z
#
# Youngs Moduli (GPa) = 23.47536 135.98079 26.47645
#
# Poissons Ratio (x) = 0.22918 0.11488
# Poissons Ratio (y) = 0.03957 0.17358
# Poissons Ratio (z) = 0.10186 0.89151
#
# Static dielectric constant tensor:
#      x y z
#    x 1.676720 0.000000 0.000000 
#    y 0.000000 1.667620 0.000000 
#    z 0.000000 0.000000 1.634690 
# 
# From -- ./inp_files/8069.got.cif
#   From: 2010.05.17/outbox.ucp.g08.bks.cvg/sg55_5_cif.got.tgz:8069.got - 2010.06.11 16:36:00.
