data_PCOD9429929
_publ_section_title
;
Structure prediction by ZEFSAII (Michael W. Deem and Ramdas Pophale) SiO2 
 PCOD9429929
Probable space group: P C C N
;
_chemical_formula_sum "Si O2"
_cell_formula_units_Z 32
_cell_length_a 14.441886
_cell_length_b 4.925118
_cell_length_c 23.287686
_cell_angle_alpha 90.000000
_cell_angle_beta 90.000000
_cell_angle_gamma 90.000000
_cell_volume 1656.406360
_symmetry_space_group_name_H-M "P C C N"
_symmetry_group_IT_number 56
_symmetry_cell_setting 'orthorhombic'
loop_
_space_group_symop_operation_xyz
x,y,z
1/2-x,1/2-y,z
1/2+x,-y,1/2-z
-x,1/2+y,1/2-z
-x,-y,-z
1/2+x,1/2+y,-z
1/2-x,y,1/2+z
x,1/2-y,1/2+z
loop_
_atom_site_type_symbol
_atom_site_label
_atom_site_fract_x
_atom_site_fract_y
_atom_site_fract_z
Si Si1 0.750000 0.750000 0.039301
Si Si2 0.000000 0.629943 0.786703
Si Si3 0.187377 0.517365 0.149311
Si Si4 0.687376 0.517365 0.649311
Si Si5 0.250000 0.750000 0.539301
O O1 0.825353 0.637044 0.084855
O O2 0.719435 0.500000 1.000000
O O3 0.092261 0.549947 0.820489
O O4 0.000000 0.446195 0.729288
O O5 0.907739 0.549947 0.820489
O O6 0.250000 0.250000 0.144895
O O7 0.174647 0.637044 0.084855
O O8 0.250000 0.750000 0.179868
O O9 0.750000 0.250000 0.644895
O O10 0.750000 0.750000 0.679868
#
# Coordination Sequence:
#
# PCOD9429929 Si02
#       5
#     4   8   8   8   4
#     4  10  18  38  66  86 118 160 192 248 308 348
#     4  12  26  40  62  91 124 161 204 246 296 358
#     4  10  22  40  62  89 125 155 205 244 296 362
#     4  10  22  40  62  89 125 155 205 244 296 362
#     4  10  18  38  66  86 118 160 192 248 308 348
#
# _framework density 19.318930999999999
#
# number of rings (size 3 to 8) (size 9 to 14) (size 15 to 20)
#    1.500    0.000    2.500    3.000    0.000    6.000 
#    0.000    2.500    0.000    0.000    0.000    0.000 
#    0.000    0.000    0.000    0.000    0.000    0.000 
#
# Total GULP energy -178339.470484 kJ/mol
# GULP energy per Si atom -5573.108453 kJ/mol
# Density = 1.927496 g / cm^3
# Si number density = 19.318931 Si / 1000 Ang^3
#
#
#
# Elastic Constant Matrix: (Units=GPa)
#
#
# Indices 1 2 3 4 5 6 
#
# 1 102.6182 25.5275 41.7631 0.0000 0.0000 0.0000
# 2 25.5275 114.5932 12.8437 0.0000 0.0000 0.0000
# 3 41.7631 12.8437 60.6067 0.0000 0.0000 0.0000
# 4 0.0000 0.0000 0.0000 23.5320 0.0000 0.0000
# 5 0.0000 0.0000 0.0000 0.0000 12.4879 0.0000
# 6 0.0000 0.0000 0.0000 0.0000 0.0000 51.1823
#
#
#
# Elastic Compliance Matrix: (Units=1/GPa)
#
#
# Indices 1 2 3 4 5 6 
#
# 1 0.014015 -0.002089 -0.009215 0.000000 0.000000 0.000000
# 2 -0.002089 0.009250 -0.000521 0.000000 0.000000 0.000000
# 3 -0.009215 -0.000521 0.022960 0.000000 0.000000 0.000000
# 4 0.000000 0.000000 0.000000 0.042495 0.000000 0.000000
# 5 0.000000 0.000000 0.000000 0.000000 0.080077 0.000000
# 6 0.000000 0.000000 0.000000 0.000000 0.000000 0.019538
#
#
# Mechanical properties :
#
#
# Convention : Reuss Voigt Hill
#
# Bulk Modulus (GPa) = 44.29509 48.67630 46.48569
# Shear Modulus (GPa) = 22.77807 30.61937 26.69872
#
# Velocity S-wave (km/s) = 3.43746 3.98545 3.72156
# Velocity P-wave (km/s) = 6.22358 6.81390 6.52542
#
# Compressibility (1/GPa) = 0.02257587
#
# Stress axis : x y z
#
# Youngs Moduli (GPa) = 71.35379 108.10478 43.55445
#
# Poissons Ratio (x) = 0.22586 0.40133
# Poissons Ratio (y) = 0.14907 0.02268
# Poissons Ratio (z) = 0.65749 0.05629
#
# Static dielectric constant tensor:
#      x y z
#    x 1.632620 0.000000 0.000000 
#    y 0.000000 1.703900 0.000000 
#    z 0.000000 0.000000 1.727910 
# 
# From -- ./inp_files/21033.got.cif
#   From: 2010.05.17/outbox.cif.g08.bks.cpg/sg56_11_cif.got.tgz:21033.got - 2010.06.03 13:42:01.
