data_PCOD9429455
_publ_section_title
;
Structure prediction by ZEFSAII (Michael W. Deem and Ramdas Pophale) SiO2 
 PCOD9429455
Probable space group: P B A M
;
_chemical_formula_sum "Si O2"
_cell_formula_units_Z 48
_cell_length_a 24.000000
_cell_length_b 12.000000
_cell_length_c 9.000000
_cell_angle_alpha 90.000000
_cell_angle_beta 90.000000
_cell_angle_gamma 90.000000
_cell_volume 2592.000000
_symmetry_space_group_name_H-M "P B A M"
_symmetry_group_IT_number 55
_symmetry_cell_setting 'orthorhombic'
loop_
_space_group_symop_operation_xyz
x,y,z
-x,-y,z
1/2+x,1/2-y,-z
1/2-x,1/2+y,-z
-x,-y,-z
x,y,-z
1/2-x,1/2+y,z
1/2+x,1/2-y,z
loop_
_atom_site_type_symbol
_atom_site_label
_atom_site_fract_x
_atom_site_fract_y
_atom_site_fract_z
Si Si1 0.564687 0.485926 0.180918
Si Si2 0.222384 0.384509 0.322524
Si Si3 0.875163 0.756878 0.175367
Si Si4 0.659704 0.660531 0.177296
Si Si5 0.564403 0.028213 0.166642
Si Si6 0.152317 0.603374 0.672569
O O1 0.500000 0.500000 0.230701
O O2 0.596189 0.371650 0.228211
O O3 0.605472 0.588135 0.222705
O O4 0.562540 0.482044 0.000000
O O5 0.224850 0.370030 0.500000
O O6 0.179961 0.291083 0.256600
O O7 0.283253 0.380211 0.252118
O O8 0.196713 0.506613 0.290628
O O9 0.920544 0.657591 0.188338
O O10 0.861639 0.770078 0.000000
O O11 0.654833 0.787915 0.227694
O O12 0.664533 0.651847 0.000000
O O13 0.500000 0.000000 0.167582
O O14 0.594538 0.957535 0.292075
O O15 0.586429 0.999121 0.000000
O O16 0.158376 0.633513 0.500000
#
# Coordination Sequence:
#
# PCOD9429455 Si02
#       6
#     8   8   8   8   8   8
#     4   9  20  37  59  88 120 154 193 241 297 349
#     4  10  22  40  60  84 116 152 191 240 298 351
#     4   9  18  35  59  87 117 149 191 239 288 348
#     4  11  23  37  61  89 116 150 194 244 292 352
#     4   9  18  32  57  88 114 146 191 241 290 340
#     4  10  22  39  57  82 117 154 192 236 292 353
#
# _framework density 18.518519000000001
#
# number of rings (size 3 to 8) (size 9 to 14) (size 15 to 20)
#    0.000    2.333    0.000    1.500    4.667    2.333 
#    0.000    0.833    0.000    2.500    0.000    0.000 
#    0.000    0.000    0.000    0.000    0.000    0.000 
#
# Total GULP energy -267684.270837 kJ/mol
# GULP energy per Si atom -5576.755642 kJ/mol
# Density = 1.847637 g / cm^3
# Si number density = 18.518519 Si / 1000 Ang^3
#
#
#
# Elastic Constant Matrix: (Units=GPa)
#
#
# Indices 1 2 3 4 5 6 
#
# 1 131.1631 82.0804 40.0664 0.0000 0.0000 0.0000
# 2 82.0804 108.3774 49.5998 0.0000 0.0000 0.0000
# 3 40.0664 49.5998 37.0713 0.0000 0.0000 0.0000
# 4 0.0000 0.0000 0.0000 18.0108 0.0000 0.0000
# 5 0.0000 0.0000 0.0000 0.0000 14.0312 0.0000
# 6 0.0000 0.0000 0.0000 0.0000 0.0000 11.4562
#
#
#
# Elastic Compliance Matrix: (Units=1/GPa)
#
#
# Indices 1 2 3 4 5 6 
#
# 1 0.014585 -0.009884 -0.002539 0.000000 0.000000 0.000000
# 2 -0.009884 0.030499 -0.030124 0.000000 0.000000 0.000000
# 3 -0.002539 -0.030124 0.070024 0.000000 0.000000 0.000000
# 4 0.000000 0.000000 0.000000 0.055522 0.000000 0.000000
# 5 0.000000 0.000000 0.000000 0.000000 0.071270 0.000000
# 6 0.000000 0.000000 0.000000 0.000000 0.000000 0.087289
#
#
# Mechanical properties :
#
#
# Convention : Reuss Voigt Hill
#
# Bulk Modulus (GPa) = 33.31784 68.90055 51.10920
# Shear Modulus (GPa) = 11.78445 15.69065 13.73755
#
# Velocity S-wave (km/s) = 2.52535 2.91399 2.72661
# Velocity P-wave (km/s) = 5.15111 6.97201 6.12955
#
# Compressibility (1/GPa) = 0.03001395
#
# Stress axis : x y z
#
# Youngs Moduli (GPa) = 68.56348 32.78760 14.28088
#
# Poissons Ratio (x) = 0.32408 0.03626
# Poissons Ratio (y) = 0.67769 0.43020
# Poissons Ratio (z) = 0.17407 0.98770
#
# Static dielectric constant tensor:
#      x y z
#    x 1.642060 0.000000 0.000000 
#    y 0.000000 1.655290 0.000000 
#    z 0.000000 0.000000 1.644050 
# 
# From -- ./inp_files/4039.got.cif
#   From: 2010.05.17/outbox.ucp.g08.bks.cvg/sg55_3_cif.got.tgz:4039.got - 2010.06.11 16:36:00.
