data_PCOD9429832
_publ_section_title
;
Structure prediction by ZEFSAII (Michael W. Deem and Ramdas Pophale) SiO2 
 PCOD9429832
Probable space group: P C C N
;
_chemical_formula_sum "Si O2"
_cell_formula_units_Z 56
_cell_length_a 10.934294
_cell_length_b 12.287055
_cell_length_c 20.997681
_cell_angle_alpha 90.000000
_cell_angle_beta 90.000000
_cell_angle_gamma 90.000000
_cell_volume 2821.044149
_symmetry_space_group_name_H-M "P C C N"
_symmetry_group_IT_number 56
_symmetry_cell_setting 'orthorhombic'
loop_
_space_group_symop_operation_xyz
x,y,z
1/2-x,1/2-y,z
1/2+x,-y,1/2-z
-x,1/2+y,1/2-z
-x,-y,-z
1/2+x,1/2+y,-z
1/2-x,y,1/2+z
x,1/2-y,1/2+z
loop_
_atom_site_type_symbol
_atom_site_label
_atom_site_fract_x
_atom_site_fract_y
_atom_site_fract_z
Si Si1 0.798000 0.644047 0.694798
Si Si2 0.661999 0.008567 0.277090
Si Si3 0.897830 0.265014 0.440328
Si Si4 0.638271 0.337170 0.313751
Si Si5 0.991093 0.294175 0.214559
Si Si6 0.103542 0.725604 0.419535
Si Si7 0.987548 0.511230 0.610863
O O1 0.750000 0.750000 0.659499
O O2 0.687418 0.575804 0.722214
O O3 0.881885 0.571628 0.650238
O O4 0.876133 0.683205 0.756407
O O5 0.792570 0.050057 0.304640
O O6 0.590719 0.107817 0.243538
O O7 0.585533 0.970113 0.337320
O O8 0.750000 0.250000 0.443543
O O9 0.932574 0.191199 0.378923
O O10 0.938372 0.232078 0.511060
O O11 0.943328 0.389180 0.426225
O O12 0.750000 0.250000 0.314129
O O13 0.560993 0.311256 0.251481
O O14 0.966867 0.278624 0.140215
O O15 0.250000 0.750000 0.410986
O O16 0.071789 0.595803 0.420562
#
# Coordination Sequence:
#
# PCOD9429832 Si02
#       7
#     8   8   8   8   8   8   8
#     4  11  22  33  52  84 116 144 188 231 283 346
#     4  10  19  33  60  80 108 148 195 232 286 344
#     4  10  18  35  57  85 110 145 192 236 280 355
#     4   9  14  32  56  77 105 137 185 226 280 334
#     4  10  19  35  52  81 112 140 183 238 288 329
#     4  11  22  33  57  84 117 143 190 246 285 334
#     4  11  20  37  55  83 112 153 188 230 297 343
#
# _framework density 19.850805999999999
#
# number of rings (size 3 to 8) (size 9 to 14) (size 15 to 20)
#    0.000    1.714    5.714    4.286    0.000    1.143 
#    0.000    0.000    0.000    5.143    0.000    0.000 
#    0.000    0.000    0.000    0.000    0.000    0.000 
#
# Total GULP energy -312061.334153 kJ/mol
# GULP energy per Si atom -5572.523824 kJ/mol
# Density = 1.980562 g / cm^3
# Si number density = 19.850806 Si / 1000 Ang^3
#
#
#
# Elastic Constant Matrix: (Units=GPa)
#
#
# Indices 1 2 3 4 5 6 
#
# 1 52.8918 25.8759 4.7185 0.0000 0.0000 0.0000
# 2 25.8759 61.0419 1.8930 0.0000 0.0000 0.0000
# 3 4.7185 1.8930 108.3931 0.0000 0.0000 0.0000
# 4 0.0000 0.0000 0.0000 8.5282 0.0000 0.0000
# 5 0.0000 0.0000 0.0000 0.0000 6.7965 0.0000
# 6 0.0000 0.0000 0.0000 0.0000 0.0000 34.6701
#
#
#
# Elastic Compliance Matrix: (Units=1/GPa)
#
#
# Indices 1 2 3 4 5 6 
#
# 1 0.023934 -0.010119 -0.000865 0.000000 0.000000 0.000000
# 2 -0.010119 0.020669 0.000080 0.000000 0.000000 0.000000
# 3 -0.000865 0.000080 0.009262 0.000000 0.000000 0.000000
# 4 0.000000 0.000000 0.000000 0.117257 0.000000 0.000000
# 5 0.000000 0.000000 0.000000 0.000000 0.147134 0.000000
# 6 0.000000 0.000000 0.000000 0.000000 0.000000 0.028843
#
#
# Mechanical properties :
#
#
# Convention : Reuss Voigt Hill
#
# Bulk Modulus (GPa) = 31.19530 31.92239 31.55885
# Shear Modulus (GPa) = 13.17194 22.65494 17.91344
#
# Velocity S-wave (km/s) = 2.57873 3.38192 3.00726
# Velocity P-wave (km/s) = 4.96140 5.60053 5.29062
#
# Compressibility (1/GPa) = 0.03205611
#
# Stress axis : x y z
#
# Youngs Moduli (GPa) = 41.78134 48.38125 107.96860
#
# Poissons Ratio (x) = 0.48957 0.09341
# Poissons Ratio (y) = 0.42278 -0.00858
# Poissons Ratio (z) = 0.03615 -0.00385
#
# Static dielectric constant tensor:
#      x y z
#    x 1.727350 0.000000 0.000000 
#    y 0.000000 1.803060 0.000000 
#    z 0.000000 0.000000 1.704810 
# 
# From -- ./inp_files/18728.got.cif
#   From: 2010.05.17/outbox.cif.g08.bks.cpg/sg56_10_cif.got.tgz:18728.got - 2010.06.03 13:42:01.
