data_PCOD9429994
_publ_section_title
;
Structure prediction by ZEFSAII (Michael W. Deem and Ramdas Pophale) SiO2 
 PCOD9429994
Probable space group: P C C N
;
_chemical_formula_sum "Si O2"
_cell_formula_units_Z 48
_cell_length_a 12.831977
_cell_length_b 5.211209
_cell_length_c 30.470534
_cell_angle_alpha 90.000000
_cell_angle_beta 90.000000
_cell_angle_gamma 90.000000
_cell_volume 2037.568083
_symmetry_space_group_name_H-M "P C C N"
_symmetry_group_IT_number 56
_symmetry_cell_setting 'orthorhombic'
loop_
_space_group_symop_operation_xyz
x,y,z
1/2-x,1/2-y,z
1/2+x,-y,1/2-z
-x,1/2+y,1/2-z
-x,-y,-z
1/2+x,1/2+y,-z
1/2-x,y,1/2+z
x,1/2-y,1/2+z
loop_
_atom_site_type_symbol
_atom_site_label
_atom_site_fract_x
_atom_site_fract_y
_atom_site_fract_z
Si Si1 0.624988 0.175729 0.922183
Si Si2 0.678298 0.998069 0.109132
Si Si3 0.676272 0.000935 0.014176
Si Si4 0.362378 0.175533 0.615661
Si Si5 0.583545 0.006556 0.293981
Si Si6 0.056228 0.506662 0.800996
O O1 0.750000 0.250000 0.917369
O O2 0.577982 0.455502 0.911373
O O3 0.589425 0.958588 0.887711
O O4 0.611126 0.057751 0.970392
O O5 0.750000 0.250000 0.110872
O O6 0.621180 0.990957 0.061627
O O7 0.750000 0.750000 0.107169
O O8 0.617698 0.981931 0.154367
O O9 0.750000 0.250000 0.016695
O O10 0.750000 0.750000 0.008470
O O11 0.250000 0.250000 0.596099
O O12 0.345633 0.057674 0.664061
O O13 0.623422 0.980358 0.244153
O O14 0.495429 0.787370 0.299136
O O15 0.531186 0.284535 0.298381
#
# Coordination Sequence:
#
# PCOD9429994 Si02
#       6
#     8   8   8   8   8   8
#     4   9  16  28  47  73 104 132 163 206 255 304
#     4  10  20  34  56  83 104 129 172 223 261 293
#     4   9  16  28  48  74 103 133 165 205 257 310
#     4  10  19  31  51  78 103 131 172 217 251 288
#     4  10  21  37  55  74 102 144 177 204 259 324
#     4  10  21  38  56  74 103 141 175 208 260 323
#
# _framework density 23.557496
#
# number of rings (size 3 to 8) (size 9 to 14) (size 15 to 20)
#    0.000    2.333    0.000    4.500    0.000    0.667 
#    0.000    2.500    0.000    6.000    0.000    0.000 
#    0.000    0.000    0.000    0.000    0.000    0.000 
#
# Total GULP energy -267712.242350 kJ/mol
# GULP energy per Si atom -5577.338382 kJ/mol
# Density = 2.350388 g / cm^3
# Si number density = 23.557496 Si / 1000 Ang^3
#
#
#
# Elastic Constant Matrix: (Units=GPa)
#
#
# Indices 1 2 3 4 5 6 
#
# 1 26.5569 11.9976 32.3373 0.0000 0.0000 0.0000
# 2 11.9976 160.5980 37.9639 0.0000 0.0000 0.0000
# 3 32.3373 37.9639 211.4756 0.0000 0.0000 0.0000
# 4 0.0000 0.0000 0.0000 26.2309 0.0000 0.0000
# 5 0.0000 0.0000 0.0000 0.0000 41.1428 0.0000
# 6 0.0000 0.0000 0.0000 0.0000 0.0000 5.9536
#
#
#
# Elastic Compliance Matrix: (Units=1/GPa)
#
#
# Indices 1 2 3 4 5 6 
#
# 1 0.046811 -0.001885 -0.006820 0.000000 0.000000 0.000000
# 2 -0.001885 0.006579 -0.000893 0.000000 0.000000 0.000000
# 3 -0.006820 -0.000893 0.005932 0.000000 0.000000 0.000000
# 4 0.000000 0.000000 0.000000 0.038123 0.000000 0.000000
# 5 0.000000 0.000000 0.000000 0.000000 0.024306 0.000000
# 6 0.000000 0.000000 0.000000 0.000000 0.000000 0.167965
#
#
# Mechanical properties :
#
#
# Convention : Reuss Voigt Hill
#
# Bulk Modulus (GPa) = 24.92125 62.58091 43.75108
# Shear Modulus (GPa) = 15.51423 35.75424 25.63423
#
# Velocity S-wave (km/s) = 2.56904 3.90005 3.30230
# Velocity P-wave (km/s) = 4.40475 6.84860 5.75783
#
# Compressibility (1/GPa) = 0.04012640
#
# Stress axis : x y z
#
# Youngs Moduli (GPa) = 21.36271 152.00846 168.58454
#
# Poissons Ratio (x) = 0.28653 1.14967
# Poissons Ratio (y) = 0.04027 0.15050
# Poissons Ratio (z) = 0.14568 0.13571
#
# Static dielectric constant tensor:
#      x y z
#    x 1.956820 0.000000 0.000000 
#    y 0.000000 1.911870 0.000000 
#    z 0.000000 0.000000 1.978020 
# 
# From -- ./inp_files/22492.got.cif
#   From: 2010.05.17/outbox.cif.g08.bks.cpg/sg56_12_cif.got.tgz:22492.got - 2010.06.03 13:42:01.
