data_PCOD9429575
_publ_section_title
;
Structure prediction by ZEFSAII (Michael W. Deem and Ramdas Pophale) SiO2 
 PCOD9429575
Probable space group: P C C N
;
_chemical_formula_sum "Si O2"
_cell_formula_units_Z 32
_cell_length_a 21.926662
_cell_length_b 6.785162
_cell_length_c 8.119853
_cell_angle_alpha 90.000000
_cell_angle_beta 90.000000
_cell_angle_gamma 90.000000
_cell_volume 1208.038875
_symmetry_space_group_name_H-M "P C C N"
_symmetry_group_IT_number 56
_symmetry_cell_setting 'orthorhombic'
loop_
_space_group_symop_operation_xyz
x,y,z
1/2-x,1/2-y,z
1/2+x,-y,1/2-z
-x,1/2+y,1/2-z
-x,-y,-z
1/2+x,1/2+y,-z
1/2-x,y,1/2+z
x,1/2-y,1/2+z
loop_
_atom_site_type_symbol
_atom_site_label
_atom_site_fract_x
_atom_site_fract_y
_atom_site_fract_z
Si Si1 0.174834 0.937977 0.330422
Si Si2 0.557178 0.335445 0.849319
Si Si3 0.575614 0.551943 0.196897
Si Si4 0.801164 0.989699 0.288507
O O1 0.105615 0.950083 0.264965
O O2 0.229182 0.046349 0.231523
O O3 0.188034 0.702853 0.300501
O O4 0.186787 0.990681 0.518410
O O5 0.487112 0.330864 0.789978
O O6 0.574241 0.106673 0.843997
O O7 0.566135 0.431839 0.027101
O O8 0.643868 0.637357 0.206237
#
# Coordination Sequence:
#
# PCOD9429575 Si02
#       4
#     8   8   8   8
#     4  10  17  27  45  68  95 124 158 199 241 282
#     4  10  20  33  50  73 100 129 162 199 240 287
#     4  10  20  33  50  73 100 129 162 199 240 287
#     4  10  17  27  45  68  95 124 158 199 241 282
#
# _framework density 26.489215000000002
#
# number of rings (size 3 to 8) (size 9 to 14) (size 15 to 20)
#    0.000    2.000    0.000   10.500    0.000    4.000 
#    0.000    0.000    0.000    1.500    0.000   10.500 
#    0.000    0.000    0.000    0.000    0.000    0.000 
#
# Total GULP energy -178909.022734 kJ/mol
# GULP energy per Si atom -5590.906960 kJ/mol
# Density = 2.642892 g / cm^3
# Si number density = 26.489215 Si / 1000 Ang^3
#
#
#
# Elastic Constant Matrix: (Units=GPa)
#
#
# Indices 1 2 3 4 5 6 
#
# 1 267.2659 23.2864 49.1832 0.0000 0.0000 0.0000
# 2 23.2864 37.9780 -9.8347 0.0000 0.0000 0.0000
# 3 49.1832 -9.8347 126.9894 0.0000 0.0000 0.0000
# 4 0.0000 0.0000 0.0000 -7.4259 0.0000 0.0000
# 5 0.0000 0.0000 0.0000 0.0000 38.8306 0.0000
# 6 0.0000 0.0000 0.0000 0.0000 0.0000 56.1300
#
#
#
# Elastic Compliance Matrix: (Units=1/GPa)
#
#
# Indices 1 2 3 4 5 6 
#
# 1 0.004377 -0.003186 -0.001942 0.000000 0.000000 0.000000
# 2 -0.003186 0.029190 0.003495 0.000000 0.000000 0.000000
# 3 -0.001942 0.003495 0.008897 0.000000 0.000000 0.000000
# 4 0.000000 0.000000 0.000000 -0.134665 0.000000 0.000000
# 5 0.000000 0.000000 0.000000 0.000000 0.025753 0.000000
# 6 0.000000 0.000000 0.000000 0.000000 0.000000 0.017816
#
#
# Mechanical properties :
#
#
# Convention : Reuss Voigt Hill
#
# Bulk Modulus (GPa) = 25.51238 61.94479 43.72858
# Shear Modulus (GPa) = -154.79966 42.14684 -56.32641
#
# Velocity S-wave (km/s) = -7.65282 3.99318 -4.61628
# Velocity P-wave (km/s) = 8.27257 6.68553 3.44522
#
# Compressibility (1/GPa) = 0.03919666
#
# Stress axis : x y z
#
# Youngs Moduli (GPa) = 228.49033 34.25865 112.39261
#
# Poissons Ratio (x) = 0.10916 0.21825
# Poissons Ratio (y) = 0.72805 -0.39277
# Poissons Ratio (z) = 0.44368 -0.11972
#
# Static dielectric constant tensor:
#      x y z
#    x 2.204160 0.000000 0.000000 
#    y 0.000000 2.286000 0.000000 
#    z 0.000000 0.000000 1.976710 
# 
# From -- ./inp_files/2018.got.cif
#   From: 2010.05.17/outbox.cif.g08.bks.cpg/sg56_2_cif.got.tgz:2018.got - 2010.06.03 13:42:01.
