data_PCOD9429543
_publ_section_title
;
Structure prediction by ZEFSAII (Michael W. Deem and Ramdas Pophale) SiO2 
 PCOD9429543
Probable space group: P C C N
;
_chemical_formula_sum "Si O2"
_cell_formula_units_Z 48
_cell_length_a 25.706320
_cell_length_b 17.304541
_cell_length_c 5.191131
_cell_angle_alpha 90.000000
_cell_angle_beta 90.000000
_cell_angle_gamma 90.000000
_cell_volume 2309.202305
_symmetry_space_group_name_H-M "P C C N"
_symmetry_group_IT_number 56
_symmetry_cell_setting 'orthorhombic'
loop_
_space_group_symop_operation_xyz
x,y,z
1/2-x,1/2-y,z
1/2+x,-y,1/2-z
-x,1/2+y,1/2-z
-x,-y,-z
1/2+x,1/2+y,-z
1/2-x,y,1/2+z
x,1/2-y,1/2+z
loop_
_atom_site_type_symbol
_atom_site_label
_atom_site_fract_x
_atom_site_fract_y
_atom_site_fract_z
Si Si1 0.582258 0.794215 0.225666
Si Si2 0.941579 0.472333 0.931491
Si Si3 0.783780 0.043380 0.914000
Si Si4 0.611333 0.961432 0.427558
Si Si5 0.543725 0.296642 0.279054
Si Si6 0.690695 0.217887 0.532338
O O1 0.597591 0.729945 0.437555
O O2 0.603762 0.875000 0.326428
O O3 0.519563 0.800409 0.223708
O O4 0.920259 0.521743 0.689642
O O5 0.939135 0.383152 0.846242
O O6 0.909196 0.485623 0.191991
O O7 0.000000 0.500000 0.000000
O O8 0.761144 0.036193 0.627875
O O9 0.806480 0.129805 0.948989
O O10 0.828998 0.983222 0.970786
O O11 0.558580 0.235416 0.499884
O O12 0.750000 0.250000 0.571035
O O13 0.666291 0.229955 0.810412
#
# Coordination Sequence:
#
# PCOD9429543 Si02
#       6
#     8   8   8   8   8   8
#     4  10  21  38  64  93 120 162 214 262 297 397
#     4  12  24  42  65  93 138 169 204 274 320 375
#     4  12  23  41  64  89 125 164 208 271 309 370
#     4  12  26  41  65 102 123 167 222 256 334 388
#     4  10  21  37  62  87 127 176 212 244 317 379
#     4  10  16  32  59  84 108 155 217 241 296 361
#
# _framework density 20.786397999999998
#
# number of rings (size 3 to 8) (size 9 to 14) (size 15 to 20)
#    0.000    1.000    5.000    3.500    4.667    0.000 
#    0.000    5.000    0.000    3.000    0.000    0.000 
#    0.000    0.000    0.000    0.000    0.000    0.000 
#
# Total GULP energy -268569.659529 kJ/mol
# GULP energy per Si atom -5595.201240 kJ/mol
# Density = 2.073909 g / cm^3
# Si number density = 20.786398 Si / 1000 Ang^3
#
#
#
# Elastic Constant Matrix: (Units=GPa)
#
#
# Indices 1 2 3 4 5 6 
#
# 1 45.0914 19.3947 3.9881 0.0000 0.0000 0.0000
# 2 19.3947 70.8743 -0.9002 0.0000 0.0000 0.0000
# 3 3.9881 -0.9002 89.0750 0.0000 0.0000 0.0000
# 4 0.0000 0.0000 0.0000 32.6558 0.0000 0.0000
# 5 0.0000 0.0000 0.0000 0.0000 19.7507 0.0000
# 6 0.0000 0.0000 0.0000 0.0000 0.0000 22.5654
#
#
#
# Elastic Compliance Matrix: (Units=1/GPa)
#
#
# Indices 1 2 3 4 5 6 
#
# 1 0.025264 -0.006929 -0.001201 0.000000 0.000000 0.000000
# 2 -0.006929 0.016012 0.000472 0.000000 0.000000 0.000000
# 3 -0.001201 0.000472 0.011285 0.000000 0.000000 0.000000
# 4 0.000000 0.000000 0.000000 0.030622 0.000000 0.000000
# 5 0.000000 0.000000 0.000000 0.000000 0.050631 0.000000
# 6 0.000000 0.000000 0.000000 0.000000 0.000000 0.044316
#
#
# Mechanical properties :
#
#
# Convention : Reuss Voigt Hill
#
# Bulk Modulus (GPa) = 26.84949 27.77842 27.31395
# Shear Modulus (GPa) = 24.28839 27.16492 25.72666
#
# Velocity S-wave (km/s) = 3.42201 3.61897 3.52187
# Velocity P-wave (km/s) = 5.34400 5.55476 5.45040
#
# Compressibility (1/GPa) = 0.03724466
#
# Stress axis : x y z
#
# Youngs Moduli (GPa) = 39.58273 62.45509 88.61289
#
# Poissons Ratio (x) = 0.43273 0.10643
# Poissons Ratio (y) = 0.27425 -0.04183
# Poissons Ratio (z) = 0.04754 -0.02948
#
# Static dielectric constant tensor:
#      x y z
#    x 1.859950 0.000000 0.000000 
#    y 0.000000 1.713180 0.000000 
#    z 0.000000 0.000000 1.765900 
# 
# From -- ./inp_files/1204.got.cif
#   From: 2010.05.17/outbox.cif.g08.bks.cpg/sg56_1_cif.got.tgz:1204.got - 2010.06.03 13:42:01.
