data_PCOD9429170
_publ_section_title
;
Structure prediction by ZEFSAII (Michael W. Deem and Ramdas Pophale) SiO2 
 PCOD9429170
Probable space group: P B A M
;
_chemical_formula_sum "Si O2"
_cell_formula_units_Z 48
_cell_length_a 16.061738
_cell_length_b 13.875559
_cell_length_c 10.798861
_cell_angle_alpha 90.000000
_cell_angle_beta 90.000000
_cell_angle_gamma 90.000000
_cell_volume 2406.694563
_symmetry_space_group_name_H-M "P B A M"
_symmetry_group_IT_number 55
_symmetry_cell_setting 'orthorhombic'
loop_
_space_group_symop_operation_xyz
x,y,z
-x,-y,z
1/2+x,1/2-y,-z
1/2-x,1/2+y,-z
-x,-y,-z
x,y,-z
1/2-x,1/2+y,z
1/2+x,1/2-y,z
loop_
_atom_site_type_symbol
_atom_site_label
_atom_site_fract_x
_atom_site_fract_y
_atom_site_fract_z
Si Si1 0.882144 0.932598 0.352591
Si Si2 0.868662 0.154606 0.645185
Si Si3 0.809819 0.664033 0.360219
Si Si4 0.687747 0.931693 0.638194
Si Si5 0.528165 0.259441 0.749807
Si Si6 0.561178 0.908041 0.862117
O O1 0.908397 0.921762 0.500000
O O2 0.784676 0.904179 0.347224
O O3 0.932385 0.866390 0.256741
O O4 0.888838 0.044852 0.316807
O O5 0.852071 0.145647 0.500000
O O6 0.779960 0.189135 0.699304
O O7 0.946422 0.222813 0.666410
O O8 0.813277 0.702816 0.500000
O O9 0.810988 0.548241 0.364914
O O10 0.894043 0.698530 0.298827
O O11 0.659773 0.898501 0.500000
O O12 0.628992 0.905800 0.752700
O O13 0.490766 0.192007 0.856791
O O14 0.500000 0.000000 0.840765
O O15 0.597500 0.919620 0.000000
#
# Coordination Sequence:
#
# PCOD9429170 Si02
#       6
#     8   8   8   8   8   8
#     4   9  19  35  58  90 129 164 199 245 307 371
#     4   9  19  34  54  86 131 166 193 244 309 366
#     4   9  18  32  51  86 124 155 198 249 299 356
#     4   9  19  38  61  87 120 156 200 256 307 360
#     4  12  21  33  59  85 117 164 209 242 294 365
#     4  11  25  44  60  83 123 164 204 253 313 373
#
# _framework density 19.944368000000001
#
# number of rings (size 3 to 8) (size 9 to 14) (size 15 to 20)
#    0.000    2.167    1.667    4.000    2.333    3.667 
#    0.000    0.833    0.000    6.000    0.000    0.000 
#    0.000    0.000    0.000    0.000    0.000    0.000 
#
# Total GULP energy -267297.639867 kJ/mol
# GULP energy per Si atom -5568.700831 kJ/mol
# Density = 1.989897 g / cm^3
# Si number density = 19.944368 Si / 1000 Ang^3
#
#
#
# Elastic Constant Matrix: (Units=GPa)
#
#
# Indices 1 2 3 4 5 6 
#
# 1 120.3587 31.3533 50.1385 0.0000 0.0000 0.0000
# 2 31.3533 71.9857 6.5096 0.0000 0.0000 0.0000
# 3 50.1385 6.5096 69.1171 0.0000 0.0000 0.0000
# 4 0.0000 0.0000 0.0000 6.6084 0.0000 0.0000
# 5 0.0000 0.0000 0.0000 0.0000 2.2094 0.0000
# 6 0.0000 0.0000 0.0000 0.0000 0.0000 42.0227
#
#
#
# Elastic Compliance Matrix: (Units=1/GPa)
#
#
# Indices 1 2 3 4 5 6 
#
# 1 0.013504 -0.005039 -0.009322 0.000000 0.000000 0.000000
# 2 -0.005039 0.015891 0.002159 0.000000 0.000000 0.000000
# 3 -0.009322 0.002159 0.021027 0.000000 0.000000 0.000000
# 4 0.000000 0.000000 0.000000 0.151323 0.000000 0.000000
# 5 0.000000 0.000000 0.000000 0.000000 0.452615 0.000000
# 6 0.000000 0.000000 0.000000 0.000000 0.000000 0.023797
#
#
# Mechanical properties :
#
#
# Convention : Reuss Voigt Hill
#
# Bulk Modulus (GPa) = 38.43407 48.60713 43.52060
# Shear Modulus (GPa) = 7.03003 21.73209 14.38106
#
# Velocity S-wave (km/s) = 1.87949 3.30454 2.68817
# Velocity P-wave (km/s) = 4.90127 6.24374 5.61279
#
# Compressibility (1/GPa) = 0.02601858
#
# Stress axis : x y z
#
# Youngs Moduli (GPa) = 74.05067 62.92829 47.55808
#
# Poissons Ratio (x) = 0.31708 0.44332
# Poissons Ratio (y) = 0.37313 -0.10266
# Poissons Ratio (z) = 0.69027 -0.13584
#
# Static dielectric constant tensor:
#      x y z
#    x 1.749700 0.000000 0.000000 
#    y 0.000000 1.796620 0.000000 
#    z 0.000000 0.000000 1.652050 
# 
# From -- ./inp_files/14129.got.cif
#   From: 2010.05.17/outbox.cif.g08.bks.cpg/sg55_8_cif.got.tgz:14129.got - 2010.06.03 13:27:54.
