data_PCOD9429133
_publ_section_title
;
Structure prediction by ZEFSAII (Michael W. Deem and Ramdas Pophale) SiO2 
 PCOD9429133
Probable space group: P B A M
;
_chemical_formula_sum "Si O2"
_cell_formula_units_Z 48
_cell_length_a 16.878162
_cell_length_b 9.582513
_cell_length_c 15.589160
_cell_angle_alpha 90.000000
_cell_angle_beta 90.000000
_cell_angle_gamma 90.000000
_cell_volume 2521.316016
_symmetry_space_group_name_H-M "P B A M"
_symmetry_group_IT_number 55
_symmetry_cell_setting 'orthorhombic'
loop_
_space_group_symop_operation_xyz
x,y,z
-x,-y,z
1/2+x,1/2-y,-z
1/2-x,1/2+y,-z
-x,-y,-z
x,y,-z
1/2-x,1/2+y,z
1/2+x,1/2-y,z
loop_
_atom_site_type_symbol
_atom_site_label
_atom_site_fract_x
_atom_site_fract_y
_atom_site_fract_z
Si Si1 0.154813 0.734139 0.343286
Si Si2 0.394435 0.819199 0.000000
Si Si3 0.393810 0.632205 0.163447
Si Si4 0.188994 0.059177 0.339956
Si Si5 0.460686 0.152094 0.500000
Si Si6 0.924843 0.895370 0.500000
Si Si7 0.420220 0.307810 0.835153
Si Si8 0.588154 0.863260 0.000000
O O1 0.225231 0.624397 0.352423
O O2 0.092186 0.696741 0.417651
O O3 0.112641 0.739311 0.251185
O O4 0.190936 0.890846 0.343950
O O5 0.368305 0.731205 0.915877
O O6 0.491156 0.840636 0.000000
O O7 0.373904 0.982767 0.000000
O O8 0.345222 0.628120 0.252220
O O9 0.484867 0.679921 0.177190
O O10 0.395238 0.466781 0.142742
O O11 0.128390 0.089846 0.416329
O O12 0.537532 0.246054 0.500000
O O13 0.500000 0.000000 0.500000
O O14 0.000000 0.000000 0.500000
O O15 0.390621 0.214314 0.913105
#
# Coordination Sequence:
#
# PCOD9429133 Si02
#       8
#     8   4   8   8   4   4   8   4
#     4  11  24  43  61  93 127 162 203 251 312 369
#     4   9  17  31  52  89 122 153 200 253 307 352
#     4   9  18  34  60  86 116 162 208 247 297 360
#     4  11  24  40  65  90 127 164 201 252 313 370
#     4  12  27  44  66  96 121 154 210 256 301 365
#     4  12  23  44  70  90 119 160 204 253 301 365
#     4   9  18  35  60  85 119 159 209 250 293 359
#     4   9  17  31  52  87 122 155 194 261 307 342
#
# _framework density 19.037676000000001
#
# number of rings (size 3 to 8) (size 9 to 14) (size 15 to 20)
#    0.000    1.833    1.667    2.000    4.667    3.333 
#    6.000    0.833    0.000    0.000    0.000    0.000 
#    0.000    0.000    0.000    0.000    0.000    0.000 
#
# Total GULP energy -267402.947095 kJ/mol
# GULP energy per Si atom -5570.894731 kJ/mol
# Density = 1.899435 g / cm^3
# Si number density = 19.037676 Si / 1000 Ang^3
#
#
#
# Elastic Constant Matrix: (Units=GPa)
#
#
# Indices 1 2 3 4 5 6 
#
# 1 32.7324 25.4903 36.3969 0.0000 0.0000 0.0000
# 2 25.4903 79.9834 65.9011 0.0000 0.0000 0.0000
# 3 36.3969 65.9011 144.0324 0.0000 0.0000 0.0000
# 4 0.0000 0.0000 0.0000 20.8305 0.0000 0.0000
# 5 0.0000 0.0000 0.0000 0.0000 -57.6608 0.0000
# 6 0.0000 0.0000 0.0000 0.0000 0.0000 35.4699
#
#
#
# Elastic Compliance Matrix: (Units=1/GPa)
#
#
# Indices 1 2 3 4 5 6 
#
# 1 0.045521 -0.008073 -0.007809 0.000000 0.000000 0.000000
# 2 -0.008073 0.021500 -0.007797 0.000000 0.000000 0.000000
# 3 -0.007809 -0.007797 0.012484 0.000000 0.000000 0.000000
# 4 0.000000 0.000000 0.000000 0.048007 0.000000 0.000000
# 5 0.000000 0.000000 0.000000 0.000000 -0.017343 0.000000
# 6 0.000000 0.000000 0.000000 0.000000 0.000000 0.028193
#
#
# Mechanical properties :
#
#
# Convention : Reuss Voigt Hill
#
# Bulk Modulus (GPa) = 31.10813 56.92498 44.01656
# Shear Modulus (GPa) = 25.45366 8.32524 16.88945
#
# Velocity S-wave (km/s) = 3.66049 2.09345 2.98175
# Velocity P-wave (km/s) = 5.85161 5.98410 5.91823
#
# Compressibility (1/GPa) = 0.03214593
#
# Stress axis : x y z
#
# Youngs Moduli (GPa) = 21.96776 46.51246 80.10379
#
# Poissons Ratio (x) = 0.37549 0.62557
# Poissons Ratio (y) = 0.17734 0.62457
# Poissons Ratio (z) = 0.17156 0.36266
#
# Static dielectric constant tensor:
#      x y z
#    x 1.637090 0.000000 0.000000 
#    y 0.000000 1.553320 0.000000 
#    z 0.000000 0.000000 1.648580 
# 
# From -- ./inp_files/19421.got.cif
#   From: 2010.05.17/outbox.cif.g08.bks.cpg/sg55_10_cif.got.tgz:19421.got - 2010.06.03 13:27:54.
