data_PCOD9429745
_publ_section_title
;
Structure prediction by ZEFSAII (Michael W. Deem and Ramdas Pophale) SiO2 
 PCOD9429745
Probable space group: P C C N
;
_chemical_formula_sum "Si O2"
_cell_formula_units_Z 32
_cell_length_a 5.400578
_cell_length_b 7.586332
_cell_length_c 36.230450
_cell_angle_alpha 90.000000
_cell_angle_beta 90.000000
_cell_angle_gamma 90.000000
_cell_volume 1484.382467
_symmetry_space_group_name_H-M "P C C N"
_symmetry_group_IT_number 56
_symmetry_cell_setting 'orthorhombic'
loop_
_space_group_symop_operation_xyz
x,y,z
1/2-x,1/2-y,z
1/2+x,-y,1/2-z
-x,1/2+y,1/2-z
-x,-y,-z
1/2+x,1/2+y,-z
1/2-x,y,1/2+z
x,1/2-y,1/2+z
loop_
_atom_site_type_symbol
_atom_site_label
_atom_site_fract_x
_atom_site_fract_y
_atom_site_fract_z
Si Si1 0.498095 0.638186 0.839783
Si Si2 0.125419 0.939598 0.232147
Si Si3 0.494958 0.556147 0.925714
Si Si4 0.497883 0.038745 0.043223
O O1 0.250000 0.750000 0.831246
O O2 0.536176 0.491867 0.808674
O O3 0.476601 0.574438 0.881888
O O4 0.750000 0.750000 0.838790
O O5 0.250000 0.750000 0.233857
O O6 0.368214 0.054497 0.244456
O O7 0.499003 0.752736 0.944771
O O8 0.748346 0.468486 0.938457
O O9 0.250278 0.464532 0.940381
O O10 0.500000 0.000000 0.000000
#
# Coordination Sequence:
#
# PCOD9429745 Si02
#       4
#     8   8   8   8
#     4  12  21  40  70  95 132 177 221 278 333 408
#     4  12  26  45  69 104 138 176 227 279 344 412
#     4  10  19  35  55  88 116 164 217 256 329 388
#     4  10  18  32  56  82 119 153 206 265 313 382
#
# _framework density 21.557784999999999
#
# number of rings (size 3 to 8) (size 9 to 14) (size 15 to 20)
#    0.000    1.000    5.000    5.250    0.000    0.000 
#    0.000    0.000   16.500    0.000    0.000    0.000 
#    0.000    0.000    0.000    0.000    0.000    0.000 
#
# Total GULP energy -178660.810690 kJ/mol
# GULP energy per Si atom -5583.150334 kJ/mol
# Density = 2.150872 g / cm^3
# Si number density = 21.557785 Si / 1000 Ang^3
#
#
#
# Elastic Constant Matrix: (Units=GPa)
#
#
# Indices 1 2 3 4 5 6 
#
# 1 232.8220 35.7607 55.3408 0.0000 0.0000 0.0000
# 2 35.7607 67.9391 46.9684 0.0000 0.0000 0.0000
# 3 55.3408 46.9684 178.4807 0.0000 0.0000 0.0000
# 4 0.0000 0.0000 0.0000 46.5856 0.0000 0.0000
# 5 0.0000 0.0000 0.0000 0.0000 23.0928 0.0000
# 6 0.0000 0.0000 0.0000 0.0000 0.0000 15.6503
#
#
#
# Elastic Compliance Matrix: (Units=1/GPa)
#
#
# Indices 1 2 3 4 5 6 
#
# 1 0.004817 -0.001837 -0.001010 0.000000 0.000000 0.000000
# 2 -0.001837 0.018693 -0.004350 0.000000 0.000000 0.000000
# 3 -0.001010 -0.004350 0.007061 0.000000 0.000000 0.000000
# 4 0.000000 0.000000 0.000000 0.021466 0.000000 0.000000
# 5 0.000000 0.000000 0.000000 0.000000 0.043303 0.000000
# 6 0.000000 0.000000 0.000000 0.000000 0.000000 0.063897
#
#
# Mechanical properties :
#
#
# Convention : Reuss Voigt Hill
#
# Bulk Modulus (GPa) = 61.81575 83.93128 72.87351
# Shear Modulus (GPa) = 27.92924 39.81054 33.86989
#
# Velocity S-wave (km/s) = 3.60328 4.30197 3.96804
# Velocity P-wave (km/s) = 6.78588 7.98083 7.40749
#
# Compressibility (1/GPa) = 0.01617711
#
# Stress axis : x y z
#
# Youngs Moduli (GPa) = 207.57815 53.49558 141.62923
#
# Poissons Ratio (x) = 0.09829 0.14308
# Poissons Ratio (y) = 0.38139 0.61602
# Poissons Ratio (z) = 0.20970 0.23268
#
# Static dielectric constant tensor:
#      x y z
#    x 1.859050 0.000000 0.000000 
#    y 0.000000 1.795540 0.000000 
#    z 0.000000 0.000000 1.798000 
# 
# From -- ./inp_files/22714.got.cif
#   From: 2010.05.17/outbox.cif.g08.bks.cpg/sg56_12_cif.got.tgz:22714.got - 2010.06.03 13:42:01.
