data_PCOD9429635
_publ_section_title
;
Structure prediction by ZEFSAII (Michael W. Deem and Ramdas Pophale) SiO2 
 PCOD9429635
Probable space group: P C C N
;
_chemical_formula_sum "Si O2"
_cell_formula_units_Z 60
_cell_length_a 18.369207
_cell_length_b 14.639389
_cell_length_c 12.069963
_cell_angle_alpha 90.000000
_cell_angle_beta 90.000000
_cell_angle_gamma 90.000000
_cell_volume 3245.781631
_symmetry_space_group_name_H-M "P C C N"
_symmetry_group_IT_number 56
_symmetry_cell_setting 'orthorhombic'
loop_
_space_group_symop_operation_xyz
x,y,z
1/2-x,1/2-y,z
1/2+x,-y,1/2-z
-x,1/2+y,1/2-z
-x,-y,-z
1/2+x,1/2+y,-z
1/2-x,y,1/2+z
x,1/2-y,1/2+z
loop_
_atom_site_type_symbol
_atom_site_label
_atom_site_fract_x
_atom_site_fract_y
_atom_site_fract_z
Si Si1 0.750000 0.750000 0.270499
Si Si2 0.908424 0.487483 0.703104
Si Si3 0.372764 0.171439 0.891725
Si Si4 0.840578 0.995021 0.957187
Si Si5 0.460753 0.884524 0.631013
Si Si6 0.186268 0.075709 0.601442
Si Si7 0.988669 0.195496 0.255969
Si Si8 0.567686 0.675833 0.952338
O O1 0.692076 0.802787 0.192075
O O2 0.788596 0.826841 0.345844
O O3 0.862751 0.498338 0.587796
O O4 0.862746 0.526878 0.806057
O O5 0.931639 0.382700 0.724075
O O6 0.982734 0.547324 0.691773
O O7 0.256414 0.015172 0.569928
O O8 0.448217 0.149815 0.830625
O O9 0.352068 0.098625 0.984903
O O10 0.877814 0.901831 0.913904
O O11 0.882260 0.073611 0.890830
O O12 0.457788 0.784978 0.685352
O O13 0.500183 0.872772 0.512421
O O14 0.108892 0.264109 0.458363
O O15 0.033423 0.230120 0.148626
#
# Coordination Sequence:
#
# PCOD9429635 Si02
#       8
#     4   8   8   8   8   8   8   8
#     4  12  22  38  58  90 132 164 188 242 326 374
#     4  11  22  41  63  91 119 161 205 251 306 367
#     4  11  22  34  56  94 126 156 193 247 313 373
#     4  11  20  38  62  86 120 157 205 246 303 368
#     4  10  20  36  63  90 113 158 211 244 293 367
#     4  12  24  36  59  90 127 159 199 255 306 372
#     4  11  21  36  63  86 123 160 203 254 304 354
#     4  10  17  35  60  88 116 154 195 245 298 368
#
# _framework density 18.485531000000002
#
# number of rings (size 3 to 8) (size 9 to 14) (size 15 to 20)
#    0.000    1.067    2.667    8.400    0.000    0.533 
#    0.000    0.667    0.000    1.600    0.000    0.000 
#    0.000    0.000    0.000    0.000    0.000    0.000 
#
# Total GULP energy -335015.094360 kJ/mol
# GULP energy per Si atom -5583.584906 kJ/mol
# Density = 1.844346 g / cm^3
# Si number density = 18.485531 Si / 1000 Ang^3
#
#
#
# Elastic Constant Matrix: (Units=GPa)
#
#
# Indices 1 2 3 4 5 6 
#
# 1 63.8182 28.5612 34.9255 0.0000 0.0000 0.0000
# 2 28.5612 44.6130 17.0866 0.0000 0.0000 0.0000
# 3 34.9255 17.0866 78.0972 0.0000 0.0000 0.0000
# 4 0.0000 0.0000 0.0000 31.2788 0.0000 0.0000
# 5 0.0000 0.0000 0.0000 0.0000 27.8637 0.0000
# 6 0.0000 0.0000 0.0000 0.0000 0.0000 21.3504
#
#
#
# Elastic Compliance Matrix: (Units=1/GPa)
#
#
# Indices 1 2 3 4 5 6 
#
# 1 0.026672 -0.013651 -0.008941 0.000000 0.000000 0.000000
# 2 -0.013651 0.031452 -0.000776 0.000000 0.000000 0.000000
# 3 -0.008941 -0.000776 0.016973 0.000000 0.000000 0.000000
# 4 0.000000 0.000000 0.000000 0.031971 0.000000 0.000000
# 5 0.000000 0.000000 0.000000 0.000000 0.035889 0.000000
# 6 0.000000 0.000000 0.000000 0.000000 0.000000 0.046838
#
#
# Mechanical properties :
#
#
# Convention : Reuss Voigt Hill
#
# Bulk Modulus (GPa) = 35.26155 38.63055 36.94605
# Shear Modulus (GPa) = 20.32649 23.16226 21.74438
#
# Velocity S-wave (km/s) = 3.31960 3.54361 3.43343
# Velocity P-wave (km/s) = 5.81461 6.13889 5.97895
#
# Compressibility (1/GPa) = 0.02835950
#
# Stress axis : x y z
#
# Youngs Moduli (GPa) = 37.49229 31.79473 58.91713
#
# Poissons Ratio (x) = 0.43403 0.52679
# Poissons Ratio (y) = 0.51181 0.04574
# Poissons Ratio (z) = 0.33523 0.02469
#
# Static dielectric constant tensor:
#      x y z
#    x 1.644150 0.000000 0.000000 
#    y 0.000000 1.624230 0.000000 
#    z 0.000000 0.000000 1.663730 
# 
# From -- ./inp_files/8730.got.cif
#   From: 2010.05.17/outbox.cif.g08.bks.cpg/sg56_5_cif.got.tgz:8730.got - 2010.06.03 13:42:01.
