data_PCOD9429719
_publ_section_title
;
Structure prediction by ZEFSAII (Michael W. Deem and Ramdas Pophale) SiO2 
 PCOD9429719
Probable space group: P C C N
;
_chemical_formula_sum "Si O2"
_cell_formula_units_Z 64
_cell_length_a 12.610529
_cell_length_b 15.216394
_cell_length_c 14.746191
_cell_angle_alpha 90.000000
_cell_angle_beta 90.000000
_cell_angle_gamma 90.000000
_cell_volume 2829.599076
_symmetry_space_group_name_H-M "P C C N"
_symmetry_group_IT_number 56
_symmetry_cell_setting 'orthorhombic'
loop_
_space_group_symop_operation_xyz
x,y,z
1/2-x,1/2-y,z
1/2+x,-y,1/2-z
-x,1/2+y,1/2-z
-x,-y,-z
1/2+x,1/2+y,-z
1/2-x,y,1/2+z
x,1/2-y,1/2+z
loop_
_atom_site_type_symbol
_atom_site_label
_atom_site_fract_x
_atom_site_fract_y
_atom_site_fract_z
Si Si1 0.047269 0.878269 0.075132
Si Si2 0.204802 0.016375 0.086479
Si Si3 0.632001 0.248970 0.277431
Si Si4 0.908063 0.435647 0.842939
Si Si5 0.088985 0.232100 0.705968
Si Si6 0.851492 0.792494 0.986242
Si Si7 0.635789 0.946882 0.682189
Si Si8 0.640240 0.920578 0.211376
O O1 0.138594 0.940146 0.034976
O O2 0.108872 0.832829 0.157799
O O3 0.958451 0.944674 0.112076
O O4 0.968362 0.806081 0.030086
O O5 0.328076 0.988892 0.093295
O O6 0.182941 0.110207 0.043326
O O7 0.161390 0.029918 0.191647
O O8 0.750000 0.250000 0.239906
O O9 0.617080 0.333081 0.342531
O O10 0.537685 0.246288 0.205173
O O11 0.876329 0.467666 0.742450
O O12 0.034420 0.448835 0.841660
O O13 0.133115 0.236018 0.605073
O O14 0.116773 0.140841 0.755265
O O15 0.130262 0.317427 0.761406
O O16 0.750000 0.750000 0.037545
O O17 0.756155 0.938209 0.651838
#
# Coordination Sequence:
#
# PCOD9429719 Si02
#       8
#     8   8   8   8   8   8   8   8
#     4  11  22  37  60  86 122 160 205 245 301 370
#     4  10  19  36  57  84 117 155 198 248 300 367
#     4  10  20  36  59  87 116 148 196 250 301 358
#     4  10  18  31  57  84 113 145 188 245 305 349
#     4   9  19  34  56  82 112 151 197 248 301 348
#     4  11  23  39  58  85 121 166 205 247 303 365
#     4  10  19  32  57  87 115 145 200 255 299 353
#     4   9  17  30  53  83 112 140 188 252 307 344
#
# _framework density 22.618046
#
# number of rings (size 3 to 8) (size 9 to 14) (size 15 to 20)
#    0.000    2.000    2.500    3.000    0.000    3.000 
#    0.000    0.625    0.000    6.750    0.000    0.000 
#    0.000    0.000    0.000    0.000    0.000    0.000 
#
# Total GULP energy -357019.176924 kJ/mol
# GULP energy per Si atom -5578.424639 kJ/mol
# Density = 2.256657 g / cm^3
# Si number density = 22.618046 Si / 1000 Ang^3
#
#
#
# Elastic Constant Matrix: (Units=GPa)
#
#
# Indices 1 2 3 4 5 6 
#
# 1 181.9644 8.5723 4.7127 0.0000 0.0000 0.0000
# 2 8.5723 63.4224 -7.2596 0.0000 0.0000 0.0000
# 3 4.7127 -7.2596 23.2939 0.0000 0.0000 0.0000
# 4 0.0000 0.0000 0.0000 13.5806 0.0000 0.0000
# 5 0.0000 0.0000 0.0000 0.0000 22.9747 0.0000
# 6 0.0000 0.0000 0.0000 0.0000 0.0000 37.4296
#
#
#
# Elastic Compliance Matrix: (Units=1/GPa)
#
#
# Indices 1 2 3 4 5 6 
#
# 1 0.005575 -0.000915 -0.001413 0.000000 0.000000 0.000000
# 2 -0.000915 0.016501 0.005328 0.000000 0.000000 0.000000
# 3 -0.001413 0.005328 0.044876 0.000000 0.000000 0.000000
# 4 0.000000 0.000000 0.000000 0.073634 0.000000 0.000000
# 5 0.000000 0.000000 0.000000 0.000000 0.043526 0.000000
# 6 0.000000 0.000000 0.000000 0.000000 0.000000 0.026717
#
#
# Mechanical properties :
#
#
# Convention : Reuss Voigt Hill
#
# Bulk Modulus (GPa) = 13.70795 31.19240 22.45017
# Shear Modulus (GPa) = 21.81996 32.30732 27.06364
#
# Velocity S-wave (km/s) = 3.10935 3.78350 3.46287
# Velocity P-wave (km/s) = 4.35483 5.73650 5.09274
#
# Compressibility (1/GPa) = 0.07295037
#
# Stress axis : x y z
#
# Youngs Moduli (GPa) = 179.36241 60.60298 22.28364
#
# Poissons Ratio (x) = 0.05547 0.03149
# Poissons Ratio (y) = 0.16418 -0.11872
# Poissons Ratio (z) = 0.25348 -0.32287
#
# Static dielectric constant tensor:
#      x y z
#    x 1.902960 0.000000 0.000000 
#    y 0.000000 1.833340 0.000000 
#    z 0.000000 0.000000 1.872120 
# 
# From -- ./inp_files/15893.got.cif
#   From: 2010.05.17/outbox.cif.g08.bks.cpg/sg56_8_cif.got.tgz:15893.got - 2010.06.03 13:42:01.
