data_PCOD9429437
_publ_section_title
;
Structure prediction by ZEFSAII (Michael W. Deem and Ramdas Pophale) SiO2 
 PCOD9429437
Probable space group: P B A M
;
_chemical_formula_sum "Si O2"
_cell_formula_units_Z 64
_cell_length_a 24.000000
_cell_length_b 15.000000
_cell_length_c 9.000000
_cell_angle_alpha 90.000000
_cell_angle_beta 90.000000
_cell_angle_gamma 90.000000
_cell_volume 3240.000000
_symmetry_space_group_name_H-M "P B A M"
_symmetry_group_IT_number 55
_symmetry_cell_setting 'orthorhombic'
loop_
_space_group_symop_operation_xyz
x,y,z
-x,-y,z
1/2+x,1/2-y,-z
1/2-x,1/2+y,-z
-x,-y,-z
x,y,-z
1/2-x,1/2+y,z
1/2+x,1/2-y,z
loop_
_atom_site_type_symbol
_atom_site_label
_atom_site_fract_x
_atom_site_fract_y
_atom_site_fract_z
Si Si1 0.597315 0.528429 0.322721
Si Si2 0.278656 0.445825 0.673189
Si Si3 0.782633 0.267718 0.668398
Si Si4 0.558625 0.356563 0.174928
Si Si5 0.846581 0.749148 0.326215
Si Si6 0.163931 0.442567 0.177021
Si Si7 0.378463 0.131895 0.175463
Si Si8 0.951605 0.220251 0.322948
O O1 0.589151 0.518383 0.500000
O O2 0.662329 0.510726 0.290385
O O3 0.560470 0.456437 0.238937
O O4 0.583265 0.630533 0.284429
O O5 0.264622 0.464819 0.500000
O O6 0.288660 0.339066 0.683440
O O7 0.227024 0.468550 0.776798
O O8 0.800591 0.291207 0.500000
O O9 0.716999 0.282541 0.682977
O O10 0.819946 0.321761 0.781720
O O11 0.615411 0.309760 0.224426
O O12 0.510975 0.298831 0.252217
O O13 0.551154 0.357869 0.000000
O O14 0.863133 0.753410 0.500000
O O15 0.848841 0.647367 0.267597
O O16 0.125728 0.527526 0.215113
O O17 0.160845 0.426151 0.000000
O O18 0.423581 0.191250 0.259925
O O19 0.387779 0.138188 0.000000
O O20 0.954736 0.225154 0.500000
#
# Coordination Sequence:
#
# PCOD9429437 Si02
#       8
#     8   8   8   8   8   8   8   8
#     4  10  21  39  61  88 121 162 206 248 293 353
#     4   9  18  35  57  85 119 159 203 244 289 349
#     4   9  18  35  58  85 116 155 200 244 293 349
#     4  12  26  41  61  90 123 158 199 252 313 365
#     4  10  22  42  64  87 117 160 209 253 298 356
#     4  10  22  38  57  88 127 162 196 248 311 362
#     4  11  23  37  58  90 126 159 197 246 307 363
#     4  11  23  43  66  87 118 160 209 253 295 353
#
# _framework density 19.753086
#
# number of rings (size 3 to 8) (size 9 to 14) (size 15 to 20)
#    0.000    1.750    1.250    3.750    1.750    7.500 
#    0.000    0.625    0.000    3.750    0.000    0.000 
#    0.000    0.000    0.000    0.000    0.000    0.000 
#
# Total GULP energy -357585.864345 kJ/mol
# GULP energy per Si atom -5587.279130 kJ/mol
# Density = 1.970813 g / cm^3
# Si number density = 19.753086 Si / 1000 Ang^3
#
#
#
# Elastic Constant Matrix: (Units=GPa)
#
#
# Indices 1 2 3 4 5 6 
#
# 1 36.0743 0.3647 -1.8885 0.0000 0.0000 0.0000
# 2 0.3647 6.5888 0.8390 0.0000 0.0000 0.0000
# 3 -1.8885 0.8390 17.8714 0.0000 0.0000 0.0000
# 4 0.0000 0.0000 0.0000 30.6117 0.0000 0.0000
# 5 0.0000 0.0000 0.0000 0.0000 28.4986 0.0000
# 6 0.0000 0.0000 0.0000 0.0000 0.0000 23.9977
#
#
#
# Elastic Compliance Matrix: (Units=1/GPa)
#
#
# Indices 1 2 3 4 5 6 
#
# 1 0.027899 -0.001931 0.003039 0.000000 0.000000 0.000000
# 2 -0.001931 0.152820 -0.007379 0.000000 0.000000 0.000000
# 3 0.003039 -0.007379 0.056623 0.000000 0.000000 0.000000
# 4 0.000000 0.000000 0.000000 0.032667 0.000000 0.000000
# 5 0.000000 0.000000 0.000000 0.000000 0.035089 0.000000
# 6 0.000000 0.000000 0.000000 0.000000 0.000000 0.041671
#
#
# Mechanical properties :
#
#
# Convention : Reuss Voigt Hill
#
# Bulk Modulus (GPa) = 4.44841 6.57390 5.51116
# Shear Modulus (GPa) = 11.51425 20.70288 16.10857
#
# Velocity S-wave (km/s) = 2.41697 3.24092 2.85879
# Velocity P-wave (km/s) = 3.16953 4.16414 3.70040
#
# Compressibility (1/GPa) = 0.22479935
#
# Stress axis : x y z
#
# Youngs Moduli (GPa) = 35.84339 6.54365 17.66075
#
# Poissons Ratio (x) = 0.01264 -0.05367
# Poissons Ratio (y) = 0.06922 0.13031
# Poissons Ratio (z) = -0.10892 0.04828
#
# Static dielectric constant tensor:
#      x y z
#    x 1.787770 0.000000 0.000000 
#    y 0.000000 1.700520 0.000000 
#    z 0.000000 0.000000 1.652380 
# 
# From -- ./inp_files/9825.got.cif
#   From: 2010.05.17/outbox.ucp.g08.bks.cvg/sg55_5_cif.got.tgz:9825.got - 2010.06.11 16:36:00.
