data_PCOD9429097
_publ_section_title
;
Structure prediction by ZEFSAII (Michael W. Deem and Ramdas Pophale) SiO2 
 PCOD9429097
Probable space group: P B A M
;
_chemical_formula_sum "Si O2"
_cell_formula_units_Z 58
_cell_length_a 12.093701
_cell_length_b 29.758733
_cell_length_c 8.044573
_cell_angle_alpha 90.000000
_cell_angle_beta 90.000000
_cell_angle_gamma 90.000000
_cell_volume 2895.187273
_symmetry_space_group_name_H-M "P B A M"
_symmetry_group_IT_number 55
_symmetry_cell_setting 'orthorhombic'
loop_
_space_group_symop_operation_xyz
x,y,z
-x,-y,z
1/2+x,1/2-y,-z
1/2-x,1/2+y,-z
-x,-y,-z
x,y,-z
1/2-x,1/2+y,z
1/2+x,1/2-y,z
loop_
_atom_site_type_symbol
_atom_site_label
_atom_site_fract_x
_atom_site_fract_y
_atom_site_fract_z
Si Si1 0.701505 0.413286 0.195421
Si Si2 0.749605 0.102941 0.310434
Si Si3 0.633179 0.277892 0.798936
Si Si4 0.516305 0.639845 0.201007
Si Si5 0.086764 0.321746 0.192007
Si Si6 0.654992 0.834026 0.690629
Si Si7 0.000000 0.000000 0.500000
Si Si8 0.839417 0.016455 0.190685
O O1 0.579280 0.396189 0.248082
O O2 0.791549 0.383331 0.287326
O O3 0.709624 0.466497 0.214065
O O4 0.710891 0.401965 0.000000
O O5 0.741232 0.089307 0.500000
O O6 0.651995 0.137495 0.273275
O O7 0.754465 0.057575 0.203257
O O8 0.866188 0.128114 0.276882
O O9 0.534874 0.312032 0.748899
O O10 0.616949 0.227378 0.737186
O O11 0.748061 0.299923 0.743352
O O12 0.631853 0.277498 0.000000
O O13 0.527693 0.638625 0.000000
O O14 0.955653 0.328129 0.205252
O O15 0.121218 0.321520 0.000000
O O16 0.625663 0.826385 0.500000
O O17 0.921437 0.021248 0.348145
O O18 0.885933 0.018216 0.000000
#
# Coordination Sequence:
#
# PCOD9429097 Si02
#       8
#     8   8   8   8   8   8   2   8
#     4   9  20  39  65  91 123 166 213 258 306 382
#     4  12  25  40  58  92 134 172 211 265 325 387
#     4   9  21  41  65  89 117 162 214 261 312 384
#     4   9  18  36  60  90 123 160 208 256 314 379
#     4  11  24  43  66  87 120 169 220 264 316 384
#     4  11  23  39  64  94 127 159 205 266 324 382
#     4  12  22  36  64  98 130 172 218 264 324 380
#     4  11  23  40  63  94 133 175 219 266 327 389
#
# _framework density 20.033245000000001
#
# number of rings (size 3 to 8) (size 9 to 14) (size 15 to 20)
#    0.000    1.655    0.690    4.759    2.897    4.414 
#    0.000    0.690    0.000    4.138    0.000    0.000 
#    0.000    0.000    0.000    0.000    0.000    0.000 
#
# Total GULP energy -323388.388803 kJ/mol
# GULP energy per Si atom -5575.661876 kJ/mol
# Density = 1.998765 g / cm^3
# Si number density = 20.033245 Si / 1000 Ang^3
#
#
#
# Elastic Constant Matrix: (Units=GPa)
#
#
# Indices 1 2 3 4 5 6 
#
# 1 58.2766 21.7671 4.8910 0.0000 0.0000 0.0000
# 2 21.7671 77.2504 32.9430 0.0000 0.0000 0.0000
# 3 4.8910 32.9430 69.2938 0.0000 0.0000 0.0000
# 4 0.0000 0.0000 0.0000 11.4699 0.0000 0.0000
# 5 0.0000 0.0000 0.0000 0.0000 -6.7042 0.0000
# 6 0.0000 0.0000 0.0000 0.0000 0.0000 19.8465
#
#
#
# Elastic Compliance Matrix: (Units=1/GPa)
#
#
# Indices 1 2 3 4 5 6 
#
# 1 0.019307 -0.006095 0.001535 0.000000 0.000000 0.000000
# 2 -0.006095 0.018161 -0.008204 0.000000 0.000000 0.000000
# 3 0.001535 -0.008204 0.018223 0.000000 0.000000 0.000000
# 4 0.000000 0.000000 0.000000 0.087185 0.000000 0.000000
# 5 0.000000 0.000000 0.000000 0.000000 -0.149160 0.000000
# 6 0.000000 0.000000 0.000000 0.000000 0.000000 0.050387
#
#
# Mechanical properties :
#
#
# Convention : Reuss Voigt Hill
#
# Bulk Modulus (GPa) = 33.15241 36.00256 34.57748
# Shear Modulus (GPa) = 62.74807 14.60375 38.67591
#
# Velocity S-wave (km/s) = 5.60268 2.70288 4.39861
# Velocity P-wave (km/s) = 7.64447 5.26794 6.56464
#
# Compressibility (1/GPa) = 0.03016372
#
# Stress axis : x y z
#
# Youngs Moduli (GPa) = 51.79407 55.06421 54.87568
#
# Poissons Ratio (x) = 0.33560 -0.08422
# Poissons Ratio (y) = 0.31567 0.45017
# Poissons Ratio (z) = -0.07949 0.45172
#
# Static dielectric constant tensor:
#      x y z
#    x 1.674260 0.000000 0.000000 
#    y 0.000000 1.733850 0.000000 
#    z 0.000000 0.000000 1.709380 
# 
# From -- ./inp_files/4446.got.cif
#   From: 2010.05.17/outbox.cif.g08.bks.cpg/sg55_3_cif.got.tgz:4446.got - 2010.06.03 13:27:54.
