data_PCOD9429661
_publ_section_title
;
Structure prediction by ZEFSAII (Michael W. Deem and Ramdas Pophale) SiO2 
 PCOD9429661
Probable space group: P C C N
;
_chemical_formula_sum "Si O2"
_cell_formula_units_Z 56
_cell_length_a 11.446263
_cell_length_b 14.847343
_cell_length_c 12.315767
_cell_angle_alpha 90.000000
_cell_angle_beta 90.000000
_cell_angle_gamma 90.000000
_cell_volume 2093.022640
_symmetry_space_group_name_H-M "P C C N"
_symmetry_group_IT_number 56
_symmetry_cell_setting 'orthorhombic'
loop_
_space_group_symop_operation_xyz
x,y,z
1/2-x,1/2-y,z
1/2+x,-y,1/2-z
-x,1/2+y,1/2-z
-x,-y,-z
1/2+x,1/2+y,-z
1/2-x,y,1/2+z
x,1/2-y,1/2+z
loop_
_atom_site_type_symbol
_atom_site_label
_atom_site_fract_x
_atom_site_fract_y
_atom_site_fract_z
Si Si1 0.068148 0.615362 0.490105
Si Si2 0.628970 0.885424 0.167541
Si Si3 0.372805 0.958806 0.968531
Si Si4 0.539724 0.324357 0.707281
Si Si5 0.020664 0.011382 0.821461
Si Si6 0.097661 0.706426 0.100760
Si Si7 0.647197 0.694363 0.893380
O O1 0.075088 0.550171 0.593124
O O2 0.928150 0.629290 0.469477
O O3 0.103977 0.557817 0.385249
O O4 0.120718 0.712366 0.516177
O O5 0.542693 0.814642 0.108587
O O6 0.689620 0.845864 0.276191
O O7 0.688278 0.950282 0.077901
O O8 0.537276 0.951244 0.229291
O O9 0.384725 0.887622 0.870283
O O10 0.343419 0.888804 0.067216
O O11 0.500000 0.000000 0.000000
O O12 0.450746 0.393291 0.768523
O O13 0.613760 0.258942 0.785538
O O14 0.454782 0.261756 0.640956
O O15 0.750000 0.750000 0.947245
#
# Coordination Sequence:
#
# PCOD9429661 Si02
#       7
#     8   8   8   8   8   8   8
#     4   9  15  26  41  62  89 123 156 186 234 279
#     4   8  16  27  41  62  86 125 154 184 236 273
#     4   9  15  26  44  60  86 125 149 198 236 279
#     4   9  16  27  41  62  90 124 157 186 232 277
#     4   8  15  26  42  58  83 124 149 198 233 272
#     4   9  15  24  42  64  88 114 149 192 235 282
#     4  10  18  28  42  63  98 135 156 178 218 290
#
# _framework density 26.755564
#
# number of rings (size 3 to 8) (size 9 to 14) (size 15 to 20)
#    0.000    3.143    1.429    0.000    0.000    0.000 
#    0.000    6.429    0.000    0.000    0.000    0.000 
#    0.000    1.143   38.286    0.143    0.000    0.000 
#
# Total GULP energy -311812.312572 kJ/mol
# GULP energy per Si atom -5568.077010 kJ/mol
# Density = 2.669467 g / cm^3
# Si number density = 26.755564 Si / 1000 Ang^3
#
#
#
# Elastic Constant Matrix: (Units=GPa)
#
#
# Indices 1 2 3 4 5 6 
#
# 1 85.1122 20.7302 11.1435 0.0000 0.0000 0.0000
# 2 20.7302 151.7185 32.3233 0.0000 0.0000 0.0000
# 3 11.1435 32.3233 83.1430 0.0000 0.0000 0.0000
# 4 0.0000 0.0000 0.0000 92.5674 0.0000 0.0000
# 5 0.0000 0.0000 0.0000 0.0000 -14.7741 0.0000
# 6 0.0000 0.0000 0.0000 0.0000 0.0000 29.4642
#
#
#
# Elastic Compliance Matrix: (Units=1/GPa)
#
#
# Indices 1 2 3 4 5 6 
#
# 1 0.012242 -0.001443 -0.001080 0.000000 0.000000 0.000000
# 2 -0.001443 0.007356 -0.002667 0.000000 0.000000 0.000000
# 3 -0.001080 -0.002667 0.013209 0.000000 0.000000 0.000000
# 4 0.000000 0.000000 0.000000 0.010803 0.000000 0.000000
# 5 0.000000 0.000000 0.000000 0.000000 -0.067686 0.000000
# 6 0.000000 0.000000 0.000000 0.000000 0.000000 0.033940
#
#
# Mechanical properties :
#
#
# Convention : Reuss Voigt Hill
#
# Bulk Modulus (GPa) = 44.58512 49.81862 47.20187
# Shear Modulus (GPa) = 180.38714 38.50327 109.44521
#
# Velocity S-wave (km/s) = 8.21990 3.79763 6.40269
# Velocity P-wave (km/s) = 10.33388 6.15546 8.50526
#
# Compressibility (1/GPa) = 0.02242901
#
# Stress axis : x y z
#
# Youngs Moduli (GPa) = 81.68633 135.93659 75.70665
#
# Poissons Ratio (x) = 0.19610 0.08176
# Poissons Ratio (y) = 0.11784 0.20188
# Poissons Ratio (z) = 0.08821 0.36248
#
# Static dielectric constant tensor:
#      x y z
#    x 2.178080 0.000000 0.000000 
#    y 0.000000 2.139760 0.000000 
#    z 0.000000 0.000000 2.221190 
# 
# From -- ./inp_files/12350.got.cif
#   From: 2010.05.17/outbox.cif.g08.bks.cpg/sg56_7_cif.got.tgz:12350.got - 2010.06.03 13:42:01.
