data_PCOD9429760
_publ_section_title
;
Structure prediction by ZEFSAII (Michael W. Deem and Ramdas Pophale) SiO2 
 PCOD9429760
Probable space group: P C C N
;
_chemical_formula_sum "Si O2"
_cell_formula_units_Z 60
_cell_length_a 5.600930
_cell_length_b 28.808851
_cell_length_c 17.361418
_cell_angle_alpha 90.000000
_cell_angle_beta 90.000000
_cell_angle_gamma 90.000000
_cell_volume 2801.375175
_symmetry_space_group_name_H-M "P C C N"
_symmetry_group_IT_number 56
_symmetry_cell_setting 'orthorhombic'
loop_
_space_group_symop_operation_xyz
x,y,z
1/2-x,1/2-y,z
1/2+x,-y,1/2-z
-x,1/2+y,1/2-z
-x,-y,-z
1/2+x,1/2+y,-z
1/2-x,y,1/2+z
x,1/2-y,1/2+z
loop_
_atom_site_type_symbol
_atom_site_label
_atom_site_fract_x
_atom_site_fract_y
_atom_site_fract_z
Si Si1 0.981765 0.658933 0.903605
Si Si2 0.577562 0.996521 0.910806
Si Si3 0.863689 0.295379 0.479955
Si Si4 0.436094 0.123180 0.378351
Si Si5 0.244606 0.918431 0.342747
Si Si6 0.750000 0.750000 0.406675
Si Si7 0.561962 0.408762 0.316654
Si Si8 0.387831 0.081277 0.535277
O O1 0.095519 0.628802 0.835472
O O2 0.865365 0.705191 0.867388
O O3 0.798215 0.621910 0.941818
O O4 0.157534 0.677812 0.971464
O O5 0.414320 0.963483 0.857262
O O6 0.817108 0.966891 0.924083
O O7 0.575773 0.045991 0.870988
O O8 0.500000 0.000000 0.000000
O O9 0.750000 0.250000 0.439620
O O10 0.010870 0.329654 0.425287
O O11 0.047178 0.273812 0.541183
O O12 0.682448 0.115229 0.332940
O O13 0.414262 0.082849 0.444104
O O14 0.181172 0.119371 0.335264
O O15 0.427112 0.923040 0.272957
O O16 0.364479 0.908149 0.424886
#
# Coordination Sequence:
#
# PCOD9429760 Si02
#       8
#     8   8   8   8   8   4   8   8
#     4  10  19  38  63 106 130 179 225 296 354 410
#     4  11  25  43  67  99 135 187 244 295 344 407
#     4  10  21  36  69 107 133 169 231 294 351 418
#     4  12  24  46  68 104 137 181 237 290 351 420
#     4  11  26  42  66  97 145 188 233 291 361 429
#     4  10  18  32  68 108 130 160 234 296 350 408
#     4  12  30  43  68 101 145 192 234 288 362 436
#     4  11  22  40  71  90 139 176 237 290 339 412
#
# _framework density 21.418050999999998
#
# number of rings (size 3 to 8) (size 9 to 14) (size 15 to 20)
#    0.000    1.067    4.000    1.600    9.333    1.067 
#    0.000    0.000    0.000    4.800    0.000    0.000 
#    0.000    0.000    0.000    0.000    0.000    0.000 
#
# Total GULP energy -334558.998337 kJ/mol
# GULP energy per Si atom -5575.983306 kJ/mol
# Density = 2.136930 g / cm^3
# Si number density = 21.418051 Si / 1000 Ang^3
#
#
#
# Elastic Constant Matrix: (Units=GPa)
#
#
# Indices 1 2 3 4 5 6 
#
# 1 87.1902 30.3335 3.1467 0.0000 0.0000 0.0000
# 2 30.3335 115.4727 3.0608 0.0000 0.0000 0.0000
# 3 3.1467 3.0608 56.2376 0.0000 0.0000 0.0000
# 4 0.0000 0.0000 0.0000 11.8513 0.0000 0.0000
# 5 0.0000 0.0000 0.0000 0.0000 24.0848 0.0000
# 6 0.0000 0.0000 0.0000 0.0000 0.0000 25.2754
#
#
#
# Elastic Compliance Matrix: (Units=1/GPa)
#
#
# Indices 1 2 3 4 5 6 
#
# 1 0.012638 -0.003306 -0.000527 0.000000 0.000000 0.000000
# 2 -0.003306 0.009537 -0.000334 0.000000 0.000000 0.000000
# 3 -0.000527 -0.000334 0.017829 0.000000 0.000000 0.000000
# 4 0.000000 0.000000 0.000000 0.084379 0.000000 0.000000
# 5 0.000000 0.000000 0.000000 0.000000 0.041520 0.000000
# 6 0.000000 0.000000 0.000000 0.000000 0.000000 0.039564
#
#
# Mechanical properties :
#
#
# Convention : Reuss Voigt Hill
#
# Bulk Modulus (GPa) = 31.57519 36.88696 34.23107
# Shear Modulus (GPa) = 22.28569 27.06628 24.67598
#
# Velocity S-wave (km/s) = 3.22919 3.55873 3.39796
# Velocity P-wave (km/s) = 5.35518 5.84345 5.60463
#
# Compressibility (1/GPa) = 0.03167044
#
# Stress axis : x y z
#
# Youngs Moduli (GPa) = 79.12422 104.85079 56.08719
#
# Poissons Ratio (x) = 0.34664 0.02957
# Poissons Ratio (y) = 0.26158 0.01874
# Poissons Ratio (z) = 0.04172 0.03503
#
# Static dielectric constant tensor:
#      x y z
#    x 1.927110 0.000000 0.000000 
#    y 0.000000 1.835460 0.000000 
#    z 0.000000 0.000000 1.773170 
# 
# From -- ./inp_files/14162.got.cif
#   From: 2010.05.17/outbox.cif.g08.bks.cpg/sg56_8_cif.got.tgz:14162.got - 2010.06.03 13:42:01.
