data_PCOD9429993
_publ_section_title
;
Structure prediction by ZEFSAII (Michael W. Deem and Ramdas Pophale) SiO2 
 PCOD9429993
Probable space group: P C C N
;
_chemical_formula_sum "Si O2"
_cell_formula_units_Z 48
_cell_length_a 5.437558
_cell_length_b 23.305665
_cell_length_c 16.984701
_cell_angle_alpha 90.000000
_cell_angle_beta 90.000000
_cell_angle_gamma 90.000000
_cell_volume 2152.401608
_symmetry_space_group_name_H-M "P C C N"
_symmetry_group_IT_number 56
_symmetry_cell_setting 'orthorhombic'
loop_
_space_group_symop_operation_xyz
x,y,z
1/2-x,1/2-y,z
1/2+x,-y,1/2-z
-x,1/2+y,1/2-z
-x,-y,-z
1/2+x,1/2+y,-z
1/2-x,y,1/2+z
x,1/2-y,1/2+z
loop_
_atom_site_type_symbol
_atom_site_label
_atom_site_fract_x
_atom_site_fract_y
_atom_site_fract_z
Si Si1 0.749999 0.184448 0.307972
Si Si2 0.750001 0.112669 0.151030
Si Si3 0.749999 0.524248 0.181540
Si Si4 0.250001 0.315933 0.408312
Si Si5 0.249999 0.992592 0.638706
Si Si6 0.250001 0.390978 0.561356
O O1 0.750000 0.250000 0.277215
O O2 0.750000 0.141634 0.235309
O O3 0.499144 0.178157 0.357589
O O4 0.000854 0.178157 0.357589
O O5 0.750001 0.043798 0.162070
O O6 0.500558 0.127550 0.105073
O O7 0.999443 0.127550 0.105073
O O8 0.749999 0.527806 0.276625
O O9 0.496474 0.544283 0.143988
O O10 0.003524 0.544283 0.143988
O O11 0.250000 0.250000 0.439831
O O12 0.250000 0.362396 0.476994
O O13 0.249999 0.039087 0.569239
#
# Coordination Sequence:
#
# PCOD9429993 Si02
#       6
#     8   8   8   8   8   8
#     4  10  21  36  51  68  96 132 160 188 239 296
#     4  10  19  31  51  76  96 120 160 204 235 267
#     4   8  14  25  42  66  94 120 148 186 232 277
#     4  10  21  36  51  68  96 132 160 188 239 296
#     4   8  14  25  42  66  94 120 148 186 232 277
#     4  10  19  31  51  76  96 120 160 204 235 267
#
# _framework density 22.300671999999999
#
# number of rings (size 3 to 8) (size 9 to 14) (size 15 to 20)
#    0.000    2.667    0.000    2.000    0.000    1.333 
#    0.000    0.000    0.000    2.000    0.000    0.000 
#    0.000    0.000    0.000    0.000    0.000    0.000 
#
# Total GULP energy -268331.684262 kJ/mol
# GULP energy per Si atom -5590.243422 kJ/mol
# Density = 2.224991 g / cm^3
# Si number density = 22.300672 Si / 1000 Ang^3
#
#
#
# Elastic Constant Matrix: (Units=GPa)
#
#
# Indices 1 2 3 4 5 6 
#
# 1 228.1223 18.4496 36.6774 0.0000 0.0000 0.0000
# 2 18.4496 86.1405 31.8681 0.0000 0.0000 0.0000
# 3 36.6774 31.8681 53.0127 0.0000 0.0000 0.0000
# 4 0.0000 0.0000 0.0000 37.8633 0.0000 0.0000
# 5 0.0000 0.0000 0.0000 0.0000 29.2907 0.0000
# 6 0.0000 0.0000 0.0000 0.0000 0.0000 35.8045
#
#
#
# Elastic Compliance Matrix: (Units=1/GPa)
#
#
# Indices 1 2 3 4 5 6 
#
# 1 0.004937 0.000265 -0.003575 0.000000 0.000000 0.000000
# 2 0.000265 0.014943 -0.009167 0.000000 0.000000 0.000000
# 3 -0.003575 -0.009167 0.026847 0.000000 0.000000 0.000000
# 4 0.000000 0.000000 0.000000 0.026411 0.000000 0.000000
# 5 0.000000 0.000000 0.000000 0.000000 0.034140 0.000000
# 6 0.000000 0.000000 0.000000 0.000000 0.000000 0.027929
#
#
# Mechanical properties :
#
#
# Convention : Reuss Voigt Hill
#
# Bulk Modulus (GPa) = 45.92490 60.14064 53.03277
# Shear Modulus (GPa) = 29.86508 39.27706 34.57107
#
# Velocity S-wave (km/s) = 3.66348 4.20128 3.94156
# Velocity P-wave (km/s) = 6.20749 7.11062 6.67435
#
# Compressibility (1/GPa) = 0.02177468
#
# Stress axis : x y z
#
# Youngs Moduli (GPa) = 202.55324 66.91932 37.24765
#
# Poissons Ratio (x) = -0.01775 0.13317
# Poissons Ratio (y) = -0.05373 0.34143
# Poissons Ratio (z) = 0.72416 0.61342
#
# Static dielectric constant tensor:
#      x y z
#    x 1.941590 0.000000 0.000000 
#    y 0.000000 1.796890 0.000000 
#    z 0.000000 0.000000 1.784600 
# 
# From -- ./inp_files/9664.got.cif
#   From: 2010.05.17/outbox.cif.g08.bks.cpg/sg56_5_cif.got.tgz:9664.got - 2010.06.03 13:42:01.
