data_PCOD9429215
_publ_section_title
;
Structure prediction by ZEFSAII (Michael W. Deem and Ramdas Pophale) SiO2 
 PCOD9429215
Probable space group: P B A M
;
_chemical_formula_sum "Si O2"
_cell_formula_units_Z 32
_cell_length_a 7.907813
_cell_length_b 22.780773
_cell_length_c 7.482978
_cell_angle_alpha 90.000000
_cell_angle_beta 90.000000
_cell_angle_gamma 90.000000
_cell_volume 1348.029250
_symmetry_space_group_name_H-M "P B A M"
_symmetry_group_IT_number 55
_symmetry_cell_setting 'orthorhombic'
loop_
_space_group_symop_operation_xyz
x,y,z
-x,-y,z
1/2+x,1/2-y,-z
1/2-x,1/2+y,-z
-x,-y,-z
x,y,-z
1/2-x,1/2+y,z
1/2+x,1/2-y,z
loop_
_atom_site_type_symbol
_atom_site_label
_atom_site_fract_x
_atom_site_fract_y
_atom_site_fract_z
Si Si1 0.672326 0.967604 0.216996
Si Si2 0.472626 0.654620 0.500000
Si Si3 0.495493 0.853381 0.791403
Si Si4 0.624598 0.773247 0.500000
Si Si5 0.135500 0.921288 0.790466
O O1 0.635185 0.901285 0.271083
O O2 0.500000 0.000000 0.271522
O O3 0.818728 0.012456 0.270591
O O4 0.676378 0.967283 0.000000
O O5 0.622522 0.703363 0.500000
O O6 0.305631 0.694537 0.500000
O O7 0.502414 0.612776 0.329800
O O8 0.523290 0.796831 0.672320
O O9 0.312871 0.884949 0.777029
O O10 0.521488 0.840513 0.000000
O O11 0.086457 0.922621 0.000000
#
# Coordination Sequence:
#
# PCOD9429215 Si02
#       5
#     8   4   8   4   8
#     4   7  12  27  55  88 115 141 176 216 263 325
#     4  12  26  41  56  77 109 148 192 236 277 328
#     4   9  18  36  62  88 114 145 182 225 272 324
#     4  12  26  41  56  77 109 148 192 236 277 328
#     4   9  18  36  62  88 114 145 182 225 272 324
#
# _framework density 23.738357000000001
#
# number of rings (size 3 to 8) (size 9 to 14) (size 15 to 20)
#    0.000    2.750    0.000    5.250    0.000    3.000 
#    0.000    6.250    0.000    4.500    0.000    0.000 
#    0.000    0.000    0.000    0.000    0.000    0.000 
#
# Total GULP energy -178862.665803 kJ/mol
# GULP energy per Si atom -5589.458306 kJ/mol
# Density = 2.368433 g / cm^3
# Si number density = 23.738357 Si / 1000 Ang^3
#
#
#
# Elastic Constant Matrix: (Units=GPa)
#
#
# Indices 1 2 3 4 5 6 
#
# 1 113.1144 -4.0957 20.3878 0.0000 0.0000 0.0000
# 2 -4.0957 81.6728 26.4437 0.0000 0.0000 0.0000
# 3 20.3878 26.4437 78.1603 0.0000 0.0000 0.0000
# 4 0.0000 0.0000 0.0000 77.5914 0.0000 0.0000
# 5 0.0000 0.0000 0.0000 0.0000 447.2472 0.0000
# 6 0.0000 0.0000 0.0000 0.0000 0.0000 36.2494
#
#
#
# Elastic Compliance Matrix: (Units=1/GPa)
#
#
# Indices 1 2 3 4 5 6 
#
# 1 0.009422 0.001424 -0.002940 0.000000 0.000000 0.000000
# 2 0.001424 0.013965 -0.005096 0.000000 0.000000 0.000000
# 3 -0.002940 -0.005096 0.015285 0.000000 0.000000 0.000000
# 4 0.000000 0.000000 0.000000 0.012888 0.000000 0.000000
# 5 0.000000 0.000000 0.000000 0.000000 0.002236 0.000000
# 6 0.000000 0.000000 0.000000 0.000000 0.000000 0.027587
#
#
# Mechanical properties :
#
#
# Convention : Reuss Voigt Hill
#
# Bulk Modulus (GPa) = 39.29379 39.82435 39.55907
# Shear Modulus (GPa) = 48.50135 127.56504 88.03319
#
# Velocity S-wave (km/s) = 4.52504 7.33857 6.09633
# Velocity P-wave (km/s) = 6.62496 9.41376 8.13969
#
# Compressibility (1/GPa) = 0.02544932
#
# Stress axis : x y z
#
# Youngs Moduli (GPa) = 106.13446 71.60503 65.42253
#
# Poissons Ratio (x) = -0.10198 0.19231
# Poissons Ratio (y) = -0.15116 0.33342
# Poissons Ratio (z) = 0.31199 0.36493
#
# Static dielectric constant tensor:
#      x y z
#    x 1.975240 0.000000 0.000000 
#    y 0.000000 1.841990 0.000000 
#    z 0.000000 0.000000 1.842970 
# 
# From -- ./inp_files/2255.got.cif
#   From: 2010.05.17/outbox.cif.g08.bks.cpg/sg55_2_cif.got.tgz:2255.got - 2010.06.03 13:27:54.
