data_PCOD9429561
_publ_section_title
;
Structure prediction by ZEFSAII (Michael W. Deem and Ramdas Pophale) SiO2 
 PCOD9429561
Probable space group: P C C N
;
_chemical_formula_sum "Si O2"
_cell_formula_units_Z 64
_cell_length_a 20.886070
_cell_length_b 9.428836
_cell_length_c 17.977797
_cell_angle_alpha 90.000000
_cell_angle_beta 90.000000
_cell_angle_gamma 90.000000
_cell_volume 3540.391451
_symmetry_space_group_name_H-M "P C C N"
_symmetry_group_IT_number 56
_symmetry_cell_setting 'orthorhombic'
loop_
_space_group_symop_operation_xyz
x,y,z
1/2-x,1/2-y,z
1/2+x,-y,1/2-z
-x,1/2+y,1/2-z
-x,-y,-z
1/2+x,1/2+y,-z
1/2-x,y,1/2+z
x,1/2-y,1/2+z
loop_
_atom_site_type_symbol
_atom_site_label
_atom_site_fract_x
_atom_site_fract_y
_atom_site_fract_z
Si Si1 0.488352 0.797141 0.172187
Si Si2 0.180955 0.295709 0.150894
Si Si3 0.895346 0.809288 0.563931
Si Si4 0.001074 0.350872 0.045533
Si Si5 0.949018 0.900072 0.289810
Si Si6 0.105122 0.785226 0.035934
Si Si7 0.668143 0.577307 0.987995
Si Si8 0.690586 0.475610 0.475602
O O1 0.556943 0.835539 0.132476
O O2 0.507497 0.672814 0.227907
O O3 0.439428 0.749349 0.107328
O O4 0.455395 0.929502 0.214297
O O5 0.250000 0.250000 0.184593
O O6 0.121379 0.326118 0.205788
O O7 0.171058 0.177352 0.085727
O O8 0.183785 0.440169 0.102415
O O9 0.848251 0.674973 0.559535
O O10 0.856114 0.945137 0.534730
O O11 0.943720 0.767084 0.497141
O O12 0.021449 0.372333 0.128874
O O13 0.935824 0.269343 0.034012
O O14 0.000000 0.500000 0.000000
O O15 0.167135 0.683798 0.037075
O O16 0.120582 0.948753 0.027689
O O17 0.737223 0.505046 0.999315
#
# Coordination Sequence:
#
# PCOD9429561 Si02
#       8
#     8   8   8   8   8   8   8   8
#     4  11  25  34  58  80 124 156 184 245 289 365
#     4   9  18  35  57  77 106 146 194 242 275 336
#     4  10  18  37  54  84 108 147 189 229 297 334
#     4  11  17  35  62  73 106 151 190 232 280 351
#     4  12  21  39  55  86 111 158 204 225 296 349
#     4  11  20  35  54  89 116 145 186 241 311 329
#     4  10  21  29  57  92 109 137 192 259 279 332
#     4  10  16  35  60  79 112 147 192 236 287 351
#
# _framework density 18.077096999999998
#
# number of rings (size 3 to 8) (size 9 to 14) (size 15 to 20)
#    0.000    1.500    7.500    1.500    1.750    3.000 
#    0.000    1.250    0.000    0.000    0.000    1.750 
#    0.000    0.000    0.000    0.000    0.000    0.000 
#
# Total GULP energy -356365.054272 kJ/mol
# GULP energy per Si atom -5568.203973 kJ/mol
# Density = 1.803595 g / cm^3
# Si number density = 18.077097 Si / 1000 Ang^3
#
#
#
# Elastic Constant Matrix: (Units=GPa)
#
#
# Indices 1 2 3 4 5 6 
#
# 1 89.7235 22.6053 8.9189 0.0000 0.0000 0.0000
# 2 22.6053 79.2114 6.8396 0.0000 0.0000 0.0000
# 3 8.9189 6.8396 25.5095 0.0000 0.0000 0.0000
# 4 0.0000 0.0000 0.0000 17.3892 0.0000 0.0000
# 5 0.0000 0.0000 0.0000 0.0000 18.9460 0.0000
# 6 0.0000 0.0000 0.0000 0.0000 0.0000 23.9610
#
#
#
# Elastic Compliance Matrix: (Units=1/GPa)
#
#
# Indices 1 2 3 4 5 6 
#
# 1 0.012296 -0.003212 -0.003438 0.000000 0.000000 0.000000
# 2 -0.003212 0.013763 -0.002567 0.000000 0.000000 0.000000
# 3 -0.003438 -0.002567 0.041091 0.000000 0.000000 0.000000
# 4 0.000000 0.000000 0.000000 0.057507 0.000000 0.000000
# 5 0.000000 0.000000 0.000000 0.000000 0.052781 0.000000
# 6 0.000000 0.000000 0.000000 0.000000 0.000000 0.041734
#
#
# Mechanical properties :
#
#
# Convention : Reuss Voigt Hill
#
# Bulk Modulus (GPa) = 20.52702 30.13020 25.32861
# Shear Modulus (GPa) = 19.69693 22.46463 21.08078
#
# Velocity S-wave (km/s) = 3.30450 3.52904 3.41861
# Velocity P-wave (km/s) = 5.09309 5.77142 5.44283
#
# Compressibility (1/GPa) = 0.04871629
#
# Stress axis : x y z
#
# Youngs Moduli (GPa) = 81.32455 72.65955 24.33600
#
# Poissons Ratio (x) = 0.23340 0.08367
# Poissons Ratio (y) = 0.26124 0.06247
# Poissons Ratio (z) = 0.27959 0.18651
#
# Static dielectric constant tensor:
#      x y z
#    x 1.710270 0.000000 0.000000 
#    y 0.000000 1.666220 0.000000 
#    z 0.000000 0.000000 1.605090 
# 
# From -- ./inp_files/19533.got.cif
#   From: 2010.05.17/outbox.cif.g08.bks.cpg/sg56_10_cif.got.tgz:19533.got - 2010.06.03 13:42:01.
