data_PCOD9429037
_publ_section_title
;
Structure prediction by ZEFSAII (Michael W. Deem and Ramdas Pophale) SiO2 
 PCOD9429037
Probable space group: P B A M
;
_chemical_formula_sum "Si O2"
_cell_formula_units_Z 64
_cell_length_a 16.334812
_cell_length_b 20.769226
_cell_length_c 7.787562
_cell_angle_alpha 90.000000
_cell_angle_beta 90.000000
_cell_angle_gamma 90.000000
_cell_volume 2642.019203
_symmetry_space_group_name_H-M "P B A M"
_symmetry_group_IT_number 55
_symmetry_cell_setting 'orthorhombic'
loop_
_space_group_symop_operation_xyz
x,y,z
-x,-y,z
1/2+x,1/2-y,-z
1/2-x,1/2+y,-z
-x,-y,-z
x,y,-z
1/2-x,1/2+y,z
1/2+x,1/2-y,z
loop_
_atom_site_type_symbol
_atom_site_label
_atom_site_fract_x
_atom_site_fract_y
_atom_site_fract_z
Si Si1 0.803573 0.054430 0.788763
Si Si2 0.151697 0.087256 0.200348
Si Si3 0.032418 0.569187 0.710840
Si Si4 0.518404 0.577008 0.803207
Si Si5 0.541565 0.205880 0.296795
Si Si6 0.809218 0.371081 0.305334
Si Si7 0.714676 0.171663 0.801683
Si Si8 0.385514 0.268969 0.696308
O O1 0.729404 0.099271 0.728482
O O2 0.891346 0.083596 0.728555
O O3 0.809221 0.980035 0.735600
O O4 0.802482 0.055595 0.000000
O O5 0.064184 0.103940 0.280678
O O6 0.223737 0.137646 0.212565
O O7 0.133320 0.076027 0.000000
O O8 0.033083 0.569968 0.500000
O O9 0.982180 0.633190 0.765623
O O10 0.000000 0.500000 0.766532
O O11 0.126380 0.578349 0.769538
O O12 0.500000 0.500000 0.805958
O O13 0.527055 0.599710 0.000000
O O14 0.525555 0.207019 0.500000
O O15 0.639292 0.211141 0.275782
O O16 0.477821 0.260473 0.227296
O O17 0.788368 0.388792 0.500000
O O18 0.858950 0.305592 0.310252
O O19 0.806284 0.200496 0.786868
O O20 0.693284 0.166409 0.000000
O O21 0.388420 0.293335 0.500000
#
# Coordination Sequence:
#
# PCOD9429037 Si02
#       8
#     8   8   8   8   8   8   8   8
#     4   8  16  30  47  73 108 139 169 212 264 315
#     4   9  16  28  50  76 104 138 174 207 253 320
#     4   8  15  29  51  78 105 137 177 213 255 321
#     4   7  11  24  45  65  91 133 172 197 232 296
#     4   9  19  37  60  81 106 145 186 227 277 331
#     4   9  18  32  51  75 102 133 170 221 267 307
#     4  11  22  35  56  84 113 142 179 233 284 328
#     4   9  20  41  59  73 103 145 187 226 271 324
#
# _framework density 24.223897999999998
#
# number of rings (size 3 to 8) (size 9 to 14) (size 15 to 20)
#    0.000    3.250    0.000    3.375    1.750    1.000 
#    2.250    2.500    0.000    4.875    0.000    0.000 
#    0.000    0.000    0.000    0.000    0.000    0.000 
#
# Total GULP energy -356527.847612 kJ/mol
# GULP energy per Si atom -5570.747619 kJ/mol
# Density = 2.416876 g / cm^3
# Si number density = 24.223898 Si / 1000 Ang^3
#
#
#
# Elastic Constant Matrix: (Units=GPa)
#
#
# Indices 1 2 3 4 5 6 
#
# 1 129.5370 33.6541 3.4329 0.0000 0.0000 0.0000
# 2 33.6541 39.3291 6.3720 0.0000 0.0000 0.0000
# 3 3.4329 6.3720 30.5321 0.0000 0.0000 0.0000
# 4 0.0000 0.0000 0.0000 17.4507 0.0000 0.0000
# 5 0.0000 0.0000 0.0000 0.0000 6.5665 0.0000
# 6 0.0000 0.0000 0.0000 0.0000 0.0000 24.0519
#
#
#
# Elastic Compliance Matrix: (Units=1/GPa)
#
#
# Indices 1 2 3 4 5 6 
#
# 1 0.009940 -0.008616 0.000681 0.000000 0.000000 0.000000
# 2 -0.008616 0.033785 -0.006082 0.000000 0.000000 0.000000
# 3 0.000681 -0.006082 0.033945 0.000000 0.000000 0.000000
# 4 0.000000 0.000000 0.000000 0.057304 0.000000 0.000000
# 5 0.000000 0.000000 0.000000 0.000000 0.152288 0.000000
# 6 0.000000 0.000000 0.000000 0.000000 0.000000 0.041577
#
#
# Mechanical properties :
#
#
# Convention : Reuss Voigt Hill
#
# Bulk Modulus (GPa) = 20.14712 31.81291 25.98002
# Shear Modulus (GPa) = 13.38975 20.00976 16.69975
#
# Velocity S-wave (km/s) = 2.35361 2.87720 2.62848
# Velocity P-wave (km/s) = 3.96498 4.91925 4.46767
#
# Compressibility (1/GPa) = 0.04963488
#
# Stress axis : x y z
#
# Youngs Moduli (GPa) = 100.60068 29.59909 29.45928
#
# Poissons Ratio (x) = 0.25503 -0.02005
# Poissons Ratio (y) = 0.86680 0.17917
# Poissons Ratio (z) = -0.06846 0.18002
#
# Static dielectric constant tensor:
#      x y z
#    x 2.048710 0.000000 0.000000 
#    y 0.000000 2.027770 0.000000 
#    z 0.000000 0.000000 1.912280 
# 
# From -- ./inp_files/6507.got.cif
#   From: 2010.05.17/outbox.cif.g08.bks.cpg/sg55_4_cif.got.tgz:6507.got - 2010.06.03 13:27:54.
