data_PCOD9429445
_publ_section_title
;
Structure prediction by ZEFSAII (Michael W. Deem and Ramdas Pophale) SiO2 
 PCOD9429445
Probable space group: P B A M
;
_chemical_formula_sum "Si O2"
_cell_formula_units_Z 48
_cell_length_a 9.000000
_cell_length_b 15.000000
_cell_length_c 18.000000
_cell_angle_alpha 90.000000
_cell_angle_beta 90.000000
_cell_angle_gamma 90.000000
_cell_volume 2430.000000
_symmetry_space_group_name_H-M "P B A M"
_symmetry_group_IT_number 55
_symmetry_cell_setting 'orthorhombic'
loop_
_space_group_symop_operation_xyz
x,y,z
-x,-y,z
1/2+x,1/2-y,-z
1/2-x,1/2+y,-z
-x,-y,-z
x,y,-z
1/2-x,1/2+y,z
1/2+x,1/2-y,z
loop_
_atom_site_type_symbol
_atom_site_label
_atom_site_fract_x
_atom_site_fract_y
_atom_site_fract_z
Si Si1 0.824550 0.110289 0.000000
Si Si2 0.959521 0.751607 0.228652
Si Si3 0.070453 0.907199 0.664437
Si Si4 0.572734 0.656354 0.500000
Si Si5 0.315291 0.600430 0.000000
Si Si6 0.926735 0.589890 0.663557
Si Si7 0.430664 0.850113 0.500000
Si Si8 0.708196 0.759315 0.120450
O O1 0.773088 0.169622 0.070954
O O2 0.005215 0.109168 0.000000
O O3 0.778275 0.005750 0.000000
O O4 0.977283 0.669378 0.283853
O O5 0.792252 0.759951 0.199376
O O6 0.012651 0.834900 0.277115
O O7 0.040287 0.739498 0.149475
O O8 0.025739 0.887069 0.578448
O O9 0.248463 0.912309 0.665912
O O10 0.000000 0.000000 0.686423
O O11 0.506109 0.754389 0.500000
O O12 0.751920 0.659133 0.500000
O O13 0.252135 0.655604 0.070615
O O14 0.973189 0.604134 0.577560
O O15 0.000000 0.500000 0.691169
#
# Coordination Sequence:
#
# PCOD9429445 Si02
#       8
#     4   8   8   4   4   8   4   8
#     4  10  22  43  70  97 124 165 214 249 310 388
#     4  12  24  42  64  94 136 168 211 260 325 381
#     4  11  25  41  64  94 128 173 221 269 325 382
#     4  10  21  40  64  91 123 169 225 273 321 378
#     4  10  22  43  72  95 122 169 211 252 310 378
#     4  11  25  41  63  95 129 171 221 271 325 379
#     4  10  21  40  64  89 125 171 223 271 323 378
#     4  11  24  42  66  98 131 164 204 267 313 375
#
# _framework density 19.753086
#
# number of rings (size 3 to 8) (size 9 to 14) (size 15 to 20)
#    0.000    1.167    5.000    0.500    2.333    4.000 
#    0.000    0.833    0.000    0.000    0.000    0.000 
#    0.000    0.000    0.000    0.000    0.000    0.000 
#
# Total GULP energy -267889.879376 kJ/mol
# GULP energy per Si atom -5581.039154 kJ/mol
# Density = 1.970813 g / cm^3
# Si number density = 19.753086 Si / 1000 Ang^3
#
#
#
# Elastic Constant Matrix: (Units=GPa)
#
#
# Indices 1 2 3 4 5 6 
#
# 1 7.6517 38.5918 15.6981 0.0000 0.0000 0.0000
# 2 38.5918 198.1071 71.1379 0.0000 0.0000 0.0000
# 3 15.6981 71.1379 110.5961 0.0000 0.0000 0.0000
# 4 0.0000 0.0000 0.0000 -97.1285 0.0000 0.0000
# 5 0.0000 0.0000 0.0000 0.0000 -88.7748 0.0000
# 6 0.0000 0.0000 0.0000 0.0000 0.0000 29.5401
#
#
#
# Elastic Compliance Matrix: (Units=1/GPa)
#
#
# Indices 1 2 3 4 5 6 
#
# 1 10.628455 -1.987875 -0.229966 0.000000 0.000000 0.000000
# 2 -1.987875 0.378363 0.038789 0.000000 0.000000 0.000000
# 3 -0.229966 0.038789 0.016733 0.000000 0.000000 0.000000
# 4 0.000000 0.000000 0.000000 -0.010296 0.000000 0.000000
# 5 0.000000 0.000000 0.000000 0.000000 -0.011264 0.000000
# 6 0.000000 0.000000 0.000000 0.000000 0.000000 0.033852
#
#
# Mechanical properties :
#
#
# Convention : Reuss Voigt Hill
#
# Bulk Modulus (GPa) = 0.15003 63.02340 31.58671
# Shear Modulus (GPa) = 0.28384 -18.54417 -9.13016
#
# Velocity S-wave (km/s) = 0.37948 -3.06731 -2.15225
# Velocity P-wave (km/s) = 0.51780 4.40799 3.13835
#
# Compressibility (1/GPa) = 6.66544737
#
# Stress axis : x y z
#
# Youngs Moduli (GPa) = 0.09409 2.64297 59.76096
#
# Poissons Ratio (x) = 5.25389 13.74297
# Poissons Ratio (y) = 0.18703 -2.31808
# Poissons Ratio (z) = 0.02164 -0.10252
#
# Static dielectric constant tensor:
#      x y z
#    x 1.674570 0.000000 0.000000 
#    y 0.000000 1.640550 0.000000 
#    z 0.000000 0.000000 1.682270 
# 
# From -- ./inp_files/20865.got.cif
#   From: 2010.05.17/outbox.ucp.g08.bks.cvg/sg55_11_cif.got.tgz:20865.got - 2010.06.11 16:36:00.
