data_PCOD9429668
_publ_section_title
;
Structure prediction by ZEFSAII (Michael W. Deem and Ramdas Pophale) SiO2 
 PCOD9429668
Probable space group: P C C N
;
_chemical_formula_sum "Si O2"
_cell_formula_units_Z 64
_cell_length_a 21.373439
_cell_length_b 9.146386
_cell_length_c 18.468553
_cell_angle_alpha 90.000000
_cell_angle_beta 90.000000
_cell_angle_gamma 90.000000
_cell_volume 3610.412315
_symmetry_space_group_name_H-M "P C C N"
_symmetry_group_IT_number 56
_symmetry_cell_setting 'orthorhombic'
loop_
_space_group_symop_operation_xyz
x,y,z
1/2-x,1/2-y,z
1/2+x,-y,1/2-z
-x,1/2+y,1/2-z
-x,-y,-z
1/2+x,1/2+y,-z
1/2-x,y,1/2+z
x,1/2-y,1/2+z
loop_
_atom_site_type_symbol
_atom_site_label
_atom_site_fract_x
_atom_site_fract_y
_atom_site_fract_z
Si Si1 0.112139 0.422300 0.162308
Si Si2 0.876023 0.576229 0.665540
Si Si3 0.376023 0.076229 0.834460
Si Si4 0.750000 0.423594 0.670176
Si Si5 0.498563 0.924762 0.077803
Si Si6 0.250000 0.423407 0.174481
Si Si7 0.998563 0.424762 0.422197
Si Si8 0.887861 0.922300 0.837692
O O1 0.112437 0.451675 0.248803
O O2 0.061005 0.517428 0.122113
O O3 0.183680 0.448787 0.136181
O O4 0.098259 0.250000 0.152103
O O5 0.864397 0.750000 0.658618
O O6 0.814387 0.490680 0.640051
O O7 0.938030 0.537887 0.621367
O O8 0.438030 0.037887 0.878633
O O9 0.387563 0.048325 0.748803
O O10 0.314387 0.990680 0.859949
O O11 0.750000 0.250000 0.665606
O O12 0.750000 0.478723 0.753654
O O13 0.495924 0.750000 0.070688
O O14 0.500000 0.000000 0.000000
O O15 0.250000 0.250000 0.196208
O O16 0.316320 0.448787 0.136181
O O17 0.000000 0.500000 0.500000
O O18 0.938995 0.482572 0.377887
#
# Coordination Sequence:
#
# PCOD9429668 Si02
#       8
#     8   8   8   8   8   8   8   8
#     4   9  17  33  57  81 105 135 173 214 255 306
#     4   9  19  36  56  77 105 141 174 207 258 319
#     4   9  19  36  56  77 105 141 174 207 258 319
#     4  10  18  28  51  84 109 130 166 218 262 298
#     4  11  23  37  53  75 105 141 178 216 260 309
#     4   8  16  32  53  78 109 140 168 204 258 318
#     4  11  23  37  53  75 105 141 178 216 260 309
#     4   9  17  33  57  81 105 135 173 214 255 306
#
# _framework density 17.726507000000002
#
# number of rings (size 3 to 8) (size 9 to 14) (size 15 to 20)
#    0.000    2.500    0.000    4.125    0.000    6.000 
#    0.000    1.250    0.000    3.000    0.000    0.000 
#    0.000    0.000    0.000    0.000    0.000    0.000 
#
# Total GULP energy -356895.250216 kJ/mol
# GULP energy per Si atom -5576.488285 kJ/mol
# Density = 1.768616 g / cm^3
# Si number density = 17.726507 Si / 1000 Ang^3
#
#
#
# Elastic Constant Matrix: (Units=GPa)
#
#
# Indices 1 2 3 4 5 6 
#
# 1 201.6152 91.3262 69.2898 0.0000 0.0000 0.0000
# 2 91.3262 68.7899 44.2247 0.0000 0.0000 0.0000
# 3 69.2898 44.2247 54.4525 0.0000 0.0000 0.0000
# 4 0.0000 0.0000 0.0000 23.9072 0.0000 0.0000
# 5 0.0000 0.0000 0.0000 0.0000 -6.9668 0.0000
# 6 0.0000 0.0000 0.0000 0.0000 0.0000 38.2084
#
#
#
# Elastic Compliance Matrix: (Units=1/GPa)
#
#
# Indices 1 2 3 4 5 6 
#
# 1 0.013146 -0.014017 -0.005343 0.000000 0.000000 0.000000
# 2 -0.014017 0.045367 -0.019010 0.000000 0.000000 0.000000
# 3 -0.005343 -0.019010 0.040603 0.000000 0.000000 0.000000
# 4 0.000000 0.000000 0.000000 0.041828 0.000000 0.000000
# 5 0.000000 0.000000 0.000000 0.000000 -0.143537 0.000000
# 6 0.000000 0.000000 0.000000 0.000000 0.000000 0.026172
#
#
# Mechanical properties :
#
#
# Convention : Reuss Voigt Hill
#
# Bulk Modulus (GPa) = 44.69072 81.61546 63.15309
# Shear Modulus (GPa) = 46.39138 19.03088 32.71113
#
# Velocity S-wave (km/s) = 5.12127 3.28011 4.30038
# Velocity P-wave (km/s) = 7.76118 7.77734 7.76926
#
# Compressibility (1/GPa) = 0.02237601
#
# Stress axis : x y z
#
# Youngs Moduli (GPa) = 76.07055 22.04222 24.62868
#
# Poissons Ratio (x) = 0.30897 0.13160
# Poissons Ratio (y) = 1.06629 0.46818
# Poissons Ratio (z) = 0.40647 0.41901
#
# Static dielectric constant tensor:
#      x y z
#    x 1.627990 0.000000 0.000000 
#    y 0.000000 1.586680 0.000000 
#    z 0.000000 0.000000 1.579250 
# 
# From -- ./inp_files/16885.got.cif
#   From: 2010.05.17/outbox.cif.g08.bks.cpg/sg56_9_cif.got.tgz:16885.got - 2010.06.03 13:42:01.
