data_PCOD9429716
_publ_section_title
;
Structure prediction by ZEFSAII (Michael W. Deem and Ramdas Pophale) SiO2 
 PCOD9429716
Probable space group: P C C N
;
_chemical_formula_sum "Si O2"
_cell_formula_units_Z 52
_cell_length_a 13.134145
_cell_length_b 12.800320
_cell_length_c 13.886617
_cell_angle_alpha 90.000000
_cell_angle_beta 90.000000
_cell_angle_gamma 90.000000
_cell_volume 2334.635532
_symmetry_space_group_name_H-M "P C C N"
_symmetry_group_IT_number 56
_symmetry_cell_setting 'orthorhombic'
loop_
_space_group_symop_operation_xyz
x,y,z
1/2-x,1/2-y,z
1/2+x,-y,1/2-z
-x,1/2+y,1/2-z
-x,-y,-z
1/2+x,1/2+y,-z
1/2-x,y,1/2+z
x,1/2-y,1/2+z
loop_
_atom_site_type_symbol
_atom_site_label
_atom_site_fract_x
_atom_site_fract_y
_atom_site_fract_z
Si Si1 0.250000 0.250000 0.829711
Si Si2 0.867113 0.880205 0.416589
Si Si3 0.433334 0.861086 0.783272
Si Si4 0.044867 0.624458 0.278086
Si Si5 0.093223 0.088156 0.847651
Si Si6 0.362757 0.132823 0.568196
Si Si7 0.108176 0.441075 0.879710
O O1 0.154162 0.182463 0.793541
O O2 0.113924 0.089127 0.961696
O O3 0.965642 0.882804 0.348558
O O4 0.748019 0.903039 0.392221
O O5 0.860905 0.757940 0.445880
O O6 0.896041 0.953380 0.506398
O O7 0.406922 0.739237 0.787982
O O8 0.475235 0.886337 0.676651
O O9 0.451572 0.116118 0.645393
O O10 0.362442 0.952593 0.824053
O O11 0.114485 0.525562 0.303662
O O12 0.991099 0.605547 0.174758
O O13 0.191911 0.349795 0.872174
#
# Coordination Sequence:
#
# PCOD9429716 Si02
#       7
#     4   8   8   8   8   8   8
#     4  12  20  36  64  80 102 146 188 222 270 324
#     4  10  18  31  55  83 110 144 186 224 263 318
#     4  10  22  34  54  84 114 145 181 224 277 324
#     4  10  22  34  54  84 114 145 181 224 277 324
#     4  11  20  36  55  82 114 143 183 229 269 321
#     4  10  18  31  55  83 110 144 186 224 263 318
#     4  11  20  36  55  82 114 143 183 229 269 321
#
# _framework density 22.273285000000001
#
# number of rings (size 3 to 8) (size 9 to 14) (size 15 to 20)
#    0.000    1.538    4.615    0.923    2.154    0.000 
#    0.000    0.769    0.000    0.000    0.000    0.000 
#    0.000    0.000    0.000    0.000    0.000    0.000 
#
# Total GULP energy -289475.713107 kJ/mol
# GULP energy per Si atom -5566.840637 kJ/mol
# Density = 2.222259 g / cm^3
# Si number density = 22.273285 Si / 1000 Ang^3
#
#
#
# Elastic Constant Matrix: (Units=GPa)
#
#
# Indices 1 2 3 4 5 6 
#
# 1 47.1901 15.0779 5.5176 0.0000 0.0000 0.0000
# 2 15.0779 163.2997 -2.6438 0.0000 0.0000 0.0000
# 3 5.5176 -2.6438 48.4213 0.0000 0.0000 0.0000
# 4 0.0000 0.0000 0.0000 30.2112 0.0000 0.0000
# 5 0.0000 0.0000 0.0000 0.0000 13.0857 0.0000
# 6 0.0000 0.0000 0.0000 0.0000 0.0000 24.7553
#
#
#
# Elastic Compliance Matrix: (Units=1/GPa)
#
#
# Indices 1 2 3 4 5 6 
#
# 1 0.022167 -0.002090 -0.002640 0.000000 0.000000 0.000000
# 2 -0.002090 0.006326 0.000584 0.000000 0.000000 0.000000
# 3 -0.002640 0.000584 0.020985 0.000000 0.000000 0.000000
# 4 0.000000 0.000000 0.000000 0.033100 0.000000 0.000000
# 5 0.000000 0.000000 0.000000 0.000000 0.076419 0.000000
# 6 0.000000 0.000000 0.000000 0.000000 0.000000 0.040395
#
#
# Mechanical properties :
#
#
# Convention : Reuss Voigt Hill
#
# Bulk Modulus (GPa) = 24.28013 32.75719 28.51866
# Shear Modulus (GPa) = 22.58217 29.67440 26.12828
#
# Velocity S-wave (km/s) = 3.18758 3.65401 3.42874
# Velocity P-wave (km/s) = 4.94694 5.70449 5.33917
#
# Compressibility (1/GPa) = 0.04118595
#
# Stress axis : x y z
#
# Youngs Moduli (GPa) = 45.11174 158.07562 47.65358
#
# Poissons Ratio (x) = 0.33030 0.12581
# Poissons Ratio (y) = 0.09426 -0.02781
# Poissons Ratio (z) = 0.11910 -0.09224
#
# Static dielectric constant tensor:
#      x y z
#    x 1.927090 0.000000 0.000000 
#    y 0.000000 1.865290 0.000000 
#    z 0.000000 0.000000 1.959080 
# 
# From -- ./inp_files/13125.got.cif
#   From: 2010.05.17/outbox.cif.g08.bks.cpg/sg56_7_cif.got.tgz:13125.got - 2010.06.03 13:42:01.
