data_PCOD9429246
_publ_section_title
;
Structure prediction by ZEFSAII (Michael W. Deem and Ramdas Pophale) SiO2 
 PCOD9429246
Probable space group: P B A M
;
_chemical_formula_sum "Si O2"
_cell_formula_units_Z 64
_cell_length_a 19.235955
_cell_length_b 22.230714
_cell_length_c 9.172848
_cell_angle_alpha 90.000000
_cell_angle_beta 90.000000
_cell_angle_gamma 90.000000
_cell_volume 3922.575947
_symmetry_space_group_name_H-M "P B A M"
_symmetry_group_IT_number 55
_symmetry_cell_setting 'orthorhombic'
loop_
_space_group_symop_operation_xyz
x,y,z
-x,-y,z
1/2+x,1/2-y,-z
1/2-x,1/2+y,-z
-x,-y,-z
x,y,-z
1/2-x,1/2+y,z
1/2+x,1/2-y,z
loop_
_atom_site_type_symbol
_atom_site_label
_atom_site_fract_x
_atom_site_fract_y
_atom_site_fract_z
Si Si1 0.676073 0.090943 0.322376
Si Si2 0.019822 0.931934 0.675694
Si Si3 0.920532 0.700447 0.325998
Si Si4 0.922564 0.346938 0.673719
Si Si5 0.875166 0.233156 0.833193
Si Si6 0.922084 0.483087 0.677793
Si Si7 0.466084 0.683101 0.167731
Si Si8 0.329151 0.382378 0.675201
O O1 0.673562 0.090694 0.500000
O O2 0.638219 0.153029 0.278105
O O3 0.631746 0.033621 0.272263
O O4 0.756471 0.088297 0.278983
O O5 0.013810 0.926331 0.500000
O O6 0.972461 0.880474 0.749365
O O7 0.100225 0.917558 0.715895
O O8 0.000000 0.000000 0.716296
O O9 0.914366 0.710245 0.500000
O O10 0.995654 0.668339 0.302061
O O11 0.921867 0.764700 0.246247
O O12 0.911258 0.341594 0.500000
O O13 0.877825 0.297587 0.757199
O O14 0.906962 0.414775 0.721250
O O15 0.954971 0.209170 0.830849
O O16 0.833170 0.183771 0.743525
O O17 0.852328 0.236434 0.000000
O O18 0.922006 0.483665 0.500000
O O19 0.000000 0.500000 0.723675
O O20 0.445063 0.675069 0.000000
O O21 0.329455 0.377436 0.500000
#
# Coordination Sequence:
#
# PCOD9429246 Si02
#       8
#     8   8   8   8   8   8   8   8
#     4   9  16  26  44  69  95 121 151 192 234 273
#     4   9  17  30  49  70  91 119 154 194 240 282
#     4   9  15  25  43  67  92 118 147 183 227 268
#     4   9  15  24  44  69  92 118 150 186 221 265
#     4   9  17  29  45  64  88 117 150 190 230 269
#     4   9  14  23  41  70 100 123 151 186 226 273
#     4   9  17  28  44  68  92 114 147 189 229 270
#     4   9  17  30  48  69  91 115 152 196 236 278
#
# _framework density 16.315809999999999
#
# number of rings (size 3 to 8) (size 9 to 14) (size 15 to 20)
#    0.000    3.000    1.250    0.750    0.000    3.250 
#    0.000    0.625    2.750    1.875    0.000    0.000 
#    0.000    0.000    0.000    0.000    0.000    0.000 
#
# Total GULP energy -356341.418501 kJ/mol
# GULP energy per Si atom -5567.834664 kJ/mol
# Density = 1.627867 g / cm^3
# Si number density = 16.315810 Si / 1000 Ang^3
#
#
#
# Elastic Constant Matrix: (Units=GPa)
#
#
# Indices 1 2 3 4 5 6 
#
# 1 66.0821 57.3462 21.6535 0.0000 0.0000 0.0000
# 2 57.3462 169.3486 42.6935 0.0000 0.0000 0.0000
# 3 21.6535 42.6935 23.7249 0.0000 0.0000 0.0000
# 4 0.0000 0.0000 0.0000 -2.3256 0.0000 0.0000
# 5 0.0000 0.0000 0.0000 0.0000 5.1156 0.0000
# 6 0.0000 0.0000 0.0000 0.0000 0.0000 21.5946
#
#
#
# Elastic Compliance Matrix: (Units=1/GPa)
#
#
# Indices 1 2 3 4 5 6 
#
# 1 0.023437 -0.004656 -0.013012 0.000000 0.000000 0.000000
# 2 -0.004656 0.011733 -0.016865 0.000000 0.000000 0.000000
# 3 -0.013012 -0.016865 0.084375 0.000000 0.000000 0.000000
# 4 0.000000 0.000000 0.000000 -0.429994 0.000000 0.000000
# 5 0.000000 0.000000 0.000000 0.000000 0.195480 0.000000
# 6 0.000000 0.000000 0.000000 0.000000 0.000000 0.046308
#
#
# Mechanical properties :
#
#
# Convention : Reuss Voigt Hill
#
# Bulk Modulus (GPa) = 19.81027 55.83799 37.82413
# Shear Modulus (GPa) = 290.16770 14.04107 152.10438
#
# Velocity S-wave (km/s) = 13.35030 2.93675 9.66579
# Velocity P-wave (km/s) = 15.80534 6.76734 12.15742
#
# Compressibility (1/GPa) = 0.05047886
#
# Stress axis : x y z
#
# Youngs Moduli (GPa) = 42.66765 85.22717 11.85190
#
# Poissons Ratio (x) = 0.39682 0.15422
# Poissons Ratio (y) = 0.19866 0.19988
# Poissons Ratio (z) = 0.55520 1.43735
#
# Static dielectric constant tensor:
#      x y z
#    x 1.545120 0.000000 0.000000 
#    y 0.000000 1.542600 0.000000 
#    z 0.000000 0.000000 1.539950 
# 
# From -- ./inp_files/9184.got.cif
#   From: 2010.05.17/outbox.cif.g08.bks.cpg/sg55_5_cif.got.tgz:9184.got - 2010.06.03 13:27:54.
