data_PCOD9429267
_publ_section_title
;
Structure prediction by ZEFSAII (Michael W. Deem and Ramdas Pophale) SiO2 
 PCOD9429267
Probable space group: P B A M
;
_chemical_formula_sum "Si O2"
_cell_formula_units_Z 56
_cell_length_a 15.000000
_cell_length_b 21.000000
_cell_length_c 9.000000
_cell_angle_alpha 90.000000
_cell_angle_beta 90.000000
_cell_angle_gamma 90.000000
_cell_volume 2835.000000
_symmetry_space_group_name_H-M "P B A M"
_symmetry_group_IT_number 55
_symmetry_cell_setting 'orthorhombic'
loop_
_space_group_symop_operation_xyz
x,y,z
-x,-y,z
1/2+x,1/2-y,-z
1/2-x,1/2+y,-z
-x,-y,-z
x,y,-z
1/2-x,1/2+y,z
1/2+x,1/2-y,z
loop_
_atom_site_type_symbol
_atom_site_label
_atom_site_fract_x
_atom_site_fract_y
_atom_site_fract_z
Si Si1 0.210455 0.252672 0.677545
Si Si2 0.285176 0.111477 0.677247
Si Si3 0.780116 0.015500 0.674679
Si Si4 0.488224 0.732090 0.677860
Si Si5 0.456684 0.145648 0.828296
Si Si6 0.925936 0.555653 0.666584
Si Si7 0.857282 0.144630 0.682909
O O1 0.202647 0.264273 0.500000
O O2 0.250766 0.182594 0.696764
O O3 0.277843 0.307298 0.731989
O O4 0.110205 0.246665 0.738945
O O5 0.305420 0.102288 0.500000
O O6 0.372935 0.104216 0.775650
O O7 0.214761 0.057459 0.724734
O O8 0.802691 0.014191 0.500000
O O9 0.674976 0.032914 0.685948
O O10 0.835902 0.073837 0.738454
O O11 0.481209 0.727462 0.500000
O O12 0.545528 0.792896 0.724175
O O13 0.546472 0.671852 0.728208
O O14 0.544881 0.106460 0.787910
O O15 0.451703 0.162122 0.000000
O O16 0.931512 0.584830 0.500000
O O17 0.000000 0.500000 0.670135
O O18 0.855413 0.145086 0.500000
#
# Coordination Sequence:
#
# PCOD9429267 Si02
#       7
#     8   8   8   8   8   8   8
#     4   9  17  30  54  80 100 133 181 222 258 303
#     4  10  18  34  55  76 102 137 178 216 254 312
#     4   9  17  29  50  78 106 135 171 213 261 311
#     4  10  19  34  56  77 101 137 180 218 261 313
#     4  12  23  33  49  76 109 140 171 216 270 314
#     4  10  18  31  52  75  99 136 177 208 251 316
#     4   9  16  28  49  78 106 131 168 219 261 304
#
# _framework density 19.753086
#
# number of rings (size 3 to 8) (size 9 to 14) (size 15 to 20)
#    0.000    2.143    2.857    2.143    0.000    2.571 
#    0.000    1.429    0.000    5.143    0.000    0.000 
#    0.000    2.286    0.000    0.000    0.000    0.000 
#
# Total GULP energy -311927.810568 kJ/mol
# GULP energy per Si atom -5570.139474 kJ/mol
# Density = 1.970813 g / cm^3
# Si number density = 19.753086 Si / 1000 Ang^3
#
#
#
# Elastic Constant Matrix: (Units=GPa)
#
#
# Indices 1 2 3 4 5 6 
#
# 1 40.4039 -13.4518 4.0768 0.0000 0.0000 0.0000
# 2 -13.4518 1.1131 -27.4199 0.0000 0.0000 0.0000
# 3 4.0768 -27.4199 -23.2160 0.0000 0.0000 0.0000
# 4 0.0000 0.0000 0.0000 -3.3617 0.0000 0.0000
# 5 0.0000 0.0000 0.0000 0.0000 1.4270 0.0000
# 6 0.0000 0.0000 0.0000 0.0000 0.0000 17.9794
#
#
#
# Elastic Compliance Matrix: (Units=1/GPa)
#
#
# Indices 1 2 3 4 5 6 
#
# 1 0.032094 0.017501 -0.015034 0.000000 0.000000 0.000000
# 2 0.017501 0.039396 -0.043456 0.000000 0.000000 0.000000
# 3 -0.015034 -0.043456 0.005612 0.000000 0.000000 0.000000
# 4 0.000000 0.000000 0.000000 -0.297473 0.000000 0.000000
# 5 0.000000 0.000000 0.000000 0.000000 0.700761 0.000000
# 6 0.000000 0.000000 0.000000 0.000000 0.000000 0.055619
#
#
# Mechanical properties :
#
#
# Convention : Reuss Voigt Hill
#
# Bulk Modulus (GPa) = -205.00098 -6.14320 -105.57209
# Shear Modulus (GPa) = 8.11212 6.88202 7.49707
#
# Velocity S-wave (km/s) = 2.02871 1.86858 1.95029
# Velocity P-wave (km/s) = 9.92570 1.24044 6.96350
#
# Compressibility (1/GPa) = -0.00487803
#
# Stress axis : x y z
#
# Youngs Moduli (GPa) = 31.15872 25.38335 178.20412
#
# Poissons Ratio (x) = -0.44423 2.67917
# Poissons Ratio (y) = -0.54531 7.74410
# Poissons Ratio (z) = 0.46845 1.10307
#
# Static dielectric constant tensor:
#      x y z
#    x 1.746820 0.000000 0.000000 
#    y 0.000000 1.772200 0.000000 
#    z 0.000000 0.000000 1.651590 
# 
# From -- ./inp_files/6098.got.cif
#   From: 2010.05.17/outbox.ucp.g08.bks.cvg/sg55_4_cif.got.tgz:6098.got - 2010.06.11 16:36:00.
