data_PCOD9429552
_publ_section_title
;
Structure prediction by ZEFSAII (Michael W. Deem and Ramdas Pophale) SiO2 
 PCOD9429552
Probable space group: P C C N
;
_chemical_formula_sum "Si O2"
_cell_formula_units_Z 32
_cell_length_a 9.656173
_cell_length_b 23.322307
_cell_length_c 5.307292
_cell_angle_alpha 90.000000
_cell_angle_beta 90.000000
_cell_angle_gamma 90.000000
_cell_volume 1195.224614
_symmetry_space_group_name_H-M "P C C N"
_symmetry_group_IT_number 56
_symmetry_cell_setting 'orthorhombic'
loop_
_space_group_symop_operation_xyz
x,y,z
1/2-x,1/2-y,z
1/2+x,-y,1/2-z
-x,1/2+y,1/2-z
-x,-y,-z
1/2+x,1/2+y,-z
1/2-x,y,1/2+z
x,1/2-y,1/2+z
loop_
_atom_site_type_symbol
_atom_site_label
_atom_site_fract_x
_atom_site_fract_y
_atom_site_fract_z
Si Si1 0.298214 0.375804 0.177763
Si Si2 0.163127 0.906450 0.498819
Si Si3 0.560083 0.552037 0.157835
Si Si4 0.092740 0.725986 0.935783
O O1 0.290870 0.347152 0.451412
O O2 0.216899 0.436196 0.245616
O O3 0.440077 0.393448 0.040495
O O4 0.230189 0.918010 0.767956
O O5 0.116178 0.840560 0.483578
O O6 0.030695 0.941014 0.406510
O O7 0.500000 0.500000 0.000000
O O8 0.250000 0.750000 0.907367
O O9 0.024722 0.742048 0.671204
#
# Coordination Sequence:
#
# PCOD9429552 Si02
#       4
#     8   8   8   8
#     4   8  20  40  54  72 103 150 193 226 274 326
#     4  12  24  33  58  94 118 151 189 235 300 363
#     4  10  24  39  60  78 118 153 202 240 286 331
#     4  10  16  34  52  79 126 142 172 228 303 361
#
# _framework density 26.773208
#
# number of rings (size 3 to 8) (size 9 to 14) (size 15 to 20)
#    1.500    0.500    5.000    0.000    7.000    1.000 
#    0.000    0.000    0.000    0.000    0.000    5.250 
#    0.000    0.000    0.000    0.000    0.000    0.000 
#
# Total GULP energy -178524.701773 kJ/mol
# GULP energy per Si atom -5578.896930 kJ/mol
# Density = 2.671227 g / cm^3
# Si number density = 26.773208 Si / 1000 Ang^3
#
#
#
# Elastic Constant Matrix: (Units=GPa)
#
#
# Indices 1 2 3 4 5 6 
#
# 1 72.4731 3.7895 16.2985 0.0000 0.0000 0.0000
# 2 3.7895 71.1093 -3.8092 0.0000 0.0000 0.0000
# 3 16.2985 -3.8092 176.0103 0.0000 0.0000 0.0000
# 4 0.0000 0.0000 0.0000 30.1719 0.0000 0.0000
# 5 0.0000 0.0000 0.0000 0.0000 33.0264 0.0000
# 6 0.0000 0.0000 0.0000 0.0000 0.0000 19.8062
#
#
#
# Elastic Compliance Matrix: (Units=1/GPa)
#
#
# Indices 1 2 3 4 5 6 
#
# 1 0.014140 -0.000825 -0.001327 0.000000 0.000000 0.000000
# 2 -0.000825 0.014127 0.000382 0.000000 0.000000 0.000000
# 3 -0.001327 0.000382 0.005813 0.000000 0.000000 0.000000
# 4 0.000000 0.000000 0.000000 0.033143 0.000000 0.000000
# 5 0.000000 0.000000 0.000000 0.000000 0.030279 0.000000
# 6 0.000000 0.000000 0.000000 0.000000 0.000000 0.050489
#
#
# Mechanical properties :
#
#
# Convention : Reuss Voigt Hill
#
# Bulk Modulus (GPa) = 32.74363 39.12783 35.93573
# Shear Modulus (GPa) = 30.91939 36.82182 33.87060
#
# Velocity S-wave (km/s) = 3.40201 3.71256 3.56067
# Velocity P-wave (km/s) = 5.26195 5.74663 5.50962
#
# Compressibility (1/GPa) = 0.03054029
#
# Stress axis : x y z
#
# Youngs Moduli (GPa) = 70.72233 70.78511 172.03849
#
# Poissons Ratio (x) = 0.05837 0.22833
# Poissons Ratio (y) = 0.05832 -0.06574
# Poissons Ratio (z) = 0.09386 -0.02705
#
# Static dielectric constant tensor:
#      x y z
#    x 2.203430 0.000000 0.000000 
#    y 0.000000 2.086830 0.000000 
#    z 0.000000 0.000000 2.415440 
# 
# From -- ./inp_files/253.got.cif
#   From: 2010.05.17/outbox.cif.g08.bks.cpg/sg56_1_cif.got.tgz:253.got - 2010.06.03 13:42:01.
