data_PCOD9429174
_publ_section_title
;
Structure prediction by ZEFSAII (Michael W. Deem and Ramdas Pophale) SiO2 
 PCOD9429174
Probable space group: P B A M
;
_chemical_formula_sum "Si O2"
_cell_formula_units_Z 32
_cell_length_a 9.374888
_cell_length_b 10.724778
_cell_length_c 11.898702
_cell_angle_alpha 90.000000
_cell_angle_beta 90.000000
_cell_angle_gamma 90.000000
_cell_volume 1196.338246
_symmetry_space_group_name_H-M "P B A M"
_symmetry_group_IT_number 55
_symmetry_cell_setting 'orthorhombic'
loop_
_space_group_symop_operation_xyz
x,y,z
-x,-y,z
1/2+x,1/2-y,-z
1/2-x,1/2+y,-z
-x,-y,-z
x,y,-z
1/2-x,1/2+y,z
1/2+x,1/2-y,z
loop_
_atom_site_type_symbol
_atom_site_label
_atom_site_fract_x
_atom_site_fract_y
_atom_site_fract_z
Si Si1 0.863121 0.749268 0.876884
Si Si2 0.733539 0.983450 0.619959
Si Si3 0.005328 0.293017 0.369480
Si Si4 0.838910 0.013899 0.152819
O O1 0.952935 0.754877 0.758107
O O2 0.759982 0.629399 0.877503
O O3 0.774398 0.878712 0.876498
O O4 0.939898 0.744618 0.000000
O O5 0.801640 0.983617 0.500000
O O6 0.653546 0.851701 0.637844
O O7 0.842833 0.018248 0.713638
O O8 0.613176 0.089675 0.622769
O O9 0.012638 0.238580 0.500000
O O10 0.000000 0.000000 0.112200
#
# Coordination Sequence:
#
# PCOD9429174 Si02
#       4
#     8   8   8   8
#     4  11  25  45  71 101 141 190 237 291 355 419
#     4   8  16  36  66  99 136 180 231 286 347 415
#     4   8  16  36  67 100 136 178 229 290 347 410
#     4  11  26  46  69 103 145 186 236 295 352 421
#
# _framework density 26.748286
#
# number of rings (size 3 to 8) (size 9 to 14) (size 15 to 20)
#    0.000    2.500    0.000    2.250    3.500    3.500 
#    0.000   10.000    0.000    0.000    0.000    0.000 
#    0.000    0.000    0.000    0.000    0.000    0.000 
#
# Total GULP energy -178367.566316 kJ/mol
# GULP energy per Si atom -5573.986447 kJ/mol
# Density = 2.668741 g / cm^3
# Si number density = 26.748286 Si / 1000 Ang^3
#
#
#
# Elastic Constant Matrix: (Units=GPa)
#
#
# Indices 1 2 3 4 5 6 
#
# 1 63.0120 26.3678 71.2331 0.0000 0.0000 0.0000
# 2 26.3678 144.9582 43.7774 0.0000 0.0000 0.0000
# 3 71.2331 43.7774 290.3957 0.0000 0.0000 0.0000
# 4 0.0000 0.0000 0.0000 -0.0071 0.0000 0.0000
# 5 0.0000 0.0000 0.0000 0.0000 -2.7704 0.0000
# 6 0.0000 0.0000 0.0000 0.0000 0.0000 42.7677
#
#
#
# Elastic Compliance Matrix: (Units=1/GPa)
#
#
# Indices 1 2 3 4 5 6 
#
# 1 0.022845 -0.002581 -0.005215 0.000000 0.000000 0.000000
# 2 -0.002581 0.007519 -0.000500 0.000000 0.000000 0.000000
# 3 -0.005215 -0.000500 0.004798 0.000000 0.000000 0.000000
# 4 0.000000 0.000000 0.000000********** 0.000000 0.000000
# 5 0.000000 0.000000 0.000000 0.000000 -0.360962 0.000000
# 6 0.000000 0.000000 0.000000 0.000000 0.000000 0.023382
#
#
# Mechanical properties :
#
#
# Convention : Reuss Voigt Hill
#
# Bulk Modulus (GPa) = 53.84878 86.79139 70.32008
# Shear Modulus (GPa) = -0.03531 31.79721 15.88095
#
# Velocity S-wave (km/s) = -0.11502 3.45158 2.43928
# Velocity P-wave (km/s) = 4.48974 6.95718 5.85492
#
# Compressibility (1/GPa) = 0.01857052
#
# Stress axis : x y z
#
# Youngs Moduli (GPa) = 43.77319 132.99453 208.41173
#
# Poissons Ratio (x) = 0.34321 1.08682
# Poissons Ratio (y) = 0.11296 0.10431
# Poissons Ratio (z) = 0.22827 0.06656
#
# Static dielectric constant tensor:
#      x y z
#    x 2.054530 0.000000 0.000000 
#    y 0.000000 2.158730 0.000000 
#    z 0.000000 0.000000 2.151330 
# 
# From -- ./inp_files/12772.got.cif
#   From: 2010.05.17/outbox.cif.g08.bks.cpg/sg55_7_cif.got.tgz:12772.got - 2010.06.03 13:27:54.
