data_PCOD9429300
_publ_section_title
;
Structure prediction by ZEFSAII (Michael W. Deem and Ramdas Pophale) SiO2 
 PCOD9429300
Probable space group: P B A M
;
_chemical_formula_sum "Si O2"
_cell_formula_units_Z 64
_cell_length_a 15.000000
_cell_length_b 24.000000
_cell_length_c 9.000000
_cell_angle_alpha 90.000000
_cell_angle_beta 90.000000
_cell_angle_gamma 90.000000
_cell_volume 3240.000000
_symmetry_space_group_name_H-M "P B A M"
_symmetry_group_IT_number 55
_symmetry_cell_setting 'orthorhombic'
loop_
_space_group_symop_operation_xyz
x,y,z
-x,-y,z
1/2+x,1/2-y,-z
1/2-x,1/2+y,-z
-x,-y,-z
x,y,-z
1/2-x,1/2+y,z
1/2+x,1/2-y,z
loop_
_atom_site_type_symbol
_atom_site_label
_atom_site_fract_x
_atom_site_fract_y
_atom_site_fract_z
Si Si1 0.878318 0.073064 0.676029
Si Si2 0.277580 0.839006 0.677253
Si Si3 0.951399 0.874235 0.173555
Si Si4 0.852788 0.386049 0.178860
Si Si5 0.797685 0.964456 0.824845
Si Si6 0.488107 0.267883 0.328856
Si Si7 0.805158 0.262463 0.177069
Si Si8 0.465048 0.861463 0.671278
O O1 0.896141 0.069968 0.500000
O O2 0.807813 0.122523 0.703712
O O3 0.967364 0.088996 0.763551
O O4 0.836072 0.015784 0.733558
O O5 0.286095 0.830749 0.500000
O O6 0.266234 0.779097 0.752651
O O7 0.365661 0.871986 0.728091
O O8 0.864055 0.911808 0.186952
O O9 0.951062 0.816758 0.264421
O O10 0.965264 0.861514 0.000000
O O11 0.796671 0.439635 0.227248
O O12 0.808067 0.327036 0.227701
O O13 0.953320 0.385180 0.236379
O O14 0.851613 0.385241 0.000000
O O15 0.793213 0.979767 0.000000
O O16 0.463690 0.281046 0.500000
O O17 0.399636 0.263040 0.229420
O O18 0.528069 0.206027 0.326380
O O19 0.797158 0.261694 0.000000
O O20 0.474150 0.879449 0.500000
#
# Coordination Sequence:
#
# PCOD9429300 Si02
#       8
#     8   8   8   8   8   8   8   8
#     4  11  23  39  59  83 114 149 193 240 282 338
#     4  10  21  37  56  82 117 151 186 234 287 334
#     4  11  22  36  57  83 114 152 188 229 285 344
#     4   9  20  39  58  82 114 147 188 240 286 335
#     4  10  23  41  59  80 113 152 191 239 292 340
#     4  10  19  33  53  81 116 149 184 227 275 335
#     4  10  19  32  55  83 112 148 187 227 281 340
#     4   9  20  37  57  82 115 153 188 229 285 341
#
# _framework density 19.753086
#
# number of rings (size 3 to 8) (size 9 to 14) (size 15 to 20)
#    0.000    2.000    1.250    1.875    1.750    5.000 
#    0.000    0.625    0.000    3.750    0.000    0.000 
#    0.000    0.000    0.000    0.000    0.000    0.000 
#
# Total GULP energy -357328.129684 kJ/mol
# GULP energy per Si atom -5583.252026 kJ/mol
# Density = 1.970813 g / cm^3
# Si number density = 19.753086 Si / 1000 Ang^3
#
#
#
# Elastic Constant Matrix: (Units=GPa)
#
#
# Indices 1 2 3 4 5 6 
#
# 1 49.1268 -24.6782 3.9860 0.0000 0.0000 0.0000
# 2 -24.6782 6.1849 -3.6181 0.0000 0.0000 0.0000
# 3 3.9860 -3.6181 17.4988 0.0000 0.0000 0.0000
# 4 0.0000 0.0000 0.0000 18.5514 0.0000 0.0000
# 5 0.0000 0.0000 0.0000 0.0000 20.4277 0.0000
# 6 0.0000 0.0000 0.0000 0.0000 0.0000 0.9217
#
#
#
# Elastic Compliance Matrix: (Units=1/GPa)
#
#
# Indices 1 2 3 4 5 6 
#
# 1 -0.017717 -0.077736 -0.012037 0.000000 0.000000 0.000000
# 2 -0.077736 -0.157135 -0.014782 0.000000 0.000000 0.000000
# 3 -0.012037 -0.014782 0.056832 0.000000 0.000000 0.000000
# 4 0.000000 0.000000 0.000000 0.053904 0.000000 0.000000
# 5 0.000000 0.000000 0.000000 0.000000 0.048953 0.000000
# 6 0.000000 0.000000 0.000000 0.000000 0.000000 1.084971
#
#
# Mechanical properties :
#
#
# Convention : Reuss Voigt Hill
#
# Bulk Modulus (GPa) = -3.05689 2.68776 -0.18456
# Shear Modulus (GPa) = 4.27396 14.45488 9.36442
#
# Velocity S-wave (km/s) = 1.47255 2.70807 2.17969
# Velocity P-wave (km/s) = 1.15770 3.33794 2.49821
#
# Compressibility (1/GPa) = -0.32713017
#
# Stress axis : x y z
#
# Youngs Moduli (GPa) = -56.44169 -6.36395 17.59567
#
# Poissons Ratio (x) = -0.49471 0.21180
# Poissons Ratio (y) = -4.38753 0.26011
# Poissons Ratio (z) = -0.67938 -0.09407
#
# Static dielectric constant tensor:
#      x y z
#    x 1.730530 0.000000 0.000000 
#    y 0.000000 1.679640 0.000000 
#    z 0.000000 0.000000 1.662750 
# 
# From -- ./inp_files/6559.got.cif
#   From: 2010.05.17/outbox.ucp.g08.bks.cvg/sg55_4_cif.got.tgz:6559.got - 2010.06.11 16:36:00.
