data_PCOD9429430
_publ_section_title
;
Structure prediction by ZEFSAII (Michael W. Deem and Ramdas Pophale) SiO2 
 PCOD9429430
Probable space group: P B A M
;
_chemical_formula_sum "Si O2"
_cell_formula_units_Z 56
_cell_length_a 9.000000
_cell_length_b 21.000000
_cell_length_c 15.000000
_cell_angle_alpha 90.000000
_cell_angle_beta 90.000000
_cell_angle_gamma 90.000000
_cell_volume 2835.000000
_symmetry_space_group_name_H-M "P B A M"
_symmetry_group_IT_number 55
_symmetry_cell_setting 'orthorhombic'
loop_
_space_group_symop_operation_xyz
x,y,z
-x,-y,z
1/2+x,1/2-y,-z
1/2-x,1/2+y,-z
-x,-y,-z
x,y,-z
1/2-x,1/2+y,z
1/2+x,1/2-y,z
loop_
_atom_site_type_symbol
_atom_site_label
_atom_site_fract_x
_atom_site_fract_y
_atom_site_fract_z
Si Si1 0.005564 0.321945 0.235897
Si Si2 0.986812 0.798287 0.895489
Si Si3 0.036417 0.840859 0.398658
Si Si4 0.307391 0.122385 0.902317
Si Si5 0.823316 0.516258 0.900558
Si Si6 0.314993 0.383500 0.773011
Si Si7 0.798333 0.290530 0.399501
O O1 0.999156 0.260266 0.172279
O O2 0.927785 0.373886 0.173963
O O3 0.907038 0.317064 0.324036
O O4 0.174719 0.339393 0.251982
O O5 0.094404 0.850581 0.852941
O O6 0.819805 0.825461 0.890430
O O7 0.019182 0.784717 0.000000
O O8 0.031603 0.868090 0.500000
O O9 0.082732 0.885746 0.315848
O O10 0.157489 0.783885 0.400860
O O11 0.874147 0.808196 0.381137
O O12 0.241346 0.051943 0.901320
O O13 0.376797 0.131819 0.000000
O O14 0.757910 0.554856 0.818073
O O15 0.000000 0.500000 0.894674
O O16 0.801806 0.545850 0.000000
O O17 0.830769 0.314456 0.500000
#
# Coordination Sequence:
#
# PCOD9429430 Si02
#       7
#     8   8   8   8   8   8   8
#     4  12  22  35  59  90 125 157 193 243 305 365
#     4  11  24  37  53  87 126 158 192 240 306 364
#     4  10  21  38  59  87 122 158 199 246 300 363
#     4  10  22  40  60  83 120 164 204 246 293 352
#     4  10  21  41  63  84 114 160 216 257 290 346
#     4  12  23  36  61  89 118 157 206 251 302 352
#     4  10  21  38  60  88 125 163 198 240 297 368
#
# _framework density 19.753086
#
# number of rings (size 3 to 8) (size 9 to 14) (size 15 to 20)
#    0.000    1.286    2.857    3.429    0.000    5.143 
#    0.000    2.143    0.000    1.286    0.000    3.000 
#    0.000    0.000    0.000    0.000    0.000    0.000 
#
# Total GULP energy -312358.923578 kJ/mol
# GULP energy per Si atom -5577.837921 kJ/mol
# Density = 1.970813 g / cm^3
# Si number density = 19.753086 Si / 1000 Ang^3
#
#
#
# Elastic Constant Matrix: (Units=GPa)
#
#
# Indices 1 2 3 4 5 6 
#
# 1 65.0407 0.9225 45.2494 0.0000 0.0000 0.0000
# 2 0.9225 36.8707 24.4414 0.0000 0.0000 0.0000
# 3 45.2494 24.4414 144.0164 0.0000 0.0000 0.0000
# 4 0.0000 0.0000 0.0000 13.1832 0.0000 0.0000
# 5 0.0000 0.0000 0.0000 0.0000 -21.4045 0.0000
# 6 0.0000 0.0000 0.0000 0.0000 0.0000 7.1024
#
#
#
# Elastic Compliance Matrix: (Units=1/GPa)
#
#
# Indices 1 2 3 4 5 6 
#
# 1 0.020231 0.004178 -0.007066 0.000000 0.000000 0.000000
# 2 0.004178 0.031423 -0.006645 0.000000 0.000000 0.000000
# 3 -0.007066 -0.006645 0.010291 0.000000 0.000000 0.000000
# 4 0.000000 0.000000 0.000000 0.075854 0.000000 0.000000
# 5 0.000000 0.000000 0.000000 0.000000 -0.046719 0.000000
# 6 0.000000 0.000000 0.000000 0.000000 0.000000 0.140797
#
#
# Mechanical properties :
#
#
# Convention : Reuss Voigt Hill
#
# Bulk Modulus (GPa) = 23.32171 43.01717 33.16944
# Shear Modulus (GPa) = 18.85107 11.46384 15.15746
#
# Velocity S-wave (km/s) = 3.09258 2.41167 2.77311
# Velocity P-wave (km/s) = 4.95826 5.43871 5.20403
#
# Compressibility (1/GPa) = 0.04287851
#
# Stress axis : x y z
#
# Youngs Moduli (GPa) = 49.42821 31.82433 97.16801
#
# Poissons Ratio (x) = -0.13295 0.68655
# Poissons Ratio (y) = -0.20649 0.64572
# Poissons Ratio (z) = 0.34924 0.21149
#
# Static dielectric constant tensor:
#      x y z
#    x 1.698880 0.000000 0.000000 
#    y 0.000000 1.765260 0.000000 
#    z 0.000000 0.000000 1.713480 
# 
# From -- ./inp_files/17639.got.cif
#   From: 2010.05.17/outbox.ucp.g08.bks.cvg/sg55_9_cif.got.tgz:17639.got - 2010.06.11 16:36:00.
