data_PCOD9429988
_publ_section_title
;
Structure prediction by ZEFSAII (Michael W. Deem and Ramdas Pophale) SiO2 
 PCOD9429988
Probable space group: P C C N
;
_chemical_formula_sum "Si O2"
_cell_formula_units_Z 40
_cell_length_a 21.631797
_cell_length_b 21.327490
_cell_length_c 5.010573
_cell_angle_alpha 90.000000
_cell_angle_beta 90.000000
_cell_angle_gamma 90.000000
_cell_volume 2311.637545
_symmetry_space_group_name_H-M "P C C N"
_symmetry_group_IT_number 56
_symmetry_cell_setting 'orthorhombic'
loop_
_space_group_symop_operation_xyz
x,y,z
1/2-x,1/2-y,z
1/2+x,-y,1/2-z
-x,1/2+y,1/2-z
-x,-y,-z
1/2+x,1/2+y,-z
1/2-x,y,1/2+z
x,1/2-y,1/2+z
loop_
_atom_site_type_symbol
_atom_site_label
_atom_site_fract_x
_atom_site_fract_y
_atom_site_fract_z
Si Si1 0.422696 0.466962 0.234943
Si Si2 0.334938 0.211063 0.477421
Si Si3 0.493281 0.418989 0.719544
Si Si4 0.015908 0.288439 0.467795
Si Si5 0.711212 0.926730 0.405251
O O1 0.452278 0.418811 0.450587
O O2 0.448571 0.534907 0.321454
O O3 0.349861 0.460634 0.202408
O O4 0.451001 0.450977 0.946698
O O5 0.319000 0.267321 0.679629
O O6 0.409447 0.203015 0.472491
O O7 0.305669 0.147142 0.581783
O O8 0.510155 0.351812 0.840153
O O9 0.999417 0.267947 0.765541
O O10 0.733030 0.941061 0.704000
#
# Coordination Sequence:
#
# PCOD9429988 Si02
#       5
#     8   8   8   8   8
#     4  10  21  35  53  74  96 132 173 208 262 299
#     4  10  21  33  47  65  96 135 173 209 238 279
#     4  10  19  35  56  73  99 128 167 214 254 320
#     4  10  19  30  51  76 100 127 160 208 255 297
#     4  12  24  35  50  68  99 133 175 216 240 288
#
# _framework density 17.303749
#
# number of rings (size 3 to 8) (size 9 to 14) (size 15 to 20)
#    0.000    1.600    2.000    3.600    5.600    2.400 
#    0.000    0.000    0.000    0.000    0.000    0.000 
#    0.000    4.800    0.000    0.000    0.000    0.000 
#
# Total GULP energy -223333.825028 kJ/mol
# GULP energy per Si atom -5583.345626 kJ/mol
# Density = 1.726437 g / cm^3
# Si number density = 17.303749 Si / 1000 Ang^3
#
#
#
# Elastic Constant Matrix: (Units=GPa)
#
#
# Indices 1 2 3 4 5 6 
#
# 1 48.3379 26.0228 12.7797 0.0000 0.0000 0.0000
# 2 26.0228 55.7796 0.0127 0.0000 0.0000 0.0000
# 3 12.7797 0.0127 82.8500 0.0000 0.0000 0.0000
# 4 0.0000 0.0000 0.0000 21.4232 0.0000 0.0000
# 5 0.0000 0.0000 0.0000 0.0000 19.0652 0.0000
# 6 0.0000 0.0000 0.0000 0.0000 0.0000 19.3010
#
#
#
# Elastic Compliance Matrix: (Units=1/GPa)
#
#
# Indices 1 2 3 4 5 6 
#
# 1 0.029216 -0.013629 -0.004504 0.000000 0.000000 0.000000
# 2 -0.013629 0.024286 0.002099 0.000000 0.000000 0.000000
# 3 -0.004504 0.002099 0.012764 0.000000 0.000000 0.000000
# 4 0.000000 0.000000 0.000000 0.046678 0.000000 0.000000
# 5 0.000000 0.000000 0.000000 0.000000 0.052452 0.000000
# 6 0.000000 0.000000 0.000000 0.000000 0.000000 0.051811
#
#
# Mechanical properties :
#
#
# Convention : Reuss Voigt Hill
#
# Bulk Modulus (GPa) = 29.24315 29.39976 29.32146
# Shear Modulus (GPa) = 19.18096 21.83470 20.50783
#
# Velocity S-wave (km/s) = 3.33301 3.55610 3.44636
# Velocity P-wave (km/s) = 5.63458 5.82138 5.72874
#
# Compressibility (1/GPa) = 0.03419604
#
# Stress axis : x y z
#
# Youngs Moduli (GPa) = 34.22803 41.17671 78.34232
#
# Poissons Ratio (x) = 0.56120 0.35289
# Poissons Ratio (y) = 0.46649 -0.16441
# Poissons Ratio (z) = 0.15418 -0.08641
#
# Static dielectric constant tensor:
#      x y z
#    x 1.591530 0.000000 0.000000 
#    y 0.000000 1.621170 0.000000 
#    z 0.000000 0.000000 1.595480 
# 
# From -- ./inp_files/662.got.cif
#   From: 2010.05.17/outbox.cif.g08.bks.cpg/sg56_1_cif.got.tgz:662.got - 2010.06.03 13:42:01.
