data_PCOD9429102
_publ_section_title
;
Structure prediction by ZEFSAII (Michael W. Deem and Ramdas Pophale) SiO2 
 PCOD9429102
Probable space group: P B A M
;
_chemical_formula_sum "Si O2"
_cell_formula_units_Z 40
_cell_length_a 7.281645
_cell_length_b 11.581790
_cell_length_c 18.435692
_cell_angle_alpha 90.000000
_cell_angle_beta 90.000000
_cell_angle_gamma 90.000000
_cell_volume 1554.764558
_symmetry_space_group_name_H-M "P B A M"
_symmetry_group_IT_number 55
_symmetry_cell_setting 'orthorhombic'
loop_
_space_group_symop_operation_xyz
x,y,z
-x,-y,z
1/2+x,1/2-y,-z
1/2-x,1/2+y,-z
-x,-y,-z
x,y,-z
1/2-x,1/2+y,z
1/2+x,1/2-y,z
loop_
_atom_site_type_symbol
_atom_site_label
_atom_site_fract_x
_atom_site_fract_y
_atom_site_fract_z
Si Si1 0.787428 0.962541 0.421020
Si Si2 0.357634 0.905768 0.306519
Si Si3 0.397345 0.877550 0.082963
Si Si4 0.018805 0.874021 0.874364
Si Si5 0.433166 0.648051 0.280833
O O1 0.732150 0.916619 0.500000
O O2 0.801144 0.883463 0.348624
O O3 0.661476 0.068420 0.393350
O O4 0.000000 0.000000 0.428105
O O5 0.442306 0.784719 0.286087
O O6 0.138752 0.904189 0.289121
O O7 0.500000 0.000000 0.276096
O O8 0.491059 0.751268 0.089035
O O9 0.235388 0.872478 0.140867
O O10 0.500000 0.000000 0.092386
O O11 0.325333 0.881868 0.000000
O O12 0.890483 0.879308 0.803130
O O13 0.000000 0.000000 0.912247
#
# Coordination Sequence:
#
# PCOD9429102 Si02
#       5
#     8   8   8   8   8
#     4   9  20  41  66  92 127 171 221 278 339 404
#     4  11  23  40  63  92 131 176 226 283 345 412
#     4  11  26  47  71 103 142 185 239 301 361 426
#     4  12  25  42  70 104 142 189 237 288 357 433
#     4  11  24  41  65 100 137 177 229 288 347 417
#
# _framework density 25.727367000000001
#
# number of rings (size 3 to 8) (size 9 to 14) (size 15 to 20)
#    0.000    1.200    0.000    6.000    0.000    9.200 
#    0.000    4.000    0.000    0.000    0.000    0.000 
#    0.000    0.000    0.000    0.000    0.000    0.000 
#
# Total GULP energy -222891.370969 kJ/mol
# GULP energy per Si atom -5572.284274 kJ/mol
# Density = 2.566881 g / cm^3
# Si number density = 25.727367 Si / 1000 Ang^3
#
#
#
# Elastic Constant Matrix: (Units=GPa)
#
#
# Indices 1 2 3 4 5 6 
#
# 1 68.9457 28.1461 21.2695 0.0000 0.0000 0.0000
# 2 28.1461 208.5553 47.5620 0.0000 0.0000 0.0000
# 3 21.2695 47.5620 163.2809 0.0000 0.0000 0.0000
# 4 0.0000 0.0000 0.0000 20.0600 0.0000 0.0000
# 5 0.0000 0.0000 0.0000 0.0000 9.7003 0.0000
# 6 0.0000 0.0000 0.0000 0.0000 0.0000 48.8293
#
#
#
# Elastic Compliance Matrix: (Units=1/GPa)
#
#
# Indices 1 2 3 4 5 6 
#
# 1 0.015699 -0.001770 -0.001529 0.000000 0.000000 0.000000
# 2 -0.001770 0.005336 -0.001324 0.000000 0.000000 0.000000
# 3 -0.001529 -0.001324 0.006709 0.000000 0.000000 0.000000
# 4 0.000000 0.000000 0.000000 0.049850 0.000000 0.000000
# 5 0.000000 0.000000 0.000000 0.000000 0.103089 0.000000
# 6 0.000000 0.000000 0.000000 0.000000 0.000000 0.020480
#
#
# Mechanical properties :
#
#
# Convention : Reuss Voigt Hill
#
# Bulk Modulus (GPa) = 54.06135 70.52635 62.29385
# Shear Modulus (GPa) = 23.08676 38.63820 30.86248
#
# Velocity S-wave (km/s) = 2.99885 3.87955 3.46728
# Velocity P-wave (km/s) = 5.74888 6.89495 6.34783
#
# Compressibility (1/GPa) = 0.01849750
#
# Stress axis : x y z
#
# Youngs Moduli (GPa) = 63.70033 187.41992 149.04889
#
# Poissons Ratio (x) = 0.33170 0.22796
# Poissons Ratio (y) = 0.11274 0.19729
# Poissons Ratio (z) = 0.09742 0.24808
#
# Static dielectric constant tensor:
#      x y z
#    x 2.123960 0.000000 0.000000 
#    y 0.000000 2.183890 0.000000 
#    z 0.000000 0.000000 2.041370 
# 
# From -- ./inp_files/20609.got.cif
#   From: 2010.05.17/outbox.cif.g08.bks.cpg/sg55_11_cif.got.tgz:20609.got - 2010.06.03 13:27:54.
