data_PCOD9429489
_publ_section_title
;
Structure prediction by ZEFSAII (Michael W. Deem and Ramdas Pophale) SiO2 
 PCOD9429489
Probable space group: P C C N
;
_chemical_formula_sum "Si O2"
_cell_formula_units_Z 56
_cell_length_a 33.668448
_cell_length_b 13.830427
_cell_length_c 5.259149
_cell_angle_alpha 90.000000
_cell_angle_beta 90.000000
_cell_angle_gamma 90.000000
_cell_volume 2448.917537
_symmetry_space_group_name_H-M "P C C N"
_symmetry_group_IT_number 56
_symmetry_cell_setting 'orthorhombic'
loop_
_space_group_symop_operation_xyz
x,y,z
1/2-x,1/2-y,z
1/2+x,-y,1/2-z
-x,1/2+y,1/2-z
-x,-y,-z
1/2+x,1/2+y,-z
1/2-x,y,1/2+z
x,1/2-y,1/2+z
loop_
_atom_site_type_symbol
_atom_site_label
_atom_site_fract_x
_atom_site_fract_y
_atom_site_fract_z
Si Si1 0.061458 0.313398 0.678764
Si Si2 0.941854 0.138355 0.822030
Si Si3 0.144198 0.312141 0.802693
Si Si4 0.025530 0.637321 0.178844
Si Si5 0.854905 0.190672 0.676237
Si Si6 0.729634 0.885967 0.340570
Si Si7 0.229725 0.884623 0.163116
O O1 0.061725 0.273116 0.391233
O O2 0.102883 0.366760 0.740104
O O3 0.019719 0.362951 0.733202
O O4 0.967655 0.093714 0.596955
O O5 0.958202 0.250386 0.851381
O O6 0.896306 0.138876 0.738765
O O7 0.948476 0.092709 0.096360
O O8 0.143664 0.225700 0.591986
O O9 0.185053 0.365459 0.746592
O O10 0.855191 0.221416 0.381541
O O11 0.814529 0.136366 0.743544
O O12 0.740170 0.849750 0.622466
O O13 0.734605 0.000706 0.353583
O O14 0.260271 0.848640 0.379943
#
# Coordination Sequence:
#
# PCOD9429489 Si02
#       7
#     8   8   8   8   8   8   8
#     4  10  16  25  41  66 102 129 153 195 237 286
#     4  10  16  25  41  67  95 125 162 195 244 287
#     4  10  21  32  50  84 108 123 165 209 259 288
#     4  10  14  25  41  61  97 131 159 184 244 294
#     4  12  21  32  51  77 106 125 166 223 257 283
#     4  10  21  39  58  71  99 138 172 203 244 313
#     4  10  23  40  54  72  96 138 177 199 251 314
#
# _framework density 22.867246999999999
#
# number of rings (size 3 to 8) (size 9 to 14) (size 15 to 20)
#    0.000    1.714    5.714    1.714    0.000    3.429 
#    0.000    0.000    0.000    0.000    0.000    2.000 
#    0.000    0.000    0.000    0.000    0.000    0.000 
#
# Total GULP energy -312625.316594 kJ/mol
# GULP energy per Si atom -5582.594939 kJ/mol
# Density = 2.281520 g / cm^3
# Si number density = 22.867247 Si / 1000 Ang^3
#
#
#
# Elastic Constant Matrix: (Units=GPa)
#
#
# Indices 1 2 3 4 5 6 
#
# 1 84.7306 -12.2141 -0.7059 0.0000 0.0000 0.0000
# 2 -12.2141 35.5585 -3.3733 0.0000 0.0000 0.0000
# 3 -0.7059 -3.3733 102.2744 0.0000 0.0000 0.0000
# 4 0.0000 0.0000 0.0000 5.6254 0.0000 0.0000
# 5 0.0000 0.0000 0.0000 0.0000 40.3510 0.0000
# 6 0.0000 0.0000 0.0000 0.0000 0.0000 -11.9657
#
#
#
# Elastic Compliance Matrix: (Units=1/GPa)
#
#
# Indices 1 2 3 4 5 6 
#
# 1 0.012422 0.004288 0.000227 0.000000 0.000000 0.000000
# 2 0.004288 0.029691 0.001009 0.000000 0.000000 0.000000
# 3 0.000227 0.001009 0.009812 0.000000 0.000000 0.000000
# 4 0.000000 0.000000 0.000000 0.177764 0.000000 0.000000
# 5 0.000000 0.000000 0.000000 0.000000 0.024783 0.000000
# 6 0.000000 0.000000 0.000000 0.000000 0.000000 -0.083572
#
#
# Mechanical properties :
#
#
# Convention : Reuss Voigt Hill
#
# Bulk Modulus (GPa) = 15.87923 21.10854 18.49389
# Shear Modulus (GPa) = 27.64826 22.72592 25.18709
#
# Velocity S-wave (km/s) = 3.48095 3.15591 3.32241
# Velocity P-wave (km/s) = 4.80783 4.74665 4.77733
#
# Compressibility (1/GPa) = 0.06297533
#
# Stress axis : x y z
#
# Youngs Moduli (GPa) = 80.50101 33.67970 101.91123
#
# Poissons Ratio (x) = -0.14444 -0.02315
# Poissons Ratio (y) = -0.34523 -0.10282
# Poissons Ratio (z) = -0.01829 -0.03398
#
# Static dielectric constant tensor:
#      x y z
#    x 1.862560 0.000000 0.000000 
#    y 0.000000 1.873630 0.000000 
#    z 0.000000 0.000000 1.885940 
# 
# From -- ./inp_files/1346.got.cif
#   From: 2010.05.17/outbox.cif.g08.bks.cpg/sg56_1_cif.got.tgz:1346.got - 2010.06.03 13:42:01.
