data_PCOD9429475
_publ_section_title
;
Structure prediction by ZEFSAII (Michael W. Deem and Ramdas Pophale) SiO2 
 PCOD9429475
Probable space group: P B A M
;
_chemical_formula_sum "Si O2"
_cell_formula_units_Z 64
_cell_length_a 24.000000
_cell_length_b 15.000000
_cell_length_c 9.000000
_cell_angle_alpha 90.000000
_cell_angle_beta 90.000000
_cell_angle_gamma 90.000000
_cell_volume 3240.000000
_symmetry_space_group_name_H-M "P B A M"
_symmetry_group_IT_number 55
_symmetry_cell_setting 'orthorhombic'
loop_
_space_group_symop_operation_xyz
x,y,z
-x,-y,z
1/2+x,1/2-y,-z
1/2-x,1/2+y,-z
-x,-y,-z
x,y,-z
1/2-x,1/2+y,z
1/2+x,1/2-y,z
loop_
_atom_site_type_symbol
_atom_site_label
_atom_site_fract_x
_atom_site_fract_y
_atom_site_fract_z
Si Si1 0.324183 0.863147 0.676547
Si Si2 0.467896 0.626411 0.175221
Si Si3 0.585261 0.644934 0.676590
Si Si4 0.179514 0.551973 0.822549
Si Si5 0.283500 0.676212 0.821594
Si Si6 0.077288 0.645480 0.324608
Si Si7 0.951490 0.686680 0.675934
Si Si8 0.133140 0.034006 0.324031
O O1 0.312700 0.862441 0.500000
O O2 0.298336 0.772179 0.747558
O O3 0.391936 0.860386 0.695428
O O4 0.304894 0.956957 0.747840
O O5 0.531789 0.619820 0.225297
O O6 0.450708 0.726897 0.219704
O O7 0.428359 0.564712 0.274180
O O8 0.461076 0.609528 0.000000
O O9 0.571878 0.635783 0.500000
O O10 0.594236 0.750421 0.701842
O O11 0.633833 0.572651 0.707134
O O12 0.223336 0.631671 0.785688
O O13 0.118731 0.583238 0.766650
O O14 0.179925 0.540671 0.000000
O O15 0.326214 0.599999 0.764183
O O16 0.288061 0.685686 0.000000
O O17 0.084738 0.626756 0.500000
O O18 0.010648 0.637901 0.293032
O O19 0.954881 0.713337 0.500000
O O20 0.141435 0.047635 0.500000
#
# Coordination Sequence:
#
# PCOD9429475 Si02
#       8
#     8   8   8   8   8   8   8   8
#     4  11  23  42  71  98 122 160 208 257 309 369
#     4  11  20  30  51  85 124 164 204 250 305 370
#     4   9  20  36  55  82 121 164 204 254 308 361
#     4  11  26  45  64  91 129 166 203 253 314 373
#     4  11  25  44  64  90 126 165 206 261 319 369
#     4   9  19  39  63  89 124 164 211 261 311 368
#     4   9  19  37  62  92 125 161 204 260 316 362
#     4  11  21  35  57  85 118 161 211 258 307 364
#
# _framework density 19.753086
#
# number of rings (size 3 to 8) (size 9 to 14) (size 15 to 20)
#    0.000    1.750    1.250    3.750    0.000    8.500 
#    0.000    5.000    0.000    0.000    0.000    0.000 
#    0.000    0.000    0.000    0.000    0.000    0.000 
#
# Total GULP energy -357371.506070 kJ/mol
# GULP energy per Si atom -5583.929782 kJ/mol
# Density = 1.970813 g / cm^3
# Si number density = 19.753086 Si / 1000 Ang^3
#
#
#
# Elastic Constant Matrix: (Units=GPa)
#
#
# Indices 1 2 3 4 5 6 
#
# 1 61.3669 47.4107 33.5213 0.0000 0.0000 0.0000
# 2 47.4107 93.2383 41.6985 0.0000 0.0000 0.0000
# 3 33.5213 41.6985 70.8689 0.0000 0.0000 0.0000
# 4 0.0000 0.0000 0.0000 30.7404 0.0000 0.0000
# 5 0.0000 0.0000 0.0000 0.0000 30.0226 0.0000
# 6 0.0000 0.0000 0.0000 0.0000 0.0000 28.3117
#
#
#
# Elastic Compliance Matrix: (Units=1/GPa)
#
#
# Indices 1 2 3 4 5 6 
#
# 1 0.029109 -0.011731 -0.006866 0.000000 0.000000 0.000000
# 2 -0.011731 0.019283 -0.005797 0.000000 0.000000 0.000000
# 3 -0.006866 -0.005797 0.020769 0.000000 0.000000 0.000000
# 4 0.000000 0.000000 0.000000 0.032530 0.000000 0.000000
# 5 0.000000 0.000000 0.000000 0.000000 0.033308 0.000000
# 6 0.000000 0.000000 0.000000 0.000000 0.000000 0.035321
#
#
# Mechanical properties :
#
#
# Convention : Reuss Voigt Hill
#
# Bulk Modulus (GPa) = 49.08550 52.30389 50.69469
# Shear Modulus (GPa) = 22.13361 24.67118 23.40240
#
# Velocity S-wave (km/s) = 3.35104 3.53792 3.44575
# Velocity P-wave (km/s) = 6.31475 6.57461 6.44599
#
# Compressibility (1/GPa) = 0.02037261
#
# Stress axis : x y z
#
# Youngs Moduli (GPa) = 34.35341 51.85972 48.14785
#
# Poissons Ratio (x) = 0.60836 0.33061
# Poissons Ratio (y) = 0.40299 0.27912
# Poissons Ratio (z) = 0.23589 0.30063
#
# Static dielectric constant tensor:
#      x y z
#    x 1.715800 0.000000 0.000000 
#    y 0.000000 1.714310 0.000000 
#    z 0.000000 0.000000 1.656640 
# 
# From -- ./inp_files/9681.got.cif
#   From: 2010.05.17/outbox.ucp.g08.bks.cvg/sg55_5_cif.got.tgz:9681.got - 2010.06.11 16:36:00.
