data_PCOD9429299
_publ_section_title
;
Structure prediction by ZEFSAII (Michael W. Deem and Ramdas Pophale) SiO2 
 PCOD9429299
Probable space group: P B A M
;
_chemical_formula_sum "Si O2"
_cell_formula_units_Z 64
_cell_length_a 21.000000
_cell_length_b 18.000000
_cell_length_c 9.000000
_cell_angle_alpha 90.000000
_cell_angle_beta 90.000000
_cell_angle_gamma 90.000000
_cell_volume 3402.000000
_symmetry_space_group_name_H-M "P B A M"
_symmetry_group_IT_number 55
_symmetry_cell_setting 'orthorhombic'
loop_
_space_group_symop_operation_xyz
x,y,z
-x,-y,z
1/2+x,1/2-y,-z
1/2-x,1/2+y,-z
-x,-y,-z
x,y,-z
1/2-x,1/2+y,z
1/2+x,1/2-y,z
loop_
_atom_site_type_symbol
_atom_site_label
_atom_site_fract_x
_atom_site_fract_y
_atom_site_fract_z
Si Si1 0.996858 0.622203 0.828989
Si Si2 0.349100 0.512789 0.330068
Si Si3 0.893962 0.840513 0.822109
Si Si4 0.256246 0.727384 0.177538
Si Si5 0.395574 0.994717 0.829719
Si Si6 0.521004 0.726596 0.676333
Si Si7 0.290624 0.083281 0.333064
Si Si8 0.341229 0.340666 0.679744
O O1 0.930776 0.581635 0.788307
O O2 0.050311 0.558410 0.828736
O O3 0.016429 0.687423 0.721143
O O4 0.991285 0.649408 0.000000
O O5 0.374524 0.513515 0.500000
O O6 0.384617 0.574624 0.232650
O O7 0.277107 0.542756 0.335007
O O8 0.346672 0.427639 0.277653
O O9 0.829988 0.792568 0.777189
O O10 0.959647 0.810540 0.753911
O O11 0.896558 0.837869 0.000000
O O12 0.216164 0.654507 0.227127
O O13 0.218969 0.796944 0.250167
O O14 0.255663 0.735369 0.000000
O O15 0.341185 0.024021 0.723953
O O16 0.372568 0.987756 0.000000
O O17 0.515573 0.715917 0.500000
O O18 0.590837 0.696437 0.721749
O O19 0.306070 0.109168 0.500000
O O20 0.334784 0.337231 0.500000
#
# Coordination Sequence:
#
# PCOD9429299 Si02
#       8
#     8   8   8   8   8   8   8   8
#     4   9  19  35  52  74 107 145 183 222 270 328
#     4   9  20  39  58  78 108 143 179 224 278 331
#     4  10  22  40  60  83 112 147 188 232 278 330
#     4  10  21  37  58  83 111 146 185 226 276 330
#     4   9  18  33  53  76 107 146 180 219 273 327
#     4  11  23  37  56  82 111 147 188 231 281 332
#     4  10  19  32  54  81 107 139 178 220 270 327
#     4  10  22  39  59  85 115 146 184 230 278 330
#
# _framework density 18.812463000000001
#
# number of rings (size 3 to 8) (size 9 to 14) (size 15 to 20)
#    0.000    2.250    0.000    3.000    0.000    8.000 
#    0.000    6.250    0.000    0.000    0.000    0.000 
#    0.000    0.000    0.000    0.000    0.000    0.000 
#
# Total GULP energy -357052.684328 kJ/mol
# GULP energy per Si atom -5578.948193 kJ/mol
# Density = 1.876965 g / cm^3
# Si number density = 18.812463 Si / 1000 Ang^3
#
#
#
# Elastic Constant Matrix: (Units=GPa)
#
#
# Indices 1 2 3 4 5 6 
#
# 1 42.5712 22.8081 21.0545 0.0000 0.0000 0.0000
# 2 22.8081 101.7719 26.3269 0.0000 0.0000 0.0000
# 3 21.0545 26.3269 43.4423 0.0000 0.0000 0.0000
# 4 0.0000 0.0000 0.0000 -7.4096 0.0000 0.0000
# 5 0.0000 0.0000 0.0000 0.0000 21.1587 0.0000
# 6 0.0000 0.0000 0.0000 0.0000 0.0000 22.3684
#
#
#
# Elastic Compliance Matrix: (Units=1/GPa)
#
#
# Indices 1 2 3 4 5 6 
#
# 1 0.032061 -0.003754 -0.013263 0.000000 0.000000 0.000000
# 2 -0.003754 0.012092 -0.005509 0.000000 0.000000 0.000000
# 3 -0.013263 -0.005509 0.032786 0.000000 0.000000 0.000000
# 4 0.000000 0.000000 0.000000 -0.134961 0.000000 0.000000
# 5 0.000000 0.000000 0.000000 0.000000 0.047262 0.000000
# 6 0.000000 0.000000 0.000000 0.000000 0.000000 0.044706
#
#
# Mechanical properties :
#
#
# Convention : Reuss Voigt Hill
#
# Bulk Modulus (GPa) = 31.36134 36.46269 33.91201
# Shear Modulus (GPa) = 55.78635 15.06323 35.42479
#
# Velocity S-wave (km/s) = 5.45145 2.83274 4.34412
# Velocity P-wave (km/s) = 7.50541 5.48849 6.57475
#
# Compressibility (1/GPa) = 0.03188639
#
# Stress axis : x y z
#
# Youngs Moduli (GPa) = 31.19042 82.69758 30.50118
#
# Poissons Ratio (x) = 0.31046 0.40455
# Poissons Ratio (y) = 0.11709 0.16802
# Poissons Ratio (z) = 0.41369 0.45555
#
# Static dielectric constant tensor:
#      x y z
#    x 1.661990 0.000000 0.000000 
#    y 0.000000 1.646790 0.000000 
#    z 0.000000 0.000000 1.650410 
# 
# From -- ./inp_files/8942.got.cif
#   From: 2010.05.17/outbox.ucp.g08.bks.cvg/sg55_5_cif.got.tgz:8942.got - 2010.06.11 16:36:00.
