data_PCOD9429534
_publ_section_title
;
Structure prediction by ZEFSAII (Michael W. Deem and Ramdas Pophale) SiO2 
 PCOD9429534
Probable space group: P C C N
;
_chemical_formula_sum "Si O2"
_cell_formula_units_Z 40
_cell_length_a 20.825712
_cell_length_b 17.223700
_cell_length_c 5.407350
_cell_angle_alpha 90.000000
_cell_angle_beta 90.000000
_cell_angle_gamma 90.000000
_cell_volume 1939.593819
_symmetry_space_group_name_H-M "P C C N"
_symmetry_group_IT_number 56
_symmetry_cell_setting 'orthorhombic'
loop_
_space_group_symop_operation_xyz
x,y,z
1/2-x,1/2-y,z
1/2+x,-y,1/2-z
-x,1/2+y,1/2-z
-x,-y,-z
1/2+x,1/2+y,-z
1/2-x,y,1/2+z
x,1/2-y,1/2+z
loop_
_atom_site_type_symbol
_atom_site_label
_atom_site_fract_x
_atom_site_fract_y
_atom_site_fract_z
Si Si1 0.226398 0.629865 0.594694
Si Si2 0.410202 0.923841 0.416324
Si Si3 0.976748 0.699872 0.388929
Si Si4 0.868906 0.576722 0.394625
Si Si5 0.321547 0.014436 0.110157
O O1 0.239602 0.666846 0.858292
O O2 0.151958 0.617807 0.538262
O O3 0.262431 0.545490 0.611587
O O4 0.468234 0.865818 0.396230
O O5 0.417940 0.003308 0.571637
O O6 0.382887 0.956620 0.155134
O O7 0.982704 0.748547 0.136138
O O8 0.908928 0.655026 0.391321
O O9 0.825889 0.567440 0.643071
O O10 0.831716 0.561723 0.139672
#
# Coordination Sequence:
#
# PCOD9429534 Si02
#       5
#     8   8   8   8   8
#     4  10  16  31  55  93 114 135 180 260 289 337
#     4   9  22  35  64  84 120 147 202 247 293 337
#     4  12  27  40  55  83 127 167 197 234 291 357
#     4  10  20  37  60  86 111 151 204 251 288 340
#     4   9  18  32  62  90 110 139 195 257 294 330
#
# _framework density 20.622876999999999
#
# number of rings (size 3 to 8) (size 9 to 14) (size 15 to 20)
#    1.200    0.800    2.000    1.800    2.800    0.800 
#    0.000    0.000    0.000   14.400    0.000   16.800 
#    0.000    0.000    0.000    0.000    0.000    0.000 
#
# Total GULP energy -222834.300743 kJ/mol
# GULP energy per Si atom -5570.857519 kJ/mol
# Density = 2.057594 g / cm^3
# Si number density = 20.622877 Si / 1000 Ang^3
#
#
#
# Elastic Constant Matrix: (Units=GPa)
#
#
# Indices 1 2 3 4 5 6 
#
# 1 67.8749 17.5974 20.0760 0.0000 0.0000 0.0000
# 2 17.5974 35.6752 13.2900 0.0000 0.0000 0.0000
# 3 20.0760 13.2900 164.3387 0.0000 0.0000 0.0000
# 4 0.0000 0.0000 0.0000 15.7239 0.0000 0.0000
# 5 0.0000 0.0000 0.0000 0.0000 24.7604 0.0000
# 6 0.0000 0.0000 0.0000 0.0000 0.0000 0.9362
#
#
#
# Elastic Compliance Matrix: (Units=1/GPa)
#
#
# Indices 1 2 3 4 5 6 
#
# 1 0.017227 -0.007953 -0.001461 0.000000 0.000000 0.000000
# 2 -0.007953 0.032573 -0.001663 0.000000 0.000000 0.000000
# 3 -0.001461 -0.001663 0.006398 0.000000 0.000000 0.000000
# 4 0.000000 0.000000 0.000000 0.063597 0.000000 0.000000
# 5 0.000000 0.000000 0.000000 0.000000 0.040387 0.000000
# 6 0.000000 0.000000 0.000000 0.000000 0.000000 1.068094
#
#
# Mechanical properties :
#
#
# Convention : Reuss Voigt Hill
#
# Bulk Modulus (GPa) = 29.37379 41.09062 35.23220
# Shear Modulus (GPa) = 3.96266 22.74581 13.35423
#
# Velocity S-wave (km/s) = 1.38768 3.32466 2.54745
# Velocity P-wave (km/s) = 4.10387 5.89117 5.07679
#
# Compressibility (1/GPa) = 0.03404396
#
# Stress axis : x y z
#
# Youngs Moduli (GPa) = 58.04776 30.70017 156.29960
#
# Poissons Ratio (x) = 0.24417 0.22841
# Poissons Ratio (y) = 0.46167 0.25986
# Poissons Ratio (z) = 0.08483 0.05104
#
# Static dielectric constant tensor:
#      x y z
#    x 1.738970 0.000000 0.000000 
#    y 0.000000 1.734790 0.000000 
#    z 0.000000 0.000000 1.807150 
# 
# From -- ./inp_files/837.got.cif
#   From: 2010.05.17/outbox.cif.g08.bks.cpg/sg56_1_cif.got.tgz:837.got - 2010.06.03 13:42:01.
