data_PCOD9429500
_publ_section_title
;
Structure prediction by ZEFSAII (Michael W. Deem and Ramdas Pophale) SiO2 
 PCOD9429500
Probable space group: P C C N
;
_chemical_formula_sum "Si O2"
_cell_formula_units_Z 56
_cell_length_a 5.255217
_cell_length_b 29.221676
_cell_length_c 22.040507
_cell_angle_alpha 90.000000
_cell_angle_beta 90.000000
_cell_angle_gamma 90.000000
_cell_volume 3384.677975
_symmetry_space_group_name_H-M "P C C N"
_symmetry_group_IT_number 56
_symmetry_cell_setting 'orthorhombic'
loop_
_space_group_symop_operation_xyz
x,y,z
1/2-x,1/2-y,z
1/2+x,-y,1/2-z
-x,1/2+y,1/2-z
-x,-y,-z
1/2+x,1/2+y,-z
1/2-x,y,1/2+z
x,1/2-y,1/2+z
loop_
_atom_site_type_symbol
_atom_site_label
_atom_site_fract_x
_atom_site_fract_y
_atom_site_fract_z
Si Si1 0.003166 0.276414 0.799224
Si Si2 0.036137 0.119522 0.321022
Si Si3 0.745988 0.055185 0.971811
Si Si4 0.501718 0.236768 0.434269
Si Si5 0.962124 0.368735 0.400426
Si Si6 0.125100 0.480692 0.780483
Si Si7 0.245582 0.008598 0.919703
O O1 0.750000 0.250000 0.777968
O O2 0.001321 0.268380 0.872959
O O3 0.250000 0.250000 0.776252
O O4 0.033574 0.330521 0.789333
O O5 0.267337 0.118601 0.370244
O O6 0.076774 0.074088 0.281572
O O7 0.760533 0.118438 0.353034
O O8 0.857105 0.105574 0.960187
O O9 0.468443 0.042248 0.945450
O O10 0.736719 0.037597 0.040655
O O11 0.962580 0.026834 0.934735
O O12 0.750000 0.250000 0.470167
O O13 0.517063 0.184902 0.412937
O O14 0.250000 0.250000 0.468726
O O15 0.363514 0.494911 0.738991
O O16 0.203264 0.494966 0.848800
#
# Coordination Sequence:
#
# PCOD9429500 Si02
#       7
#     8   8   8   8   8   8   8
#     4  10  16  27  42  66  95 131 152 191 253 311
#     4  12  20  30  47  69  99 134 168 200 248 316
#     4  10  19  32  52  75  93 130 165 211 256 295
#     4  10  16  25  38  67  99 130 147 182 242 315
#     4  12  17  28  48  70 100 129 160 191 252 317
#     4  12  24  37  50  70 100 142 182 221 262 305
#     4  10  20  35  51  69  98 124 175 218 250 299
#
# _framework density 16.54515
#
# number of rings (size 3 to 8) (size 9 to 14) (size 15 to 20)
#    0.000    1.143    8.571    1.714    0.000    0.000 
#    0.000    0.000    0.000    0.000    0.000    0.000 
#    0.000    4.571    0.000    0.429    0.000    0.000 
#
# Total GULP energy -311760.948633 kJ/mol
# GULP energy per Si atom -5567.159797 kJ/mol
# Density = 1.650749 g / cm^3
# Si number density = 16.545150 Si / 1000 Ang^3
#
#
#
# Elastic Constant Matrix: (Units=GPa)
#
#
# Indices 1 2 3 4 5 6 
#
# 1 138.8778 43.8551 11.2803 0.0000 0.0000 0.0000
# 2 43.8551 134.5036 32.3944 0.0000 0.0000 0.0000
# 3 11.2803 32.3944 35.9561 0.0000 0.0000 0.0000
# 4 0.0000 0.0000 0.0000 10.3773 0.0000 0.0000
# 5 0.0000 0.0000 0.0000 0.0000 13.7286 0.0000
# 6 0.0000 0.0000 0.0000 0.0000 0.0000 30.1080
#
#
#
# Elastic Compliance Matrix: (Units=1/GPa)
#
#
# Indices 1 2 3 4 5 6 
#
# 1 0.008028 -0.002568 -0.000205 0.000000 0.000000 0.000000
# 2 -0.002568 0.010317 -0.008489 0.000000 0.000000 0.000000
# 3 -0.000205 -0.008489 0.035524 0.000000 0.000000 0.000000
# 4 0.000000 0.000000 0.000000 0.096364 0.000000 0.000000
# 5 0.000000 0.000000 0.000000 0.000000 0.072841 0.000000
# 6 0.000000 0.000000 0.000000 0.000000 0.000000 0.033214
#
#
# Mechanical properties :
#
#
# Convention : Reuss Voigt Hill
#
# Bulk Modulus (GPa) = 31.90315 53.82188 42.86252
# Shear Modulus (GPa) = 17.28550 25.62997 21.45773
#
# Velocity S-wave (km/s) = 3.23576 3.94012 3.60518
# Velocity P-wave (km/s) = 5.76928 7.30071 6.57970
#
# Compressibility (1/GPa) = 0.03134487
#
# Stress axis : x y z
#
# Youngs Moduli (GPa) = 124.56045 96.93049 28.14993
#
# Poissons Ratio (x) = 0.24895 0.00576
# Poissons Ratio (y) = 0.31991 0.23896
# Poissons Ratio (z) = 0.02550 0.82284
#
# Static dielectric constant tensor:
#      x y z
#    x 1.644560 0.000000 0.000000 
#    y 0.000000 1.606210 0.000000 
#    z 0.000000 0.000000 1.526260 
# 
# From -- ./inp_files/17691.got.cif
#   From: 2010.05.17/outbox.cif.g08.bks.cpg/sg56_9_cif.got.tgz:17691.got - 2010.06.03 13:42:01.
