data_PCOD9429856
_publ_section_title
;
Structure prediction by ZEFSAII (Michael W. Deem and Ramdas Pophale) SiO2 
 PCOD9429856
Probable space group: P C C N
;
_chemical_formula_sum "Si O2"
_cell_formula_units_Z 48
_cell_length_a 9.413623
_cell_length_b 18.602346
_cell_length_c 10.921881
_cell_angle_alpha 90.000000
_cell_angle_beta 90.000000
_cell_angle_gamma 90.000000
_cell_volume 1912.590348
_symmetry_space_group_name_H-M "P C C N"
_symmetry_group_IT_number 56
_symmetry_cell_setting 'orthorhombic'
loop_
_space_group_symop_operation_xyz
x,y,z
1/2-x,1/2-y,z
1/2+x,-y,1/2-z
-x,1/2+y,1/2-z
-x,-y,-z
1/2+x,1/2+y,-z
1/2-x,y,1/2+z
x,1/2-y,1/2+z
loop_
_atom_site_type_symbol
_atom_site_label
_atom_site_fract_x
_atom_site_fract_y
_atom_site_fract_z
Si Si1 0.020628 0.714277 0.761488
Si Si2 0.352993 0.484489 0.782507
Si Si3 0.945419 0.952064 0.612123
Si Si4 0.210186 0.675613 0.375517
Si Si5 0.517189 0.620677 0.032993
Si Si6 0.814919 0.640287 0.918802
O O1 0.141945 0.658232 0.811546
O O2 0.100352 0.789691 0.777807
O O3 0.889179 0.707311 0.853661
O O4 0.368558 0.620378 0.961879
O O5 0.431901 0.549445 0.714359
O O6 0.051605 0.450666 0.390346
O O7 0.344389 0.422496 0.679499
O O8 0.193416 0.490235 0.830827
O O9 0.890502 0.879059 0.548189
O O10 0.000000 0.000000 0.500000
O O11 0.250000 0.750000 0.949737
O O12 0.983480 0.687315 0.627903
O O13 0.648571 0.635915 0.944066
#
# Coordination Sequence:
#
# PCOD9429856 Si02
#       6
#     8   8   8   8   8   8
#     4   8  19  35  52  77 105 137 180 220 271 326
#     4   9  19  35  56  83 110 143 184 224 273 330
#     4   9  18  35  56  79 111 144 178 228 271 325
#     4   8  20  33  54  77 108 135 184 217 273 325
#     4  10  18  36  57  76 112 143 175 232 270 322
#     4   9  18  35  55  79 110 138 180 223 272 325
#
# _framework density 25.096851999999998
#
# number of rings (size 3 to 8) (size 9 to 14) (size 15 to 20)
#    1.000    2.000    0.000    0.000    2.333    2.000 
#    0.000   25.833    0.000    0.000    0.000    0.000 
#    0.000    0.000    0.000    0.000    0.000    0.000 
#
# Total GULP energy -268125.080197 kJ/mol
# GULP energy per Si atom -5585.939171 kJ/mol
# Density = 2.503973 g / cm^3
# Si number density = 25.096852 Si / 1000 Ang^3
#
#
#
# Elastic Constant Matrix: (Units=GPa)
#
#
# Indices 1 2 3 4 5 6 
#
# 1 120.3598 11.5863 55.7696 0.0000 0.0000 0.0000
# 2 11.5863 63.0298 21.8695 0.0000 0.0000 0.0000
# 3 55.7696 21.8695 89.8787 0.0000 0.0000 0.0000
# 4 0.0000 0.0000 0.0000 5.0425 0.0000 0.0000
# 5 0.0000 0.0000 0.0000 0.0000 59.7649 0.0000
# 6 0.0000 0.0000 0.0000 0.0000 0.0000 23.2509
#
#
#
# Elastic Compliance Matrix: (Units=1/GPa)
#
#
# Indices 1 2 3 4 5 6 
#
# 1 0.011670 0.000401 -0.007339 0.000000 0.000000 0.000000
# 2 0.000401 0.017342 -0.004469 0.000000 0.000000 0.000000
# 3 -0.007339 -0.004469 0.016767 0.000000 0.000000 0.000000
# 4 0.000000 0.000000 0.000000 0.198314 0.000000 0.000000
# 5 0.000000 0.000000 0.000000 0.000000 0.016732 0.000000
# 6 0.000000 0.000000 0.000000 0.000000 0.000000 0.043009
#
#
# Mechanical properties :
#
#
# Convention : Reuss Voigt Hill
#
# Bulk Modulus (GPa) = 43.54111 50.19102 46.86606
# Shear Modulus (GPa) = 14.95644 29.88118 22.41881
#
# Velocity S-wave (km/s) = 2.44385 3.45430 2.99204
# Velocity P-wave (km/s) = 5.03489 5.99599 5.53634
#
# Compressibility (1/GPa) = 0.02296680
#
# Stress axis : x y z
#
# Youngs Moduli (GPa) = 85.68661 57.66255 59.63974
#
# Poissons Ratio (x) = -0.02313 0.43770
# Poissons Ratio (y) = -0.03437 0.26651
# Poissons Ratio (z) = 0.62886 0.25768
#
# Static dielectric constant tensor:
#      x y z
#    x 1.934290 0.000000 0.000000 
#    y 0.000000 2.394770 0.000000 
#    z 0.000000 0.000000 1.955540 
# 
# From -- ./inp_files/2227.got.cif
#   From: 2010.05.17/outbox.cif.g08.bks.cpg/sg56_2_cif.got.tgz:2227.got - 2010.06.03 13:42:01.
