data_PCOD9429924
_publ_section_title
;
Structure prediction by ZEFSAII (Michael W. Deem and Ramdas Pophale) SiO2 
 PCOD9429924
Probable space group: P C C N
;
_chemical_formula_sum "Si O2"
_cell_formula_units_Z 48
_cell_length_a 14.186440
_cell_length_b 13.866541
_cell_length_c 11.448183
_cell_angle_alpha 90.000000
_cell_angle_beta 90.000000
_cell_angle_gamma 90.000000
_cell_volume 2252.050520
_symmetry_space_group_name_H-M "P C C N"
_symmetry_group_IT_number 56
_symmetry_cell_setting 'orthorhombic'
loop_
_space_group_symop_operation_xyz
x,y,z
1/2-x,1/2-y,z
1/2+x,-y,1/2-z
-x,1/2+y,1/2-z
-x,-y,-z
1/2+x,1/2+y,-z
1/2-x,y,1/2+z
x,1/2-y,1/2+z
loop_
_atom_site_type_symbol
_atom_site_label
_atom_site_fract_x
_atom_site_fract_y
_atom_site_fract_z
Si Si1 0.050714 0.805727 0.041677
Si Si2 0.635910 0.926116 0.284886
Si Si3 0.451635 0.673285 0.762687
Si Si4 0.250000 0.250000 0.830867
Si Si5 0.750000 0.250000 0.009230
Si Si6 0.874520 0.915378 0.055490
Si Si7 0.737076 0.086320 0.678716
O O1 0.022133 0.736770 0.149647
O O2 0.986656 0.898908 0.065598
O O3 0.035890 0.787940 0.899106
O O4 0.163321 0.801768 0.053487
O O5 0.525921 0.914084 0.256051
O O6 0.689267 0.829384 0.239612
O O7 0.649382 0.927243 0.421647
O O8 0.683257 0.022097 0.236311
O O9 0.341679 0.645043 0.748946
O O10 0.178094 0.182171 0.902436
O O11 0.715183 0.162805 0.092036
O O12 0.831473 0.007481 0.118464
#
# Coordination Sequence:
#
# PCOD9429924 Si02
#       7
#     8   8   8   4   4   8   8
#     4  10  22  42  69  96 130 174 223 273 338 405
#     4  10  21  39  68  94 132 173 222 278 338 399
#     4  10  22  44  65 101 128 175 222 276 340 397
#     4  10  18  38  64  96 130 162 224 274 346 386
#     4  10  24  44  64  90 136 182 222 272 334 400
#     4  10  21  40  66  97 130 173 222 280 334 404
#     4  10  24  44  61 101 134 177 225 276 335 407
#
# _framework density 21.313908999999999
#
# number of rings (size 3 to 8) (size 9 to 14) (size 15 to 20)
#    0.000    2.000    1.667    0.500    2.333    8.667 
#   12.000    0.833    0.000    0.000    0.000    0.000 
#    0.000    0.000    0.000    0.000    0.000    0.000 
#
# Total GULP energy -267383.989828 kJ/mol
# GULP energy per Si atom -5570.499788 kJ/mol
# Density = 2.126540 g / cm^3
# Si number density = 21.313909 Si / 1000 Ang^3
#
#
#
# Elastic Constant Matrix: (Units=GPa)
#
#
# Indices 1 2 3 4 5 6 
#
# 1 98.8685 15.7959 25.7402 0.0000 0.0000 0.0000
# 2 15.7959 98.9570 41.5669 0.0000 0.0000 0.0000
# 3 25.7402 41.5669 82.2804 0.0000 0.0000 0.0000
# 4 0.0000 0.0000 0.0000 13.2936 0.0000 0.0000
# 5 0.0000 0.0000 0.0000 0.0000 19.9763 0.0000
# 6 0.0000 0.0000 0.0000 0.0000 0.0000 88.5032
#
#
#
# Elastic Compliance Matrix: (Units=1/GPa)
#
#
# Indices 1 2 3 4 5 6 
#
# 1 0.011023 -0.000395 -0.003249 0.000000 0.000000 0.000000
# 2 -0.000395 0.012842 -0.006364 0.000000 0.000000 0.000000
# 3 -0.003249 -0.006364 0.016385 0.000000 0.000000 0.000000
# 4 0.000000 0.000000 0.000000 0.075224 0.000000 0.000000
# 5 0.000000 0.000000 0.000000 0.000000 0.050059 0.000000
# 6 0.000000 0.000000 0.000000 0.000000 0.000000 0.011299
#
#
# Mechanical properties :
#
#
# Convention : Reuss Voigt Hill
#
# Bulk Modulus (GPa) = 49.42078 49.59021 49.50549
# Shear Modulus (GPa) = 24.55889 37.48816 31.02352
#
# Velocity S-wave (km/s) = 3.39816 4.19843 3.81931
# Velocity P-wave (km/s) = 6.21563 6.84248 6.53657
#
# Compressibility (1/GPa) = 0.02023440
#
# Stress axis : x y z
#
# Youngs Moduli (GPa) = 90.71602 77.87215 61.03178
#
# Poissons Ratio (x) = 0.03075 0.19830
# Poissons Ratio (y) = 0.03582 0.38840
# Poissons Ratio (z) = 0.29474 0.49557
#
# Static dielectric constant tensor:
#      x y z
#    x 1.810060 0.000000 0.000000 
#    y 0.000000 1.806570 0.000000 
#    z 0.000000 0.000000 1.815550 
# 
# From -- ./inp_files/7784.got.cif
#   From: 2010.05.17/outbox.cif.g08.bks.cpg/sg56_4_cif.got.tgz:7784.got - 2010.06.03 13:42:01.
