data_PCOD9429519
_publ_section_title
;
Structure prediction by ZEFSAII (Michael W. Deem and Ramdas Pophale) SiO2 
 PCOD9429519
Probable space group: P C C N
;
_chemical_formula_sum "Si O2"
_cell_formula_units_Z 64
_cell_length_a 27.115204
_cell_length_b 19.743809
_cell_length_c 5.434625
_cell_angle_alpha 90.000000
_cell_angle_beta 90.000000
_cell_angle_gamma 90.000000
_cell_volume 2909.466758
_symmetry_space_group_name_H-M "P C C N"
_symmetry_group_IT_number 56
_symmetry_cell_setting 'orthorhombic'
loop_
_space_group_symop_operation_xyz
x,y,z
1/2-x,1/2-y,z
1/2+x,-y,1/2-z
-x,1/2+y,1/2-z
-x,-y,-z
1/2+x,1/2+y,-z
1/2-x,y,1/2+z
x,1/2-y,1/2+z
loop_
_atom_site_type_symbol
_atom_site_label
_atom_site_fract_x
_atom_site_fract_y
_atom_site_fract_z
Si Si1 0.422605 0.779028 0.016704
Si Si2 0.863313 0.782215 0.425530
Si Si3 0.018711 0.098645 0.997659
Si Si4 0.126849 0.911616 0.481668
Si Si5 0.588788 0.027419 0.521340
Si Si6 0.731482 0.830202 0.116192
Si Si7 0.228629 0.670319 0.033700
Si Si8 0.474495 0.181043 0.998223
O O1 0.400298 0.755022 0.274279
O O2 0.418173 0.858740 0.993497
O O3 0.480888 0.765542 0.017329
O O4 0.852445 0.725015 0.635665
O O5 0.825123 0.836288 0.532336
O O6 0.920684 0.790239 0.458156
O O7 0.026667 0.142617 0.240232
O O8 0.065323 0.047276 0.990575
O O9 0.017921 0.133927 0.734028
O O10 0.963320 0.068640 0.027387
O O11 0.119368 0.951605 0.224758
O O12 0.173019 0.857931 0.487493
O O13 0.119871 0.955925 0.730120
O O14 0.750000 0.750000 0.136901
O O15 0.760873 0.859410 0.885256
O O16 0.250000 0.750000 0.045959
O O17 0.242095 0.642521 0.300464
#
# Coordination Sequence:
#
# PCOD9429519 Si02
#       8
#     8   8   8   8   8   8   8   8
#     4  12  24  36  54  82 128 175 199 236 285 377
#     4  12  21  33  53  78 115 160 192 232 287 362
#     4  11  22  41  62  87 125 149 206 268 306 356
#     4  12  23  40  66  92 123 164 219 247 324 387
#     4  11  22  41  67  93 112 160 206 271 313 361
#     4  10  16  30  49  72 101 133 186 242 269 308
#     4  10  23  40  59  90 130 164 203 264 314 366
#     4  12  23  39  52  86 124 167 199 234 307 374
#
# _framework density 21.997159
#
# number of rings (size 3 to 8) (size 9 to 14) (size 15 to 20)
#    0.000    0.750    5.000    4.500    3.500    2.000 
#    0.000    0.000    0.000    0.000    0.000   17.500 
#    0.000    0.000    0.000    0.000    0.000    0.000 
#
# Total GULP energy -356287.058294 kJ/mol
# GULP energy per Si atom -5566.985286 kJ/mol
# Density = 2.194709 g / cm^3
# Si number density = 21.997159 Si / 1000 Ang^3
#
#
#
# Elastic Constant Matrix: (Units=GPa)
#
#
# Indices 1 2 3 4 5 6 
#
# 1 50.9169 -1.8778 10.7625 0.0000 0.0000 0.0000
# 2 -1.8778 38.1986 39.7274 0.0000 0.0000 0.0000
# 3 10.7625 39.7274 95.3534 0.0000 0.0000 0.0000
# 4 0.0000 0.0000 0.0000 10.5338 0.0000 0.0000
# 5 0.0000 0.0000 0.0000 0.0000 29.3919 0.0000
# 6 0.0000 0.0000 0.0000 0.0000 0.0000 23.8418
#
#
#
# Elastic Compliance Matrix: (Units=1/GPa)
#
#
# Indices 1 2 3 4 5 6 
#
# 1 0.020906 0.006144 -0.004920 0.000000 0.000000 0.000000
# 2 0.006144 0.048002 -0.020693 0.000000 0.000000 0.000000
# 3 -0.004920 -0.020693 0.019664 0.000000 0.000000 0.000000
# 4 0.000000 0.000000 0.000000 0.094933 0.000000 0.000000
# 5 0.000000 0.000000 0.000000 0.000000 0.034023 0.000000
# 6 0.000000 0.000000 0.000000 0.000000 0.000000 0.041943
#
#
# Mechanical properties :
#
#
# Convention : Reuss Voigt Hill
#
# Bulk Modulus (GPa) = 20.14672 31.29924 25.72298
# Shear Modulus (GPa) = 15.87541 21.81061 18.84301
#
# Velocity S-wave (km/s) = 2.68937 3.15226 2.92997
# Velocity P-wave (km/s) = 4.33846 5.24487 4.81305
#
# Compressibility (1/GPa) = 0.04963586
#
# Stress axis : x y z
#
# Youngs Moduli (GPa) = 47.83250 20.83250 50.85476
#
# Poissons Ratio (x) = -0.12800 0.25018
# Poissons Ratio (y) = -0.29389 1.05232
# Poissons Ratio (z) = 0.23531 0.43108
#
# Static dielectric constant tensor:
#      x y z
#    x 1.910160 0.000000 0.000000 
#    y 0.000000 1.762490 0.000000 
#    z 0.000000 0.000000 1.853240 
# 
# From -- ./inp_files/1265.got.cif
#   From: 2010.05.17/outbox.cif.g08.bks.cpg/sg56_1_cif.got.tgz:1265.got - 2010.06.03 13:42:01.
