data_PCOD9429801
_publ_section_title
;
Structure prediction by ZEFSAII (Michael W. Deem and Ramdas Pophale) SiO2 
 PCOD9429801
Probable space group: P C C N
;
_chemical_formula_sum "Si O2"
_cell_formula_units_Z 52
_cell_length_a 13.746670
_cell_length_b 10.513394
_cell_length_c 18.181849
_cell_angle_alpha 90.000000
_cell_angle_beta 90.000000
_cell_angle_gamma 90.000000
_cell_volume 2627.716416
_symmetry_space_group_name_H-M "P C C N"
_symmetry_group_IT_number 56
_symmetry_cell_setting 'orthorhombic'
loop_
_space_group_symop_operation_xyz
x,y,z
1/2-x,1/2-y,z
1/2+x,-y,1/2-z
-x,1/2+y,1/2-z
-x,-y,-z
1/2+x,1/2+y,-z
1/2-x,y,1/2+z
x,1/2-y,1/2+z
loop_
_atom_site_type_symbol
_atom_site_label
_atom_site_fract_x
_atom_site_fract_y
_atom_site_fract_z
Si Si1 0.334113 0.355089 0.024855
Si Si2 0.374409 0.970367 0.652881
Si Si3 0.434827 0.188987 0.383454
Si Si4 0.030307 0.346329 0.092021
Si Si5 0.080856 0.878284 0.540822
Si Si6 0.135191 0.264012 0.725154
Si Si7 0.750000 0.250000 0.866988
O O1 0.250000 0.250000 0.030385
O O2 0.325196 0.475758 0.077448
O O3 0.427029 0.283775 0.059334
O O4 0.360630 0.376042 0.940486
O O5 0.477257 0.906951 0.634150
O O6 0.301836 0.860191 0.679829
O O7 0.386805 0.088938 0.706934
O O8 0.485015 0.312517 0.422006
O O9 0.382143 0.230720 0.309401
O O10 0.082813 0.473829 0.062738
O O11 0.062024 0.325203 0.176659
O O12 0.928438 0.361311 0.047670
O O13 0.168186 0.807332 0.579980
O O14 0.250000 0.250000 0.704826
#
# Coordination Sequence:
#
# PCOD9429801 Si02
#       7
#     8   8   8   8   8   8   4
#     4  10  18  34  58  86 111 145 198 249 293 351
#     4  10  21  37  58  85 116 157 199 247 300 356
#     4  10  22  34  55  85 117 153 193 245 300 351
#     4   9  18  33  55  79 107 145 193 235 287 344
#     4   9  18  33  55  81 107 146 188 241 289 345
#     4  11  22  37  57  83 116 161 202 240 295 369
#     4  10  18  34  58  84 112 146 192 242 296 352
#
# _framework density 19.789045000000002
#
# number of rings (size 3 to 8) (size 9 to 14) (size 15 to 20)
#    0.000    2.154    0.000    4.615    2.154    1.231 
#    0.000    0.000    0.000    3.692    0.000    0.000 
#    0.000    0.000    0.000    0.000    0.000    0.000 
#
# Total GULP energy -289498.069194 kJ/mol
# GULP energy per Si atom -5567.270561 kJ/mol
# Density = 1.974400 g / cm^3
# Si number density = 19.789045 Si / 1000 Ang^3
#
#
#
# Elastic Constant Matrix: (Units=GPa)
#
#
# Indices 1 2 3 4 5 6 
#
# 1 27.1719 2.9487 -2.7169 0.0000 0.0000 0.0000
# 2 2.9487 82.2397 -3.0961 0.0000 0.0000 0.0000
# 3 -2.7169 -3.0961 76.6408 0.0000 0.0000 0.0000
# 4 0.0000 0.0000 0.0000 9.6140 0.0000 0.0000
# 5 0.0000 0.0000 0.0000 0.0000 6.4395 0.0000
# 6 0.0000 0.0000 0.0000 0.0000 0.0000 26.6907
#
#
#
# Elastic Compliance Matrix: (Units=1/GPa)
#
#
# Indices 1 2 3 4 5 6 
#
# 1 0.037068 -0.001282 0.001262 0.000000 0.000000 0.000000
# 2 -0.001282 0.012222 0.000448 0.000000 0.000000 0.000000
# 3 0.001262 0.000448 0.013111 0.000000 0.000000 0.000000
# 4 0.000000 0.000000 0.000000 0.104015 0.000000 0.000000
# 5 0.000000 0.000000 0.000000 0.000000 0.155291 0.000000
# 6 0.000000 0.000000 0.000000 0.000000 0.000000 0.037466
#
#
# Mechanical properties :
#
#
# Convention : Reuss Voigt Hill
#
# Bulk Modulus (GPa) = 15.80795 20.03599 17.92197
# Shear Modulus (GPa) = 13.17864 21.14328 17.16096
#
# Velocity S-wave (km/s) = 2.58341 3.27224 2.94801
# Velocity P-wave (km/s) = 4.11148 4.94201 4.54575
#
# Compressibility (1/GPa) = 0.06325929
#
# Stress axis : x y z
#
# Youngs Moduli (GPa) = 26.97739 81.81694 76.27339
#
# Poissons Ratio (x) = 0.10485 -0.09628
# Poissons Ratio (y) = 0.03457 -0.03419
# Poissons Ratio (z) = -0.03405 -0.03668
#
# Static dielectric constant tensor:
#      x y z
#    x 1.737820 0.000000 0.000000 
#    y 0.000000 1.706090 0.000000 
#    z 0.000000 0.000000 1.757620 
# 
# From -- ./inp_files/16285.got.cif
#   From: 2010.05.17/outbox.cif.g08.bks.cpg/sg56_9_cif.got.tgz:16285.got - 2010.06.03 13:42:01.
