data_PCOD9429196
_publ_section_title
;
Structure prediction by ZEFSAII (Michael W. Deem and Ramdas Pophale) SiO2 
 PCOD9429196
Probable space group: P B A M
;
_chemical_formula_sum "Si O2"
_cell_formula_units_Z 48
_cell_length_a 14.317173
_cell_length_b 9.027607
_cell_length_c 15.436290
_cell_angle_alpha 90.000000
_cell_angle_beta 90.000000
_cell_angle_gamma 90.000000
_cell_volume 1995.137568
_symmetry_space_group_name_H-M "P B A M"
_symmetry_group_IT_number 55
_symmetry_cell_setting 'orthorhombic'
loop_
_space_group_symop_operation_xyz
x,y,z
-x,-y,z
1/2+x,1/2-y,-z
1/2-x,1/2+y,-z
-x,-y,-z
x,y,-z
1/2-x,1/2+y,z
1/2+x,1/2-y,z
loop_
_atom_site_type_symbol
_atom_site_label
_atom_site_fract_x
_atom_site_fract_y
_atom_site_fract_z
Si Si1 0.493453 0.677629 0.834922
Si Si2 0.783584 0.376198 0.703429
Si Si3 0.193172 0.352768 0.824302
Si Si4 0.615536 0.703290 0.000000
Si Si5 0.529239 0.832064 0.347890
Si Si6 0.747953 0.978416 0.000000
Si Si7 0.906012 0.911474 0.402929
O O1 0.500000 0.500000 0.828813
O O2 0.389262 0.739514 0.846637
O O3 0.523116 0.755932 0.746267
O O4 0.555772 0.730902 0.914792
O O5 0.823443 0.521067 0.751942
O O6 0.768750 0.251449 0.777070
O O7 0.859900 0.323054 0.633063
O O8 0.682870 0.412453 0.660428
O O9 0.215958 0.441962 0.911304
O O10 0.704601 0.814710 0.000000
O O11 0.643674 0.528430 0.000000
O O12 0.451116 0.751044 0.404014
O O13 0.500000 0.000000 0.345477
O O14 0.880056 0.959803 0.500000
O O15 0.000000 0.000000 0.375561
#
# Coordination Sequence:
#
# PCOD9429196 Si02
#       7
#     8   8   8   4   8   4   8
#     4  12  27  48  71 104 150 202 257 318 395 460
#     4  12  25  46  76 111 148 201 259 313 385 463
#     4  12  26  45  76 104 147 202 250 318 377 452
#     4  12  30  45  72 100 154 204 259 327 381 460
#     4  12  24  46  75 111 149 195 253 314 384 462
#     4  12  27  45  69 109 150 197 261 309 381 445
#     4  11  26  48  76 110 153 203 250 316 393 468
#
# _framework density 24.058491
#
# number of rings (size 3 to 8) (size 9 to 14) (size 15 to 20)
#    0.000    0.167    3.333    5.250    7.000    1.667 
#    0.000    4.167    0.000    0.000    0.000    0.000 
#    0.000    0.000    0.000    0.000    0.000    0.000 
#
# Total GULP energy -268447.740396 kJ/mol
# GULP energy per Si atom -5592.661258 kJ/mol
# Density = 2.400373 g / cm^3
# Si number density = 24.058491 Si / 1000 Ang^3
#
#
#
# Elastic Constant Matrix: (Units=GPa)
#
#
# Indices 1 2 3 4 5 6 
#
# 1 73.8653 -15.1734 2.0337 0.0000 0.0000 0.0000
# 2 -15.1734 106.2878 -6.3299 0.0000 0.0000 0.0000
# 3 2.0337 -6.3299 88.5860 0.0000 0.0000 0.0000
# 4 0.0000 0.0000 0.0000 6.3529 0.0000 0.0000
# 5 0.0000 0.0000 0.0000 0.0000 -91.2956 0.0000
# 6 0.0000 0.0000 0.0000 0.0000 0.0000 33.4778
#
#
#
# Elastic Compliance Matrix: (Units=1/GPa)
#
#
# Indices 1 2 3 4 5 6 
#
# 1 0.013950 0.001981 -0.000179 0.000000 0.000000 0.000000
# 2 0.001981 0.009730 0.000650 0.000000 0.000000 0.000000
# 3 -0.000179 0.000650 0.011339 0.000000 0.000000 0.000000
# 4 0.000000 0.000000 0.000000 0.157408 0.000000 0.000000
# 5 0.000000 0.000000 0.000000 0.000000 -0.010953 0.000000
# 6 0.000000 0.000000 0.000000 0.000000 0.000000 0.029871
#
#
# Mechanical properties :
#
#
# Convention : Reuss Voigt Hill
#
# Bulk Modulus (GPa) = 25.04848 25.53336 25.29092
# Shear Modulus (GPa) = 22.75335 8.92094 15.83714
#
# Velocity S-wave (km/s) = 3.07864 1.92771 2.56847
# Velocity P-wave (km/s) = 4.80328 3.94852 4.39672
#
# Compressibility (1/GPa) = 0.03992258
#
# Stress axis : x y z
#
# Youngs Moduli (GPa) = 71.68474 102.77611 88.19126
#
# Poissons Ratio (x) = -0.20358 0.01576
# Poissons Ratio (y) = -0.14199 -0.05730
# Poissons Ratio (z) = 0.01281 -0.06678
#
# Static dielectric constant tensor:
#      x y z
#    x 1.994250 0.000000 0.000000 
#    y 0.000000 1.990790 0.000000 
#    z 0.000000 0.000000 1.911040 
# 
# From -- ./inp_files/21521.got.cif
#   From: 2010.05.17/outbox.cif.g08.bks.cpg/sg55_11_cif.got.tgz:21521.got - 2010.06.03 13:27:54.
