data_PCOD9429526
_publ_section_title
;
Structure prediction by ZEFSAII (Michael W. Deem and Ramdas Pophale) SiO2 
 PCOD9429526
Probable space group: P C C N
;
_chemical_formula_sum "Si O2"
_cell_formula_units_Z 32
_cell_length_a 10.220554
_cell_length_b 23.878186
_cell_length_c 5.467185
_cell_angle_alpha 90.000000
_cell_angle_beta 90.000000
_cell_angle_gamma 90.000000
_cell_volume 1334.257147
_symmetry_space_group_name_H-M "P C C N"
_symmetry_group_IT_number 56
_symmetry_cell_setting 'orthorhombic'
loop_
_space_group_symop_operation_xyz
x,y,z
1/2-x,1/2-y,z
1/2+x,-y,1/2-z
-x,1/2+y,1/2-z
-x,-y,-z
1/2+x,1/2+y,-z
1/2-x,y,1/2+z
x,1/2-y,1/2+z
loop_
_atom_site_type_symbol
_atom_site_label
_atom_site_fract_x
_atom_site_fract_y
_atom_site_fract_z
Si Si1 0.700642 0.185575 0.094907
Si Si2 0.579789 0.944053 0.552927
Si Si3 0.597264 0.784804 0.978673
Si Si4 0.631721 0.903919 0.053270
O O1 0.750000 0.250000 0.125019
O O2 0.774566 0.159569 0.861771
O O3 0.550076 0.191827 0.027085
O O4 0.559053 0.905951 0.312710
O O5 0.739703 0.943639 0.570380
O O6 0.500000 0.000000 0.500000
O O7 0.544991 0.922516 0.823023
O O8 0.612650 0.748429 0.224553
O O9 0.681141 0.841297 0.996326
#
# Coordination Sequence:
#
# PCOD9429526 Si02
#       4
#     8   8   8   8
#     4  10  16  30  51  74 113 178 229 244 288 348
#     4  10  21  45  72  85 126 168 212 294 345 375
#     4  12  21  35  60  93 144 183 203 267 313 383
#     4  10  23  40  68 106 124 167 234 263 329 422
#
# _framework density 23.983381999999999
#
# number of rings (size 3 to 8) (size 9 to 14) (size 15 to 20)
#    0.000    1.500    5.000    2.250    0.000    0.000 
#    0.000   15.000   33.000    0.000    0.000    0.000 
#    0.000    0.000    0.000    0.000    0.000    0.000 
#
# Total GULP energy -178623.694106 kJ/mol
# GULP energy per Si atom -5581.990441 kJ/mol
# Density = 2.392879 g / cm^3
# Si number density = 23.983382 Si / 1000 Ang^3
#
#
#
# Elastic Constant Matrix: (Units=GPa)
#
#
# Indices 1 2 3 4 5 6 
#
# 1 75.3450 23.0830 0.3821 0.0000 0.0000 0.0000
# 2 23.0830 64.3299 -7.0075 0.0000 0.0000 0.0000
# 3 0.3821 -7.0075 176.8863 0.0000 0.0000 0.0000
# 4 0.0000 0.0000 0.0000 49.2893 0.0000 0.0000
# 5 0.0000 0.0000 0.0000 0.0000 306.5107 0.0000
# 6 0.0000 0.0000 0.0000 0.0000 0.0000 27.0454
#
#
#
# Elastic Compliance Matrix: (Units=1/GPa)
#
#
# Indices 1 2 3 4 5 6 
#
# 1 0.014922 -0.005381 -0.000245 0.000000 0.000000 0.000000
# 2 -0.005381 0.017553 0.000707 0.000000 0.000000 0.000000
# 3 -0.000245 0.000707 0.005682 0.000000 0.000000 0.000000
# 4 0.000000 0.000000 0.000000 0.020288 0.000000 0.000000
# 5 0.000000 0.000000 0.000000 0.000000 0.003263 0.000000
# 6 0.000000 0.000000 0.000000 0.000000 0.000000 0.036975
#
#
# Mechanical properties :
#
#
# Convention : Reuss Voigt Hill
#
# Bulk Modulus (GPa) = 35.31366 38.83073 37.07220
# Shear Modulus (GPa) = 42.38695 96.57597 69.48146
#
# Velocity S-wave (km/s) = 4.20854 6.35258 5.38828
# Velocity P-wave (km/s) = 6.19451 8.36856 7.36223
#
# Compressibility (1/GPa) = 0.02831765
#
# Stress axis : x y z
#
# Youngs Moduli (GPa) = 67.01467 56.97112 175.99782
#
# Poissons Ratio (x) = 0.30657 0.04319
# Poissons Ratio (y) = 0.36061 -0.12443
# Poissons Ratio (z) = 0.01645 -0.04028
#
# Static dielectric constant tensor:
#      x y z
#    x 1.789850 0.000000 0.000000 
#    y 0.000000 1.889090 0.000000 
#    z 0.000000 0.000000 2.020460 
# 
# From -- ./inp_files/228.got.cif
#   From: 2010.05.17/outbox.cif.g08.bks.cpg/sg56_1_cif.got.tgz:228.got - 2010.06.03 13:42:01.
