data_PCOD9429138
_publ_section_title
;
Structure prediction by ZEFSAII (Michael W. Deem and Ramdas Pophale) SiO2 
 PCOD9429138
Probable space group: P B A M
;
_chemical_formula_sum "Si O2"
_cell_formula_units_Z 24
_cell_length_a 6.759212
_cell_length_b 12.272004
_cell_length_c 11.101278
_cell_angle_alpha 90.000000
_cell_angle_beta 90.000000
_cell_angle_gamma 90.000000
_cell_volume 920.840760
_symmetry_space_group_name_H-M "P B A M"
_symmetry_group_IT_number 55
_symmetry_cell_setting 'orthorhombic'
loop_
_space_group_symop_operation_xyz
x,y,z
-x,-y,z
1/2+x,1/2-y,-z
1/2-x,1/2+y,-z
-x,-y,-z
x,y,-z
1/2-x,1/2+y,z
1/2+x,1/2-y,z
loop_
_atom_site_type_symbol
_atom_site_label
_atom_site_fract_x
_atom_site_fract_y
_atom_site_fract_z
Si Si1 0.085196 0.847749 0.633989
Si Si2 0.227117 0.964188 0.868150
Si Si3 0.365103 0.098638 0.323199
O O1 0.166935 0.867968 0.500000
O O2 0.865610 0.900803 0.637442
O O3 0.210404 0.884422 0.751757
O O4 0.059578 0.717805 0.646209
O O5 0.344933 0.070458 0.819513
O O6 0.289986 0.924208 0.000000
O O7 0.000000 0.000000 0.880414
O O8 0.500000 0.000000 0.370881
#
# Coordination Sequence:
#
# PCOD9429138 Si02
#       3
#     8   8   8
#     4  11  24  41  66 101 137 178 228 283 342 401
#     4   9  21  43  69  97 131 174 222 274 336 405
#     4  11  24  42  66  99 137 178 228 284 342 405
#
# _framework density 26.063139
#
# number of rings (size 3 to 8) (size 9 to 14) (size 15 to 20)
#    0.000    1.667    0.000    3.000    0.000   12.000 
#    0.000    6.667    0.000    0.000    0.000    0.000 
#    0.000    0.000    0.000    0.000    0.000    0.000 
#
# Total GULP energy -134059.211629 kJ/mol
# GULP energy per Si atom -5585.800485 kJ/mol
# Density = 2.600382 g / cm^3
# Si number density = 26.063139 Si / 1000 Ang^3
#
#
#
# Elastic Constant Matrix: (Units=GPa)
#
#
# Indices 1 2 3 4 5 6 
#
# 1 101.1727 52.9469 56.2204 0.0000 0.0000 0.0000
# 2 52.9469 157.4993 88.2900 0.0000 0.0000 0.0000
# 3 56.2204 88.2900 290.1842 0.0000 0.0000 0.0000
# 4 0.0000 0.0000 0.0000 13.2620 0.0000 0.0000
# 5 0.0000 0.0000 0.0000 0.0000 8.4658 0.0000
# 6 0.0000 0.0000 0.0000 0.0000 0.0000 60.4591
#
#
#
# Elastic Compliance Matrix: (Units=1/GPa)
#
#
# Indices 1 2 3 4 5 6 
#
# 1 0.012431 -0.003410 -0.001371 0.000000 0.000000 0.000000
# 2 -0.003410 0.008591 -0.001953 0.000000 0.000000 0.000000
# 3 -0.001371 -0.001953 0.004306 0.000000 0.000000 0.000000
# 4 0.000000 0.000000 0.000000 0.075403 0.000000 0.000000
# 5 0.000000 0.000000 0.000000 0.000000 0.118122 0.000000
# 6 0.000000 0.000000 0.000000 0.000000 0.000000 0.016540
#
#
# Mechanical properties :
#
#
# Convention : Reuss Voigt Hill
#
# Bulk Modulus (GPa) = 84.32587 104.86341 94.59464
# Shear Modulus (GPa) = 19.77740 39.86399 29.82069
#
# Velocity S-wave (km/s) = 2.75767 3.91515 3.38623
# Velocity P-wave (km/s) = 6.52414 7.79484 7.18762
#
# Compressibility (1/GPa) = 0.01185876
#
# Stress axis : x y z
#
# Youngs Moduli (GPa) = 80.44707 116.40741 232.24291
#
# Poissons Ratio (x) = 0.39700 0.31832
# Poissons Ratio (y) = 0.27436 0.45356
# Poissons Ratio (z) = 0.11026 0.22734
#
# Static dielectric constant tensor:
#      x y z
#    x 2.236600 0.000000 0.000000 
#    y 0.000000 2.075600 0.000000 
#    z 0.000000 0.000000 2.027660 
# 
# From -- ./inp_files/11487.got.cif
#   From: 2010.05.17/outbox.cif.g08.bks.cpg/sg55_6_cif.got.tgz:11487.got - 2010.06.03 13:27:54.
