data_PCOD9429182
_publ_section_title
;
Structure prediction by ZEFSAII (Michael W. Deem and Ramdas Pophale) SiO2 
 PCOD9429182
Probable space group: P B A M
;
_chemical_formula_sum "Si O2"
_cell_formula_units_Z 34
_cell_length_a 11.812980
_cell_length_b 8.945001
_cell_length_c 14.394158
_cell_angle_alpha 90.000000
_cell_angle_beta 90.000000
_cell_angle_gamma 90.000000
_cell_volume 1520.989191
_symmetry_space_group_name_H-M "P B A M"
_symmetry_group_IT_number 55
_symmetry_cell_setting 'orthorhombic'
loop_
_space_group_symop_operation_xyz
x,y,z
-x,-y,z
1/2+x,1/2-y,-z
1/2-x,1/2+y,-z
-x,-y,-z
x,y,-z
1/2-x,1/2+y,z
1/2+x,1/2-y,z
loop_
_atom_site_type_symbol
_atom_site_label
_atom_site_fract_x
_atom_site_fract_y
_atom_site_fract_z
Si Si1 0.570686 0.650110 0.153429
Si Si2 0.919086 0.706640 0.000000
Si Si3 0.773912 0.008376 0.000000
Si Si4 0.126635 0.486342 0.605128
Si Si5 0.000000 0.000000 0.500000
Si Si6 0.840867 0.185226 0.353341
O O1 0.500000 0.500000 0.172451
O O2 0.673257 0.591216 0.089610
O O3 0.608499 0.711678 0.251639
O O4 0.494860 0.758614 0.090225
O O5 0.858057 0.547030 0.000000
O O6 0.822442 0.839831 0.000000
O O7 0.116214 0.422727 0.500000
O O8 0.217763 0.388347 0.657474
O O9 0.173079 0.653488 0.600932
O O10 0.000000 0.500000 0.643210
O O11 0.920795 0.082983 0.418377
#
# Coordination Sequence:
#
# PCOD9429182 Si02
#       6
#     8   4   4   8   2   8
#     4   9  20  38  62  88 122 169 212 256 331 400
#     4   9  19  39  64  92 127 160 216 268 333 398
#     4   9  19  37  60  88 116 158 196 261 315 388
#     4  11  26  43  64  95 131 174 232 281 339 400
#     4  12  24  40  72  94 130 186 232 262 354 390
#     4  12  25  42  69  95 134 179 226 283 336 406
#
# _framework density 22.353873
#
# number of rings (size 3 to 8) (size 9 to 14) (size 15 to 20)
#    0.000    1.647    3.529    1.412    3.294    5.647 
#    0.000    2.353    0.000    0.000    0.000    2.471 
#    0.000    0.000    0.000    0.000    0.000    0.000 
#
# Total GULP energy -189525.219603 kJ/mol
# GULP energy per Si atom -5574.271165 kJ/mol
# Density = 2.230299 g / cm^3
# Si number density = 22.353873 Si / 1000 Ang^3
#
#
#
# Elastic Constant Matrix: (Units=GPa)
#
#
# Indices 1 2 3 4 5 6 
#
# 1 111.2904 51.1479 30.6281 0.0000 0.0000 0.0000
# 2 51.1479 58.3792 11.0096 0.0000 0.0000 0.0000
# 3 30.6281 11.0096 146.8805 0.0000 0.0000 0.0000
# 4 0.0000 0.0000 0.0000 1.5886 0.0000 0.0000
# 5 0.0000 0.0000 0.0000 0.0000 3.3603 0.0000
# 6 0.0000 0.0000 0.0000 0.0000 0.0000 43.2730
#
#
#
# Elastic Compliance Matrix: (Units=1/GPa)
#
#
# Indices 1 2 3 4 5 6 
#
# 1 0.015764 -0.013380 -0.002284 0.000000 0.000000 0.000000
# 2 -0.013380 0.028732 0.000636 0.000000 0.000000 0.000000
# 3 -0.002284 0.000636 0.007237 0.000000 0.000000 0.000000
# 4 0.000000 0.000000 0.000000 0.629476 0.000000 0.000000
# 5 0.000000 0.000000 0.000000 0.000000 0.297589 0.000000
# 6 0.000000 0.000000 0.000000 0.000000 0.000000 0.023109
#
#
# Mechanical properties :
#
#
# Convention : Reuss Voigt Hill
#
# Bulk Modulus (GPa) = 46.13234 55.79127 50.96181
# Shear Modulus (GPa) = 4.81145 24.56203 14.68674
#
# Velocity S-wave (km/s) = 1.46870 3.31838 2.56600
# Velocity P-wave (km/s) = 4.85368 6.30037 5.62374
#
# Compressibility (1/GPa) = 0.02167677
#
# Stress axis : x y z
#
# Youngs Moduli (GPa) = 63.43768 34.80421 138.18170
#
# Poissons Ratio (x) = 0.46569 0.31563
# Poissons Ratio (y) = 0.84881 -0.08794
# Poissons Ratio (z) = 0.14490 -0.02215
#
# Static dielectric constant tensor:
#      x y z
#    x 1.871730 0.000000 0.000000 
#    y 0.000000 1.769790 0.000000 
#    z 0.000000 0.000000 1.792920 
# 
# From -- ./inp_files/18063.got.cif
#   From: 2010.05.17/outbox.cif.g08.bks.cpg/sg55_10_cif.got.tgz:18063.got - 2010.06.03 13:27:54.
