data_PCOD9429351
_publ_section_title
;
Structure prediction by ZEFSAII (Michael W. Deem and Ramdas Pophale) SiO2 
 PCOD9429351
Probable space group: P B A M
;
_chemical_formula_sum "Si O2"
_cell_formula_units_Z 64
_cell_length_a 30.000000
_cell_length_b 12.000000
_cell_length_c 9.000000
_cell_angle_alpha 90.000000
_cell_angle_beta 90.000000
_cell_angle_gamma 90.000000
_cell_volume 3240.000000
_symmetry_space_group_name_H-M "P B A M"
_symmetry_group_IT_number 55
_symmetry_cell_setting 'orthorhombic'
loop_
_space_group_symop_operation_xyz
x,y,z
-x,-y,z
1/2+x,1/2-y,-z
1/2-x,1/2+y,-z
-x,-y,-z
x,y,-z
1/2-x,1/2+y,z
1/2+x,1/2-y,z
loop_
_atom_site_type_symbol
_atom_site_label
_atom_site_fract_x
_atom_site_fract_y
_atom_site_fract_z
Si Si1 0.457949 0.933782 0.820624
Si Si2 0.711014 0.087785 0.170135
Si Si3 0.914876 0.781745 0.175111
Si Si4 0.629947 0.928474 0.178748
Si Si5 0.049787 0.971453 0.823861
Si Si6 0.618769 0.687709 0.323426
Si Si7 0.325750 0.710755 0.672772
Si Si8 0.686423 0.522720 0.830455
O O1 0.455127 0.802267 0.787993
O O2 0.500000 0.000000 0.758289
O O3 0.411975 0.994185 0.779066
O O4 0.460229 0.941054 0.000000
O O5 0.707354 0.193260 0.276232
O O6 0.675816 0.992592 0.214624
O O7 0.761266 0.046664 0.169850
O O8 0.699128 0.121412 0.000000
O O9 0.924513 0.911593 0.195148
O O10 0.874366 0.747350 0.278804
O O11 0.903941 0.764470 0.000000
O O12 0.625092 0.809977 0.256256
O O13 0.629122 0.912404 0.000000
O O14 0.074663 0.873325 0.739205
O O15 0.048182 0.944709 0.000000
O O16 0.000000 0.000000 0.773537
O O17 0.617599 0.691380 0.500000
O O18 0.659212 0.610440 0.266518
O O19 0.322903 0.686738 0.500000
O O20 0.319241 0.599852 0.766809
O O21 0.669468 0.529227 0.000000
#
# Coordination Sequence:
#
# PCOD9429351 Si02
#       8
#     8   8   8   8   8   8   8   8
#     4   9  18  33  61  95 120 151 200 256 302 350
#     4  10  23  43  67  92 118 160 212 259 305 363
#     4  10  19  37  63  89 121 160 206 256 300 356
#     4  10  21  40  64  89 121 161 208 256 304 365
#     4  10  22  39  65  95 121 160 213 260 303 362
#     4  12  26  42  60  89 129 166 201 251 322 379
#     4  12  24  39  63  93 128 162 198 252 317 374
#     4  11  24  43  67  91 119 161 215 261 303 363
#
# _framework density 19.753086
#
# number of rings (size 3 to 8) (size 9 to 14) (size 15 to 20)
#    0.000    1.500    2.500    2.625    3.500    1.750 
#    0.000    0.000    0.000    0.750    0.000    0.000 
#    0.000    0.000    0.000    0.000    0.000    0.000 
#
# Total GULP energy -357415.383485 kJ/mol
# GULP energy per Si atom -5584.615367 kJ/mol
# Density = 1.970813 g / cm^3
# Si number density = 19.753086 Si / 1000 Ang^3
#
#
#
# Elastic Constant Matrix: (Units=GPa)
#
#
# Indices 1 2 3 4 5 6 
#
# 1 69.3975 8.8876 18.5016 0.0000 0.0000 0.0000
# 2 8.8876 80.6086 29.9376 0.0000 0.0000 0.0000
# 3 18.5016 29.9376 49.2143 0.0000 0.0000 0.0000
# 4 0.0000 0.0000 0.0000 -34.3283 0.0000 0.0000
# 5 0.0000 0.0000 0.0000 0.0000 7.1566 0.0000
# 6 0.0000 0.0000 0.0000 0.0000 0.0000 21.6366
#
#
#
# Elastic Compliance Matrix: (Units=1/GPa)
#
#
# Indices 1 2 3 4 5 6 
#
# 1 0.016038 0.000608 -0.006399 0.000000 0.000000 0.000000
# 2 0.000608 0.016049 -0.009992 0.000000 0.000000 0.000000
# 3 -0.006399 -0.009992 0.028803 0.000000 0.000000 0.000000
# 4 0.000000 0.000000 0.000000 -0.029130 0.000000 0.000000
# 5 0.000000 0.000000 0.000000 0.000000 0.139731 0.000000
# 6 0.000000 0.000000 0.000000 0.000000 0.000000 0.046218
#
#
# Mechanical properties :
#
#
# Convention : Reuss Voigt Hill
#
# Bulk Modulus (GPa) = 34.10055 34.87489 34.48772
# Shear Modulus (GPa) = 19.30130 8.35254 13.82692
#
# Velocity S-wave (km/s) = 3.12930 2.05856 2.64860
# Velocity P-wave (km/s) = 5.50977 4.83156 5.18177
#
# Compressibility (1/GPa) = 0.02932504
#
# Stress axis : x y z
#
# Youngs Moduli (GPa) = 62.35220 62.30757 34.71835
#
# Poissons Ratio (x) = -0.03791 0.22218
# Poissons Ratio (y) = -0.03794 0.34690
# Poissons Ratio (z) = 0.39902 0.62256
#
# Static dielectric constant tensor:
#      x y z
#    x 2.023600 0.000000 0.000000 
#    y 0.000000 1.676740 0.000000 
#    z 0.000000 0.000000 1.665930 
# 
# From -- ./inp_files/10712.got.cif
#   From: 2010.05.17/outbox.ucp.g08.bks.cvg/sg55_6_cif.got.tgz:10712.got - 2010.06.11 16:36:00.
