data_PCOD9429610
_publ_section_title
;
Structure prediction by ZEFSAII (Michael W. Deem and Ramdas Pophale) SiO2 
 PCOD9429610
Probable space group: P C C N
;
_chemical_formula_sum "Si O2"
_cell_formula_units_Z 52
_cell_length_a 13.973279
_cell_length_b 18.688580
_cell_length_c 8.721621
_cell_angle_alpha 90.000000
_cell_angle_beta 90.000000
_cell_angle_gamma 90.000000
_cell_volume 2277.570583
_symmetry_space_group_name_H-M "P C C N"
_symmetry_group_IT_number 56
_symmetry_cell_setting 'orthorhombic'
loop_
_space_group_symop_operation_xyz
x,y,z
1/2-x,1/2-y,z
1/2+x,-y,1/2-z
-x,1/2+y,1/2-z
-x,-y,-z
1/2+x,1/2+y,-z
1/2-x,y,1/2+z
x,1/2-y,1/2+z
loop_
_atom_site_type_symbol
_atom_site_label
_atom_site_fract_x
_atom_site_fract_y
_atom_site_fract_z
Si Si1 0.717781 0.549539 0.545953
Si Si2 0.697997 0.446703 0.791046
Si Si3 0.041997 0.652754 0.564660
Si Si4 0.115270 0.805197 0.570794
Si Si5 0.614204 0.908657 0.764855
Si Si6 0.921600 0.071673 0.242006
Si Si7 0.750000 0.250000 0.664743
O O1 0.658356 0.493856 0.650604
O O2 0.782190 0.501351 0.430992
O O3 0.790958 0.588781 0.658368
O O4 0.651856 0.597536 0.437662
O O5 0.634181 0.382268 0.851202
O O6 0.804915 0.425567 0.738736
O O7 0.055784 0.735489 0.524011
O O8 0.031481 0.605699 0.409703
O O9 0.957829 0.645577 0.687347
O O10 0.059193 0.877115 0.611853
O O11 0.168143 0.780870 0.727023
O O12 0.199986 0.808538 0.445780
O O13 0.563073 0.987017 0.754205
#
# Coordination Sequence:
#
# PCOD9429610 Si02
#       7
#     8   8   8   8   8   8   4
#     4   8  18  35  55  79 112 150 183 236 285 334
#     4  10  17  32  53  80 119 153 188 208 271 340
#     4  12  22  34  56  87 115 151 194 235 267 339
#     4  11  22  32  53  79 118 156 191 210 269 334
#     4  10  21  37  62  82 114 143 196 237 293 325
#     4  10  21  36  53  80 118 164 175 224 276 346
#     4  10  20  36  52  78 120 170 180 202 260 362
#
# _framework density 22.831344999999999
#
# number of rings (size 3 to 8) (size 9 to 14) (size 15 to 20)
#    0.000    2.154    4.615    2.308    0.000    3.077 
#    0.000    0.000    0.000    0.000    0.000    3.231 
#    0.000    0.000    0.000    0.000    0.000    0.000 
#
# Total GULP energy -290483.924159 kJ/mol
# GULP energy per Si atom -5586.229311 kJ/mol
# Density = 2.277938 g / cm^3
# Si number density = 22.831345 Si / 1000 Ang^3
#
#
#
# Elastic Constant Matrix: (Units=GPa)
#
#
# Indices 1 2 3 4 5 6 
#
# 1 50.5144 -0.1716 2.5193 0.0000 0.0000 0.0000
# 2 -0.1716 18.8611 -11.2138 0.0000 0.0000 0.0000
# 3 2.5193 -11.2138 88.4904 0.0000 0.0000 0.0000
# 4 0.0000 0.0000 0.0000 16.4384 0.0000 0.0000
# 5 0.0000 0.0000 0.0000 0.0000 29.8470 0.0000
# 6 0.0000 0.0000 0.0000 0.0000 0.0000 16.2844
#
#
#
# Elastic Compliance Matrix: (Units=1/GPa)
#
#
# Indices 1 2 3 4 5 6 
#
# 1 0.019825 -0.000168 -0.000586 0.000000 0.000000 0.000000
# 2 -0.000168 0.057341 0.007271 0.000000 0.000000 0.000000
# 3 -0.000586 0.007271 0.012239 0.000000 0.000000 0.000000
# 4 0.000000 0.000000 0.000000 0.060833 0.000000 0.000000
# 5 0.000000 0.000000 0.000000 0.000000 0.033504 0.000000
# 6 0.000000 0.000000 0.000000 0.000000 0.000000 0.061408
#
#
# Mechanical properties :
#
#
# Convention : Reuss Voigt Hill
#
# Bulk Modulus (GPa) = 9.76184 15.57042 12.66613
# Shear Modulus (GPa) = 18.77852 23.62942 21.20397
#
# Velocity S-wave (km/s) = 2.87102 3.22056 3.05080
# Velocity P-wave (km/s) = 3.90835 4.54576 4.23905
#
# Compressibility (1/GPa) = 0.10243971
#
# Stress axis : x y z
#
# Youngs Moduli (GPa) = 50.44141 17.43963 81.70768
#
# Poissons Ratio (x) = 0.00293 0.04786
# Poissons Ratio (y) = 0.00846 -0.59411
# Poissons Ratio (z) = 0.02954 -0.12681
#
# Static dielectric constant tensor:
#      x y z
#    x 1.870670 0.000000 0.000000 
#    y 0.000000 1.934760 0.000000 
#    z 0.000000 0.000000 1.912320 
# 
# From -- ./inp_files/3528.got.cif
#   From: 2010.05.17/outbox.cif.g08.bks.cpg/sg56_2_cif.got.tgz:3528.got - 2010.06.03 13:42:01.
