data_PCOD9429291
_publ_section_title
;
Structure prediction by ZEFSAII (Michael W. Deem and Ramdas Pophale) SiO2 
 PCOD9429291
Probable space group: P B A M
;
_chemical_formula_sum "Si O2"
_cell_formula_units_Z 64
_cell_length_a 18.000000
_cell_length_b 24.000000
_cell_length_c 9.000000
_cell_angle_alpha 90.000000
_cell_angle_beta 90.000000
_cell_angle_gamma 90.000000
_cell_volume 3888.000000
_symmetry_space_group_name_H-M "P B A M"
_symmetry_group_IT_number 55
_symmetry_cell_setting 'orthorhombic'
loop_
_space_group_symop_operation_xyz
x,y,z
-x,-y,z
1/2+x,1/2-y,-z
1/2-x,1/2+y,-z
-x,-y,-z
x,y,-z
1/2-x,1/2+y,z
1/2+x,1/2-y,z
loop_
_atom_site_type_symbol
_atom_site_label
_atom_site_fract_x
_atom_site_fract_y
_atom_site_fract_z
Si Si1 0.012656 0.095141 0.823267
Si Si2 0.729625 0.673968 0.828002
Si Si3 0.847446 0.730796 0.324914
Si Si4 0.515331 0.272061 0.828398
Si Si5 0.349082 0.443398 0.172934
Si Si6 0.755357 0.839287 0.321044
Si Si7 0.338200 0.553584 0.323062
Si Si8 0.628593 0.762845 0.324552
O O1 0.013663 0.161624 0.799345
O O2 0.080069 0.067318 0.737922
O O3 0.932853 0.071273 0.777576
O O4 0.020961 0.085586 0.000000
O O5 0.813330 0.681907 0.773766
O O6 0.698560 0.612317 0.817116
O O7 0.685439 0.712790 0.712283
O O8 0.719974 0.692245 0.000000
O O9 0.834829 0.723036 0.500000
O O10 0.931659 0.741321 0.285954
O O11 0.808592 0.788759 0.272548
O O12 0.435601 0.247874 0.791386
O O13 0.537034 0.264019 0.000000
O O14 0.316403 0.493316 0.266419
O O15 0.353368 0.460010 0.000000
O O16 0.761748 0.840207 0.500000
O O17 0.784268 0.897802 0.264399
O O18 0.672386 0.819646 0.290118
O O19 0.339384 0.555040 0.500000
O O20 0.608624 0.761147 0.500000
#
# Coordination Sequence:
#
# PCOD9429291 Si02
#       8
#     8   8   8   8   8   8   8   8
#     4  10  20  34  47  65  98 137 170 201 240 288
#     4  10  19  34  51  71  98 130 167 207 248 296
#     4  10  19  33  51  73 100 129 163 205 252 297
#     4  11  20  32  50  75 101 133 168 201 246 300
#     4  10  21  36  49  66  98 136 171 206 245 289
#     4   8  17  32  47  68  97 126 158 202 248 288
#     4  11  21  33  49  71  97 129 172 211 243 287
#     4  10  19  32  51  72  98 130 163 205 254 298
#
# _framework density 16.460905
#
# number of rings (size 3 to 8) (size 9 to 14) (size 15 to 20)
#    0.000    2.000    2.500    3.000    0.000    3.500 
#    0.000    1.875    0.000    0.000    0.000    0.875 
#    0.000    7.000    0.000    0.000    0.000    0.000 
#
# Total GULP energy -356487.962289 kJ/mol
# GULP energy per Si atom -5570.124411 kJ/mol
# Density = 1.642344 g / cm^3
# Si number density = 16.460905 Si / 1000 Ang^3
#
#
#
# Elastic Constant Matrix: (Units=GPa)
#
#
# Indices 1 2 3 4 5 6 
#
# 1 16.1645 20.3856 5.8478 0.0000 0.0000 0.0000
# 2 20.3856 52.8927 25.9562 0.0000 0.0000 0.0000
# 3 5.8478 25.9562 33.2868 0.0000 0.0000 0.0000
# 4 0.0000 0.0000 0.0000 18.1367 0.0000 0.0000
# 5 0.0000 0.0000 0.0000 0.0000 26.2213 0.0000
# 6 0.0000 0.0000 0.0000 0.0000 0.0000 29.4864
#
#
#
# Elastic Compliance Matrix: (Units=1/GPa)
#
#
# Indices 1 2 3 4 5 6 
#
# 1 0.133921 -0.064907 0.027085 0.000000 0.000000 0.000000
# 2 -0.064907 0.062083 -0.037008 0.000000 0.000000 0.000000
# 3 0.027085 -0.037008 0.054142 0.000000 0.000000 0.000000
# 4 0.000000 0.000000 0.000000 0.055137 0.000000 0.000000
# 5 0.000000 0.000000 0.000000 0.000000 0.038137 0.000000
# 6 0.000000 0.000000 0.000000 0.000000 0.000000 0.033914
#
#
# Mechanical properties :
#
#
# Convention : Reuss Voigt Hill
#
# Bulk Modulus (GPa) = 9.95155 22.96925 16.46040
# Shear Modulus (GPa) = 8.92078 18.11249 13.51664
#
# Velocity S-wave (km/s) = 2.33048 3.32073 2.86866
# Velocity P-wave (km/s) = 3.64695 5.35603 4.58188
#
# Compressibility (1/GPa) = 0.10048686
#
# Stress axis : x y z
#
# Youngs Moduli (GPa) = 7.46709 16.10737 18.47004
#
# Poissons Ratio (x) = 1.04548 -0.50027
# Poissons Ratio (y) = 0.48466 0.68354
# Poissons Ratio (z) = -0.20225 0.59611
#
# Static dielectric constant tensor:
#      x y z
#    x 1.620440 0.000000 0.000000 
#    y 0.000000 1.554240 0.000000 
#    z 0.000000 0.000000 1.540560 
# 
# From -- ./inp_files/8008.got.cif
#   From: 2010.05.17/outbox.ucp.g08.bks.cvg/sg55_5_cif.got.tgz:8008.got - 2010.06.11 16:36:00.
