data_PCOD9429708
_publ_section_title
;
Structure prediction by ZEFSAII (Michael W. Deem and Ramdas Pophale) SiO2 
 PCOD9429708
Probable space group: P C C N
;
_chemical_formula_sum "Si O2"
_cell_formula_units_Z 48
_cell_length_a 8.906028
_cell_length_b 16.650590
_cell_length_c 16.522496
_cell_angle_alpha 90.000000
_cell_angle_beta 90.000000
_cell_angle_gamma 90.000000
_cell_volume 2450.131188
_symmetry_space_group_name_H-M "P C C N"
_symmetry_group_IT_number 56
_symmetry_cell_setting 'orthorhombic'
loop_
_space_group_symop_operation_xyz
x,y,z
1/2-x,1/2-y,z
1/2+x,-y,1/2-z
-x,1/2+y,1/2-z
-x,-y,-z
1/2+x,1/2+y,-z
1/2-x,y,1/2+z
x,1/2-y,1/2+z
loop_
_atom_site_type_symbol
_atom_site_label
_atom_site_fract_x
_atom_site_fract_y
_atom_site_fract_z
Si Si1 0.669812 0.169441 0.671127
Si Si2 0.769621 0.336375 0.355947
Si Si3 0.589131 0.594042 0.916409
Si Si4 0.686115 0.496104 0.676251
Si Si5 0.834735 0.999395 0.353185
Si Si6 0.057039 0.084371 0.899717
O O1 0.750000 0.250000 0.641299
O O2 0.687263 0.170204 0.768819
O O3 0.499980 0.154546 0.641806
O O4 0.758784 0.090014 0.643084
O O5 0.750000 0.250000 0.396542
O O6 0.699874 0.415578 0.397192
O O7 0.945850 0.359368 0.348084
O O8 0.764142 0.575966 0.900045
O O9 0.516285 0.505122 0.902316
O O10 0.561272 0.616145 0.009102
O O11 0.508784 0.498328 0.667616
O O12 0.741933 0.499432 0.768924
O O13 0.776971 0.567705 0.633290
#
# Coordination Sequence:
#
# PCOD9429708 Si02
#       6
#     8   8   8   8   8   8
#     4   9  17  31  51  74 100 132 169 204 247 302
#     4   9  17  31  51  74 100 132 169 204 247 302
#     4   9  18  32  50  74 103 133 167 207 250 300
#     4  10  18  31  52  74  97 130 173 214 251 298
#     4  10  18  31  52  74  97 130 173 214 251 298
#     4   9  18  32  50  74 103 133 167 207 250 300
#
# _framework density 19.590788
#
# number of rings (size 3 to 8) (size 9 to 14) (size 15 to 20)
#    0.000    2.667    0.000    5.000    0.000    1.333 
#    0.000    1.667    0.000   12.000    0.000    0.000 
#    0.000    0.000    0.000    0.000    0.000    0.000 
#
# Total GULP energy -267241.506362 kJ/mol
# GULP energy per Si atom -5567.531383 kJ/mol
# Density = 1.954620 g / cm^3
# Si number density = 19.590788 Si / 1000 Ang^3
#
#
#
# Elastic Constant Matrix: (Units=GPa)
#
#
# Indices 1 2 3 4 5 6 
#
# 1 115.2512 10.4466 16.0244 0.0000 0.0000 0.0000
# 2 10.4466 65.6165 2.5083 0.0000 0.0000 0.0000
# 3 16.0244 2.5083 54.9875 0.0000 0.0000 0.0000
# 4 0.0000 0.0000 0.0000 6.3733 0.0000 0.0000
# 5 0.0000 0.0000 0.0000 0.0000 13.0469 0.0000
# 6 0.0000 0.0000 0.0000 0.0000 0.0000 21.4252
#
#
#
# Elastic Compliance Matrix: (Units=1/GPa)
#
#
# Indices 1 2 3 4 5 6 
#
# 1 0.009163 -0.001359 -0.002608 0.000000 0.000000 0.000000
# 2 -0.001359 0.015468 -0.000310 0.000000 0.000000 0.000000
# 3 -0.002608 -0.000310 0.018960 0.000000 0.000000 0.000000
# 4 0.000000 0.000000 0.000000 0.156904 0.000000 0.000000
# 5 0.000000 0.000000 0.000000 0.000000 0.076647 0.000000
# 6 0.000000 0.000000 0.000000 0.000000 0.000000 0.046674
#
#
# Mechanical properties :
#
#
# Convention : Reuss Voigt Hill
#
# Bulk Modulus (GPa) = 28.54089 32.64598 30.59343
# Shear Modulus (GPa) = 14.53284 21.96081 18.24682
#
# Velocity S-wave (km/s) = 2.72659 3.35173 3.05519
# Velocity P-wave (km/s) = 4.95102 5.62840 5.30054
#
# Compressibility (1/GPa) = 0.03503745
#
# Stress axis : x y z
#
# Youngs Moduli (GPa) = 109.14029 64.64852 52.74228
#
# Poissons Ratio (x) = 0.08786 0.13756
# Poissons Ratio (y) = 0.14832 0.01633
# Poissons Ratio (z) = 0.28465 0.02001
#
# Static dielectric constant tensor:
#      x y z
#    x 1.734410 0.000000 0.000000 
#    y 0.000000 1.743590 0.000000 
#    z 0.000000 0.000000 1.723050 
# 
# From -- ./inp_files/14975.got.cif
#   From: 2010.05.17/outbox.cif.g08.bks.cpg/sg56_8_cif.got.tgz:14975.got - 2010.06.03 13:42:01.
