data_PCOD9429194
_publ_section_title
;
Structure prediction by ZEFSAII (Michael W. Deem and Ramdas Pophale) SiO2 
 PCOD9429194
Probable space group: P B A M
;
_chemical_formula_sum "Si O2"
_cell_formula_units_Z 18
_cell_length_a 4.743848
_cell_length_b 10.443990
_cell_length_c 13.738140
_cell_angle_alpha 90.000000
_cell_angle_beta 90.000000
_cell_angle_gamma 90.000000
_cell_volume 680.652040
_symmetry_space_group_name_H-M "P B A M"
_symmetry_group_IT_number 55
_symmetry_cell_setting 'orthorhombic'
loop_
_space_group_symop_operation_xyz
x,y,z
-x,-y,z
1/2+x,1/2-y,-z
1/2-x,1/2+y,-z
-x,-y,-z
x,y,-z
1/2-x,1/2+y,z
1/2+x,1/2-y,z
loop_
_atom_site_type_symbol
_atom_site_label
_atom_site_fract_x
_atom_site_fract_y
_atom_site_fract_z
Si Si1 0.000000 0.500000 0.500000
Si Si2 0.678912 0.659892 0.335753
Si Si3 0.000000 0.000000 0.160446
Si Si4 0.696221 0.835713 0.000000
O O1 0.797050 0.565230 0.415886
O O2 0.362534 0.711416 0.347138
O O3 0.680035 0.592138 0.231293
O O4 0.201665 0.085551 0.093291
O O5 0.370593 0.797896 0.000000
#
# Coordination Sequence:
#
# PCOD9429194 Si02
#       4
#     2   8   4   4
#     4  12  28  50  76 108 152 198 252 314 384 456
#     4  12  27  47  74 110 150 199 254 313 381 456
#     4  11  26  47  78 112 156 203 258 321 388 460
#     4  11  26  47  74 112 154 202 256 316 386 464
#
# _framework density 26.445229999999999
#
# number of rings (size 3 to 8) (size 9 to 14) (size 15 to 20)
#    0.000    0.444    0.000    6.667    0.000   16.889 
#    0.000    0.000    0.000    0.000    0.000    0.000 
#    0.000    0.000    0.000    0.000    0.000    0.000 
#
# Total GULP energy -100627.127929 kJ/mol
# GULP energy per Si atom -5590.395996 kJ/mol
# Density = 2.638504 g / cm^3
# Si number density = 26.445230 Si / 1000 Ang^3
#
#
#
# Elastic Constant Matrix: (Units=GPa)
#
#
# Indices 1 2 3 4 5 6 
#
# 1 88.9119 34.9024 34.3073 0.0000 0.0000 0.0000
# 2 34.9024 128.2499 60.1845 0.0000 0.0000 0.0000
# 3 34.3073 60.1845 188.8610 0.0000 0.0000 0.0000
# 4 0.0000 0.0000 0.0000 568.4438 0.0000 0.0000
# 5 0.0000 0.0000 0.0000 0.0000 34.3095 0.0000
# 6 0.0000 0.0000 0.0000 0.0000 0.0000 80.5977
#
#
#
# Elastic Compliance Matrix: (Units=1/GPa)
#
#
# Indices 1 2 3 4 5 6 
#
# 1 0.012918 -0.002839 -0.001442 0.000000 0.000000 0.000000
# 2 -0.002839 0.009792 -0.002605 0.000000 0.000000 0.000000
# 3 -0.001442 -0.002605 0.006387 0.000000 0.000000 0.000000
# 4 0.000000 0.000000 0.000000 0.001759 0.000000 0.000000
# 5 0.000000 0.000000 0.000000 0.000000 0.029146 0.000000
# 6 0.000000 0.000000 0.000000 0.000000 0.000000 0.012407
#
#
# Mechanical properties :
#
#
# Convention : Reuss Voigt Hill
#
# Bulk Modulus (GPa) = 65.24935 73.86792 69.55864
# Shear Modulus (GPa) = 54.77068 155.11210 104.94139
#
# Velocity S-wave (km/s) = 4.55587 7.66690 6.30624
# Velocity P-wave (km/s) = 7.23889 10.31350 8.90982
#
# Compressibility (1/GPa) = 0.01532582
#
# Stress axis : x y z
#
# Youngs Moduli (GPa) = 77.41220 102.12175 156.57033
#
# Poissons Ratio (x) = 0.28991 0.22576
# Poissons Ratio (y) = 0.21976 0.40784
# Poissons Ratio (z) = 0.11162 0.26601
#
# Static dielectric constant tensor:
#      x y z
#    x 2.015730 0.000000 0.000000 
#    y 0.000000 2.109310 0.000000 
#    z 0.000000 0.000000 1.963350 
# 
# From -- ./inp_files/10964.got.cif
#   From: 2010.05.17/outbox.cif.g08.bks.cpg/sg55_6_cif.got.tgz:10964.got - 2010.06.03 13:27:54.
