data_PCOD9429297
_publ_section_title
;
Structure prediction by ZEFSAII (Michael W. Deem and Ramdas Pophale) SiO2 
 PCOD9429297
Probable space group: P B A M
;
_chemical_formula_sum "Si O2"
_cell_formula_units_Z 64
_cell_length_a 18.000000
_cell_length_b 21.000000
_cell_length_c 9.000000
_cell_angle_alpha 90.000000
_cell_angle_beta 90.000000
_cell_angle_gamma 90.000000
_cell_volume 3402.000000
_symmetry_space_group_name_H-M "P B A M"
_symmetry_group_IT_number 55
_symmetry_cell_setting 'orthorhombic'
loop_
_space_group_symop_operation_xyz
x,y,z
-x,-y,z
1/2+x,1/2-y,-z
1/2-x,1/2+y,-z
-x,-y,-z
x,y,-z
1/2-x,1/2+y,z
1/2+x,1/2-y,z
loop_
_atom_site_type_symbol
_atom_site_label
_atom_site_fract_x
_atom_site_fract_y
_atom_site_fract_z
Si Si1 0.027385 0.615668 0.176026
Si Si2 0.331058 0.576802 0.321285
Si Si3 0.364272 0.895456 0.677693
Si Si4 0.032130 0.135391 0.822265
Si Si5 0.709732 0.662560 0.679167
Si Si6 0.411524 0.257757 0.176424
Si Si7 0.664426 0.957270 0.677958
Si Si8 0.108311 0.947763 0.178551
O O1 0.060797 0.686295 0.198325
O O2 0.089667 0.569706 0.247377
O O3 0.944508 0.611828 0.244947
O O4 0.021952 0.603057 0.000000
O O5 0.332787 0.577122 0.500000
O O6 0.388658 0.629452 0.258583
O O7 0.243327 0.575248 0.276252
O O8 0.367181 0.512216 0.257290
O O9 0.375718 0.890247 0.500000
O O10 0.297014 0.846841 0.718559
O O11 0.333302 0.966834 0.707830
O O12 0.980340 0.195754 0.781412
O O13 0.975799 0.076331 0.790767
O O14 0.044787 0.136630 0.000000
O O15 0.704322 0.657195 0.500000
O O16 0.663469 0.723994 0.735223
O O17 0.663606 0.606095 0.758264
O O18 0.397782 0.268644 0.000000
O O19 0.657872 0.949020 0.500000
O O20 0.115339 0.953259 0.000000
#
# Coordination Sequence:
#
# PCOD9429297 Si02
#       8
#     8   8   8   8   8   8   8   8
#     4  11  24  41  62  89 116 150 199 245 287 347
#     4  11  21  34  53  82 117 151 193 240 287 344
#     4  10  21  40  63  88 119 153 189 237 298 349
#     4   9  19  35  54  78 111 154 192 230 290 349
#     4  10  19  35  61  90 117 151 197 240 282 346
#     4   9  21  42  60  81 119 156 191 239 294 343
#     4  10  22  41  60  83 121 157 187 240 304 348
#     4  10  19  32  53  81 118 156 190 234 291 347
#
# _framework density 18.812463000000001
#
# number of rings (size 3 to 8) (size 9 to 14) (size 15 to 20)
#    0.000    2.000    1.250    3.000    0.000    9.000 
#    2.250    0.000    0.000    0.000    0.000    0.000 
#    0.000    0.000    0.000    0.000    0.000    0.000 
#
# Total GULP energy -357131.169019 kJ/mol
# GULP energy per Si atom -5580.174516 kJ/mol
# Density = 1.876965 g / cm^3
# Si number density = 18.812463 Si / 1000 Ang^3
#
#
#
# Elastic Constant Matrix: (Units=GPa)
#
#
# Indices 1 2 3 4 5 6 
#
# 1 178.5729 22.2425 58.9858 0.0000 0.0000 0.0000
# 2 22.2425 34.5014 17.8346 0.0000 0.0000 0.0000
# 3 58.9858 17.8346 59.9109 0.0000 0.0000 0.0000
# 4 0.0000 0.0000 0.0000 21.6508 0.0000 0.0000
# 5 0.0000 0.0000 0.0000 0.0000 33.2659 0.0000
# 6 0.0000 0.0000 0.0000 0.0000 0.0000 22.0167
#
#
#
# Elastic Compliance Matrix: (Units=1/GPa)
#
#
# Indices 1 2 3 4 5 6 
#
# 1 0.008351 -0.001340 -0.007823 0.000000 0.000000 0.000000
# 2 -0.001340 0.034471 -0.008942 0.000000 0.000000 0.000000
# 3 -0.007823 -0.008942 0.027056 0.000000 0.000000 0.000000
# 4 0.000000 0.000000 0.000000 0.046188 0.000000 0.000000
# 5 0.000000 0.000000 0.000000 0.000000 0.030061 0.000000
# 6 0.000000 0.000000 0.000000 0.000000 0.000000 0.045420
#
#
# Mechanical properties :
#
#
# Convention : Reuss Voigt Hill
#
# Bulk Modulus (GPa) = 29.70280 52.34566 41.02423
# Shear Modulus (GPa) = 20.92236 26.98150 23.95193
#
# Velocity S-wave (km/s) = 3.33852 3.79124 3.57206
# Velocity P-wave (km/s) = 5.53932 6.85930 6.23435
#
# Compressibility (1/GPa) = 0.03366686
#
# Stress axis : x y z
#
# Youngs Moduli (GPa) = 119.74651 29.01027 36.96056
#
# Poissons Ratio (x) = 0.03887 0.28915
# Poissons Ratio (y) = 0.16043 0.33051
# Poissons Ratio (z) = 0.93680 0.25942
#
# Static dielectric constant tensor:
#      x y z
#    x 1.638680 0.000000 0.000000 
#    y 0.000000 1.692540 0.000000 
#    z 0.000000 0.000000 1.632980 
# 
# From -- ./inp_files/8093.got.cif
#   From: 2010.05.17/outbox.ucp.g08.bks.cvg/sg55_5_cif.got.tgz:8093.got - 2010.06.11 16:36:00.
