data_PCOD9429757
_publ_section_title
;
Structure prediction by ZEFSAII (Michael W. Deem and Ramdas Pophale) SiO2 
 PCOD9429757
Probable space group: P C C N
;
_chemical_formula_sum "Si O2"
_cell_formula_units_Z 44
_cell_length_a 21.227599
_cell_length_b 11.602624
_cell_length_c 7.942571
_cell_angle_alpha 90.000000
_cell_angle_beta 90.000000
_cell_angle_gamma 90.000000
_cell_volume 1956.222273
_symmetry_space_group_name_H-M "P C C N"
_symmetry_group_IT_number 56
_symmetry_cell_setting 'orthorhombic'
loop_
_space_group_symop_operation_xyz
x,y,z
1/2-x,1/2-y,z
1/2+x,-y,1/2-z
-x,1/2+y,1/2-z
-x,-y,-z
1/2+x,1/2+y,-z
1/2-x,y,1/2+z
x,1/2-y,1/2+z
loop_
_atom_site_type_symbol
_atom_site_label
_atom_site_fract_x
_atom_site_fract_y
_atom_site_fract_z
Si Si1 0.750000 0.750000 0.016138
Si Si2 0.918749 0.351527 0.354491
Si Si3 0.059601 0.289187 0.472400
Si Si4 0.328383 0.119292 0.242607
Si Si5 0.105490 0.601397 0.264057
Si Si6 0.458840 0.071093 0.811619
O O1 0.691659 0.794924 0.906167
O O2 0.770723 0.857982 0.129055
O O3 0.887262 0.233441 0.294454
O O4 0.892256 0.398748 0.531360
O O5 0.924568 0.449556 0.212017
O O6 0.990959 0.320268 0.398772
O O7 0.111693 0.338631 0.348322
O O8 0.062005 0.352288 0.650485
O O9 0.059446 0.150047 0.469811
O O10 0.343191 0.988340 0.197084
O O11 0.034659 0.563495 0.206956
#
# Coordination Sequence:
#
# PCOD9429757 Si02
#       6
#     4   8   8   8   8   8
#     4  10  26  38  66  86 108 140 220 252 292 318
#     4  10  19  36  52  95 123 158 177 221 277 393
#     4  10  18  32  61  83 125 148 185 226 299 328
#     4  11  20  43  59  90 108 153 188 263 285 330
#     4  10  20  36  59  81 130 155 189 223 291 343
#     4  10  18  34  52  94 124 158 181 224 274 382
#
# _framework density 22.492332999999999
#
# number of rings (size 3 to 8) (size 9 to 14) (size 15 to 20)
#    0.000    1.818    3.636    2.182    0.000    0.000 
#    6.545    3.636    0.000    3.273    0.000    0.000 
#    0.000    0.000    0.000    0.000    0.000    0.000 
#
# Total GULP energy -246013.530216 kJ/mol
# GULP energy per Si atom -5591.216596 kJ/mol
# Density = 2.244114 g / cm^3
# Si number density = 22.492333 Si / 1000 Ang^3
#
#
#
# Elastic Constant Matrix: (Units=GPa)
#
#
# Indices 1 2 3 4 5 6 
#
# 1 40.9776 27.0070 15.2904 0.0000 0.0000 0.0000
# 2 27.0070 177.2715 34.5468 0.0000 0.0000 0.0000
# 3 15.2904 34.5468 53.7648 0.0000 0.0000 0.0000
# 4 0.0000 0.0000 0.0000 35.8247 0.0000 0.0000
# 5 0.0000 0.0000 0.0000 0.0000 19.6120 0.0000
# 6 0.0000 0.0000 0.0000 0.0000 0.0000 34.2272
#
#
#
# Elastic Compliance Matrix: (Units=1/GPa)
#
#
# Indices 1 2 3 4 5 6 
#
# 1 0.028797 -0.003191 -0.006140 0.000000 0.000000 0.000000
# 2 -0.003191 0.006802 -0.003463 0.000000 0.000000 0.000000
# 3 -0.006140 -0.003463 0.022571 0.000000 0.000000 0.000000
# 4 0.000000 0.000000 0.000000 0.027914 0.000000 0.000000
# 5 0.000000 0.000000 0.000000 0.000000 0.050989 0.000000
# 6 0.000000 0.000000 0.000000 0.000000 0.000000 0.029217
#
#
# Mechanical properties :
#
#
# Convention : Reuss Voigt Hill
#
# Bulk Modulus (GPa) = 30.69064 47.30026 38.99545
# Shear Modulus (GPa) = 24.66235 30.94410 27.80322
#
# Velocity S-wave (km/s) = 3.31490 3.71315 3.51966
# Velocity P-wave (km/s) = 5.32222 6.28160 5.82170
#
# Compressibility (1/GPa) = 0.03258322
#
# Stress axis : x y z
#
# Youngs Moduli (GPa) = 34.72531 147.01352 44.30477
#
# Poissons Ratio (x) = 0.46908 0.27201
# Poissons Ratio (y) = 0.11080 0.15344
# Poissons Ratio (z) = 0.21320 0.50915
#
# Static dielectric constant tensor:
#      x y z
#    x 1.834800 0.000000 0.000000 
#    y 0.000000 1.887710 0.000000 
#    z 0.000000 0.000000 1.903130 
# 
# From -- ./inp_files/2748.got.cif
#   From: 2010.05.17/outbox.cif.g08.bks.cpg/sg56_2_cif.got.tgz:2748.got - 2010.06.03 13:42:01.
