data_PCOD9429124
_publ_section_title
;
Structure prediction by ZEFSAII (Michael W. Deem and Ramdas Pophale) SiO2 
 PCOD9429124
Probable space group: P B A M
;
_chemical_formula_sum "Si O2"
_cell_formula_units_Z 34
_cell_length_a 9.054688
_cell_length_b 20.417328
_cell_length_c 7.805856
_cell_angle_alpha 90.000000
_cell_angle_beta 90.000000
_cell_angle_gamma 90.000000
_cell_volume 1443.088385
_symmetry_space_group_name_H-M "P B A M"
_symmetry_group_IT_number 55
_symmetry_cell_setting 'orthorhombic'
loop_
_space_group_symop_operation_xyz
x,y,z
-x,-y,z
1/2+x,1/2-y,-z
1/2-x,1/2+y,-z
-x,-y,-z
x,y,-z
1/2-x,1/2+y,z
1/2+x,1/2-y,z
loop_
_atom_site_type_symbol
_atom_site_label
_atom_site_fract_x
_atom_site_fract_y
_atom_site_fract_z
Si Si1 0.814246 0.693285 0.697273
Si Si2 0.000000 0.000000 0.500000
Si Si3 0.890269 0.076679 0.188993
Si Si4 0.358888 0.034698 0.198421
Si Si5 0.847737 0.321317 0.200813
O O1 0.828556 0.672351 0.500000
O O2 0.699584 0.643711 0.786339
O O3 0.745664 0.765383 0.707959
O O4 0.976693 0.690627 0.778712
O O5 0.989042 0.057064 0.348957
O O6 0.767197 0.019251 0.195500
O O7 0.962477 0.076588 0.000000
O O8 0.320102 0.105446 0.270469
O O9 0.500000 0.000000 0.282248
O O10 0.400018 0.049649 0.000000
O O11 0.807627 0.317332 0.000000
#
# Coordination Sequence:
#
# PCOD9429124 Si02
#       5
#     8   2   8   8   8
#     4  12  25  45  66 103 143 185 234 295 352 418
#     4  12  26  44  62 106 140 180 232 280 350 416
#     4  11  23  45  72  99 140 186 230 287 351 422
#     4   9  18  38  71 102 126 167 230 282 336 412
#     4  11  23  43  72 101 135 186 237 287 354 425
#
# _framework density 23.560580000000002
#
# number of rings (size 3 to 8) (size 9 to 14) (size 15 to 20)
#    0.000    1.176    3.529    3.176    0.000    1.882 
#    8.471    6.471    0.000    0.000    0.000    0.000 
#    0.000    0.000    0.000    0.000    0.000    0.000 
#
# Total GULP energy -189682.344962 kJ/mol
# GULP energy per Si atom -5578.892499 kJ/mol
# Density = 2.350695 g / cm^3
# Si number density = 23.560580 Si / 1000 Ang^3
#
#
#
# Elastic Constant Matrix: (Units=GPa)
#
#
# Indices 1 2 3 4 5 6 
#
# 1 41.1788 20.0415 14.2486 0.0000 0.0000 0.0000
# 2 20.0415 162.9878 3.5552 0.0000 0.0000 0.0000
# 3 14.2486 3.5552 136.5243 0.0000 0.0000 0.0000
# 4 0.0000 0.0000 0.0000 21.2226 0.0000 0.0000
# 5 0.0000 0.0000 0.0000 0.0000 -51.4127 0.0000
# 6 0.0000 0.0000 0.0000 0.0000 0.0000 42.0500
#
#
#
# Elastic Compliance Matrix: (Units=1/GPa)
#
#
# Indices 1 2 3 4 5 6 
#
# 1 0.026798 -0.003236 -0.002713 0.000000 0.000000 0.000000
# 2 -0.003236 0.006530 0.000168 0.000000 0.000000 0.000000
# 3 -0.002713 0.000168 0.007603 0.000000 0.000000 0.000000
# 4 0.000000 0.000000 0.000000 0.047120 0.000000 0.000000
# 5 0.000000 0.000000 0.000000 0.000000 -0.019450 0.000000
# 6 0.000000 0.000000 0.000000 0.000000 0.000000 0.023781
#
#
# Mechanical properties :
#
#
# Convention : Reuss Voigt Hill
#
# Bulk Modulus (GPa) = 34.04913 46.26459 40.15686
# Shear Modulus (GPa) = 43.96271 22.56169 33.26220
#
# Velocity S-wave (km/s) = 4.32434 3.09787 3.76143
# Velocity P-wave (km/s) = 6.27825 5.69867 5.99546
#
# Compressibility (1/GPa) = 0.02936933
#
# Stress axis : x y z
#
# Youngs Moduli (GPa) = 37.31638 153.14690 131.51948
#
# Poissons Ratio (x) = 0.49558 0.35675
# Poissons Ratio (y) = 0.12076 -0.02205
# Poissons Ratio (z) = 0.10122 -0.02568
#
# Static dielectric constant tensor:
#      x y z
#    x 1.901460 0.000000 0.000000 
#    y 0.000000 1.881400 0.000000 
#    z 0.000000 0.000000 1.911220 
# 
# From -- ./inp_files/2147.got.cif
#   From: 2010.05.17/outbox.cif.g08.bks.cpg/sg55_2_cif.got.tgz:2147.got - 2010.06.03 13:27:54.
