data_PCOD9429070
_publ_section_title
;
Structure prediction by ZEFSAII (Michael W. Deem and Ramdas Pophale) SiO2 
 PCOD9429070
Probable space group: P B A M
;
_chemical_formula_sum "Si O2"
_cell_formula_units_Z 48
_cell_length_a 19.109693
_cell_length_b 9.190238
_cell_length_c 13.642560
_cell_angle_alpha 90.000000
_cell_angle_beta 90.000000
_cell_angle_gamma 90.000000
_cell_volume 2395.942223
_symmetry_space_group_name_H-M "P B A M"
_symmetry_group_IT_number 55
_symmetry_cell_setting 'orthorhombic'
loop_
_space_group_symop_operation_xyz
x,y,z
-x,-y,z
1/2+x,1/2-y,-z
1/2-x,1/2+y,-z
-x,-y,-z
x,y,-z
1/2-x,1/2+y,z
1/2+x,1/2-y,z
loop_
_atom_site_type_symbol
_atom_site_label
_atom_site_fract_x
_atom_site_fract_y
_atom_site_fract_z
Si Si1 0.967127 0.161780 0.105456
Si Si2 0.806509 0.072596 0.112752
Si Si3 0.983730 0.172161 0.678594
Si Si4 0.779196 0.792984 0.760036
Si Si5 0.149982 0.672012 0.386759
Si Si6 0.387221 0.843075 0.391128
O O1 0.883457 0.144094 0.112343
O O2 0.991508 0.225536 0.208482
O O3 0.984841 0.231901 0.000000
O O4 0.000000 0.000000 0.102719
O O5 0.750893 0.182470 0.159233
O O6 0.807228 0.933095 0.182887
O O7 0.789711 0.034417 0.000000
O O8 0.905192 0.204382 0.643585
O O9 0.038347 0.264828 0.616435
O O10 0.000000 0.000000 0.673465
O O11 0.715221 0.830100 0.686743
O O12 0.838526 0.722268 0.693046
O O13 0.171685 0.691697 0.500000
O O14 0.110783 0.516826 0.379174
O O15 0.357380 0.815001 0.500000
#
# Coordination Sequence:
#
# PCOD9429070 Si02
#       6
#     8   8   8   8   8   8
#     4   9  18  35  60  90 122 158 199 251 311 369
#     4  11  23  40  66  93 125 166 208 259 321 382
#     4  11  22  40  65  95 125 164 212 264 312 378
#     4  12  22  43  62  94 126 166 210 267 316 379
#     4  11  24  42  62  88 129 173 211 259 322 377
#     4  11  25  42  63  90 128 171 213 261 322 380
#
# _framework density 20.033873
#
# number of rings (size 3 to 8) (size 9 to 14) (size 15 to 20)
#    0.000    1.167    3.333    4.000    0.000    2.667 
#    0.000    0.833    0.000    1.000    0.000    0.000 
#    0.000    0.000    0.000    0.000    0.000    0.000 
#
# Total GULP energy -268159.188697 kJ/mol
# GULP energy per Si atom -5586.649765 kJ/mol
# Density = 1.998828 g / cm^3
# Si number density = 20.033873 Si / 1000 Ang^3
#
#
#
# Elastic Constant Matrix: (Units=GPa)
#
#
# Indices 1 2 3 4 5 6 
#
# 1 43.3090 -4.0190 16.7897 0.0000 0.0000 0.0000
# 2 -4.0190 49.1495 29.8833 0.0000 0.0000 0.0000
# 3 16.7897 29.8833 137.8456 0.0000 0.0000 0.0000
# 4 0.0000 0.0000 0.0000 31.8669 0.0000 0.0000
# 5 0.0000 0.0000 0.0000 0.0000 36.8313 0.0000
# 6 0.0000 0.0000 0.0000 0.0000 0.0000 20.6003
#
#
#
# Elastic Compliance Matrix: (Units=1/GPa)
#
#
# Indices 1 2 3 4 5 6 
#
# 1 0.025069 0.004500 -0.004029 0.000000 0.000000 0.000000
# 2 0.004500 0.024243 -0.005804 0.000000 0.000000 0.000000
# 3 -0.004029 -0.005804 0.009003 0.000000 0.000000 0.000000
# 4 0.000000 0.000000 0.000000 0.031381 0.000000 0.000000
# 5 0.000000 0.000000 0.000000 0.000000 0.027151 0.000000
# 6 0.000000 0.000000 0.000000 0.000000 0.000000 0.048543
#
#
# Mechanical properties :
#
#
# Convention : Reuss Voigt Hill
#
# Bulk Modulus (GPa) = 20.98660 35.06801 28.02731
# Shear Modulus (GPa) = 26.05000 30.36972 28.20986
#
# Velocity S-wave (km/s) = 3.60988 3.89770 3.75655
# Velocity P-wave (km/s) = 5.27951 6.14805 5.73026
#
# Compressibility (1/GPa) = 0.04764944
#
# Stress axis : x y z
#
# Youngs Moduli (GPa) = 39.88941 41.24963 111.06967
#
# Poissons Ratio (x) = -0.18560 0.44749
# Poissons Ratio (y) = -0.17948 0.64460
# Poissons Ratio (z) = 0.16071 0.23939
#
# Static dielectric constant tensor:
#      x y z
#    x 1.699720 0.000000 0.000000 
#    y 0.000000 1.698050 0.000000 
#    z 0.000000 0.000000 1.724220 
# 
# From -- ./inp_files/17325.got.cif
#   From: 2010.05.17/outbox.cif.g08.bks.cpg/sg55_9_cif.got.tgz:17325.got - 2010.06.03 13:27:54.
