data_PCOD9429748
_publ_section_title
;
Structure prediction by ZEFSAII (Michael W. Deem and Ramdas Pophale) SiO2 
 PCOD9429748
Probable space group: P C C N
;
_chemical_formula_sum "Si O2"
_cell_formula_units_Z 64
_cell_length_a 7.774396
_cell_length_b 23.975764
_cell_length_c 14.589287
_cell_angle_alpha 90.000000
_cell_angle_beta 90.000000
_cell_angle_gamma 90.000000
_cell_volume 2719.400551
_symmetry_space_group_name_H-M "P C C N"
_symmetry_group_IT_number 56
_symmetry_cell_setting 'orthorhombic'
loop_
_space_group_symop_operation_xyz
x,y,z
1/2-x,1/2-y,z
1/2+x,-y,1/2-z
-x,1/2+y,1/2-z
-x,-y,-z
1/2+x,1/2+y,-z
1/2-x,y,1/2+z
x,1/2-y,1/2+z
loop_
_atom_site_type_symbol
_atom_site_label
_atom_site_fract_x
_atom_site_fract_y
_atom_site_fract_z
Si Si1 0.816364 0.887463 0.101767
Si Si2 0.533985 0.474528 0.630292
Si Si3 0.678766 0.594291 0.886376
Si Si4 0.302173 0.564537 0.545643
Si Si5 0.556330 0.724368 0.179157
Si Si6 0.464082 0.826672 0.067812
Si Si7 0.370751 0.299013 0.623910
Si Si8 0.990440 0.488292 0.336393
O O1 0.937598 0.838557 0.141200
O O2 0.627544 0.860448 0.108967
O O3 0.845469 0.947640 0.149808
O O4 0.852029 0.895550 0.993839
O O5 0.358903 0.438618 0.622289
O O6 0.466130 0.533602 0.592378
O O7 0.670881 0.448566 0.561073
O O8 0.582835 0.474876 0.735968
O O9 0.733714 0.653503 0.844227
O O10 0.529026 0.555160 0.845924
O O11 0.310064 0.629372 0.568602
O O12 0.135774 0.535223 0.585625
O O13 0.750000 0.750000 0.171675
O O14 0.446450 0.768783 0.121411
O O15 0.522996 0.720174 0.287714
O O16 0.514348 0.817621 0.961240
O O17 0.250000 0.250000 0.587268
#
# Coordination Sequence:
#
# PCOD9429748 Si02
#       8
#     8   8   8   8   8   8   8   8
#     4  10  19  36  60  90 122 151 204 253 310 352
#     4  10  21  41  61  83 124 169 203 238 316 365
#     4  10  20  39  57  91 118 167 195 254 307 367
#     4  10  22  41  61  86 120 167 205 249 305 381
#     4   9  19  32  58  94 117 156 203 262 305 365
#     4  10  19  37  64  88 119 165 202 255 309 373
#     4  10  18  32  56  89 120 149 203 251 313 357
#     4  11  24  38  62  94 125 164 207 255 306 372
#
# _framework density 23.534599
#
# number of rings (size 3 to 8) (size 9 to 14) (size 15 to 20)
#    0.000    2.000    2.500    3.000    0.000    5.000 
#    4.500    0.625    0.000    0.000    0.000    0.000 
#    0.000    0.000    0.000    0.000    0.000    0.000 
#
# Total GULP energy -357602.726959 kJ/mol
# GULP energy per Si atom -5587.542609 kJ/mol
# Density = 2.348103 g / cm^3
# Si number density = 23.534599 Si / 1000 Ang^3
#
#
#
# Elastic Constant Matrix: (Units=GPa)
#
#
# Indices 1 2 3 4 5 6 
#
# 1 55.2153 9.8524 13.1922 0.0000 0.0000 0.0000
# 2 9.8524 124.5079 8.9758 0.0000 0.0000 0.0000
# 3 13.1922 8.9758 84.6927 0.0000 0.0000 0.0000
# 4 0.0000 0.0000 0.0000 25.4864 0.0000 0.0000
# 5 0.0000 0.0000 0.0000 0.0000 -4.7940 0.0000
# 6 0.0000 0.0000 0.0000 0.0000 0.0000 22.5220
#
#
#
# Elastic Compliance Matrix: (Units=1/GPa)
#
#
# Indices 1 2 3 4 5 6 
#
# 1 0.019018 -0.001301 -0.002824 0.000000 0.000000 0.000000
# 2 -0.001301 0.008182 -0.000664 0.000000 0.000000 0.000000
# 3 -0.002824 -0.000664 0.012318 0.000000 0.000000 0.000000
# 4 0.000000 0.000000 0.000000 0.039237 0.000000 0.000000
# 5 0.000000 0.000000 0.000000 0.000000 -0.208595 0.000000
# 6 0.000000 0.000000 0.000000 0.000000 0.000000 0.044401
#
#
# Mechanical properties :
#
#
# Convention : Reuss Voigt Hill
#
# Bulk Modulus (GPa) = 33.40262 36.49520 34.94891
# Shear Modulus (GPa) = -75.89664 24.13592 -25.88036
#
# Velocity S-wave (km/s) = -5.68498 3.20590 -3.31973
# Velocity P-wave (km/s) = 5.37291 5.40781 0.43372
#
# Compressibility (1/GPa) = 0.02993777
#
# Stress axis : x y z
#
# Youngs Moduli (GPa) = 52.58192 122.21212 81.18350
#
# Poissons Ratio (x) = 0.15903 0.22930
# Poissons Ratio (y) = 0.06842 0.05395
# Poissons Ratio (z) = 0.14851 0.08121
#
# Static dielectric constant tensor:
#      x y z
#    x 1.967920 0.000000 0.000000 
#    y 0.000000 1.957490 0.000000 
#    z 0.000000 0.000000 1.873860 
# 
# From -- ./inp_files/11037.got.cif
#   From: 2010.05.17/outbox.cif.g08.bks.cpg/sg56_6_cif.got.tgz:11037.got - 2010.06.03 13:42:01.
