data_PCOD9429436
_publ_section_title
;
Structure prediction by ZEFSAII (Michael W. Deem and Ramdas Pophale) SiO2 
 PCOD9429436
Probable space group: P B A M
;
_chemical_formula_sum "Si O2"
_cell_formula_units_Z 64
_cell_length_a 15.000000
_cell_length_b 24.000000
_cell_length_c 9.000000
_cell_angle_alpha 90.000000
_cell_angle_beta 90.000000
_cell_angle_gamma 90.000000
_cell_volume 3240.000000
_symmetry_space_group_name_H-M "P B A M"
_symmetry_group_IT_number 55
_symmetry_cell_setting 'orthorhombic'
loop_
_space_group_symop_operation_xyz
x,y,z
-x,-y,z
1/2+x,1/2-y,-z
1/2-x,1/2+y,-z
-x,-y,-z
x,y,-z
1/2-x,1/2+y,z
1/2+x,1/2-y,z
loop_
_atom_site_type_symbol
_atom_site_label
_atom_site_fract_x
_atom_site_fract_y
_atom_site_fract_z
Si Si1 0.733292 0.919601 0.679164
Si Si2 0.894836 0.511924 0.827116
Si Si3 0.121615 0.267140 0.174524
Si Si4 0.054427 0.790115 0.178882
Si Si5 0.602922 0.493454 0.678661
Si Si6 0.839226 0.106129 0.822617
Si Si7 0.157259 0.374315 0.675420
Si Si8 0.803223 0.300069 0.822637
O O1 0.724569 0.921849 0.500000
O O2 0.711672 0.858118 0.739112
O O3 0.664214 0.963032 0.754304
O O4 0.834314 0.940687 0.717986
O O5 0.881871 0.567891 0.732833
O O6 0.000000 0.500000 0.826351
O O7 0.866963 0.519987 0.000000
O O8 0.102369 0.320370 0.276003
O O9 0.217166 0.239239 0.196832
O O10 0.047697 0.221193 0.208757
O O11 0.113347 0.283030 0.000000
O O12 0.086552 0.850237 0.231346
O O13 0.113974 0.737831 0.230374
O O14 0.067788 0.791167 0.000000
O O15 0.500000 0.500000 0.730222
O O16 0.601924 0.496420 0.500000
O O17 0.652133 0.547014 0.744881
O O18 0.747269 0.132704 0.770163
O O19 0.842351 0.099620 0.000000
O O20 0.173461 0.375832 0.500000
O O21 0.813210 0.311535 0.000000
#
# Coordination Sequence:
#
# PCOD9429436 Si02
#       8
#     8   8   8   8   8   8   8   8
#     4  11  24  41  61  89 128 165 202 252 308 367
#     4  11  25  44  67  92 119 160 208 254 307 366
#     4  10  21  40  64  88 120 161 205 253 299 354
#     4   9  20  38  61  90 118 152 200 252 300 348
#     4  10  23  42  61  87 126 168 204 251 313 367
#     4  11  21  39  66  92 119 158 209 258 303 360
#     4  12  24  40  63  92 125 159 200 254 312 368
#     4  10  21  39  61  86 121 161 204 250 299 356
#
# _framework density 19.753086
#
# number of rings (size 3 to 8) (size 9 to 14) (size 15 to 20)
#    0.000    1.500    2.500    2.250    3.500    2.250 
#    0.000    1.250    0.000    0.000    0.000    0.000 
#    0.000    0.000    0.000    0.000    0.000    0.000 
#
# Total GULP energy -357258.768169 kJ/mol
# GULP energy per Si atom -5582.168253 kJ/mol
# Density = 1.970813 g / cm^3
# Si number density = 19.753086 Si / 1000 Ang^3
#
#
#
# Elastic Constant Matrix: (Units=GPa)
#
#
# Indices 1 2 3 4 5 6 
#
# 1 44.5362 -23.6367 -5.4601 0.0000 0.0000 0.0000
# 2 -23.6367 60.1397 -2.2288 0.0000 0.0000 0.0000
# 3 -5.4601 -2.2288 -1.7231 0.0000 0.0000 0.0000
# 4 0.0000 0.0000 0.0000 26.2993 0.0000 0.0000
# 5 0.0000 0.0000 0.0000 0.0000 18.0178 0.0000
# 6 0.0000 0.0000 0.0000 0.0000 0.0000 23.1877
#
#
#
# Elastic Compliance Matrix: (Units=1/GPa)
#
#
# Indices 1 2 3 4 5 6 
#
# 1 0.017397 0.004575 -0.061047 0.000000 0.000000 0.000000
# 2 0.004575 0.017070 -0.036579 0.000000 0.000000 0.000000
# 3 -0.061047 -0.036579 -0.339592 0.000000 0.000000 0.000000
# 4 0.000000 0.000000 0.000000 0.038024 0.000000 0.000000
# 5 0.000000 0.000000 0.000000 0.000000 0.055501 0.000000
# 6 0.000000 0.000000 0.000000 0.000000 0.000000 0.043126
#
#
# Mechanical properties :
#
#
# Convention : Reuss Voigt Hill
#
# Bulk Modulus (GPa) = -2.03572 4.47795 1.22112
# Shear Modulus (GPa) = -34.22020 22.45285 -5.88367
#
# Velocity S-wave (km/s) = -4.16672 3.37512 -1.72774
# Velocity P-wave (km/s) = 4.91748 4.17857 1.83319
#
# Compressibility (1/GPa) = -0.49122659
#
# Stress axis : x y z
#
# Youngs Moduli (GPa) = 57.47980 58.58064 -2.94471
#
# Poissons Ratio (x) = -0.26802 -0.17977
# Poissons Ratio (y) = -0.26298 -0.10771
# Poissons Ratio (z) = 3.50900 2.14282
#
# Static dielectric constant tensor:
#      x y z
#    x 1.748940 0.000000 0.000000 
#    y 0.000000 1.665070 0.000000 
#    z 0.000000 0.000000 1.665610 
# 
# From -- ./inp_files/6650.got.cif
#   From: 2010.05.17/outbox.ucp.g08.bks.cvg/sg55_4_cif.got.tgz:6650.got - 2010.06.11 16:36:00.
