data_PCOD9429411
_publ_section_title
;
Structure prediction by ZEFSAII (Michael W. Deem and Ramdas Pophale) SiO2 
 PCOD9429411
Probable space group: P B A M
;
_chemical_formula_sum "Si O2"
_cell_formula_units_Z 48
_cell_length_a 9.000000
_cell_length_b 18.000000
_cell_length_c 15.000000
_cell_angle_alpha 90.000000
_cell_angle_beta 90.000000
_cell_angle_gamma 90.000000
_cell_volume 2430.000000
_symmetry_space_group_name_H-M "P B A M"
_symmetry_group_IT_number 55
_symmetry_cell_setting 'orthorhombic'
loop_
_space_group_symop_operation_xyz
x,y,z
-x,-y,z
1/2+x,1/2-y,-z
1/2-x,1/2+y,-z
-x,-y,-z
x,y,-z
1/2-x,1/2+y,z
1/2+x,1/2-y,z
loop_
_atom_site_type_symbol
_atom_site_label
_atom_site_fract_x
_atom_site_fract_y
_atom_site_fract_z
Si Si1 0.778888 0.793250 0.809652
Si Si2 0.650791 0.928067 0.896690
Si Si3 0.666943 0.533544 0.765002
Si Si4 0.240764 0.357220 0.395110
Si Si5 0.513627 0.746826 0.681615
Si Si6 0.183153 0.365299 0.895642
O O1 0.741717 0.851803 0.885551
O O2 0.630226 0.783233 0.750452
O O3 0.908402 0.808887 0.738107
O O4 0.827926 0.716263 0.854432
O O5 0.475059 0.909048 0.885066
O O6 0.721076 0.974176 0.813342
O O7 0.670355 0.956401 0.000000
O O8 0.500000 0.500000 0.755648
O O9 0.727393 0.573843 0.673957
O O10 0.683328 0.597097 0.840589
O O11 0.224825 0.377553 0.500000
O O12 0.096527 0.308694 0.361940
O O13 0.382434 0.301636 0.383636
O O14 0.214742 0.361916 0.000000
#
# Coordination Sequence:
#
# PCOD9429411 Si02
#       6
#     8   8   8   8   8   8
#     4  11  19  40  63  98 132 171 216 271 323 379
#     4  11  24  39  62  94 134 184 225 262 321 390
#     4  12  25  43  62  93 136 177 212 271 331 388
#     4  11  23  43  70 100 127 163 215 273 334 398
#     4  10  20  38  69  96 127 165 202 272 336 380
#     4  11  23  41  64  92 131 180 227 270 317 385
#
# _framework density 19.753086
#
# number of rings (size 3 to 8) (size 9 to 14) (size 15 to 20)
#    0.000    1.000    5.000    3.000    0.000    3.000 
#    0.000    0.000    0.000    9.000    0.000    0.000 
#    0.000    0.000    0.000    0.000    0.000    0.000 
#
# Total GULP energy -267815.697994 kJ/mol
# GULP energy per Si atom -5579.493708 kJ/mol
# Density = 1.970813 g / cm^3
# Si number density = 19.753086 Si / 1000 Ang^3
#
#
#
# Elastic Constant Matrix: (Units=GPa)
#
#
# Indices 1 2 3 4 5 6 
#
# 1 116.9289 35.2132 57.7441 0.0000 0.0000 0.0000
# 2 35.2132 85.3184 46.6003 0.0000 0.0000 0.0000
# 3 57.7441 46.6003 169.5136 0.0000 0.0000 0.0000
# 4 0.0000 0.0000 0.0000 33.4021 0.0000 0.0000
# 5 0.0000 0.0000 0.0000 0.0000 28.5865 0.0000
# 6 0.0000 0.0000 0.0000 0.0000 0.0000 39.4751
#
#
#
# Elastic Compliance Matrix: (Units=1/GPa)
#
#
# Indices 1 2 3 4 5 6 
#
# 1 0.010858 -0.002896 -0.002903 0.000000 0.000000 0.000000
# 2 -0.002896 0.014564 -0.003017 0.000000 0.000000 0.000000
# 3 -0.002903 -0.003017 0.007717 0.000000 0.000000 0.000000
# 4 0.000000 0.000000 0.000000 0.029938 0.000000 0.000000
# 5 0.000000 0.000000 0.000000 0.000000 0.034982 0.000000
# 6 0.000000 0.000000 0.000000 0.000000 0.000000 0.025332
#
#
# Mechanical properties :
#
#
# Convention : Reuss Voigt Hill
#
# Bulk Modulus (GPa) = 64.48389 72.31956 68.40172
# Shear Modulus (GPa) = 34.20158 35.77295 34.98727
#
# Velocity S-wave (km/s) = 4.16559 4.26021 4.21316
# Velocity P-wave (km/s) = 7.47342 7.80323 7.64011
#
# Compressibility (1/GPa) = 0.01550775
#
# Stress axis : x y z
#
# Youngs Moduli (GPa) = 92.10061 68.66230 129.57687
#
# Poissons Ratio (x) = 0.19884 0.37610
# Poissons Ratio (y) = 0.26672 0.39097
# Poissons Ratio (z) = 0.26732 0.20717
#
# Static dielectric constant tensor:
#      x y z
#    x 1.705530 0.000000 0.000000 
#    y 0.000000 1.795810 0.000000 
#    z 0.000000 0.000000 1.671540 
# 
# From -- ./inp_files/17310.got.cif
#   From: 2010.05.17/outbox.ucp.g08.bks.cvg/sg55_9_cif.got.tgz:17310.got - 2010.06.11 16:36:00.
