data_PCOD9429307
_publ_section_title
;
Structure prediction by ZEFSAII (Michael W. Deem and Ramdas Pophale) SiO2 
 PCOD9429307
Probable space group: P B A M
;
_chemical_formula_sum "Si O2"
_cell_formula_units_Z 64
_cell_length_a 15.000000
_cell_length_b 24.000000
_cell_length_c 9.000000
_cell_angle_alpha 90.000000
_cell_angle_beta 90.000000
_cell_angle_gamma 90.000000
_cell_volume 3240.000000
_symmetry_space_group_name_H-M "P B A M"
_symmetry_group_IT_number 55
_symmetry_cell_setting 'orthorhombic'
loop_
_space_group_symop_operation_xyz
x,y,z
-x,-y,z
1/2+x,1/2-y,-z
1/2-x,1/2+y,-z
-x,-y,-z
x,y,-z
1/2-x,1/2+y,z
1/2+x,1/2-y,z
loop_
_atom_site_type_symbol
_atom_site_label
_atom_site_fract_x
_atom_site_fract_y
_atom_site_fract_z
Si Si1 0.871540 0.075664 0.680368
Si Si2 0.269580 0.832918 0.678808
Si Si3 0.939164 0.882734 0.319871
Si Si4 0.863279 0.391869 0.177218
Si Si5 0.780354 0.960782 0.679943
Si Si6 0.486003 0.265803 0.328030
Si Si7 0.806799 0.269235 0.176034
Si Si8 0.457004 0.861305 0.670931
O O1 0.873742 0.073646 0.500000
O O2 0.815754 0.130324 0.721226
O O3 0.973132 0.083369 0.729916
O O4 0.821309 0.019841 0.727551
O O5 0.272434 0.827672 0.500000
O O6 0.263733 0.771488 0.747120
O O7 0.356221 0.868459 0.723650
O O8 0.936930 0.885010 0.500000
O O9 0.850646 0.913451 0.269612
O O10 0.954122 0.818118 0.281099
O O11 0.813130 0.443407 0.250876
O O12 0.815085 0.333587 0.226275
O O13 0.964700 0.386505 0.231688
O O14 0.859339 0.394451 0.000000
O O15 0.773885 0.960565 0.500000
O O16 0.455876 0.276736 0.500000
O O17 0.401387 0.257482 0.223250
O O18 0.532674 0.205967 0.329222
O O19 0.794799 0.268483 0.000000
O O20 0.466927 0.880209 0.500000
#
# Coordination Sequence:
#
# PCOD9429307 Si02
#       8
#     8   8   8   8   8   8   8   8
#     4   9  17  32  53  81 111 139 174 220 271 316
#     4  10  19  33  56  82 110 140 175 223 272 315
#     4   9  16  28  51  82 110 137 171 216 266 314
#     4  10  22  39  54  73 108 146 178 222 274 317
#     4  10  20  33  56  81 104 140 186 225 261 318
#     4   9  16  30  50  75 105 134 169 214 262 309
#     4  10  20  33  50  75 106 141 176 210 260 321
#     4   9  19  33  54  81 105 135 178 223 268 319
#
# _framework density 19.753086
#
# number of rings (size 3 to 8) (size 9 to 14) (size 15 to 20)
#    0.000    2.500    1.250    1.125    1.750    3.500 
#    0.000    1.875    0.000    4.500    0.000    0.000 
#    0.000    0.000    0.000    0.000    0.000    0.000 
#
# Total GULP energy -356863.532401 kJ/mol
# GULP energy per Si atom -5575.992694 kJ/mol
# Density = 1.970813 g / cm^3
# Si number density = 19.753086 Si / 1000 Ang^3
#
#
#
# Elastic Constant Matrix: (Units=GPa)
#
#
# Indices 1 2 3 4 5 6 
#
# 1 56.4773 -18.5745 7.0708 0.0000 0.0000 0.0000
# 2 -18.5745 6.2538 -3.7588 0.0000 0.0000 0.0000
# 3 7.0708 -3.7588 9.8628 0.0000 0.0000 0.0000
# 4 0.0000 0.0000 0.0000 11.6908 0.0000 0.0000
# 5 0.0000 0.0000 0.0000 0.0000 0.5505 0.0000
# 6 0.0000 0.0000 0.0000 0.0000 0.0000 11.8405
#
#
#
# Elastic Compliance Matrix: (Units=1/GPa)
#
#
# Indices 1 2 3 4 5 6 
#
# 1 -1.118009 -3.682342 -0.601851 0.000000 0.000000 0.000000
# 2 -3.682342-11.920973 -1.903247 0.000000 0.000000 0.000000
# 3 -0.601851 -1.903247 -0.192475 0.000000 0.000000 0.000000
# 4 0.000000 0.000000 0.000000 0.085538 0.000000 0.000000
# 5 0.000000 0.000000 0.000000 0.000000 1.816524 0.000000
# 6 0.000000 0.000000 0.000000 0.000000 0.000000 0.084456
#
#
# Mechanical properties :
#
#
# Convention : Reuss Voigt Hill
#
# Bulk Modulus (GPa) = -0.03905 4.67432 2.31763
# Shear Modulus (GPa) = -0.67517 10.67346 4.99914
#
# Velocity S-wave (km/s) = -0.58528 2.32705 1.59258
# Velocity P-wave (km/s) = 0.69032 3.09705 2.13485
#
# Compressibility (1/GPa) = -25.60633707
#
# Stress axis : x y z
#
# Youngs Moduli (GPa) = -0.89445 -0.08389 -5.19548
#
# Poissons Ratio (x) = -0.30890 -3.12690
# Poissons Ratio (y) = -3.29366 -9.88828
# Poissons Ratio (z) = -0.53832 -0.15966
#
# Static dielectric constant tensor:
#      x y z
#    x 1.726780 0.000000 0.000000 
#    y 0.000000 1.702990 0.000000 
#    z 0.000000 0.000000 1.658020 
# 
# From -- ./inp_files/6699.got.cif
#   From: 2010.05.17/outbox.ucp.g08.bks.cvg/sg55_4_cif.got.tgz:6699.got - 2010.06.11 16:36:00.
