data_PCOD9429600
_publ_section_title
;
Structure prediction by ZEFSAII (Michael W. Deem and Ramdas Pophale) SiO2 
 PCOD9429600
Probable space group: P C C N
;
_chemical_formula_sum "Si O2"
_cell_formula_units_Z 60
_cell_length_a 22.871749
_cell_length_b 8.057432
_cell_length_c 15.329723
_cell_angle_alpha 90.000000
_cell_angle_beta 90.000000
_cell_angle_gamma 90.000000
_cell_volume 2825.077282
_symmetry_space_group_name_H-M "P C C N"
_symmetry_group_IT_number 56
_symmetry_cell_setting 'orthorhombic'
loop_
_space_group_symop_operation_xyz
x,y,z
1/2-x,1/2-y,z
1/2+x,-y,1/2-z
-x,1/2+y,1/2-z
-x,-y,-z
1/2+x,1/2+y,-z
1/2-x,y,1/2+z
x,1/2-y,1/2+z
loop_
_atom_site_type_symbol
_atom_site_label
_atom_site_fract_x
_atom_site_fract_y
_atom_site_fract_z
Si Si1 0.231919 0.973050 0.742101
Si Si2 0.637713 0.101128 0.995951
Si Si3 0.482195 0.761432 0.561369
Si Si4 0.961408 0.637311 0.395500
Si Si5 0.130682 0.132384 0.663397
Si Si6 0.250000 0.750000 0.079866
Si Si7 0.450989 0.661676 0.736408
Si Si8 0.844210 0.346386 0.195324
O O1 0.249663 0.902305 0.646954
O O2 0.192848 0.828232 0.790862
O O3 0.294699 0.983424 0.785591
O O4 0.188093 0.122625 0.723184
O O5 0.575631 0.165548 0.964728
O O6 0.691112 0.226886 0.974092
O O7 0.646792 0.942174 0.932684
O O8 0.635044 0.103306 0.099658
O O9 0.527209 0.750920 0.481879
O O10 0.496534 0.699965 0.658565
O O11 0.462369 0.950989 0.571508
O O12 0.902315 0.696486 0.350215
O O13 0.014698 0.651997 0.327008
O O14 0.084008 0.004797 0.708748
O O15 0.401272 0.805485 0.745970
#
# Coordination Sequence:
#
# PCOD9429600 Si02
#       8
#     8   8   8   8   8   4   8   8
#     4   8  15  28  48  79 104 138 178 241 290 339
#     4  10  17  31  52  84 105 143 193 243 289 348
#     4  10  22  35  55  80 114 152 199 238 294 361
#     4  11  21  38  53  78 120 160 191 240 299 360
#     4   9  20  33  54  80 115 144 189 241 295 344
#     4   8  14  26  50  72 102 126 180 240 280 324
#     4  10  19  35  55  81 111 152 200 242 284 346
#     4   9  15  28  51  78 109 135 186 239 284 337
#
# _framework density 21.238356
#
# number of rings (size 3 to 8) (size 9 to 14) (size 15 to 20)
#    0.000    2.667    1.333    4.000    0.000    2.133 
#    2.400    0.000    0.000    7.200    0.000    9.333 
#    0.000    0.000    0.000    0.000    0.000    0.000 
#
# Total GULP energy -334103.721628 kJ/mol
# GULP energy per Si atom -5568.395360 kJ/mol
# Density = 2.119002 g / cm^3
# Si number density = 21.238356 Si / 1000 Ang^3
#
#
#
# Elastic Constant Matrix: (Units=GPa)
#
#
# Indices 1 2 3 4 5 6 
#
# 1 37.3215 8.1379 7.7462 0.0000 0.0000 0.0000
# 2 8.1379 34.6013 2.9454 0.0000 0.0000 0.0000
# 3 7.7462 2.9454 95.6350 0.0000 0.0000 0.0000
# 4 0.0000 0.0000 0.0000 11.5637 0.0000 0.0000
# 5 0.0000 0.0000 0.0000 0.0000 13.5201 0.0000
# 6 0.0000 0.0000 0.0000 0.0000 0.0000 19.6975
#
#
#
# Elastic Compliance Matrix: (Units=1/GPa)
#
#
# Indices 1 2 3 4 5 6 
#
# 1 0.028665 -0.006561 -0.002120 0.000000 0.000000 0.000000
# 2 -0.006561 0.030479 -0.000407 0.000000 0.000000 0.000000
# 3 -0.002120 -0.000407 0.010641 0.000000 0.000000 0.000000
# 4 0.000000 0.000000 0.000000 0.086478 0.000000 0.000000
# 5 0.000000 0.000000 0.000000 0.000000 0.073964 0.000000
# 6 0.000000 0.000000 0.000000 0.000000 0.000000 0.050768
#
#
# Mechanical properties :
#
#
# Convention : Reuss Voigt Hill
#
# Bulk Modulus (GPa) = 19.37703 22.80188 21.08945
# Shear Modulus (GPa) = 15.80416 18.87147 17.33781
#
# Velocity S-wave (km/s) = 2.73084 2.98410 2.86027
# Velocity P-wave (km/s) = 4.36883 4.75738 4.56724
#
# Compressibility (1/GPa) = 0.05160751
#
# Stress axis : x y z
#
# Youngs Moduli (GPa) = 34.88598 32.81001 93.97917
#
# Poissons Ratio (x) = 0.21528 0.19921
# Poissons Ratio (y) = 0.22890 0.03827
# Poissons Ratio (z) = 0.07395 0.01336
#
# Static dielectric constant tensor:
#      x y z
#    x 1.900960 0.000000 0.000000 
#    y 0.000000 1.821010 0.000000 
#    z 0.000000 0.000000 1.823470 
# 
# From -- ./inp_files/13413.got.cif
#   From: 2010.05.17/outbox.cif.g08.bks.cpg/sg56_7_cif.got.tgz:13413.got - 2010.06.03 13:42:01.
