data_PCOD9429362
_publ_section_title
;
Structure prediction by ZEFSAII (Michael W. Deem and Ramdas Pophale) SiO2 
 PCOD9429362
Probable space group: P B A M
;
_chemical_formula_sum "Si O2"
_cell_formula_units_Z 56
_cell_length_a 21.000000
_cell_length_b 15.000000
_cell_length_c 9.000000
_cell_angle_alpha 90.000000
_cell_angle_beta 90.000000
_cell_angle_gamma 90.000000
_cell_volume 2835.000000
_symmetry_space_group_name_H-M "P B A M"
_symmetry_group_IT_number 55
_symmetry_cell_setting 'orthorhombic'
loop_
_space_group_symop_operation_xyz
x,y,z
-x,-y,z
1/2+x,1/2-y,-z
1/2-x,1/2+y,-z
-x,-y,-z
x,y,-z
1/2-x,1/2+y,z
1/2+x,1/2-y,z
loop_
_atom_site_type_symbol
_atom_site_label
_atom_site_fract_x
_atom_site_fract_y
_atom_site_fract_z
Si Si1 0.059559 0.557220 0.179939
Si Si2 0.224045 0.763440 0.321644
Si Si3 0.200294 0.569695 0.180368
Si Si4 0.501676 0.753204 0.178950
Si Si5 0.355801 0.748661 0.825695
Si Si6 0.660962 0.465154 0.826640
Si Si7 0.901469 0.121298 0.323381
O O1 0.131304 0.531978 0.226394
O O2 0.043681 0.659704 0.215361
O O3 0.000000 0.500000 0.236832
O O4 0.059199 0.549240 0.000000
O O5 0.227595 0.757036 0.500000
O O6 0.207093 0.667620 0.250603
O O7 0.294283 0.787729 0.258735
O O8 0.164626 0.827233 0.282701
O O9 0.265376 0.518785 0.221239
O O10 0.201144 0.578001 0.000000
O O11 0.428027 0.769282 0.225310
O O12 0.538215 0.669723 0.249434
O O13 0.500238 0.742624 0.000000
O O14 0.349894 0.640928 0.815224
O O15 0.350660 0.773875 0.000000
O O16 0.611186 0.521645 0.733087
O O17 0.845278 0.989905 0.000000
O O18 0.908479 0.124529 0.500000
#
# Coordination Sequence:
#
# PCOD9429362 Si02
#       7
#     8   8   8   8   8   8   8
#     4   9  17  30  53  85 114 139 174 222 277 332
#     4  10  20  34  54  77 105 145 185 226 272 324
#     4   9  17  33  56  80 106 138 179 226 274 326
#     4  10  20  36  59  82 109 147 183 226 281 331
#     4   9  20  37  57  83 110 141 185 231 279 332
#     4   9  19  34  53  78 107 141 184 234 278 321
#     4  11  23  36  53  80 112 147 191 228 269 332
#
# _framework density 19.753086
#
# number of rings (size 3 to 8) (size 9 to 14) (size 15 to 20)
#    0.000    2.429    1.429    1.714    0.000    6.286 
#    0.000    5.714    0.000    1.714    0.000    0.000 
#    0.000    0.000    0.000    0.000    0.000    0.000 
#
# Total GULP energy -312441.029671 kJ/mol
# GULP energy per Si atom -5579.304101 kJ/mol
# Density = 1.970813 g / cm^3
# Si number density = 19.753086 Si / 1000 Ang^3
#
#
#
# Elastic Constant Matrix: (Units=GPa)
#
#
# Indices 1 2 3 4 5 6 
#
# 1 95.1603 -17.0505 9.2359 0.0000 0.0000 0.0000
# 2 -17.0505 2.4313 -1.1295 0.0000 0.0000 0.0000
# 3 9.2359 -1.1295 16.2227 0.0000 0.0000 0.0000
# 4 0.0000 0.0000 0.0000 13.5367 0.0000 0.0000
# 5 0.0000 0.0000 0.0000 0.0000 24.4253 0.0000
# 6 0.0000 0.0000 0.0000 0.0000 0.0000 32.5740
#
#
#
# Elastic Compliance Matrix: (Units=1/GPa)
#
#
# Indices 1 2 3 4 5 6 
#
# 1 -0.040778 -0.284385 0.003415 0.000000 0.000000 0.000000
# 2 -0.284385 -1.558252 0.053411 0.000000 0.000000 0.000000
# 3 0.003415 0.053411 0.063417 0.000000 0.000000 0.000000
# 4 0.000000 0.000000 0.000000 0.073873 0.000000 0.000000
# 5 0.000000 0.000000 0.000000 0.000000 0.040941 0.000000
# 6 0.000000 0.000000 0.000000 0.000000 0.000000 0.030699
#
#
# Mechanical properties :
#
#
# Convention : Reuss Voigt Hill
#
# Bulk Modulus (GPa) = -0.50233 10.65846 5.07807
# Shear Modulus (GPa) = -3.12782 22.29108 9.58163
#
# Velocity S-wave (km/s) = -1.25972 3.36294 2.20482
# Velocity P-wave (km/s) = 1.53971 4.52622 3.00965
#
# Compressibility (1/GPa) = -1.99073088
#
# Stress axis : x y z
#
# Youngs Moduli (GPa) = -24.52309 -0.64174 15.76870
#
# Poissons Ratio (x) = -0.18250 -0.05385
# Poissons Ratio (y) = -6.97400 -0.84222
# Poissons Ratio (z) = 0.08375 0.03428
#
# Static dielectric constant tensor:
#      x y z
#    x 1.721590 0.000000 0.000000 
#    y 0.000000 1.704310 0.000000 
#    z 0.000000 0.000000 1.655740 
# 
# From -- ./inp_files/8692.got.cif
#   From: 2010.05.17/outbox.ucp.g08.bks.cvg/sg55_5_cif.got.tgz:8692.got - 2010.06.11 16:36:00.
