data_PCOD9429882
_publ_section_title
;
Structure prediction by ZEFSAII (Michael W. Deem and Ramdas Pophale) SiO2 
 PCOD9429882
Probable space group: P C C N
;
_chemical_formula_sum "Si O2"
_cell_formula_units_Z 56
_cell_length_a 8.121734
_cell_length_b 21.907634
_cell_length_c 14.434019
_cell_angle_alpha 90.000000
_cell_angle_beta 90.000000
_cell_angle_gamma 90.000000
_cell_volume 2568.215785
_symmetry_space_group_name_H-M "P C C N"
_symmetry_group_IT_number 56
_symmetry_cell_setting 'orthorhombic'
loop_
_space_group_symop_operation_xyz
x,y,z
1/2-x,1/2-y,z
1/2+x,-y,1/2-z
-x,1/2+y,1/2-z
-x,-y,-z
1/2+x,1/2+y,-z
1/2-x,y,1/2+z
x,1/2-y,1/2+z
loop_
_atom_site_type_symbol
_atom_site_label
_atom_site_fract_x
_atom_site_fract_y
_atom_site_fract_z
Si Si1 0.868099 0.938171 0.663954
Si Si2 0.873582 0.951917 0.324452
Si Si3 0.822463 0.549625 0.504912
Si Si4 0.968599 0.338876 0.068509
Si Si5 0.344396 0.591972 0.964099
Si Si6 0.750000 0.250000 0.195520
Si Si7 0.250000 0.250000 0.587244
Si Si8 0.505615 0.835613 0.294724
O O1 0.702358 0.953734 0.722191
O O2 0.828321 0.920794 0.558647
O O3 0.928432 0.880201 0.718821
O O4 0.998851 0.992796 0.665535
O O5 0.721037 0.957448 0.397027
O O6 0.961070 0.890048 0.359816
O O7 0.820143 0.480837 0.545071
O O8 0.986912 0.588287 0.524140
O O9 0.825746 0.374349 0.008899
O O10 0.862021 0.291267 0.129177
O O11 0.119590 0.294873 0.035083
O O12 0.407184 0.624432 0.870887
O O13 0.625343 0.290783 0.251748
O O14 0.356280 0.203525 0.651434
#
# Coordination Sequence:
#
# PCOD9429882 Si02
#       8
#     8   8   8   8   8   4   4   8
#     4  12  24  38  64  98 130 177 216 268 344 410
#     4  12  25  40  63  99 136 166 221 267 349 418
#     4  11  23  40  60  95 143 171 203 278 334 413
#     4  10  19  37  64  93 126 169 227 269 334 402
#     4  10  20  38  60  91 135 169 215 263 337 406
#     4   8  20  34  64  94 118 172 224 278 316 384
#     4  10  18  36  64  96 122 166 230 286 318 384
#     4  10  19  39  62  97 123 171 227 269 331 404
#
# _framework density 21.805021
#
# number of rings (size 3 to 8) (size 9 to 14) (size 15 to 20)
#    0.000    1.429    4.286    1.286    4.000    0.000 
#    0.000    0.000    0.000    7.714    0.000    0.000 
#    0.000    0.000    0.000    0.000    0.000    0.000 
#
# Total GULP energy -312037.829475 kJ/mol
# GULP energy per Si atom -5572.104098 kJ/mol
# Density = 2.175539 g / cm^3
# Si number density = 21.805021 Si / 1000 Ang^3
#
#
#
# Elastic Constant Matrix: (Units=GPa)
#
#
# Indices 1 2 3 4 5 6 
#
# 1 118.4319 42.2610 5.3390 0.0000 0.0000 0.0000
# 2 42.2610 106.9276 7.4260 0.0000 0.0000 0.0000
# 3 5.3390 7.4260 39.1467 0.0000 0.0000 0.0000
# 4 0.0000 0.0000 0.0000 24.1023 0.0000 0.0000
# 5 0.0000 0.0000 0.0000 0.0000 34.9017 0.0000
# 6 0.0000 0.0000 0.0000 0.0000 0.0000 70.0782
#
#
#
# Elastic Compliance Matrix: (Units=1/GPa)
#
#
# Indices 1 2 3 4 5 6 
#
# 1 0.009845 -0.003848 -0.000613 0.000000 0.000000 0.000000
# 2 -0.003848 0.010981 -0.001558 0.000000 0.000000 0.000000
# 3 -0.000613 -0.001558 0.025924 0.000000 0.000000 0.000000
# 4 0.000000 0.000000 0.000000 0.041490 0.000000 0.000000
# 5 0.000000 0.000000 0.000000 0.000000 0.028652 0.000000
# 6 0.000000 0.000000 0.000000 0.000000 0.000000 0.014270
#
#
# Mechanical properties :
#
#
# Convention : Reuss Voigt Hill
#
# Bulk Modulus (GPa) = 28.80891 41.61757 35.21324
# Shear Modulus (GPa) = 32.30595 39.78178 36.04387
#
# Velocity S-wave (km/s) = 3.85331 4.27597 4.07013
# Velocity P-wave (km/s) = 5.74787 6.59593 6.18645
#
# Compressibility (1/GPa) = 0.03471148
#
# Stress axis : x y z
#
# Youngs Moduli (GPa) = 101.57947 91.06383 38.57420
#
# Poissons Ratio (x) = 0.35044 0.02363
# Poissons Ratio (y) = 0.39091 0.06011
# Poissons Ratio (z) = 0.06223 0.14190
#
# Static dielectric constant tensor:
#      x y z
#    x 1.935690 0.000000 0.000000 
#    y 0.000000 1.830960 0.000000 
#    z 0.000000 0.000000 1.743600 
# 
# From -- ./inp_files/10923.got.cif
#   From: 2010.05.17/outbox.cif.g08.bks.cpg/sg56_6_cif.got.tgz:10923.got - 2010.06.03 13:42:01.
