data_PCOD9429592
_publ_section_title
;
Structure prediction by ZEFSAII (Michael W. Deem and Ramdas Pophale) SiO2 
 PCOD9429592
Probable space group: P C C N
;
_chemical_formula_sum "Si O2"
_cell_formula_units_Z 48
_cell_length_a 30.604425
_cell_length_b 5.080500
_cell_length_c 17.908070
_cell_angle_alpha 90.000000
_cell_angle_beta 90.000000
_cell_angle_gamma 90.000000
_cell_volume 2784.450254
_symmetry_space_group_name_H-M "P C C N"
_symmetry_group_IT_number 56
_symmetry_cell_setting 'orthorhombic'
loop_
_space_group_symop_operation_xyz
x,y,z
1/2-x,1/2-y,z
1/2+x,-y,1/2-z
-x,1/2+y,1/2-z
-x,-y,-z
1/2+x,1/2+y,-z
1/2-x,y,1/2+z
x,1/2-y,1/2+z
loop_
_atom_site_type_symbol
_atom_site_label
_atom_site_fract_x
_atom_site_fract_y
_atom_site_fract_z
Si Si1 0.516275 0.749961 0.454764
Si Si2 0.480728 0.810275 0.788466
Si Si3 0.390787 0.208481 0.611586
Si Si4 0.203925 0.311560 0.112279
Si Si5 0.109794 0.791646 0.717651
Si Si6 0.204124 0.811548 0.214820
O O1 0.500000 0.500000 0.500000
O O2 0.495621 0.743489 0.372256
O O3 0.568437 0.753894 0.442541
O O4 0.500000 0.000000 0.500000
O O5 0.506506 0.604782 0.735569
O O6 0.429853 0.758312 0.773271
O O7 0.342886 0.253085 0.575646
O O8 0.393884 0.424987 0.678078
O O9 0.393473 0.924248 0.651050
O O10 0.250000 0.250000 0.072444
O O11 0.204255 0.607240 0.144401
O O12 0.204157 0.107054 0.182660
O O13 0.157871 0.749606 0.752611
O O14 0.250000 0.750000 0.254827
#
# Coordination Sequence:
#
# PCOD9429592 Si02
#       6
#     8   8   8   8   8   8
#     4  12  24  36  50  74 106 138 170 212 258 300
#     4  12  21  36  55  74  98 134 179 208 247 300
#     4  10  18  31  49  70  99 130 162 203 255 292
#     4   8  14  24  41  66  93 120 153 197 245 293
#     4  10  17  30  50  72  93 128 167 206 244 294
#     4   8  14  23  39  66  97 118 145 196 255 293
#
# _framework density 17.238589999999999
#
# number of rings (size 3 to 8) (size 9 to 14) (size 15 to 20)
#    0.000    2.000    3.333    2.000    0.000    0.000 
#    0.000    0.000    0.000    0.000    0.000    2.333 
#    0.000    0.000    0.000    0.000    0.000    0.000 
#
# Total GULP energy -267449.187602 kJ/mol
# GULP energy per Si atom -5571.858075 kJ/mol
# Density = 1.719935 g / cm^3
# Si number density = 17.238590 Si / 1000 Ang^3
#
#
#
# Elastic Constant Matrix: (Units=GPa)
#
#
# Indices 1 2 3 4 5 6 
#
# 1 197.9658 -0.0622 27.4360 0.0000 0.0000 0.0000
# 2 -0.0622 83.4922 6.3344 0.0000 0.0000 0.0000
# 3 27.4360 6.3344 44.7837 0.0000 0.0000 0.0000
# 4 0.0000 0.0000 0.0000 14.0123 0.0000 0.0000
# 5 0.0000 0.0000 0.0000 0.0000 15.1238 0.0000
# 6 0.0000 0.0000 0.0000 0.0000 0.0000 26.5480
#
#
#
# Elastic Compliance Matrix: (Units=1/GPa)
#
#
# Indices 1 2 3 4 5 6 
#
# 1 0.005526 0.000264 -0.003423 0.000000 0.000000 0.000000
# 2 0.000264 0.012120 -0.001876 0.000000 0.000000 0.000000
# 3 -0.003423 -0.001876 0.024692 0.000000 0.000000 0.000000
# 4 0.000000 0.000000 0.000000 0.071366 0.000000 0.000000
# 5 0.000000 0.000000 0.000000 0.000000 0.066121 0.000000
# 6 0.000000 0.000000 0.000000 0.000000 0.000000 0.037668
#
#
# Mechanical properties :
#
#
# Convention : Reuss Voigt Hill
#
# Bulk Modulus (GPa) = 30.99063 43.73977 37.36520
# Shear Modulus (GPa) = 20.98047 30.63906 25.80976
#
# Velocity S-wave (km/s) = 3.49243 4.22044 3.87358
# Velocity P-wave (km/s) = 5.85485 7.01268 6.45976
#
# Compressibility (1/GPa) = 0.03226782
#
# Stress axis : x y z
#
# Youngs Moduli (GPa) = 180.96937 82.51040 40.49945
#
# Poissons Ratio (x) = -0.02176 0.13861
# Poissons Ratio (y) = -0.04774 0.07597
# Poissons Ratio (z) = 0.61939 0.15478
#
# Static dielectric constant tensor:
#      x y z
#    x 1.681730 0.000000 0.000000 
#    y 0.000000 1.581220 0.000000 
#    z 0.000000 0.000000 1.513570 
# 
# From -- ./inp_files/9770.got.cif
#   From: 2010.05.17/outbox.cif.g08.bks.cpg/sg56_5_cif.got.tgz:9770.got - 2010.06.03 13:42:01.
