data_PCOD9429874
_publ_section_title
;
Structure prediction by ZEFSAII (Michael W. Deem and Ramdas Pophale) SiO2 
 PCOD9429874
Probable space group: P C C N
;
_chemical_formula_sum "Si O2"
_cell_formula_units_Z 52
_cell_length_a 8.975963
_cell_length_b 13.852278
_cell_length_c 17.450364
_cell_angle_alpha 90.000000
_cell_angle_beta 90.000000
_cell_angle_gamma 90.000000
_cell_volume 2169.735241
_symmetry_space_group_name_H-M "P C C N"
_symmetry_group_IT_number 56
_symmetry_cell_setting 'orthorhombic'
loop_
_space_group_symop_operation_xyz
x,y,z
1/2-x,1/2-y,z
1/2+x,-y,1/2-z
-x,1/2+y,1/2-z
-x,-y,-z
1/2+x,1/2+y,-z
1/2-x,y,1/2+z
x,1/2-y,1/2+z
loop_
_atom_site_type_symbol
_atom_site_label
_atom_site_fract_x
_atom_site_fract_y
_atom_site_fract_z
Si Si1 0.286348 0.406133 0.523125
Si Si2 0.971137 0.413724 0.908393
Si Si3 0.566607 0.933001 0.615708
Si Si4 0.040718 0.152364 0.136576
Si Si5 0.281244 0.618277 0.188000
Si Si6 0.815647 0.921698 0.726271
Si Si7 0.750000 0.250000 0.169021
O O1 0.364800 0.503523 0.555489
O O2 0.423381 0.364165 0.472102
O O3 0.155785 0.427066 0.462415
O O4 0.191888 0.348528 0.586447
O O5 0.864036 0.348030 0.857455
O O6 0.080901 0.458734 0.843806
O O7 0.412570 0.878954 0.626491
O O8 0.668085 0.890359 0.683336
O O9 0.533080 0.045918 0.629136
O O10 0.096866 0.156972 0.224287
O O11 0.900449 0.222755 0.123261
O O12 0.271457 0.506241 0.214943
O O13 0.295800 0.668050 0.269896
#
# Coordination Sequence:
#
# PCOD9429874 Si02
#       7
#     8   8   8   8   8   8   4
#     4  10  21  35  64  98 127 165 223 285 332 399
#     4  10  19  35  63  97 125 167 220 279 333 400
#     4  10  20  36  65  93 124 169 224 275 333 402
#     4  11  21  36  61  96 135 167 226 284 344 410
#     4  11  20  36  62  93 126 169 221 276 337 409
#     4  10  18  36  63  93 124 167 227 279 326 398
#     4  12  24  40  60 100 132 176 220 292 356 406
#
# _framework density 23.966058
#
# number of rings (size 3 to 8) (size 9 to 14) (size 15 to 20)
#    0.000    1.538    6.154    1.385    0.000    0.000 
#    0.000    1.538    0.000    1.846    0.000    0.000 
#    0.000    0.000    0.000    0.000    0.000    0.000 
#
# Total GULP energy -290041.440279 kJ/mol
# GULP energy per Si atom -5577.720005 kJ/mol
# Density = 2.391151 g / cm^3
# Si number density = 23.966058 Si / 1000 Ang^3
#
#
#
# Elastic Constant Matrix: (Units=GPa)
#
#
# Indices 1 2 3 4 5 6 
#
# 1 164.8820 29.1713 69.1781 0.0000 0.0000 0.0000
# 2 29.1713 27.3307 11.6487 0.0000 0.0000 0.0000
# 3 69.1781 11.6487 114.1123 0.0000 0.0000 0.0000
# 4 0.0000 0.0000 0.0000 -6.4386 0.0000 0.0000
# 5 0.0000 0.0000 0.0000 0.0000 52.5836 0.0000
# 6 0.0000 0.0000 0.0000 0.0000 0.0000 27.8492
#
#
#
# Elastic Compliance Matrix: (Units=1/GPa)
#
#
# Indices 1 2 3 4 5 6 
#
# 1 0.009593 -0.008113 -0.004987 0.000000 0.000000 0.000000
# 2 -0.008113 0.045115 0.000313 0.000000 0.000000 0.000000
# 3 -0.004987 0.000313 0.011755 0.000000 0.000000 0.000000
# 4 0.000000 0.000000 0.000000 -0.155313 0.000000 0.000000
# 5 0.000000 0.000000 0.000000 0.000000 0.019017 0.000000
# 6 0.000000 0.000000 0.000000 0.000000 0.000000 0.035908
#
#
# Mechanical properties :
#
#
# Convention : Reuss Voigt Hill
#
# Bulk Modulus (GPa) = 24.45710 58.48014 41.46862
# Shear Modulus (GPa) = 947.24661 27.88729 487.56695
#
# Velocity S-wave (km/s) = 19.90234 3.41488 14.27873
# Velocity P-wave (km/s) = 23.20268 6.32477 17.00540
#
# Compressibility (1/GPa) = 0.04088793
#
# Stress axis : x y z
#
# Youngs Moduli (GPa) = 104.24483 22.16549 85.07217
#
# Poissons Ratio (x) = 0.17983 0.42427
# Poissons Ratio (y) = 0.84576 -0.02663
# Poissons Ratio (z) = 0.51989 -0.00694
#
# Static dielectric constant tensor:
#      x y z
#    x 1.974430 0.000000 0.000000 
#    y 0.000000 1.989620 0.000000 
#    z 0.000000 0.000000 1.941350 
# 
# From -- ./inp_files/15043.got.cif
#   From: 2010.05.17/outbox.cif.g08.bks.cpg/sg56_8_cif.got.tgz:15043.got - 2010.06.03 13:42:01.
