data_PCOD9429618
_publ_section_title
;
Structure prediction by ZEFSAII (Michael W. Deem and Ramdas Pophale) SiO2 
 PCOD9429618
Probable space group: P C C N
;
_chemical_formula_sum "Si O2"
_cell_formula_units_Z 64
_cell_length_a 22.611557
_cell_length_b 11.986099
_cell_length_c 12.961053
_cell_angle_alpha 90.000000
_cell_angle_beta 90.000000
_cell_angle_gamma 90.000000
_cell_volume 3512.761104
_symmetry_space_group_name_H-M "P C C N"
_symmetry_group_IT_number 56
_symmetry_cell_setting 'orthorhombic'
loop_
_space_group_symop_operation_xyz
x,y,z
1/2-x,1/2-y,z
1/2+x,-y,1/2-z
-x,1/2+y,1/2-z
-x,-y,-z
1/2+x,1/2+y,-z
1/2-x,y,1/2+z
x,1/2-y,1/2+z
loop_
_atom_site_type_symbol
_atom_site_label
_atom_site_fract_x
_atom_site_fract_y
_atom_site_fract_z
Si Si1 0.387166 0.296683 0.375435
Si Si2 0.852269 0.484132 0.874606
Si Si3 0.432979 0.805423 0.051672
Si Si4 0.657331 0.945856 0.646271
Si Si5 0.449375 0.568128 0.942037
Si Si6 0.041012 0.351921 0.072763
Si Si7 0.992339 0.824316 0.754690
Si Si8 0.728493 0.875282 0.021977
O O1 0.368747 0.177340 0.330086
O O2 0.422892 0.283878 0.483708
O O3 0.431568 0.360801 0.299963
O O4 0.326984 0.358520 0.401816
O O5 0.870762 0.366628 0.926987
O O6 0.839200 0.485527 0.752715
O O7 0.913334 0.553559 0.892654
O O8 0.798835 0.549288 0.931104
O O9 0.464003 0.791235 0.162739
O O10 0.434336 0.686075 0.995491
O O11 0.478330 0.879187 0.981509
O O12 0.718320 0.929368 0.585661
O O13 0.610491 0.000730 0.569784
O O14 0.475344 0.588400 0.827640
O O15 0.500000 0.500000 0.000000
O O16 0.024993 0.276859 0.170464
O O17 0.750000 0.750000 0.988637
#
# Coordination Sequence:
#
# PCOD9429618 Si02
#       8
#     8   8   8   8   8   8   8   8
#     4   9  18  35  56  91 120 152 194 242 298 360
#     4  11  20  37  61  84 116 159 198 243 308 354
#     4  10  21  34  56  86 122 154 195 238 295 363
#     4  11  20  39  61  83 118 157 198 247 302 356
#     4  11  23  38  59  90 122 158 196 248 303 365
#     4   9  18  31  56  87 120 152 183 237 291 364
#     4  10  17  33  57  88 123 154 190 232 301 365
#     4   9  22  39  59  88 120 153 204 255 296 352
#
# _framework density 18.219286
#
# number of rings (size 3 to 8) (size 9 to 14) (size 15 to 20)
#    0.000    2.000    2.500    2.625    0.000    1.500 
#    4.500    0.625    0.000    1.500    0.000    0.000 
#    0.000    0.000    0.000    0.000    0.000    0.000 
#
# Total GULP energy -356737.985563 kJ/mol
# GULP energy per Si atom -5574.031024 kJ/mol
# Density = 1.817782 g / cm^3
# Si number density = 18.219286 Si / 1000 Ang^3
#
#
#
# Elastic Constant Matrix: (Units=GPa)
#
#
# Indices 1 2 3 4 5 6 
#
# 1 118.9867 37.0029 47.3920 0.0000 0.0000 0.0000
# 2 37.0029 51.6829 19.7334 0.0000 0.0000 0.0000
# 3 47.3920 19.7334 87.7486 0.0000 0.0000 0.0000
# 4 0.0000 0.0000 0.0000 11.7632 0.0000 0.0000
# 5 0.0000 0.0000 0.0000 0.0000 23.9020 0.0000
# 6 0.0000 0.0000 0.0000 0.0000 0.0000 25.7718
#
#
#
# Elastic Compliance Matrix: (Units=1/GPa)
#
#
# Indices 1 2 3 4 5 6 
#
# 1 0.012706 -0.007085 -0.005269 0.000000 0.000000 0.000000
# 2 -0.007085 0.025117 -0.001822 0.000000 0.000000 0.000000
# 3 -0.005269 -0.001822 0.014652 0.000000 0.000000 0.000000
# 4 0.000000 0.000000 0.000000 0.085011 0.000000 0.000000
# 5 0.000000 0.000000 0.000000 0.000000 0.041838 0.000000
# 6 0.000000 0.000000 0.000000 0.000000 0.000000 0.038802
#
#
# Mechanical properties :
#
#
# Convention : Reuss Voigt Hill
#
# Bulk Modulus (GPa) = 41.45485 51.85276 46.65381
# Shear Modulus (GPa) = 19.64486 22.57339 21.10913
#
# Velocity S-wave (km/s) = 3.28723 3.52374 3.40754
# Velocity P-wave (km/s) = 6.10004 6.71400 6.41437
#
# Compressibility (1/GPa) = 0.02412263
#
# Stress axis : x y z
#
# Youngs Moduli (GPa) = 78.70003 39.81332 68.25141
#
# Poissons Ratio (x) = 0.28210 0.35963
# Poissons Ratio (y) = 0.55763 0.12433
# Poissons Ratio (z) = 0.41469 0.07253
#
# Static dielectric constant tensor:
#      x y z
#    x 1.614230 0.000000 0.000000 
#    y 0.000000 1.668090 0.000000 
#    z 0.000000 0.000000 1.646400 
# 
# From -- ./inp_files/8960.got.cif
#   From: 2010.05.17/outbox.cif.g08.bks.cpg/sg56_5_cif.got.tgz:8960.got - 2010.06.03 13:42:01.
