data_PCOD9429946
_publ_section_title
;
Structure prediction by ZEFSAII (Michael W. Deem and Ramdas Pophale) SiO2 
 PCOD9429946
Probable space group: P C C N
;
_chemical_formula_sum "Si O2"
_cell_formula_units_Z 56
_cell_length_a 20.093154
_cell_length_b 8.856508
_cell_length_c 15.907380
_cell_angle_alpha 90.000000
_cell_angle_beta 90.000000
_cell_angle_gamma 90.000000
_cell_volume 2830.800658
_symmetry_space_group_name_H-M "P C C N"
_symmetry_group_IT_number 56
_symmetry_cell_setting 'orthorhombic'
loop_
_space_group_symop_operation_xyz
x,y,z
1/2-x,1/2-y,z
1/2+x,-y,1/2-z
-x,1/2+y,1/2-z
-x,-y,-z
1/2+x,1/2+y,-z
1/2-x,y,1/2+z
x,1/2-y,1/2+z
loop_
_atom_site_type_symbol
_atom_site_label
_atom_site_fract_x
_atom_site_fract_y
_atom_site_fract_z
Si Si1 0.686030 0.343806 0.015160
Si Si2 0.063320 0.020943 0.061401
Si Si3 0.006090 0.949195 0.631557
Si Si4 0.720951 0.907091 0.092940
Si Si5 0.179463 0.823703 0.313062
Si Si6 0.905445 0.633977 0.980670
Si Si7 0.951948 0.155877 0.773846
O O1 0.750000 0.250000 0.977700
O O2 0.720196 0.489878 0.056843
O O3 0.661341 0.243914 0.094638
O O4 0.623582 0.405532 0.963187
O O5 0.043360 0.972385 0.155002
O O6 0.085132 0.195230 0.052259
O O7 0.000000 0.000000 0.000000
O O8 0.013562 0.804290 0.690407
O O9 0.956341 0.899571 0.557348
O O10 0.073871 0.010141 0.588746
O O11 0.978976 0.087485 0.687088
O O12 0.750000 0.750000 0.121624
O O13 0.667386 0.884356 0.019395
O O14 0.688400 0.999361 0.169054
O O15 0.250000 0.750000 0.290849
O O16 0.123789 0.798177 0.245188
#
# Coordination Sequence:
#
# PCOD9429946 Si02
#       7
#     8   8   8   8   8   8   8
#     4   9  22  38  66  92 125 173 219 264 320 403
#     4  12  25  40  65  99 131 172 222 274 330 396
#     4  11  26  41  66  94 131 173 212 278 332 401
#     4  10  18  39  68  91 122 167 217 262 317 389
#     4   9  22  41  63  93 126 167 216 263 325 395
#     4  11  23  43  66  94 128 170 219 265 331 397
#     4  12  25  42  64  94 134 171 215 277 333 391
#
# _framework density 19.782391000000001
#
# number of rings (size 3 to 8) (size 9 to 14) (size 15 to 20)
#    0.000    1.714    4.286    0.857    8.000    0.571 
#    0.000    0.000    0.000    0.000    0.000    0.000 
#    0.000    0.000    0.000    0.000    0.000    0.000 
#
# Total GULP energy -312569.006306 kJ/mol
# GULP energy per Si atom -5581.589398 kJ/mol
# Density = 1.973737 g / cm^3
# Si number density = 19.782391 Si / 1000 Ang^3
#
#
#
# Elastic Constant Matrix: (Units=GPa)
#
#
# Indices 1 2 3 4 5 6 
#
# 1 42.7412 11.0956 18.1010 0.0000 0.0000 0.0000
# 2 11.0956 120.7525 16.1298 0.0000 0.0000 0.0000
# 3 18.1010 16.1298 39.7442 0.0000 0.0000 0.0000
# 4 0.0000 0.0000 0.0000 30.3374 0.0000 0.0000
# 5 0.0000 0.0000 0.0000 0.0000 21.2249 0.0000
# 6 0.0000 0.0000 0.0000 0.0000 0.0000 27.1667
#
#
#
# Elastic Compliance Matrix: (Units=1/GPa)
#
#
# Indices 1 2 3 4 5 6 
#
# 1 0.029091 -0.000955 -0.012862 0.000000 0.000000 0.000000
# 2 -0.000955 0.008787 -0.003131 0.000000 0.000000 0.000000
# 3 -0.012862 -0.003131 0.032289 0.000000 0.000000 0.000000
# 4 0.000000 0.000000 0.000000 0.032963 0.000000 0.000000
# 5 0.000000 0.000000 0.000000 0.000000 0.047114 0.000000
# 6 0.000000 0.000000 0.000000 0.000000 0.000000 0.036810
#
#
# Mechanical properties :
#
#
# Convention : Reuss Voigt Hill
#
# Bulk Modulus (GPa) = 27.56941 32.65453 30.11197
# Shear Modulus (GPa) = 21.45535 26.27324 23.86429
#
# Velocity S-wave (km/s) = 3.29685 3.64828 3.47701
# Velocity P-wave (km/s) = 5.33469 5.85571 5.60126
#
# Compressibility (1/GPa) = 0.03627209
#
# Stress axis : x y z
#
# Youngs Moduli (GPa) = 34.37430 113.79881 30.96990
#
# Poissons Ratio (x) = 0.10869 0.39833
# Poissons Ratio (y) = 0.03283 0.09698
# Poissons Ratio (z) = 0.44211 0.35634
#
# Static dielectric constant tensor:
#      x y z
#    x 1.746160 0.000000 0.000000 
#    y 0.000000 1.710420 0.000000 
#    z 0.000000 0.000000 1.679370 
# 
# From -- ./inp_files/13074.got.cif
#   From: 2010.05.17/outbox.cif.g08.bks.cpg/sg56_7_cif.got.tgz:13074.got - 2010.06.03 13:42:01.
