data_PCOD9429447
_publ_section_title
;
Structure prediction by ZEFSAII (Michael W. Deem and Ramdas Pophale) SiO2 
 PCOD9429447
Probable space group: P B A M
;
_chemical_formula_sum "Si O2"
_cell_formula_units_Z 56
_cell_length_a 21.000000
_cell_length_b 15.000000
_cell_length_c 9.000000
_cell_angle_alpha 90.000000
_cell_angle_beta 90.000000
_cell_angle_gamma 90.000000
_cell_volume 2835.000000
_symmetry_space_group_name_H-M "P B A M"
_symmetry_group_IT_number 55
_symmetry_cell_setting 'orthorhombic'
loop_
_space_group_symop_operation_xyz
x,y,z
-x,-y,z
1/2+x,1/2-y,-z
1/2-x,1/2+y,-z
-x,-y,-z
x,y,-z
1/2-x,1/2+y,z
1/2+x,1/2-y,z
loop_
_atom_site_type_symbol
_atom_site_label
_atom_site_fract_x
_atom_site_fract_y
_atom_site_fract_z
Si Si1 0.173178 0.427498 0.178181
Si Si2 0.732363 0.879972 0.178065
Si Si3 0.087270 0.911184 0.326319
Si Si4 0.618989 0.404448 0.822951
Si Si5 0.035350 0.407622 0.677704
Si Si6 0.780102 0.193514 0.325979
Si Si7 0.008423 0.226337 0.823550
O O1 0.197019 0.527756 0.215930
O O2 0.105098 0.410708 0.250756
O O3 0.223864 0.356116 0.238436
O O4 0.169284 0.420310 0.000000
O O5 0.807109 0.891707 0.215361
O O6 0.708087 0.791766 0.259998
O O7 0.727313 0.867121 0.000000
O O8 0.069530 0.912481 0.500000
O O9 0.157102 0.867185 0.312244
O O10 0.040004 0.847875 0.235863
O O11 0.090460 0.010838 0.262277
O O12 0.578208 0.315802 0.793263
O O13 0.614900 0.422373 0.000000
O O14 0.039397 0.400559 0.500000
O O15 0.000685 0.320445 0.742436
O O16 0.000000 0.500000 0.715009
O O17 0.763795 0.200569 0.500000
O O18 0.001374 0.238000 0.000000
#
# Coordination Sequence:
#
# PCOD9429447 Si02
#       7
#     8   8   8   8   8   8   8
#     4  11  23  42  68  96 126 165 212 262 316 377
#     4  10  22  39  64  94 125 163 208 262 318 375
#     4  11  24  40  61  93 130 168 210 259 319 381
#     4  10  21  41  64  93 126 162 208 259 314 375
#     4  11  26  46  67  93 129 169 212 264 319 379
#     4  11  24  40  62  93 129 170 213 261 320 382
#     4  11  24  41  66  94 125 168 216 264 314 375
#
# _framework density 19.753086
#
# number of rings (size 3 to 8) (size 9 to 14) (size 15 to 20)
#    0.000    1.286    1.429    3.429    2.000    8.571 
#    0.000    0.000    0.000    0.000    0.000    0.000 
#    0.000    0.000    0.000    0.000    0.000    0.000 
#
# Total GULP energy -313326.921724 kJ/mol
# GULP energy per Si atom -5595.123602 kJ/mol
# Density = 1.970813 g / cm^3
# Si number density = 19.753086 Si / 1000 Ang^3
#
#
#
# Elastic Constant Matrix: (Units=GPa)
#
#
# Indices 1 2 3 4 5 6 
#
# 1 32.3378 -6.4515 14.6043 0.0000 0.0000 0.0000
# 2 -6.4515 110.3180 40.5644 0.0000 0.0000 0.0000
# 3 14.6043 40.5644 55.0949 0.0000 0.0000 0.0000
# 4 0.0000 0.0000 0.0000 35.5671 0.0000 0.0000
# 5 0.0000 0.0000 0.0000 0.0000 28.9596 0.0000
# 6 0.0000 0.0000 0.0000 0.0000 0.0000 20.7009
#
#
#
# Elastic Compliance Matrix: (Units=1/GPa)
#
#
# Indices 1 2 3 4 5 6 
#
# 1 0.040343 0.008627 -0.017046 0.000000 0.000000 0.000000
# 2 0.008627 0.014275 -0.012797 0.000000 0.000000 0.000000
# 3 -0.017046 -0.012797 0.032091 0.000000 0.000000 0.000000
# 4 0.000000 0.000000 0.000000 0.028116 0.000000 0.000000
# 5 0.000000 0.000000 0.000000 0.000000 0.034531 0.000000
# 6 0.000000 0.000000 0.000000 0.000000 0.000000 0.048307
#
#
# Mechanical properties :
#
#
# Convention : Reuss Voigt Hill
#
# Bulk Modulus (GPa) = 22.58490 32.79835 27.69163
# Shear Modulus (GPa) = 19.61926 26.98108 23.30017
#
# Velocity S-wave (km/s) = 3.15497 3.69984 3.43821
# Velocity P-wave (km/s) = 4.97294 5.90694 5.45995
#
# Compressibility (1/GPa) = 0.04427736
#
# Stress axis : x y z
#
# Youngs Moduli (GPa) = 24.78761 70.05437 31.16173
#
# Poissons Ratio (x) = -0.60436 0.53117
# Poissons Ratio (y) = -0.21384 0.39877
# Poissons Ratio (z) = 0.42252 0.89647
#
# Static dielectric constant tensor:
#      x y z
#    x 1.688290 0.000000 0.000000 
#    y 0.000000 1.657350 0.000000 
#    z 0.000000 0.000000 1.659700 
# 
# From -- ./inp_files/8714.got.cif
#   From: 2010.05.17/outbox.ucp.g08.bks.cvg/sg55_5_cif.got.tgz:8714.got - 2010.06.11 16:36:00.
