data_PCOD9429992
_publ_section_title
;
Structure prediction by ZEFSAII (Michael W. Deem and Ramdas Pophale) SiO2 
 PCOD9429992
Probable space group: P C C N
;
_chemical_formula_sum "Si O2"
_cell_formula_units_Z 64
_cell_length_a 22.875058
_cell_length_b 19.583110
_cell_length_c 7.038271
_cell_angle_alpha 90.000000
_cell_angle_beta 90.000000
_cell_angle_gamma 90.000000
_cell_volume 3152.897499
_symmetry_space_group_name_H-M "P C C N"
_symmetry_group_IT_number 56
_symmetry_cell_setting 'orthorhombic'
loop_
_space_group_symop_operation_xyz
x,y,z
1/2-x,1/2-y,z
1/2+x,-y,1/2-z
-x,1/2+y,1/2-z
-x,-y,-z
1/2+x,1/2+y,-z
1/2-x,y,1/2+z
x,1/2-y,1/2+z
loop_
_atom_site_type_symbol
_atom_site_label
_atom_site_fract_x
_atom_site_fract_y
_atom_site_fract_z
Si Si1 0.675991 0.898250 0.840641
Si Si2 0.900012 0.984383 0.909202
Si Si3 0.614423 0.758082 0.770691
Si Si4 0.017248 0.903952 0.021141
Si Si5 0.687096 0.621962 0.784855
Si Si6 0.507137 0.101394 0.027096
Si Si7 0.401255 0.005992 0.015871
Si Si8 0.977329 0.748810 0.518525
O O1 0.640350 0.834207 0.761523
O O2 0.743798 0.888195 0.798858
O O3 0.672448 0.896315 0.069308
O O4 0.643825 0.971422 0.820913
O O5 0.847792 0.928037 0.929758
O O6 0.882162 0.011923 0.698266
O O7 0.923725 0.052529 0.015595
O O8 0.959698 0.938419 0.926497
O O9 0.663386 0.699077 0.796010
O O10 0.597284 0.745478 0.523149
O O11 0.540140 0.756799 0.768070
O O12 0.010293 0.910989 0.248292
O O13 0.011364 0.822860 0.993104
O O14 0.555624 0.055207 0.928645
O O15 0.443744 0.071202 0.982376
O O16 0.511224 0.179663 0.972715
#
# Coordination Sequence:
#
# PCOD9429992 Si02
#       8
#     8   8   8   8   8   8   8   8
#     4  11  23  36  51  71  98 139 175 211 250 293
#     4   9  19  34  50  71  96 129 169 215 254 300
#     4  12  22  34  48  73 105 134 173 205 241 297
#     4  10  19  31  51  74  99 129 165 208 262 303
#     4  11  23  35  50  69 100 137 174 211 248 295
#     4  10  19  31  51  73 100 130 164 206 260 309
#     4   9  18  35  50  70  97 131 169 209 255 306
#     4  12  20  32  52  75 103 135 165 205 252 308
#
# _framework density 20.29879
#
# number of rings (size 3 to 8) (size 9 to 14) (size 15 to 20)
#    0.000    1.500    5.000    1.125    1.750    2.000 
#    0.000    0.000    0.000    0.000    0.000    0.875 
#    0.000    6.000    0.000    0.000    0.000    0.000 
#
# Total GULP energy -356300.728396 kJ/mol
# GULP energy per Si atom -5567.198881 kJ/mol
# Density = 2.025259 g / cm^3
# Si number density = 20.298790 Si / 1000 Ang^3
#
#
#
# Elastic Constant Matrix: (Units=GPa)
#
#
# Indices 1 2 3 4 5 6 
#
# 1 84.9827 72.6198 13.6665 0.0000 0.0000 0.0000
# 2 72.6198 147.7063 9.6183 0.0000 0.0000 0.0000
# 3 13.6665 9.6183 105.4895 0.0000 0.0000 0.0000
# 4 0.0000 0.0000 0.0000 32.1068 0.0000 0.0000
# 5 0.0000 0.0000 0.0000 0.0000 27.7325 0.0000
# 6 0.0000 0.0000 0.0000 0.0000 0.0000 28.7948
#
#
#
# Elastic Compliance Matrix: (Units=1/GPa)
#
#
# Indices 1 2 3 4 5 6 
#
# 1 0.020611 -0.010019 -0.001757 0.000000 0.000000 0.000000
# 2 -0.010019 0.011681 0.000233 0.000000 0.000000 0.000000
# 3 -0.001757 0.000233 0.009686 0.000000 0.000000 0.000000
# 4 0.000000 0.000000 0.000000 0.031146 0.000000 0.000000
# 5 0.000000 0.000000 0.000000 0.000000 0.036059 0.000000
# 6 0.000000 0.000000 0.000000 0.000000 0.000000 0.034728
#
#
# Mechanical properties :
#
#
# Convention : Reuss Voigt Hill
#
# Bulk Modulus (GPa) = 52.93148 58.88751 55.90949
# Shear Modulus (GPa) = 28.85263 33.87842 31.36553
#
# Velocity S-wave (km/s) = 3.77423 4.08976 3.93516
# Velocity P-wave (km/s) = 6.71758 7.16762 6.94625
#
# Compressibility (1/GPa) = 0.01889235
#
# Stress axis : x y z
#
# Youngs Moduli (GPa) = 48.51741 85.60980 103.24217
#
# Poissons Ratio (x) = 0.85773 0.18137
# Poissons Ratio (y) = 0.48610 -0.02405
# Poissons Ratio (z) = 0.08523 -0.01994
#
# Static dielectric constant tensor:
#      x y z
#    x 2.254390 0.000000 0.000000 
#    y 0.000000 1.729110 0.000000 
#    z 0.000000 0.000000 2.351850 
# 
# From -- ./inp_files/4606.got.cif
#   From: 2010.05.17/outbox.cif.g08.bks.cpg/sg56_3_cif.got.tgz:4606.got - 2010.06.03 13:42:01.
