data_PCOD9429589
_publ_section_title
;
Structure prediction by ZEFSAII (Michael W. Deem and Ramdas Pophale) SiO2 
 PCOD9429589
Probable space group: P C C N
;
_chemical_formula_sum "Si O2"
_cell_formula_units_Z 56
_cell_length_a 18.673353
_cell_length_b 17.571614
_cell_length_c 8.143320
_cell_angle_alpha 90.000000
_cell_angle_beta 90.000000
_cell_angle_gamma 90.000000
_cell_volume 2671.993903
_symmetry_space_group_name_H-M "P C C N"
_symmetry_group_IT_number 56
_symmetry_cell_setting 'orthorhombic'
loop_
_space_group_symop_operation_xyz
x,y,z
1/2-x,1/2-y,z
1/2+x,-y,1/2-z
-x,1/2+y,1/2-z
-x,-y,-z
1/2+x,1/2+y,-z
1/2-x,y,1/2+z
x,1/2-y,1/2+z
loop_
_atom_site_type_symbol
_atom_site_label
_atom_site_fract_x
_atom_site_fract_y
_atom_site_fract_z
Si Si1 0.000515 0.588956 0.558923
Si Si2 0.101674 0.832484 0.537873
Si Si3 0.682792 0.199188 0.631923
Si Si4 0.885812 0.975032 0.253123
Si Si5 0.144313 0.506307 0.899761
Si Si6 0.335767 0.560292 0.065140
Si Si7 0.487718 0.099390 0.795126
O O1 0.084278 0.596246 0.598797
O O2 0.981264 0.630501 0.389635
O O3 0.000000 0.500000 0.500000
O O4 0.939089 0.593751 0.696620
O O5 0.145390 0.835102 0.709073
O O6 0.126350 0.756164 0.450349
O O7 0.122452 0.906532 0.434984
O O8 0.017640 0.837419 0.581904
O O9 0.750000 0.250000 0.679856
O O10 0.706371 0.132526 0.506547
O O11 0.838182 0.972609 0.418501
O O12 0.946256 0.038805 0.296579
O O13 0.845245 0.002580 0.088475
O O14 0.188763 0.518723 0.730986
O O15 0.080197 0.449912 0.845383
#
# Coordination Sequence:
#
# PCOD9429589 Si02
#       7
#     8   8   8   8   8   8   8
#     4   8  12  24  43  67  91 103 126 187 263 318
#     4  11  22  34  46  65  83 121 171 217 259 287
#     4  12  24  39  47  58  93 143 193 224 231 264
#     4   9  14  24  43  71  90 105 127 183 266 326
#     4  11  17  28  53  74  88 102 136 205 280 331
#     4  10  17  30  47  64  85 115 154 207 249 278
#     4   9  15  28  48  71  89 100 134 205 272 327
#
# _framework density 20.958131999999999
#
# number of rings (size 3 to 8) (size 9 to 14) (size 15 to 20)
#    0.000    2.286    8.571    3.000    0.000    0.000 
#    0.000    0.714    0.000    0.000    0.000    0.000 
#    0.000    0.000    0.000    0.000    0.000    0.000 
#
# Total GULP energy -311756.470147 kJ/mol
# GULP energy per Si atom -5567.079824 kJ/mol
# Density = 2.091043 g / cm^3
# Si number density = 20.958132 Si / 1000 Ang^3
#
#
#
# Elastic Constant Matrix: (Units=GPa)
#
#
# Indices 1 2 3 4 5 6 
#
# 1 56.1018 29.6700 35.1587 0.0000 0.0000 0.0000
# 2 29.6700 23.3139 17.3917 0.0000 0.0000 0.0000
# 3 35.1587 17.3917 151.7224 0.0000 0.0000 0.0000
# 4 0.0000 0.0000 0.0000 13.3655 0.0000 0.0000
# 5 0.0000 0.0000 0.0000 0.0000 19.2664 0.0000
# 6 0.0000 0.0000 0.0000 0.0000 0.0000 -2.1287
#
#
#
# Elastic Compliance Matrix: (Units=1/GPa)
#
#
# Indices 1 2 3 4 5 6 
#
# 1 0.058411 -0.070245 -0.005484 0.000000 0.000000 0.000000
# 2 -0.070245 0.131380 0.001218 0.000000 0.000000 0.000000
# 3 -0.005484 0.001218 0.007722 0.000000 0.000000 0.000000
# 4 0.000000 0.000000 0.000000 0.074819 0.000000 0.000000
# 5 0.000000 0.000000 0.000000 0.000000 0.051904 0.000000
# 6 0.000000 0.000000 0.000000 0.000000 0.000000 -0.469762
#
#
# Mechanical properties :
#
#
# Convention : Reuss Voigt Hill
#
# Bulk Modulus (GPa) = 20.62194 43.95323 32.28759
# Shear Modulus (GPa) = 254.35817 16.02850 135.19333
#
# Velocity S-wave (km/s) = 11.02853 2.76848 8.04030
# Velocity P-wave (km/s) = 13.11610 5.58898 10.08139
#
# Compressibility (1/GPa) = 0.04849204
#
# Stress axis : x y z
#
# Youngs Moduli (GPa) = 17.12013 7.61154 129.49894
#
# Poissons Ratio (x) = 0.53467 0.71011
# Poissons Ratio (y) = 1.20260 -0.15773
# Poissons Ratio (z) = 0.09388 -0.00927
#
# Static dielectric constant tensor:
#      x y z
#    x 1.857560 0.000000 0.000000 
#    y 0.000000 1.771090 0.000000 
#    z 0.000000 0.000000 1.948930 
# 
# From -- ./inp_files/4851.got.cif
#   From: 2010.05.17/outbox.cif.g08.bks.cpg/sg56_3_cif.got.tgz:4851.got - 2010.06.03 13:42:01.
