data_PCOD9429889
_publ_section_title
;
Structure prediction by ZEFSAII (Michael W. Deem and Ramdas Pophale) SiO2 
 PCOD9429889
Probable space group: P C C N
;
_chemical_formula_sum "Si O2"
_cell_formula_units_Z 60
_cell_length_a 8.326696
_cell_length_b 14.866182
_cell_length_c 25.907043
_cell_angle_alpha 90.000000
_cell_angle_beta 90.000000
_cell_angle_gamma 90.000000
_cell_volume 3206.933841
_symmetry_space_group_name_H-M "P C C N"
_symmetry_group_IT_number 56
_symmetry_cell_setting 'orthorhombic'
loop_
_space_group_symop_operation_xyz
x,y,z
1/2-x,1/2-y,z
1/2+x,-y,1/2-z
-x,1/2+y,1/2-z
-x,-y,-z
1/2+x,1/2+y,-z
1/2-x,y,1/2+z
x,1/2-y,1/2+z
loop_
_atom_site_type_symbol
_atom_site_label
_atom_site_fract_x
_atom_site_fract_y
_atom_site_fract_z
Si Si1 0.370997 0.168595 0.838338
Si Si2 0.355813 0.432230 0.757930
Si Si3 0.560024 0.252948 0.747780
Si Si4 0.047556 0.091066 0.068587
Si Si5 0.757435 0.453504 0.501297
Si Si6 0.750000 0.750000 0.978443
Si Si7 0.551084 0.884671 0.048136
Si Si8 0.563203 0.914765 0.310008
O O1 0.250000 0.250000 0.851278
O O2 0.266248 0.101391 0.802865
O O3 0.510979 0.208971 0.802592
O O4 0.434692 0.128227 0.890999
O O5 0.484185 0.352565 0.747852
O O6 0.242677 0.441463 0.707916
O O7 0.443921 0.521282 0.777379
O O8 0.750000 0.250000 0.739617
O O9 0.471586 0.188114 0.706652
O O10 0.151663 0.179310 0.055940
O O11 0.036570 0.074553 0.129338
O O12 0.875499 0.096756 0.040501
O O13 0.136751 0.008232 0.040226
O O14 0.630483 0.393716 0.470907
O O15 0.652170 0.526571 0.532652
O O16 0.632163 0.804660 0.016007
#
# Coordination Sequence:
#
# PCOD9429889 Si02
#       8
#     8   8   8   8   8   4   8   8
#     4   9  18  35  60  84 114 155 192 247 306 347
#     4  10  22  37  61  90 119 154 207 252 300 379
#     4  10  22  40  55  90 124 151 205 257 298 376
#     4  10  22  40  59  86 120 163 200 255 303 362
#     4   9  21  38  57  85 122 152 206 248 293 365
#     4  10  22  36  58  86 122 156 210 244 298 370
#     4  10  18  37  60  84 117 159 193 253 300 356
#     4  11  22  40  65  85 121 163 199 256 317 359
#
# _framework density 18.70946
#
# number of rings (size 3 to 8) (size 9 to 14) (size 15 to 20)
#    0.000    2.133    0.667    2.800    1.867    3.733 
#    4.800    2.667    0.000    0.000    0.000    0.000 
#    0.000    0.000    0.000    0.000    0.000    0.000 
#
# Total GULP energy -334995.337821 kJ/mol
# GULP energy per Si atom -5583.255630 kJ/mol
# Density = 1.866688 g / cm^3
# Si number density = 18.709460 Si / 1000 Ang^3
#
#
#
# Elastic Constant Matrix: (Units=GPa)
#
#
# Indices 1 2 3 4 5 6 
#
# 1 102.4658 16.1955 38.6820 0.0000 0.0000 0.0000
# 2 16.1955 53.9393 17.3659 0.0000 0.0000 0.0000
# 3 38.6820 17.3659 112.9509 0.0000 0.0000 0.0000
# 4 0.0000 0.0000 0.0000 5.7924 0.0000 0.0000
# 5 0.0000 0.0000 0.0000 0.0000 20.0800 0.0000
# 6 0.0000 0.0000 0.0000 0.0000 0.0000 21.2559
#
#
#
# Elastic Compliance Matrix: (Units=1/GPa)
#
#
# Indices 1 2 3 4 5 6 
#
# 1 0.011472 -0.002293 -0.003576 0.000000 0.000000 0.000000
# 2 -0.002293 0.019963 -0.002284 0.000000 0.000000 0.000000
# 3 -0.003576 -0.002284 0.010429 0.000000 0.000000 0.000000
# 4 0.000000 0.000000 0.000000 0.172640 0.000000 0.000000
# 5 0.000000 0.000000 0.000000 0.000000 0.049801 0.000000
# 6 0.000000 0.000000 0.000000 0.000000 0.000000 0.047046
#
#
# Mechanical properties :
#
#
# Convention : Reuss Voigt Hill
#
# Bulk Modulus (GPa) = 39.12696 45.98253 42.55474
# Shear Modulus (GPa) = 14.87312 22.56649 18.71980
#
# Velocity S-wave (km/s) = 2.82255 3.47674 3.16658
# Velocity P-wave (km/s) = 5.61967 6.38337 6.01366
#
# Compressibility (1/GPa) = 0.02555783
#
# Stress axis : x y z
#
# Youngs Moduli (GPa) = 87.16989 50.09212 95.88383
#
# Poissons Ratio (x) = 0.11487 0.34290
# Poissons Ratio (y) = 0.19989 0.21900
# Poissons Ratio (z) = 0.31174 0.11441
#
# Static dielectric constant tensor:
#      x y z
#    x 1.642010 0.000000 0.000000 
#    y 0.000000 1.647120 0.000000 
#    z 0.000000 0.000000 1.611390 
# 
# From -- ./inp_files/20608.got.cif
#   From: 2010.05.17/outbox.cif.g08.bks.cpg/sg56_11_cif.got.tgz:20608.got - 2010.06.03 13:42:01.
