data_PCOD9429723
_publ_section_title
;
Structure prediction by ZEFSAII (Michael W. Deem and Ramdas Pophale) SiO2 
 PCOD9429723
Probable space group: P C C N
;
_chemical_formula_sum "Si O2"
_cell_formula_units_Z 48
_cell_length_a 15.373680
_cell_length_b 20.842497
_cell_length_c 8.623680
_cell_angle_alpha 90.000000
_cell_angle_beta 90.000000
_cell_angle_gamma 90.000000
_cell_volume 2763.250247
_symmetry_space_group_name_H-M "P C C N"
_symmetry_group_IT_number 56
_symmetry_cell_setting 'orthorhombic'
loop_
_space_group_symop_operation_xyz
x,y,z
1/2-x,1/2-y,z
1/2+x,-y,1/2-z
-x,1/2+y,1/2-z
-x,-y,-z
1/2+x,1/2+y,-z
1/2-x,y,1/2+z
x,1/2-y,1/2+z
loop_
_atom_site_type_symbol
_atom_site_label
_atom_site_fract_x
_atom_site_fract_y
_atom_site_fract_z
Si Si1 0.451108 0.246086 0.540113
Si Si2 0.325385 0.300412 0.793433
Si Si3 0.805225 0.945652 0.165663
Si Si4 0.632253 0.951792 0.310333
Si Si5 0.998033 0.846882 0.709055
Si Si6 0.036794 0.985317 0.671914
O O1 0.373684 0.276721 0.640377
O O2 0.402124 0.200598 0.419326
O O3 0.511313 0.202924 0.650493
O O4 0.493734 0.303680 0.443894
O O5 0.250000 0.250000 0.832226
O O6 0.291910 0.371978 0.784333
O O7 0.711051 0.975385 0.202228
O O8 0.881183 0.974356 0.273106
O O9 0.834329 0.949492 0.986556
O O10 0.594075 0.882903 0.249291
O O11 0.545863 0.994890 0.287110
O O12 0.057854 0.909154 0.687702
O O13 0.000000 0.000000 0.500000
#
# Coordination Sequence:
#
# PCOD9429723 Si02
#       6
#     8   8   8   8   8   8
#     4  10  18  32  43  69 107 139 183 226 266 339
#     4  11  21  26  46  70 105 150 181 214 271 329
#     4  12  21  36  54  75 119 152 193 239 278 338
#     4  10  23  34  51  83 106 157 194 224 287 339
#     4   9  20  35  50  77 109 148 194 223 291 340
#     4  10  21  38  55  76 113 153 199 236 286 341
#
# _framework density 17.370847000000001
#
# number of rings (size 3 to 8) (size 9 to 14) (size 15 to 20)
#    1.000    0.667    1.667    5.000    4.667    0.000 
#    0.000    0.000    0.000    0.000    0.000    0.000 
#    0.000   45.333    0.000    0.000    0.000    0.000 
#
# Total GULP energy -267243.283352 kJ/mol
# GULP energy per Si atom -5567.568403 kJ/mol
# Density = 1.733131 g / cm^3
# Si number density = 17.370847 Si / 1000 Ang^3
#
#
#
# Elastic Constant Matrix: (Units=GPa)
#
#
# Indices 1 2 3 4 5 6 
#
# 1 49.7293 25.1878 6.4709 0.0000 0.0000 0.0000
# 2 25.1878 66.2234 21.4283 0.0000 0.0000 0.0000
# 3 6.4709 21.4283 73.5008 0.0000 0.0000 0.0000
# 4 0.0000 0.0000 0.0000 -11.5000 0.0000 0.0000
# 5 0.0000 0.0000 0.0000 0.0000 19.1636 0.0000
# 6 0.0000 0.0000 0.0000 0.0000 0.0000 25.4024
#
#
#
# Elastic Compliance Matrix: (Units=1/GPa)
#
#
# Indices 1 2 3 4 5 6 
#
# 1 0.024933 -0.009687 0.000629 0.000000 0.000000 0.000000
# 2 -0.009687 0.020437 -0.005105 0.000000 0.000000 0.000000
# 3 0.000629 -0.005105 0.015038 0.000000 0.000000 0.000000
# 4 0.000000 0.000000 0.000000 -0.086956 0.000000 0.000000
# 5 0.000000 0.000000 0.000000 0.000000 0.052182 0.000000
# 6 0.000000 0.000000 0.000000 0.000000 0.000000 0.039366
#
#
# Mechanical properties :
#
#
# Convention : Reuss Voigt Hill
#
# Bulk Modulus (GPa) = 31.16999 32.84750 32.00875
# Shear Modulus (GPa) = 48.06717 15.70429 31.88573
#
# Velocity S-wave (km/s) = 5.26605 3.01002 4.28902
# Velocity P-wave (km/s) = 7.41335 5.57054 6.55701
#
# Compressibility (1/GPa) = 0.03208214
#
# Stress axis : x y z
#
# Youngs Moduli (GPa) = 40.10690 48.93160 66.49685
#
# Poissons Ratio (x) = 0.47399 -0.04182
# Poissons Ratio (y) = 0.38851 0.33948
# Poissons Ratio (z) = -0.02523 0.24981
#
# Static dielectric constant tensor:
#      x y z
#    x 1.582500 0.000000 0.000000 
#    y 0.000000 1.634460 0.000000 
#    z 0.000000 0.000000 1.637930 
# 
# From -- ./inp_files/3625.got.cif
#   From: 2010.05.17/outbox.cif.g08.bks.cpg/sg56_2_cif.got.tgz:3625.got - 2010.06.03 13:42:01.
