data_PCOD9429486
_publ_section_title
;
Structure prediction by ZEFSAII (Michael W. Deem and Ramdas Pophale) SiO2 
 PCOD9429486
Probable space group: P B A M
;
_chemical_formula_sum "Si O2"
_cell_formula_units_Z 58
_cell_length_a 18.000000
_cell_length_b 9.000000
_cell_length_c 18.000000
_cell_angle_alpha 90.000000
_cell_angle_beta 90.000000
_cell_angle_gamma 90.000000
_cell_volume 2916.000000
_symmetry_space_group_name_H-M "P B A M"
_symmetry_group_IT_number 55
_symmetry_cell_setting 'orthorhombic'
loop_
_space_group_symop_operation_xyz
x,y,z
-x,-y,z
1/2+x,1/2-y,-z
1/2-x,1/2+y,-z
-x,-y,-z
x,y,-z
1/2-x,1/2+y,z
1/2+x,1/2-y,z
loop_
_atom_site_type_symbol
_atom_site_label
_atom_site_fract_x
_atom_site_fract_y
_atom_site_fract_z
Si Si1 0.403344 0.133174 0.752478
Si Si2 0.311782 0.362527 0.321344
Si Si3 0.729776 0.034641 0.169423
Si Si4 0.793557 0.836412 0.411747
Si Si5 0.427877 0.852122 0.357563
Si Si6 0.500000 0.000000 0.500000
Si Si7 0.342959 0.684968 0.090317
Si Si8 0.473264 0.671286 0.212001
O O1 0.385770 0.286448 0.708956
O O2 0.469205 0.193125 0.804101
O O3 0.334708 0.075196 0.800918
O O4 0.419641 0.003349 0.692126
O O5 0.264698 0.399901 0.246511
O O6 0.278433 0.229246 0.371096
O O7 0.315802 0.510211 0.371030
O O8 0.695893 0.163012 0.118114
O O9 0.789763 0.946225 0.120903
O O10 0.784598 0.857980 0.500000
O O11 0.851662 0.705397 0.393872
O O12 0.477716 0.881235 0.431292
O O13 0.444782 0.727973 0.293713
O O14 0.414823 0.673964 0.144097
O O15 0.353487 0.680014 0.000000
O O16 0.500000 0.500000 0.216533
#
# Coordination Sequence:
#
# PCOD9429486 Si02
#       8
#     8   8   8   8   8   2   8   8
#     4  12  23  42  73  98 133 183 247 284 345 425
#     4  12  22  41  66  99 133 191 235 290 351 419
#     4  12  22  44  75 102 135 180 236 284 345 425
#     4  12  23  38  59  98 142 180 236 302 357 407
#     4  12  23  45  67  96 136 188 242 294 354 415
#     4  12  24  44  70  92 142 188 234 310 356 404
#     4  12  27  47  74 110 144 178 226 290 356 423
#     4  12  26  46  72 103 141 191 235 282 351 438
#
# _framework density 19.890260999999999
#
# number of rings (size 3 to 8) (size 9 to 14) (size 15 to 20)
#    0.000    0.000    7.586    3.310    0.000    0.276 
#    2.483    2.414    0.000    0.000    0.000    0.000 
#    0.000    0.000    0.000    0.000    0.000    0.000 
#
# Total GULP energy -323068.966893 kJ/mol
# GULP energy per Si atom -5570.154602 kJ/mol
# Density = 1.984499 g / cm^3
# Si number density = 19.890261 Si / 1000 Ang^3
#
#
#
# Elastic Constant Matrix: (Units=GPa)
#
#
# Indices 1 2 3 4 5 6 
#
# 1 69.1491 37.9321 58.2341 0.0000 0.0000 0.0000
# 2 37.9321 134.9844 60.4488 0.0000 0.0000 0.0000
# 3 58.2341 60.4488 201.9561 0.0000 0.0000 0.0000
# 4 0.0000 0.0000 0.0000 33.8240 0.0000 0.0000
# 5 0.0000 0.0000 0.0000 0.0000 27.5759 0.0000
# 6 0.0000 0.0000 0.0000 0.0000 0.0000 38.4669
#
#
#
# Elastic Compliance Matrix: (Units=1/GPa)
#
#
# Indices 1 2 3 4 5 6 
#
# 1 0.020508 -0.003597 -0.004837 0.000000 0.000000 0.000000
# 2 -0.003597 0.009186 -0.001712 0.000000 0.000000 0.000000
# 3 -0.004837 -0.001712 0.006859 0.000000 0.000000 0.000000
# 4 0.000000 0.000000 0.000000 0.029565 0.000000 0.000000
# 5 0.000000 0.000000 0.000000 0.000000 0.036264 0.000000
# 6 0.000000 0.000000 0.000000 0.000000 0.000000 0.025996
#
#
# Mechanical properties :
#
#
# Convention : Reuss Voigt Hill
#
# Bulk Modulus (GPa) = 61.49888 79.92441 70.71164
# Shear Modulus (GPa) = 32.44862 36.60499 34.52680
#
# Velocity S-wave (km/s) = 4.04342 4.29458 4.17089
# Velocity P-wave (km/s) = 7.26534 8.05364 7.66963
#
# Compressibility (1/GPa) = 0.01626046
#
# Stress axis : x y z
#
# Youngs Moduli (GPa) = 48.76144 108.86314 145.79806
#
# Poissons Ratio (x) = 0.39157 0.70521
# Poissons Ratio (y) = 0.17539 0.24965
# Poissons Ratio (z) = 0.23585 0.18641
#
# Static dielectric constant tensor:
#      x y z
#    x 1.880970 0.000000 0.000000 
#    y 0.000000 1.706710 0.000000 
#    z 0.000000 0.000000 1.631960 
# 
# From -- ./inp_files/21822.got.cif
#   From: 2010.05.17/outbox.ucp.g08.bks.cvg/sg55_11_cif.got.tgz:21822.got - 2010.06.11 16:36:00.
