data_PCOD9429941
_publ_section_title
;
Structure prediction by ZEFSAII (Michael W. Deem and Ramdas Pophale) SiO2 
 PCOD9429941
Probable space group: P C C N
;
_chemical_formula_sum "Si O2"
_cell_formula_units_Z 44
_cell_length_a 13.643168
_cell_length_b 8.405148
_cell_length_c 16.628134
_cell_angle_alpha 90.000000
_cell_angle_beta 90.000000
_cell_angle_gamma 90.000000
_cell_volume 1906.795453
_symmetry_space_group_name_H-M "P C C N"
_symmetry_group_IT_number 56
_symmetry_cell_setting 'orthorhombic'
loop_
_space_group_symop_operation_xyz
x,y,z
1/2-x,1/2-y,z
1/2+x,-y,1/2-z
-x,1/2+y,1/2-z
-x,-y,-z
1/2+x,1/2+y,-z
1/2-x,y,1/2+z
x,1/2-y,1/2+z
loop_
_atom_site_type_symbol
_atom_site_label
_atom_site_fract_x
_atom_site_fract_y
_atom_site_fract_z
Si Si1 0.250000 0.750000 0.297657
Si Si2 0.250000 0.250000 0.580622
Si Si3 0.750000 0.250000 0.470867
Si Si4 0.540518 0.345124 0.690843
Si Si5 0.866412 0.539088 0.518876
Si Si6 0.512091 0.490715 0.858383
Si Si7 0.350610 0.547118 0.658162
O O1 0.346150 0.666114 0.337998
O O2 0.194173 0.622368 0.239333
O O3 0.165273 0.294779 0.518487
O O4 0.280924 0.398803 0.633794
O O5 0.787101 0.399367 0.521068
O O6 0.667668 0.324819 0.411945
O O7 0.547055 0.381340 0.786280
O O8 0.492070 0.174269 0.670195
O O9 0.461442 0.478668 0.662577
O O10 0.906136 0.557078 0.608161
O O11 0.931192 0.479044 0.442650
#
# Coordination Sequence:
#
# PCOD9429941 Si02
#       7
#     4   4   4   8   8   8   8
#     4  11  24  39  66 100 141 177 234 284 353 421
#     4  10  18  38  72  98 134 186 234 276 346 428
#     4   9  20  41  70  96 135 185 234 274 355 433
#     4  12  23  43  65 103 138 182 229 293 349 410
#     4  10  22  42  67  97 135 185 230 283 344 420
#     4  11  24  42  67  95 140 179 230 289 349 405
#     4  10  20  37  66  98 130 185 228 281 351 416
#
# _framework density 23.075365000000001
#
# number of rings (size 3 to 8) (size 9 to 14) (size 15 to 20)
#    0.000    1.455    3.636    3.273    0.000    0.727 
#    0.000    7.273    0.000    0.000    0.000    0.000 
#    0.000    0.000    0.000    0.000    0.000    0.000 
#
# Total GULP energy -245256.128858 kJ/mol
# GULP energy per Si atom -5574.002929 kJ/mol
# Density = 2.302284 g / cm^3
# Si number density = 23.075365 Si / 1000 Ang^3
#
#
#
# Elastic Constant Matrix: (Units=GPa)
#
#
# Indices 1 2 3 4 5 6 
#
# 1 106.0633 31.0963 34.1052 0.0000 0.0000 0.0000
# 2 31.0963 93.9726 23.2440 0.0000 0.0000 0.0000
# 3 34.1052 23.2440 75.0256 0.0000 0.0000 0.0000
# 4 0.0000 0.0000 0.0000 -27.1679 0.0000 0.0000
# 5 0.0000 0.0000 0.0000 0.0000 55.8730 0.0000
# 6 0.0000 0.0000 0.0000 0.0000 0.0000 45.9885
#
#
#
# Elastic Compliance Matrix: (Units=1/GPa)
#
#
# Indices 1 2 3 4 5 6 
#
# 1 0.011668 -0.002761 -0.004449 0.000000 0.000000 0.000000
# 2 -0.002761 0.012178 -0.002518 0.000000 0.000000 0.000000
# 3 -0.004449 -0.002518 0.016131 0.000000 0.000000 0.000000
# 4 0.000000 0.000000 0.000000 -0.036808 0.000000 0.000000
# 5 0.000000 0.000000 0.000000 0.000000 0.017898 0.000000
# 6 0.000000 0.000000 0.000000 0.000000 0.000000 0.021745
#
#
# Mechanical properties :
#
#
# Convention : Reuss Voigt Hill
#
# Bulk Modulus (GPa) = 48.72737 50.21695 49.47216
# Shear Modulus (GPa) = 72.35139 27.37978 49.86558
#
# Velocity S-wave (km/s) = 5.60557 3.44835 4.65369
# Velocity P-wave (km/s) = 7.94097 6.13712 7.09659
#
# Compressibility (1/GPa) = 0.02052235
#
# Stress axis : x y z
#
# Youngs Moduli (GPa) = 85.70231 82.11711 61.99154
#
# Poissons Ratio (x) = 0.22670 0.27579
# Poissons Ratio (y) = 0.23660 0.15609
# Poissons Ratio (z) = 0.38128 0.20676
#
# Static dielectric constant tensor:
#      x y z
#    x 2.369250 0.000000 0.000000 
#    y 0.000000 1.848570 0.000000 
#    z 0.000000 0.000000 1.847600 
# 
# From -- ./inp_files/16125.got.cif
#   From: 2010.05.17/outbox.cif.g08.bks.cpg/sg56_9_cif.got.tgz:16125.got - 2010.06.03 13:42:01.
