data_PCOD9429033
_publ_section_title
;
Structure prediction by ZEFSAII (Michael W. Deem and Ramdas Pophale) SiO2 
 PCOD9429033
Probable space group: P B A M
;
_chemical_formula_sum "Si O2"
_cell_formula_units_Z 48
_cell_length_a 15.266202
_cell_length_b 20.028072
_cell_length_c 8.915037
_cell_angle_alpha 90.000000
_cell_angle_beta 90.000000
_cell_angle_gamma 90.000000
_cell_volume 2725.795678
_symmetry_space_group_name_H-M "P B A M"
_symmetry_group_IT_number 55
_symmetry_cell_setting 'orthorhombic'
loop_
_space_group_symop_operation_xyz
x,y,z
-x,-y,z
1/2+x,1/2-y,-z
1/2-x,1/2+y,-z
-x,-y,-z
x,y,-z
1/2-x,1/2+y,z
1/2+x,1/2-y,z
loop_
_atom_site_type_symbol
_atom_site_label
_atom_site_fract_x
_atom_site_fract_y
_atom_site_fract_z
Si Si1 0.384368 0.312146 0.321440
Si Si2 0.278615 0.988512 0.822012
Si Si3 0.299852 0.831643 0.179484
Si Si4 0.935134 0.438272 0.678020
Si Si5 0.503888 0.197948 0.820182
Si Si6 0.083522 0.955530 0.820269
O O1 0.385868 0.309494 0.500000
O O2 0.284905 0.303057 0.262268
O O3 0.447993 0.256744 0.252702
O O4 0.413638 0.385095 0.263467
O O5 0.339520 0.037964 0.730117
O O6 0.303779 0.911309 0.788537
O O7 0.175249 0.992957 0.789498
O O8 0.292494 0.999144 0.000000
O O9 0.392949 0.799906 0.220477
O O10 0.286693 0.825236 0.000000
O O11 0.937794 0.426373 0.500000
O O12 0.000000 0.500000 0.713112
O O13 0.966422 0.372641 0.763782
O O14 0.497846 0.201344 0.000000
O O15 0.081952 0.942387 0.000000
O O16 0.000000 0.000000 0.781145
#
# Coordination Sequence:
#
# PCOD9429033 Si02
#       6
#     8   8   8   8   8   8
#     4  11  23  38  58  86 120 151 184 234 294 349
#     4   9  17  33  57  84 110 143 190 235 276 330
#     4   9  19  37  61  83 106 148 196 233 275 335
#     4  11  22  34  53  85 121 151 182 229 291 344
#     4  11  22  39  62  83 111 152 198 240 278 335
#     4   9  19  39  64  86 111 149 197 238 276 333
#
# _framework density 17.609538000000001
#
# number of rings (size 3 to 8) (size 9 to 14) (size 15 to 20)
#    0.000    2.000    1.667    3.500    0.000    5.000 
#    3.000    0.000    0.000    0.000    0.000    0.000 
#    0.000    0.000    0.000    0.000    0.000    0.000 
#
# Total GULP energy -268016.426565 kJ/mol
# GULP energy per Si atom -5583.675553 kJ/mol
# Density = 1.756946 g / cm^3
# Si number density = 17.609538 Si / 1000 Ang^3
#
#
#
# Elastic Constant Matrix: (Units=GPa)
#
#
# Indices 1 2 3 4 5 6 
#
# 1 176.0472 87.6100 77.0764 0.0000 0.0000 0.0000
# 2 87.6100 78.3787 56.3111 0.0000 0.0000 0.0000
# 3 77.0764 56.3111 70.2114 0.0000 0.0000 0.0000
# 4 0.0000 0.0000 0.0000 18.4609 0.0000 0.0000
# 5 0.0000 0.0000 0.0000 0.0000 1.5572 0.0000
# 6 0.0000 0.0000 0.0000 0.0000 0.0000 33.9069
#
#
#
# Elastic Compliance Matrix: (Units=1/GPa)
#
#
# Indices 1 2 3 4 5 6 
#
# 1 0.014004 -0.010875 -0.006652 0.000000 0.000000 0.000000
# 2 -0.010875 0.038551 -0.018980 0.000000 0.000000 0.000000
# 3 -0.006652 -0.018980 0.036768 0.000000 0.000000 0.000000
# 4 0.000000 0.000000 0.000000 0.054169 0.000000 0.000000
# 5 0.000000 0.000000 0.000000 0.000000 0.642160 0.000000
# 6 0.000000 0.000000 0.000000 0.000000 0.000000 0.029493
#
#
# Mechanical properties :
#
#
# Convention : Reuss Voigt Hill
#
# Bulk Modulus (GPa) = 61.31733 85.18135 73.24934
# Shear Modulus (GPa) = 5.59538 17.69433 11.64486
#
# Velocity S-wave (km/s) = 1.78448 3.17332 2.57433
# Velocity P-wave (km/s) = 6.25635 7.86790 7.10795
#
# Compressibility (1/GPa) = 0.01630860
#
# Stress axis : x y z
#
# Youngs Moduli (GPa) = 71.40569 25.93997 27.19784
#
# Poissons Ratio (x) = 0.28209 0.18092
# Poissons Ratio (y) = 0.77652 0.51622
# Poissons Ratio (z) = 0.47499 0.49235
#
# Static dielectric constant tensor:
#      x y z
#    x 1.602130 0.000000 0.000000 
#    y 0.000000 1.565670 0.000000 
#    z 0.000000 0.000000 1.584110 
# 
# From -- ./inp_files/5682.got.cif
#   From: 2010.05.17/outbox.cif.g08.bks.cpg/sg55_3_cif.got.tgz:5682.got - 2010.06.03 13:27:54.
