data_PCOD9429617
_publ_section_title
;
Structure prediction by ZEFSAII (Michael W. Deem and Ramdas Pophale) SiO2 
 PCOD9429617
Probable space group: P C C N
;
_chemical_formula_sum "Si O2"
_cell_formula_units_Z 64
_cell_length_a 18.495945
_cell_length_b 9.670876
_cell_length_c 13.488092
_cell_angle_alpha 90.000000
_cell_angle_beta 90.000000
_cell_angle_gamma 90.000000
_cell_volume 2412.641865
_symmetry_space_group_name_H-M "P C C N"
_symmetry_group_IT_number 56
_symmetry_cell_setting 'orthorhombic'
loop_
_space_group_symop_operation_xyz
x,y,z
1/2-x,1/2-y,z
1/2+x,-y,1/2-z
-x,1/2+y,1/2-z
-x,-y,-z
1/2+x,1/2+y,-z
1/2-x,y,1/2+z
x,1/2-y,1/2+z
loop_
_atom_site_type_symbol
_atom_site_label
_atom_site_fract_x
_atom_site_fract_y
_atom_site_fract_z
Si Si1 0.784747 0.100333 0.259866
Si Si2 0.144894 0.510683 0.968062
Si Si3 0.942540 0.088126 0.270909
Si Si4 0.440596 0.286034 0.783810
Si Si5 0.805015 0.457113 0.523012
Si Si6 0.607697 0.790196 0.501645
Si Si7 0.188488 0.133247 0.258809
Si Si8 0.558461 0.215549 0.550596
O O1 0.750000 0.250000 0.263172
O O2 0.862154 0.091881 0.311765
O O3 0.800584 0.061159 0.144058
O O4 0.728560 0.988504 0.298238
O O5 0.221610 0.576215 0.001933
O O6 0.123142 0.369377 0.022788
O O7 0.161263 0.447407 0.857776
O O8 0.082460 0.625004 0.960206
O O9 0.939729 0.166588 0.165142
O O10 0.999103 0.183562 0.325734
O O11 0.967118 0.930217 0.259500
O O12 0.393164 0.319216 0.879092
O O13 0.384138 0.202733 0.714843
O O14 0.825896 0.607798 0.480833
O O15 0.876356 0.367285 0.496351
O O16 0.523953 0.820611 0.476538
O O17 0.250000 0.250000 0.276142
#
# Coordination Sequence:
#
# PCOD9429617 Si02
#       8
#     8   8   8   8   8   8   8   8
#     4  10  18  32  56  85 111 137 187 242 280 317
#     4  10  19  32  55  87 111 140 189 239 278 315
#     4  11  23  37  55  86 114 147 187 226 285 337
#     4  11  23  36  57  84 115 149 185 231 282 338
#     4  10  17  33  56  83 108 143 189 236 274 321
#     4  11  21  37  58  84 115 149 183 229 281 337
#     4  10  17  34  56  81 108 143 187 240 278 315
#     4  11  22  36  57  85 117 146 183 232 284 333
#
# _framework density 26.526935999999999
#
# number of rings (size 3 to 8) (size 9 to 14) (size 15 to 20)
#    0.000    1.500    3.750    6.750    5.250    0.000 
#    0.000    0.000    0.000    4.500    0.000    0.000 
#    0.000    0.000    0.000    0.000    0.000    0.000 
#
# Total GULP energy -357915.989796 kJ/mol
# GULP energy per Si atom -5592.437341 kJ/mol
# Density = 2.646656 g / cm^3
# Si number density = 26.526936 Si / 1000 Ang^3
#
#
#
# Elastic Constant Matrix: (Units=GPa)
#
#
# Indices 1 2 3 4 5 6 
#
# 1 148.4950 54.2670 18.8199 0.0000 0.0000 0.0000
# 2 54.2670 178.7207 13.3422 0.0000 0.0000 0.0000
# 3 18.8199 13.3422 44.4704 0.0000 0.0000 0.0000
# 4 0.0000 0.0000 0.0000 -91.8546 0.0000 0.0000
# 5 0.0000 0.0000 0.0000 0.0000 104.0727 0.0000
# 6 0.0000 0.0000 0.0000 0.0000 0.0000 70.4751
#
#
#
# Elastic Compliance Matrix: (Units=1/GPa)
#
#
# Indices 1 2 3 4 5 6 
#
# 1 0.007874 -0.002191 -0.002675 0.000000 0.000000 0.000000
# 2 -0.002191 0.006333 -0.000973 0.000000 0.000000 0.000000
# 3 -0.002675 -0.000973 0.023911 0.000000 0.000000 0.000000
# 4 0.000000 0.000000 0.000000 -0.010887 0.000000 0.000000
# 5 0.000000 0.000000 0.000000 0.000000 0.009609 0.000000
# 6 0.000000 0.000000 0.000000 0.000000 0.000000 0.014189
#
#
# Mechanical properties :
#
#
# Convention : Reuss Voigt Hill
#
# Bulk Modulus (GPa) = 37.82111 60.50492 49.16301
# Shear Modulus (GPa) = 69.91002 35.55578 52.73290
#
# Velocity S-wave (km/s) = 5.13922 3.66507 4.46342
# Velocity P-wave (km/s) = 7.03591 6.38504 6.71836
#
# Compressibility (1/GPa) = 0.02644026
#
# Stress axis : x y z
#
# Youngs Moduli (GPa) = 127.00023 157.89598 41.82222
#
# Poissons Ratio (x) = 0.34598 0.11187
# Poissons Ratio (y) = 0.27828 0.04069
# Poissons Ratio (z) = 0.33971 0.15360
#
# Static dielectric constant tensor:
#      x y z
#    x 1.967350 0.000000 0.000000 
#    y 0.000000 2.083690 0.000000 
#    z 0.000000 0.000000 2.207690 
# 
# From -- ./inp_files/19342.got.cif
#   From: 2010.05.17/outbox.cif.g08.bks.cpg/sg56_10_cif.got.tgz:19342.got - 2010.06.03 13:42:01.
