data_PCOD9429105
_publ_section_title
;
Structure prediction by ZEFSAII (Michael W. Deem and Ramdas Pophale) SiO2 
 PCOD9429105
Probable space group: P B A M
;
_chemical_formula_sum "Si O2"
_cell_formula_units_Z 40
_cell_length_a 14.222904
_cell_length_b 8.386217
_cell_length_c 14.649856
_cell_angle_alpha 90.000000
_cell_angle_beta 90.000000
_cell_angle_gamma 90.000000
_cell_volume 1747.381488
_symmetry_space_group_name_H-M "P B A M"
_symmetry_group_IT_number 55
_symmetry_cell_setting 'orthorhombic'
loop_
_space_group_symop_operation_xyz
x,y,z
-x,-y,z
1/2+x,1/2-y,-z
1/2-x,1/2+y,-z
-x,-y,-z
x,y,-z
1/2-x,1/2+y,z
1/2+x,1/2-y,z
loop_
_atom_site_type_symbol
_atom_site_label
_atom_site_fract_x
_atom_site_fract_y
_atom_site_fract_z
Si Si1 0.861502 0.125163 0.401120
Si Si2 0.858772 0.181045 0.202639
Si Si3 0.553742 0.162411 0.794249
Si Si4 0.796591 0.857947 0.107474
Si Si5 0.079487 0.236847 0.400806
O O1 0.819217 0.166717 0.500000
O O2 0.821931 0.192041 0.306887
O O3 0.969098 0.188144 0.403174
O O4 0.867368 0.932868 0.393336
O O5 0.806488 0.311593 0.141938
O O6 0.970484 0.206427 0.202615
O O7 0.833502 0.010860 0.161282
O O8 0.635448 0.212838 0.862508
O O9 0.592483 0.160378 0.690131
O O10 0.500000 0.000000 0.814421
O O11 0.799334 0.884598 0.000000
O O12 0.100261 0.311592 0.500000
#
# Coordination Sequence:
#
# PCOD9429105 Si02
#       5
#     8   8   8   8   8
#     4   8  14  30  59  90 122 161 202 246 304 375
#     4  11  23  43  65  91 128 163 209 265 323 383
#     4  11  23  40  64  95 129 166 210 262 318 382
#     4  12  26  43  65  91 121 166 218 269 325 377
#     4   8  14  29  57  91 124 161 202 244 302 374
#
# _framework density 22.891397000000001
#
# number of rings (size 3 to 8) (size 9 to 14) (size 15 to 20)
#    0.000    2.000    2.000    3.600    0.000    3.200 
#    0.000    2.000    0.000    2.400    0.000    0.000 
#    0.000    0.000    0.000    0.000    0.000    0.000 
#
# Total GULP energy -223630.711146 kJ/mol
# GULP energy per Si atom -5590.767779 kJ/mol
# Density = 2.283930 g / cm^3
# Si number density = 22.891397 Si / 1000 Ang^3
#
#
#
# Elastic Constant Matrix: (Units=GPa)
#
#
# Indices 1 2 3 4 5 6 
#
# 1 73.1706 -7.1805 16.1657 0.0000 0.0000 0.0000
# 2 -7.1805 35.6731 -2.0786 0.0000 0.0000 0.0000
# 3 16.1657 -2.0786 146.9856 0.0000 0.0000 0.0000
# 4 0.0000 0.0000 0.0000 -12.5382 0.0000 0.0000
# 5 0.0000 0.0000 0.0000 0.0000 30.1543 0.0000
# 6 0.0000 0.0000 0.0000 0.0000 0.0000 22.8581
#
#
#
# Elastic Compliance Matrix: (Units=1/GPa)
#
#
# Indices 1 2 3 4 5 6 
#
# 1 0.014278 0.002785 -0.001531 0.000000 0.000000 0.000000
# 2 0.002785 0.028599 0.000098 0.000000 0.000000 0.000000
# 3 -0.001531 0.000098 0.006973 0.000000 0.000000 0.000000
# 4 0.000000 0.000000 0.000000 -0.079756 0.000000 0.000000
# 5 0.000000 0.000000 0.000000 0.000000 0.033163 0.000000
# 6 0.000000 0.000000 0.000000 0.000000 0.000000 0.043748
#
#
# Mechanical properties :
#
#
# Convention : Reuss Voigt Hill
#
# Bulk Modulus (GPa) = 19.02805 29.96025 24.49415
# Shear Modulus (GPa) = 80.88185 24.68969 52.78577
#
# Velocity S-wave (km/s) = 5.95059 3.28770 4.80721
# Velocity P-wave (km/s) = 7.45273 5.24675 6.44482
#
# Compressibility (1/GPa) = 0.05255398
#
# Stress axis : x y z
#
# Youngs Moduli (GPa) = 70.03674 34.96677 143.40716
#
# Poissons Ratio (x) = -0.09738 0.21955
# Poissons Ratio (y) = -0.19504 -0.01408
# Poissons Ratio (z) = 0.10722 -0.00343
#
# Static dielectric constant tensor:
#      x y z
#    x 1.866340 0.000000 0.000000 
#    y 0.000000 1.862080 0.000000 
#    z 0.000000 0.000000 1.847460 
# 
# From -- ./inp_files/17088.got.cif
#   From: 2010.05.17/outbox.cif.g08.bks.cpg/sg55_9_cif.got.tgz:17088.got - 2010.06.03 13:27:54.
