data_PCOD9429283
_publ_section_title
;
Structure prediction by ZEFSAII (Michael W. Deem and Ramdas Pophale) SiO2 
 PCOD9429283
Probable space group: P B A M
;
_chemical_formula_sum "Si O2"
_cell_formula_units_Z 56
_cell_length_a 21.000000
_cell_length_b 15.000000
_cell_length_c 9.000000
_cell_angle_alpha 90.000000
_cell_angle_beta 90.000000
_cell_angle_gamma 90.000000
_cell_volume 2835.000000
_symmetry_space_group_name_H-M "P B A M"
_symmetry_group_IT_number 55
_symmetry_cell_setting 'orthorhombic'
loop_
_space_group_symop_operation_xyz
x,y,z
-x,-y,z
1/2+x,1/2-y,-z
1/2-x,1/2+y,-z
-x,-y,-z
x,y,-z
1/2-x,1/2+y,z
1/2+x,1/2-y,z
loop_
_atom_site_type_symbol
_atom_site_label
_atom_site_fract_x
_atom_site_fract_y
_atom_site_fract_z
Si Si1 0.038446 0.411843 0.679898
Si Si2 0.216526 0.803849 0.326639
Si Si3 0.323252 0.925553 0.178175
Si Si4 0.088921 0.919613 0.674347
Si Si5 0.769689 0.378072 0.177436
Si Si6 0.368248 0.610779 0.678966
Si Si7 0.989232 0.778918 0.679135
O O1 0.045206 0.409842 0.500000
O O2 0.107542 0.412278 0.752707
O O3 0.001866 0.322160 0.728606
O O4 0.000000 0.500000 0.720588
O O5 0.232719 0.790621 0.500000
O O6 0.274335 0.853377 0.244630
O O7 0.155980 0.868934 0.317609
O O8 0.200144 0.708758 0.254245
O O9 0.300034 0.026184 0.216367
O O10 0.324378 0.917533 0.000000
O O11 0.072063 0.931891 0.500000
O O12 0.036343 0.853949 0.741242
O O13 0.098066 0.019277 0.731565
O O14 0.697589 0.378669 0.237227
O O15 0.771473 0.368395 0.000000
O O16 0.356998 0.604486 0.500000
O O17 0.417021 0.690706 0.705892
O O18 0.998548 0.778733 0.500000
#
# Coordination Sequence:
#
# PCOD9429283 Si02
#       7
#     8   8   8   8   8   8   8
#     4  10  22  38  60  88 120 157 204 254 296 352
#     4  11  22  37  62  91 119 153 202 255 303 357
#     4  11  24  42  62  85 122 164 201 247 302 366
#     4   9  18  32  55  88 117 145 187 245 303 353
#     4  11  24  39  58  85 121 161 199 242 299 360
#     4  10  18  34  60  88 115 149 196 245 295 355
#     4   9  18  33  55  85 118 151 188 240 303 352
#
# _framework density 19.753086
#
# number of rings (size 3 to 8) (size 9 to 14) (size 15 to 20)
#    0.000    1.857    1.429    2.571    2.000    4.857 
#    0.000    0.000    0.000    4.286    0.000    0.000 
#    0.000    0.000    0.000    0.000    0.000    0.000 
#
# Total GULP energy -312716.790081 kJ/mol
# GULP energy per Si atom -5584.228394 kJ/mol
# Density = 1.970813 g / cm^3
# Si number density = 19.753086 Si / 1000 Ang^3
#
#
#
# Elastic Constant Matrix: (Units=GPa)
#
#
# Indices 1 2 3 4 5 6 
#
# 1 13.7881 -4.0675 11.2448 0.0000 0.0000 0.0000
# 2 -4.0675 105.9856 13.9550 0.0000 0.0000 0.0000
# 3 11.2448 13.9550 26.1541 0.0000 0.0000 0.0000
# 4 0.0000 0.0000 0.0000 20.6920 0.0000 0.0000
# 5 0.0000 0.0000 0.0000 0.0000 -4.0117 0.0000
# 6 0.0000 0.0000 0.0000 0.0000 0.0000 1.4642
#
#
#
# Elastic Compliance Matrix: (Units=1/GPa)
#
#
# Indices 1 2 3 4 5 6 
#
# 1 0.126184 0.012892 -0.061131 0.000000 0.000000 0.000000
# 2 0.012892 0.011465 -0.011660 0.000000 0.000000 0.000000
# 3 -0.061131 -0.011660 0.070739 0.000000 0.000000 0.000000
# 4 0.000000 0.000000 0.000000 0.048328 0.000000 0.000000
# 5 0.000000 0.000000 0.000000 0.000000 -0.249268 0.000000
# 6 0.000000 0.000000 0.000000 0.000000 0.000000 0.682945
#
#
# Mechanical properties :
#
#
# Convention : Reuss Voigt Hill
#
# Bulk Modulus (GPa) = 11.28795 20.91027 16.09911
# Shear Modulus (GPa) = 5.95434 11.94859 8.95147
#
# Velocity S-wave (km/s) = 1.73808 2.46213 2.13108
# Velocity P-wave (km/s) = 3.12327 4.32338 3.77137
#
# Compressibility (1/GPa) = 0.08859007
#
# Stress axis : x y z
#
# Youngs Moduli (GPa) = 7.92492 87.21978 14.13641
#
# Poissons Ratio (x) = -1.12441 0.86417
# Poissons Ratio (y) = -0.10217 0.16483
# Poissons Ratio (z) = 0.48446 1.01700
#
# Static dielectric constant tensor:
#      x y z
#    x 1.681970 0.000000 0.000000 
#    y 0.000000 1.712590 0.000000 
#    z 0.000000 0.000000 1.662270 
# 
# From -- ./inp_files/6181.got.cif
#   From: 2010.05.17/outbox.ucp.g08.bks.cvg/sg55_4_cif.got.tgz:6181.got - 2010.06.11 16:36:00.
