data_PCOD9429251
_publ_section_title
;
Structure prediction by ZEFSAII (Michael W. Deem and Ramdas Pophale) SiO2 
 PCOD9429251
Probable space group: P B A M
;
_chemical_formula_sum "Si O2"
_cell_formula_units_Z 40
_cell_length_a 8.164403
_cell_length_b 24.224212
_cell_length_c 7.324435
_cell_angle_alpha 90.000000
_cell_angle_beta 90.000000
_cell_angle_gamma 90.000000
_cell_volume 1448.599135
_symmetry_space_group_name_H-M "P B A M"
_symmetry_group_IT_number 55
_symmetry_cell_setting 'orthorhombic'
loop_
_space_group_symop_operation_xyz
x,y,z
-x,-y,z
1/2+x,1/2-y,-z
1/2-x,1/2+y,-z
-x,-y,-z
x,y,-z
1/2-x,1/2+y,z
1/2+x,1/2-y,z
loop_
_atom_site_type_symbol
_atom_site_label
_atom_site_fract_x
_atom_site_fract_y
_atom_site_fract_z
Si Si1 0.843827 0.534323 0.276876
Si Si2 0.140320 0.064168 0.710294
Si Si3 0.335842 0.363368 0.720448
Si Si4 0.840507 0.335011 0.221754
Si Si5 0.037665 0.237784 0.211334
O O1 0.846718 0.534380 0.500000
O O2 0.691701 0.495353 0.218590
O O3 0.813863 0.597415 0.219278
O O4 0.000000 0.500000 0.213612
O O5 0.095213 0.056033 0.500000
O O6 0.301900 0.103369 0.715669
O O7 0.994395 0.101094 0.787582
O O8 0.335132 0.361279 0.500000
O O9 0.375811 0.301494 0.781283
O O10 0.992500 0.297860 0.286986
O O11 0.683091 0.299143 0.288966
O O12 0.841427 0.336177 0.000000
O O13 0.076500 0.245869 0.000000
#
# Coordination Sequence:
#
# PCOD9429251 Si02
#       5
#     8   8   8   8   8
#     4   9  17  29  46  69  94 118 146 183 226 266
#     4   9  17  30  48  68  90 118 151 184 219 263
#     4   9  17  30  48  68  90 118 151 184 219 263
#     4   9  18  32  48  66  90 120 151 183 222 266
#     4   9  18  32  48  66  90 120 151 183 222 266
#
# _framework density 27.612884000000001
#
# number of rings (size 3 to 8) (size 9 to 14) (size 15 to 20)
#    0.000    3.000    0.000    0.600    0.000    4.800 
#    0.000    1.000    0.000    6.000    0.000    0.000 
#    0.000    0.000    0.000    0.000    0.000    0.000 
#
# Total GULP energy -223650.148142 kJ/mol
# GULP energy per Si atom -5591.253704 kJ/mol
# Density = 2.755004 g / cm^3
# Si number density = 27.612884 Si / 1000 Ang^3
#
#
#
# Elastic Constant Matrix: (Units=GPa)
#
#
# Indices 1 2 3 4 5 6 
#
# 1 61.7654 13.3826 -3.6288 0.0000 0.0000 0.0000
# 2 13.3826 189.6927 -7.5971 0.0000 0.0000 0.0000
# 3 -3.6288 -7.5971 127.0027 0.0000 0.0000 0.0000
# 4 0.0000 0.0000 0.0000 16.9760 0.0000 0.0000
# 5 0.0000 0.0000 0.0000 0.0000 -52.8149 0.0000
# 6 0.0000 0.0000 0.0000 0.0000 0.0000 58.3770
#
#
#
# Elastic Compliance Matrix: (Units=1/GPa)
#
#
# Indices 1 2 3 4 5 6 
#
# 1 0.016462 -0.001145 0.000402 0.000000 0.000000 0.000000
# 2 -0.001145 0.005364 0.000288 0.000000 0.000000 0.000000
# 3 0.000402 0.000288 0.007903 0.000000 0.000000 0.000000
# 4 0.000000 0.000000 0.000000 0.058907 0.000000 0.000000
# 5 0.000000 0.000000 0.000000 0.000000 -0.018934 0.000000
# 6 0.000000 0.000000 0.000000 0.000000 0.000000 0.017130
#
#
# Mechanical properties :
#
#
# Convention : Reuss Voigt Hill
#
# Bulk Modulus (GPa) = 34.70045 42.53046 38.61545
# Shear Modulus (GPa) = 51.36221 29.59457 40.47839
#
# Velocity S-wave (km/s) = 4.31755 3.27734 3.83289
# Velocity P-wave (km/s) = 6.11956 5.45501 5.79681
#
# Compressibility (1/GPa) = 0.02881807
#
# Stress axis : x y z
#
# Youngs Moduli (GPa) = 60.74579 186.42727 126.54115
#
# Poissons Ratio (x) = 0.21351 -0.05085
# Poissons Ratio (y) = 0.06957 -0.03646
# Poissons Ratio (z) = -0.02441 -0.05372
#
# Static dielectric constant tensor:
#      x y z
#    x 2.294850 0.000000 0.000000 
#    y 0.000000 2.087770 0.000000 
#    z 0.000000 0.000000 2.029150 
# 
# From -- ./inp_files/2326.got.cif
#   From: 2010.05.17/outbox.cif.g08.bks.cpg/sg55_2_cif.got.tgz:2326.got - 2010.06.03 13:27:54.
