data_PCOD9429598
_publ_section_title
;
Structure prediction by ZEFSAII (Michael W. Deem and Ramdas Pophale) SiO2 
 PCOD9429598
Probable space group: P C C N
;
_chemical_formula_sum "Si O2"
_cell_formula_units_Z 64
_cell_length_a 19.273567
_cell_length_b 18.553205
_cell_length_c 8.492602
_cell_angle_alpha 90.000000
_cell_angle_beta 90.000000
_cell_angle_gamma 90.000000
_cell_volume 3036.839312
_symmetry_space_group_name_H-M "P C C N"
_symmetry_group_IT_number 56
_symmetry_cell_setting 'orthorhombic'
loop_
_space_group_symop_operation_xyz
x,y,z
1/2-x,1/2-y,z
1/2+x,-y,1/2-z
-x,1/2+y,1/2-z
-x,-y,-z
1/2+x,1/2+y,-z
1/2-x,y,1/2+z
x,1/2-y,1/2+z
loop_
_atom_site_type_symbol
_atom_site_label
_atom_site_fract_x
_atom_site_fract_y
_atom_site_fract_z
Si Si1 0.175263 0.985216 0.768910
Si Si2 0.498544 0.339383 0.523475
Si Si3 0.277550 0.901564 0.555265
Si Si4 0.824325 0.628768 0.527694
Si Si5 0.402543 0.469366 0.478758
Si Si6 0.355930 0.619842 0.356112
Si Si7 0.927687 0.772914 0.175793
Si Si8 0.687637 0.651548 0.672852
O O1 0.179258 0.057328 0.868995
O O2 0.111502 0.995828 0.649961
O O3 0.241211 0.965781 0.658365
O O4 0.176693 0.925232 0.905583
O O5 0.472197 0.420079 0.473315
O O6 0.576228 0.339184 0.586967
O O7 0.487439 0.279223 0.390074
O O8 0.448979 0.313700 0.666350
O O9 0.208019 0.868354 0.477163
O O10 0.325298 0.862946 0.684159
O O11 0.897720 0.668010 0.554638
O O12 0.760872 0.672877 0.601995
O O13 0.808751 0.617890 0.345861
O O14 0.383310 0.535789 0.362957
O O15 0.345241 0.407704 0.443837
O O16 0.864471 0.717530 0.195226
#
# Coordination Sequence:
#
# PCOD9429598 Si02
#       8
#     8   8   8   8   8   8   8   8
#     4  10  17  30  54  85 127 146 183 234 289 347
#     4  11  23  43  59  83 119 169 202 242 298 356
#     4   9  19  35  59  95 118 147 187 250 313 358
#     4  12  20  32  52  80 115 166 201 242 271 331
#     4  10  20  36  59  92 122 161 193 239 293 367
#     4  10  20  39  67  89 122 145 195 252 315 367
#     4  11  24  39  54  76 116 162 210 246 283 342
#     4  11  23  32  54  81 119 160 210 239 284 334
#
# _framework density 21.074542999999998
#
# number of rings (size 3 to 8) (size 9 to 14) (size 15 to 20)
#    0.000    1.500    2.500    5.250    1.750    1.000 
#    0.000    4.375    0.000    2.250    0.000    0.000 
#    0.000    0.000    0.000    0.000    0.000    0.000 
#
# Total GULP energy -356826.551325 kJ/mol
# GULP energy per Si atom -5575.414864 kJ/mol
# Density = 2.102658 g / cm^3
# Si number density = 21.074543 Si / 1000 Ang^3
#
#
#
# Elastic Constant Matrix: (Units=GPa)
#
#
# Indices 1 2 3 4 5 6 
#
# 1 53.7571 10.5467 10.5725 0.0000 0.0000 0.0000
# 2 10.5467 9.9798 1.9832 0.0000 0.0000 0.0000
# 3 10.5725 1.9832 95.0713 0.0000 0.0000 0.0000
# 4 0.0000 0.0000 0.0000 6.7487 0.0000 0.0000
# 5 0.0000 0.0000 0.0000 0.0000 30.1982 0.0000
# 6 0.0000 0.0000 0.0000 0.0000 0.0000 16.8488
#
#
#
# Elastic Compliance Matrix: (Units=1/GPa)
#
#
# Indices 1 2 3 4 5 6 
#
# 1 0.023893 -0.024826 -0.002139 0.000000 0.000000 0.000000
# 2 -0.024826 0.126414 0.000124 0.000000 0.000000 0.000000
# 3 -0.002139 0.000124 0.010754 0.000000 0.000000 0.000000
# 4 0.000000 0.000000 0.000000 0.148176 0.000000 0.000000
# 5 0.000000 0.000000 0.000000 0.000000 0.033115 0.000000
# 6 0.000000 0.000000 0.000000 0.000000 0.000000 0.059351
#
#
# Mechanical properties :
#
#
# Convention : Reuss Voigt Hill
#
# Bulk Modulus (GPa) = 9.31282 22.77921 16.04602
# Shear Modulus (GPa) = 10.17960 19.80622 14.99291
#
# Velocity S-wave (km/s) = 2.20018 3.06897 2.67014
# Velocity P-wave (km/s) = 3.29893 4.83637 4.13965
#
# Compressibility (1/GPa) = 0.10737884
#
# Stress axis : x y z
#
# Youngs Moduli (GPa) = 41.85246 7.91053 92.99098
#
# Poissons Ratio (x) = 0.19638 0.19893
# Poissons Ratio (y) = 1.03901 -0.01151
# Poissons Ratio (z) = 0.08953 -0.00098
#
# Static dielectric constant tensor:
#      x y z
#    x 1.775250 0.000000 0.000000 
#    y 0.000000 1.796150 0.000000 
#    z 0.000000 0.000000 1.755720 
# 
# From -- ./inp_files/4214.got.cif
#   From: 2010.05.17/outbox.cif.g08.bks.cpg/sg56_3_cif.got.tgz:4214.got - 2010.06.03 13:42:01.
