data_PCOD9429492
_publ_section_title
;
Structure prediction by ZEFSAII (Michael W. Deem and Ramdas Pophale) SiO2 
 PCOD9429492
Probable space group: P C C N
;
_chemical_formula_sum "Si O2"
_cell_formula_units_Z 44
_cell_length_a 13.320186
_cell_length_b 11.535384
_cell_length_c 10.477325
_cell_angle_alpha 90.000000
_cell_angle_beta 90.000000
_cell_angle_gamma 90.000000
_cell_volume 1609.877243
_symmetry_space_group_name_H-M "P C C N"
_symmetry_group_IT_number 56
_symmetry_cell_setting 'orthorhombic'
loop_
_space_group_symop_operation_xyz
x,y,z
1/2-x,1/2-y,z
1/2+x,-y,1/2-z
-x,1/2+y,1/2-z
-x,-y,-z
1/2+x,1/2+y,-z
1/2-x,y,1/2+z
x,1/2-y,1/2+z
loop_
_atom_site_type_symbol
_atom_site_label
_atom_site_fract_x
_atom_site_fract_y
_atom_site_fract_z
Si Si1 0.750000 0.250000 0.048407
Si Si2 0.390549 0.864545 0.810106
Si Si3 0.933626 0.113919 0.954665
Si Si4 0.580932 0.095336 0.739997
Si Si5 0.102816 0.214755 0.367001
Si Si6 0.623403 0.871284 0.870529
O O1 0.708827 0.126430 0.107907
O O2 0.847183 0.211132 0.972340
O O3 0.396748 0.935853 0.680327
O O4 0.376967 0.725781 0.777913
O O5 0.499762 0.870588 0.874954
O O6 0.036202 0.183292 0.930214
O O7 0.938193 0.054649 0.093020
O O8 0.478093 0.121995 0.815833
O O9 0.643761 0.999612 0.816095
O O10 0.160944 0.158752 0.487227
O O11 0.146511 0.276486 0.239905
#
# Coordination Sequence:
#
# PCOD9429492 Si02
#       6
#     4   8   8   8   8   8
#     4  10  14  28  44  60  94 128 142 184 222 278
#     4   9  19  28  44  69  93 124 152 181 229 271
#     4   9  16  29  41  66  90 124 149 178 225 271
#     4   9  17  28  46  61  90 128 150 187 223 275
#     4  10  17  31  41  66  90 119 159 177 232 267
#     4  10  18  30  45  62  96 121 153 192 223 277
#
# _framework density 27.331275999999999
#
# number of rings (size 3 to 8) (size 9 to 14) (size 15 to 20)
#    0.000    2.909    5.455    1.091    0.000    2.909 
#    0.000    0.000    0.000    0.000    0.000    0.000 
#    0.000   23.273   61.091    0.727    0.000    0.000 
#
# Total GULP energy -245320.338976 kJ/mol
# GULP energy per Si atom -5575.462249 kJ/mol
# Density = 2.726907 g / cm^3
# Si number density = 27.331276 Si / 1000 Ang^3
#
#
#
# Elastic Constant Matrix: (Units=GPa)
#
#
# Indices 1 2 3 4 5 6 
#
# 1 58.4637 -16.0329 -20.9858 0.0000 0.0000 0.0000
# 2 -16.0329 105.8458 33.9888 0.0000 0.0000 0.0000
# 3 -20.9858 33.9888 173.3663 0.0000 0.0000 0.0000
# 4 0.0000 0.0000 0.0000 38.1796 0.0000 0.0000
# 5 0.0000 0.0000 0.0000 0.0000 -35.5670 0.0000
# 6 0.0000 0.0000 0.0000 0.0000 0.0000 7.8259
#
#
#
# Elastic Compliance Matrix: (Units=1/GPa)
#
#
# Indices 1 2 3 4 5 6 
#
# 1 0.018352 0.002205 0.001789 0.000000 0.000000 0.000000
# 2 0.002205 0.010347 -0.001762 0.000000 0.000000 0.000000
# 3 0.001789 -0.001762 0.006330 0.000000 0.000000 0.000000
# 4 0.000000 0.000000 0.000000 0.026192 0.000000 0.000000
# 5 0.000000 0.000000 0.000000 0.000000 -0.028116 0.000000
# 6 0.000000 0.000000 0.000000 0.000000 0.000000 0.127780
#
#
# Mechanical properties :
#
#
# Convention : Reuss Voigt Hill
#
# Bulk Modulus (GPa) = 25.31997 36.84622 31.08309
# Shear Modulus (GPa) = 29.48376 24.80142 27.14259
#
# Velocity S-wave (km/s) = 3.28800 3.01564 3.15476
# Velocity P-wave (km/s) = 4.86815 5.06320 4.96663
#
# Compressibility (1/GPa) = 0.03949452
#
# Stress axis : x y z
#
# Youngs Moduli (GPa) = 54.49114 96.64212 157.97577
#
# Poissons Ratio (x) = -0.21312 -0.28263
# Poissons Ratio (y) = -0.12017 0.27830
# Poissons Ratio (z) = -0.09749 0.17025
#
# Static dielectric constant tensor:
#      x y z
#    x 2.299860 0.000000 0.000000 
#    y 0.000000 2.239200 0.000000 
#    z 0.000000 0.000000 2.848320 
# 
# From -- ./inp_files/8614.got.cif
#   From: 2010.05.17/outbox.cif.g08.bks.cpg/sg56_5_cif.got.tgz:8614.got - 2010.06.03 13:42:01.
