data_PCOD9429560
_publ_section_title
;
Structure prediction by ZEFSAII (Michael W. Deem and Ramdas Pophale) SiO2 
 PCOD9429560
Probable space group: P C C N
;
_chemical_formula_sum "Si O2"
_cell_formula_units_Z 36
_cell_length_a 7.098264
_cell_length_b 17.693297
_cell_length_c 11.836995
_cell_angle_alpha 90.000000
_cell_angle_beta 90.000000
_cell_angle_gamma 90.000000
_cell_volume 1486.628244
_symmetry_space_group_name_H-M "P C C N"
_symmetry_group_IT_number 56
_symmetry_cell_setting 'orthorhombic'
loop_
_space_group_symop_operation_xyz
x,y,z
1/2-x,1/2-y,z
1/2+x,-y,1/2-z
-x,1/2+y,1/2-z
-x,-y,-z
1/2+x,1/2+y,-z
1/2-x,y,1/2+z
x,1/2-y,1/2+z
loop_
_atom_site_type_symbol
_atom_site_label
_atom_site_fract_x
_atom_site_fract_y
_atom_site_fract_z
Si Si1 0.478489 0.631271 0.689416
Si Si2 0.939639 0.887295 0.439627
Si Si3 0.927370 0.939945 0.911445
Si Si4 0.750000 0.750000 0.808160
Si Si5 0.195657 0.663565 0.512516
O O1 0.587077 0.610423 0.574769
O O2 0.490002 0.569424 0.786933
O O3 0.592535 0.704132 0.736454
O O4 0.269113 0.648106 0.640000
O O5 0.796546 0.949483 0.395127
O O6 0.864034 0.811280 0.381362
O O7 0.164339 0.886701 0.433446
O O8 0.989977 0.861749 0.976195
O O9 0.000000 0.000000 0.000000
O O10 0.250000 0.750000 0.490452
#
# Coordination Sequence:
#
# PCOD9429560 Si02
#       5
#     8   8   8   4   8
#     4   9  22  37  60  93 118 167 200 259 320 364
#     4   9  21  39  57  91 122 155 211 255 308 389
#     4  11  24  43  63  89 130 174 212 260 317 384
#     4  10  16  34  68  84 128 154 196 254 336 362
#     4  10  22  39  63  93 125 156 220 259 319 385
#
# _framework density 24.215872000000001
#
# number of rings (size 3 to 8) (size 9 to 14) (size 15 to 20)
#    1.333    0.889    0.000    3.333    3.111    5.333 
#    4.000    0.000    0.000    0.000    0.000    0.000 
#    0.000    0.000    0.000    0.000    0.000    0.000 
#
# Total GULP energy -200536.100952 kJ/mol
# GULP energy per Si atom -5570.447249 kJ/mol
# Density = 2.416076 g / cm^3
# Si number density = 24.215872 Si / 1000 Ang^3
#
#
#
# Elastic Constant Matrix: (Units=GPa)
#
#
# Indices 1 2 3 4 5 6 
#
# 1 83.0444 -1.2940 28.9350 0.0000 0.0000 0.0000
# 2 -1.2940 42.9285 4.7743 0.0000 0.0000 0.0000
# 3 28.9350 4.7743 114.0397 0.0000 0.0000 0.0000
# 4 0.0000 0.0000 0.0000 24.3846 0.0000 0.0000
# 5 0.0000 0.0000 0.0000 0.0000 36.4841 0.0000
# 6 0.0000 0.0000 0.0000 0.0000 0.0000 21.5901
#
#
#
# Elastic Compliance Matrix: (Units=1/GPa)
#
#
# Indices 1 2 3 4 5 6 
#
# 1 0.013235 0.000776 -0.003391 0.000000 0.000000 0.000000
# 2 0.000776 0.023449 -0.001179 0.000000 0.000000 0.000000
# 3 -0.003391 -0.001179 0.009679 0.000000 0.000000 0.000000
# 4 0.000000 0.000000 0.000000 0.041010 0.000000 0.000000
# 5 0.000000 0.000000 0.000000 0.000000 0.027409 0.000000
# 6 0.000000 0.000000 0.000000 0.000000 0.000000 0.046317
#
#
# Mechanical properties :
#
#
# Convention : Reuss Voigt Hill
#
# Bulk Modulus (GPa) = 25.78888 33.87145 29.83017
# Shear Modulus (GPa) = 27.53141 30.33158 28.93149
#
# Velocity S-wave (km/s) = 3.37548 3.54298 3.46024
# Velocity P-wave (km/s) = 5.08571 5.54568 5.32067
#
# Compressibility (1/GPa) = 0.03877640
#
# Stress axis : x y z
#
# Youngs Moduli (GPa) = 75.55592 42.64571 103.32162
#
# Poissons Ratio (x) = -0.03309 0.35033
# Poissons Ratio (y) = -0.05863 0.12177
# Poissons Ratio (z) = 0.25618 0.05026
#
# Static dielectric constant tensor:
#      x y z
#    x 1.973170 0.000000 0.000000 
#    y 0.000000 2.021250 0.000000 
#    z 0.000000 0.000000 1.892950 
# 
# From -- ./inp_files/6264.got.cif
#   From: 2010.05.17/outbox.cif.g08.bks.cpg/sg56_4_cif.got.tgz:6264.got - 2010.06.03 13:42:01.
