data_PCOD9429702
_publ_section_title
;
Structure prediction by ZEFSAII (Michael W. Deem and Ramdas Pophale) SiO2 
 PCOD9429702
Probable space group: P C C N
;
_chemical_formula_sum "Si O2"
_cell_formula_units_Z 64
_cell_length_a 15.949787
_cell_length_b 11.476198
_cell_length_c 19.018290
_cell_angle_alpha 90.000000
_cell_angle_beta 90.000000
_cell_angle_gamma 90.000000
_cell_volume 3481.163215
_symmetry_space_group_name_H-M "P C C N"
_symmetry_group_IT_number 56
_symmetry_cell_setting 'orthorhombic'
loop_
_space_group_symop_operation_xyz
x,y,z
1/2-x,1/2-y,z
1/2+x,-y,1/2-z
-x,1/2+y,1/2-z
-x,-y,-z
1/2+x,1/2+y,-z
1/2-x,y,1/2+z
x,1/2-y,1/2+z
loop_
_atom_site_type_symbol
_atom_site_label
_atom_site_fract_x
_atom_site_fract_y
_atom_site_fract_z
Si Si1 0.092036 0.099366 0.136624
Si Si2 0.997350 0.875452 0.147225
Si Si3 0.295139 0.124117 0.769022
Si Si4 0.450429 0.743972 0.292429
Si Si5 0.363146 0.535306 0.778807
Si Si6 0.844496 0.708850 0.954776
Si Si7 0.956837 0.959319 0.363897
Si Si8 0.581487 0.850250 0.098101
O O1 0.169041 0.106431 0.190693
O O2 0.104377 0.174957 0.066948
O O3 0.021298 0.163823 0.183605
O O4 0.065475 0.967793 0.121387
O O5 0.033242 0.807241 0.215227
O O6 0.917937 0.954272 0.169370
O O7 0.963917 0.774489 0.098361
O O8 0.250000 0.250000 0.772092
O O9 0.228457 0.021000 0.780162
O O10 0.367201 0.127713 0.829229
O O11 0.470832 0.632873 0.340705
O O12 0.369290 0.826904 0.295486
O O13 0.411514 0.515180 0.704274
O O14 0.750000 0.750000 0.942896
O O15 0.884252 0.611577 0.903599
O O16 0.856478 0.657747 0.032414
O O17 0.007456 0.055501 0.407090
#
# Coordination Sequence:
#
# PCOD9429702 Si02
#       8
#     8   8   8   8   8   8   8   8
#     4  10  20  35  56  82 111 154 194 242 287 356
#     4  10  18  34  55  82 115 142 193 237 293 346
#     4  12  19  33  58  91 119 147 195 249 304 345
#     4   9  16  33  55  86 112 147 188 240 288 352
#     4  10  18  30  59  88 117 146 186 247 294 346
#     4  11  24  39  59  85 114 151 205 249 297 345
#     4  10  20  38  59  84 119 159 199 236 291 371
#     4  12  22  37  59  88 118 154 194 249 302 355
#
# _framework density 18.38466
#
# number of rings (size 3 to 8) (size 9 to 14) (size 15 to 20)
#    0.000    1.500    3.750    4.875    0.000    0.500 
#    0.000    2.500    0.000    0.000    3.250    0.000 
#    0.000    0.000    0.000    0.000    0.000    0.000 
#
# Total GULP energy -356595.413533 kJ/mol
# GULP energy per Si atom -5571.803336 kJ/mol
# Density = 1.834282 g / cm^3
# Si number density = 18.384660 Si / 1000 Ang^3
#
#
#
# Elastic Constant Matrix: (Units=GPa)
#
#
# Indices 1 2 3 4 5 6 
#
# 1 60.1782 25.8019 18.9388 0.0000 0.0000 0.0000
# 2 25.8019 80.3765 20.6931 0.0000 0.0000 0.0000
# 3 18.9388 20.6931 46.4760 0.0000 0.0000 0.0000
# 4 0.0000 0.0000 0.0000 5.7329 0.0000 0.0000
# 5 0.0000 0.0000 0.0000 0.0000 14.0189 0.0000
# 6 0.0000 0.0000 0.0000 0.0000 0.0000 30.0134
#
#
#
# Elastic Compliance Matrix: (Units=1/GPa)
#
#
# Indices 1 2 3 4 5 6 
#
# 1 0.020738 -0.005062 -0.006197 0.000000 0.000000 0.000000
# 2 -0.005062 0.015288 -0.004744 0.000000 0.000000 0.000000
# 3 -0.006197 -0.004744 0.026154 0.000000 0.000000 0.000000
# 4 0.000000 0.000000 0.000000 0.174431 0.000000 0.000000
# 5 0.000000 0.000000 0.000000 0.000000 0.071332 0.000000
# 6 0.000000 0.000000 0.000000 0.000000 0.000000 0.033318
#
#
# Mechanical properties :
#
#
# Convention : Reuss Voigt Hill
#
# Bulk Modulus (GPa) = 33.14102 35.32202 34.23152
# Shear Modulus (GPa) = 13.04379 18.05952 15.55165
#
# Velocity S-wave (km/s) = 2.66652 3.13759 2.91160
# Velocity P-wave (km/s) = 5.24843 5.69038 5.47387
#
# Compressibility (1/GPa) = 0.03017409
#
# Stress axis : x y z
#
# Youngs Moduli (GPa) = 48.22113 65.41210 38.23509
#
# Poissons Ratio (x) = 0.33110 0.23694
# Poissons Ratio (y) = 0.24408 0.18139
# Poissons Ratio (z) = 0.29882 0.31032
#
# Static dielectric constant tensor:
#      x y z
#    x 1.667600 0.000000 0.000000 
#    y 0.000000 1.643630 0.000000 
#    z 0.000000 0.000000 1.644850 
# 
# From -- ./inp_files/16338.got.cif
#   From: 2010.05.17/outbox.cif.g08.bks.cpg/sg56_9_cif.got.tgz:16338.got - 2010.06.03 13:42:01.
