data_PCOD9429130
_publ_section_title
;
Structure prediction by ZEFSAII (Michael W. Deem and Ramdas Pophale) SiO2 
 PCOD9429130
Probable space group: P B A M
;
_chemical_formula_sum "Si O2"
_cell_formula_units_Z 40
_cell_length_a 8.195158
_cell_length_b 24.531824
_cell_length_c 7.513524
_cell_angle_alpha 90.000000
_cell_angle_beta 90.000000
_cell_angle_gamma 90.000000
_cell_volume 1510.535197
_symmetry_space_group_name_H-M "P B A M"
_symmetry_group_IT_number 55
_symmetry_cell_setting 'orthorhombic'
loop_
_space_group_symop_operation_xyz
x,y,z
-x,-y,z
1/2+x,1/2-y,-z
1/2-x,1/2+y,-z
-x,-y,-z
x,y,-z
1/2-x,1/2+y,z
1/2+x,1/2-y,z
loop_
_atom_site_type_symbol
_atom_site_label
_atom_site_fract_x
_atom_site_fract_y
_atom_site_fract_z
Si Si1 0.641648 0.368268 0.210873
Si Si2 0.370319 0.834524 0.215329
Si Si3 0.955654 0.233670 0.783236
Si Si4 0.359245 0.037140 0.704460
Si Si5 0.173156 0.935157 0.215958
O O1 0.600563 0.307546 0.276293
O O2 0.805373 0.403388 0.231677
O O3 0.492463 0.406165 0.277292
O O4 0.621310 0.363205 0.000000
O O5 0.514818 0.795264 0.280400
O O6 0.321263 0.894991 0.275396
O O7 0.210148 0.797862 0.257805
O O8 0.382448 0.838810 0.000000
O O9 0.957807 0.237635 0.000000
O O10 0.400723 0.044354 0.500000
O O11 0.500000 0.000000 0.793760
O O12 0.206570 0.995818 0.721333
O O13 0.168432 0.936599 0.000000
#
# Coordination Sequence:
#
# PCOD9429130 Si02
#       5
#     8   8   8   8   8
#     4   9  18  33  53  76 100 127 162 201 239 286
#     4   8  14  25  43  70 101 127 152 187 232 281
#     4   8  14  25  43  70 101 127 152 187 232 281
#     4  11  24  37  48  68  98 129 164 207 250 290
#     4   9  18  33  53  76 100 127 162 201 239 286
#
# _framework density 26.480681000000001
#
# number of rings (size 3 to 8) (size 9 to 14) (size 15 to 20)
#    0.000    3.000    0.000    3.600    0.000    6.400 
#    0.000    4.000    0.000    1.200    0.000    0.000 
#    0.000    0.000    0.000    0.000    0.000    0.000 
#
# Total GULP energy -223414.530323 kJ/mol
# GULP energy per Si atom -5585.363258 kJ/mol
# Density = 2.642041 g / cm^3
# Si number density = 26.480681 Si / 1000 Ang^3
#
#
#
# Elastic Constant Matrix: (Units=GPa)
#
#
# Indices 1 2 3 4 5 6 
#
# 1 51.8534 7.5097 0.5990 0.0000 0.0000 0.0000
# 2 7.5097 179.1879 2.2998 0.0000 0.0000 0.0000
# 3 0.5990 2.2998 69.2962 0.0000 0.0000 0.0000
# 4 0.0000 0.0000 0.0000 -19.6753 0.0000 0.0000
# 5 0.0000 0.0000 0.0000 0.0000 21.3477 0.0000
# 6 0.0000 0.0000 0.0000 0.0000 0.0000 50.8614
#
#
#
# Elastic Compliance Matrix: (Units=1/GPa)
#
#
# Indices 1 2 3 4 5 6 
#
# 1 0.019404 -0.000811 -0.000141 0.000000 0.000000 0.000000
# 2 -0.000811 0.005617 -0.000179 0.000000 0.000000 0.000000
# 3 -0.000141 -0.000179 0.014438 0.000000 0.000000 0.000000
# 4 0.000000 0.000000 0.000000 -0.050825 0.000000 0.000000
# 5 0.000000 0.000000 0.000000 0.000000 0.046844 0.000000
# 6 0.000000 0.000000 0.000000 0.000000 0.000000 0.019661
#
#
# Mechanical properties :
#
#
# Convention : Reuss Voigt Hill
#
# Bulk Modulus (GPa) = 26.88457 35.68382 31.28420
# Shear Modulus (GPa) = 71.63244 29.83537 50.73390
#
# Velocity S-wave (km/s) = 5.20668 3.36025 4.38183
# Velocity P-wave (km/s) = 6.80593 5.34413 6.11884
#
# Compressibility (1/GPa) = 0.03719606
#
# Stress axis : x y z
#
# Youngs Moduli (GPa) = 51.53503 178.02959 69.26179
#
# Poissons Ratio (x) = 0.14446 0.00975
# Poissons Ratio (y) = 0.04182 0.01243
# Poissons Ratio (z) = 0.00726 0.03194
#
# Static dielectric constant tensor:
#      x y z
#    x 2.226790 0.000000 0.000000 
#    y 0.000000 2.040560 0.000000 
#    z 0.000000 0.000000 1.998360 
# 
# From -- ./inp_files/2275.got.cif
#   From: 2010.05.17/outbox.cif.g08.bks.cpg/sg55_2_cif.got.tgz:2275.got - 2010.06.03 13:27:54.
