data_PCOD9429177
_publ_section_title
;
Structure prediction by ZEFSAII (Michael W. Deem and Ramdas Pophale) SiO2 
 PCOD9429177
Probable space group: P B A M
;
_chemical_formula_sum "Si O2"
_cell_formula_units_Z 32
_cell_length_a 8.638294
_cell_length_b 14.291612
_cell_length_c 10.509585
_cell_angle_alpha 90.000000
_cell_angle_beta 90.000000
_cell_angle_gamma 90.000000
_cell_volume 1297.462353
_symmetry_space_group_name_H-M "P B A M"
_symmetry_group_IT_number 55
_symmetry_cell_setting 'orthorhombic'
loop_
_space_group_symop_operation_xyz
x,y,z
-x,-y,z
1/2+x,1/2-y,-z
1/2-x,1/2+y,-z
-x,-y,-z
x,y,-z
1/2-x,1/2+y,z
1/2+x,1/2-y,z
loop_
_atom_site_type_symbol
_atom_site_label
_atom_site_fract_x
_atom_site_fract_y
_atom_site_fract_z
Si Si1 0.677818 0.467763 0.500000
Si Si2 0.576175 0.106650 0.500000
Si Si3 0.144702 0.939992 0.143209
Si Si4 0.226665 0.619396 0.775407
Si Si5 0.402599 0.801053 0.234469
O O1 0.500000 0.500000 0.500000
O O2 0.750208 0.570938 0.500000
O O3 0.741572 0.412493 0.626123
O O4 0.556705 0.172461 0.379652
O O5 0.500000 0.000000 0.500000
O O6 0.266858 0.024259 0.147223
O O7 0.243679 0.857138 0.204946
O O8 0.100629 0.913562 0.000000
O O9 0.000000 0.000000 0.201219
O O10 0.362659 0.694579 0.796877
O O11 0.065162 0.665063 0.820934
#
# Coordination Sequence:
#
# PCOD9429177 Si02
#       5
#     4   4   8   8   8
#     4  12  25  40  70  97 139 181 221 272 334 395
#     4  12  21  42  66  97 137 179 217 268 330 397
#     4  11  25  47  71  96 130 174 226 286 346 405
#     4  12  25  43  67 102 136 180 224 278 335 405
#     4  12  25  42  69  99 140 176 226 277 336 404
#
# _framework density 24.663529
#
# number of rings (size 3 to 8) (size 9 to 14) (size 15 to 20)
#    0.000    0.250    5.000    3.750    3.500    3.000 
#    0.000    0.000    0.000    0.000    0.000    0.000 
#    0.000    0.000    0.000    0.000    0.000    0.000 
#
# Total GULP energy -178188.014328 kJ/mol
# GULP energy per Si atom -5568.375448 kJ/mol
# Density = 2.460739 g / cm^3
# Si number density = 24.663529 Si / 1000 Ang^3
#
#
#
# Elastic Constant Matrix: (Units=GPa)
#
#
# Indices 1 2 3 4 5 6 
#
# 1 83.6454 -20.3404 -12.1541 0.0000 0.0000 0.0000
# 2 -20.3404 80.1650 -7.7280 0.0000 0.0000 0.0000
# 3 -12.1541 -7.7280 76.5563 0.0000 0.0000 0.0000
# 4 0.0000 0.0000 0.0000 -28.9188 0.0000 0.0000
# 5 0.0000 0.0000 0.0000 0.0000 -29.0736 0.0000
# 6 0.0000 0.0000 0.0000 0.0000 0.0000 44.9388
#
#
#
# Elastic Compliance Matrix: (Units=1/GPa)
#
#
# Indices 1 2 3 4 5 6 
#
# 1 0.013183 0.003582 0.002454 0.000000 0.000000 0.000000
# 2 0.003582 0.013570 0.001938 0.000000 0.000000 0.000000
# 3 0.002454 0.001938 0.013648 0.000000 0.000000 0.000000
# 4 0.000000 0.000000 0.000000 -0.034580 0.000000 0.000000
# 5 0.000000 0.000000 0.000000 0.000000 -0.034395 0.000000
# 6 0.000000 0.000000 0.000000 0.000000 0.000000 0.022252
#
#
# Mechanical properties :
#
#
# Convention : Reuss Voigt Hill
#
# Bulk Modulus (GPa) = 17.74651 17.76906 17.75778
# Shear Modulus (GPa) = -1433.49666 16.09523 -708.70071
#
# Velocity S-wave (km/s) = -24.13468 2.55736 -16.96972
# Velocity P-wave (km/s) = 27.73865 3.99254 19.40995
#
# Compressibility (1/GPa) = 0.05634910
#
# Stress axis : x y z
#
# Youngs Moduli (GPa) = 75.85635 73.69259 73.27280
#
# Poissons Ratio (x) = -0.26393 -0.17984
# Poissons Ratio (y) = -0.27168 -0.14203
# Poissons Ratio (z) = -0.18619 -0.14285
#
# Static dielectric constant tensor:
#      x y z
#    x 2.177430 0.000000 0.000000 
#    y 0.000000 1.891030 0.000000 
#    z 0.000000 0.000000 2.044800 
# 
# From -- ./inp_files/11668.got.cif
#   From: 2010.05.17/outbox.cif.g08.bks.cpg/sg55_6_cif.got.tgz:11668.got - 2010.06.03 13:27:54.
