data_PCOD9429867
_publ_section_title
;
Structure prediction by ZEFSAII (Michael W. Deem and Ramdas Pophale) SiO2 
 PCOD9429867
Probable space group: P C C N
;
_chemical_formula_sum "Si O2"
_cell_formula_units_Z 48
_cell_length_a 12.867182
_cell_length_b 14.234853
_cell_length_c 10.465784
_cell_angle_alpha 90.000000
_cell_angle_beta 90.000000
_cell_angle_gamma 90.000000
_cell_volume 1916.938579
_symmetry_space_group_name_H-M "P C C N"
_symmetry_group_IT_number 56
_symmetry_cell_setting 'orthorhombic'
loop_
_space_group_symop_operation_xyz
x,y,z
1/2-x,1/2-y,z
1/2+x,-y,1/2-z
-x,1/2+y,1/2-z
-x,-y,-z
1/2+x,1/2+y,-z
1/2-x,y,1/2+z
x,1/2-y,1/2+z
loop_
_atom_site_type_symbol
_atom_site_label
_atom_site_fract_x
_atom_site_fract_y
_atom_site_fract_z
Si Si1 0.767814 0.419104 0.507770
Si Si2 0.048461 0.654837 0.889685
Si Si3 0.250000 0.250000 0.790292
Si Si4 0.095667 0.603859 0.293586
Si Si5 0.668075 0.927351 0.867885
Si Si6 0.974515 0.765819 0.643156
Si Si7 0.750000 0.250000 0.309994
O O1 0.663346 0.390077 0.592443
O O2 0.884471 0.420322 0.562255
O O3 0.743210 0.525252 0.469697
O O4 0.771916 0.338391 0.400915
O O5 0.947240 0.591541 0.921609
O O6 0.012982 0.687300 0.746187
O O7 0.035767 0.727570 0.009634
O O8 0.221223 0.161052 0.700460
O O9 0.352259 0.240397 0.876106
O O10 0.147958 0.515935 0.225129
O O11 0.164787 0.699898 0.278637
O O12 0.993554 0.636910 0.222856
#
# Coordination Sequence:
#
# PCOD9429867 Si02
#       7
#     8   8   4   8   8   8   4
#     4  11  22  38  71  99 143 182 236 302 376 443
#     4  11  23  44  71 100 140 190 241 300 374 446
#     4  10  26  48  72  94 144 194 258 292 370 438
#     4  11  23  38  66 106 141 179 239 296 376 432
#     4  10  24  44  66 100 135 198 244 307 361 443
#     4  11  24  44  71 101 138 191 246 298 365 451
#     4  10  18  36  60  98 136 174 218 286 366 444
#
# _framework density 25.039926000000001
#
# number of rings (size 3 to 8) (size 9 to 14) (size 15 to 20)
#    0.000    1.333    3.333    3.000    2.333    2.667 
#    6.000    2.500    0.000    0.000    0.000    0.000 
#    0.000    0.000    0.000    0.000    0.000    0.000 
#
# Total GULP energy -267355.602419 kJ/mol
# GULP energy per Si atom -5569.908384 kJ/mol
# Density = 2.498293 g / cm^3
# Si number density = 25.039926 Si / 1000 Ang^3
#
#
#
# Elastic Constant Matrix: (Units=GPa)
#
#
# Indices 1 2 3 4 5 6 
#
# 1 88.2256 9.9939 4.6728 0.0000 0.0000 0.0000
# 2 9.9939 95.9727 -15.8493 0.0000 0.0000 0.0000
# 3 4.6728 -15.8493 53.3758 0.0000 0.0000 0.0000
# 4 0.0000 0.0000 0.0000 9.7380 0.0000 0.0000
# 5 0.0000 0.0000 0.0000 0.0000 32.2937 0.0000
# 6 0.0000 0.0000 0.0000 0.0000 0.0000 43.3130
#
#
#
# Elastic Compliance Matrix: (Units=1/GPa)
#
#
# Indices 1 2 3 4 5 6 
#
# 1 0.011574 -0.001443 -0.001442 0.000000 0.000000 0.000000
# 2 -0.001443 0.011137 0.003433 0.000000 0.000000 0.000000
# 3 -0.001442 0.003433 0.019881 0.000000 0.000000 0.000000
# 4 0.000000 0.000000 0.000000 0.102690 0.000000 0.000000
# 5 0.000000 0.000000 0.000000 0.000000 0.030966 0.000000
# 6 0.000000 0.000000 0.000000 0.000000 0.000000 0.023088
#
#
# Mechanical properties :
#
#
# Convention : Reuss Voigt Hill
#
# Bulk Modulus (GPa) = 22.88943 26.13433 24.51188
# Shear Modulus (GPa) = 23.49595 32.98606 28.24100
#
# Velocity S-wave (km/s) = 3.06656 3.63345 3.36197
# Velocity P-wave (km/s) = 4.65826 5.29739 4.98807
#
# Compressibility (1/GPa) = 0.04368829
#
# Stress axis : x y z
#
# Youngs Moduli (GPa) = 86.39721 89.79132 50.29975
#
# Poissons Ratio (x) = 0.12961 0.07253
# Poissons Ratio (y) = 0.12471 -0.17270
# Poissons Ratio (z) = 0.12458 -0.30828
#
# Static dielectric constant tensor:
#      x y z
#    x 2.112990 0.000000 0.000000 
#    y 0.000000 2.042220 0.000000 
#    z 0.000000 0.000000 2.152510 
# 
# From -- ./inp_files/7829.got.cif
#   From: 2010.05.17/outbox.cif.g08.bks.cpg/sg56_4_cif.got.tgz:7829.got - 2010.06.03 13:42:01.
