data_PCOD9429937
_publ_section_title
;
Structure prediction by ZEFSAII (Michael W. Deem and Ramdas Pophale) SiO2 
 PCOD9429937
Probable space group: P C C N
;
_chemical_formula_sum "Si O2"
_cell_formula_units_Z 60
_cell_length_a 5.493245
_cell_length_b 24.497402
_cell_length_c 20.808074
_cell_angle_alpha 90.000000
_cell_angle_beta 90.000000
_cell_angle_gamma 90.000000
_cell_volume 2800.147326
_symmetry_space_group_name_H-M "P C C N"
_symmetry_group_IT_number 56
_symmetry_cell_setting 'orthorhombic'
loop_
_space_group_symop_operation_xyz
x,y,z
1/2-x,1/2-y,z
1/2+x,-y,1/2-z
-x,1/2+y,1/2-z
-x,-y,-z
1/2+x,1/2+y,-z
1/2-x,y,1/2+z
x,1/2-y,1/2+z
loop_
_atom_site_type_symbol
_atom_site_label
_atom_site_fract_x
_atom_site_fract_y
_atom_site_fract_z
Si Si1 0.250000 0.750000 0.753629
Si Si2 0.610840 0.914769 0.079434
Si Si3 0.716894 0.073837 0.742433
Si Si4 0.108254 0.093415 0.119966
Si Si5 0.446526 0.012396 0.157187
Si Si6 0.641642 0.688966 0.312563
Si Si7 0.451924 0.334351 0.307796
Si Si8 0.406019 0.562984 0.005512
O O1 0.358988 0.796499 0.800903
O O2 0.450889 0.726169 0.705280
O O3 0.602616 0.860652 0.123900
O O4 0.860085 0.910486 0.040494
O O5 0.354279 0.925918 0.041102
O O6 0.630063 0.969124 0.125086
O O7 0.510501 0.076225 0.687707
O O8 0.948851 0.061316 0.700020
O O9 0.672839 0.126888 0.784192
O O10 0.699204 0.024988 0.793053
O O11 0.292700 0.044013 0.104338
O O12 0.253955 0.149451 0.132375
O O13 0.905126 0.090739 0.065079
O O14 0.750000 0.750000 0.321747
O O15 0.737702 0.663346 0.245078
O O16 0.500000 0.500000 0.000000
#
# Coordination Sequence:
#
# PCOD9429937 Si02
#       8
#     4   8   8   8   8   8   8   8
#     4  10  18  38  68  92 126 158 208 266 358 402
#     4  11  26  41  63  89 129 172 223 262 312 380
#     4  10  20  33  52  91 122 156 201 257 337 381
#     4  11  22  36  60  84 126 167 214 262 320 392
#     4  11  20  33  56  86 125 160 203 263 317 392
#     4   9  20  39  62  98 124 160 207 272 345 398
#     4   9  21  37  62  93 124 162 204 276 326 398
#     4  12  25  44  61  90 128 185 224 258 310 379
#
# _framework density 21.427443
#
# number of rings (size 3 to 8) (size 9 to 14) (size 15 to 20)
#    0.000    1.600    2.667    2.000    3.733    0.000 
#    0.000    0.000    2.933    0.000    0.000    0.000 
#    0.000    0.000    0.000    0.000    0.000    0.000 
#
# Total GULP energy -334142.159602 kJ/mol
# GULP energy per Si atom -5569.035993 kJ/mol
# Density = 2.137867 g / cm^3
# Si number density = 21.427443 Si / 1000 Ang^3
#
#
#
# Elastic Constant Matrix: (Units=GPa)
#
#
# Indices 1 2 3 4 5 6 
#
# 1 66.1447 12.4282 15.9982 0.0000 0.0000 0.0000
# 2 12.4282 68.8017 29.8677 0.0000 0.0000 0.0000
# 3 15.9982 29.8677 71.2284 0.0000 0.0000 0.0000
# 4 0.0000 0.0000 0.0000 23.2879 0.0000 0.0000
# 5 0.0000 0.0000 0.0000 0.0000 33.7334 0.0000
# 6 0.0000 0.0000 0.0000 0.0000 0.0000 30.0192
#
#
#
# Elastic Compliance Matrix: (Units=1/GPa)
#
#
# Indices 1 2 3 4 5 6 
#
# 1 0.016137 -0.001640 -0.002937 0.000000 0.000000 0.000000
# 2 -0.001640 0.017936 -0.007153 0.000000 0.000000 0.000000
# 3 -0.002937 -0.007153 0.017698 0.000000 0.000000 0.000000
# 4 0.000000 0.000000 0.000000 0.042941 0.000000 0.000000
# 5 0.000000 0.000000 0.000000 0.000000 0.029644 0.000000
# 6 0.000000 0.000000 0.000000 0.000000 0.000000 0.033312
#
#
# Mechanical properties :
#
#
# Convention : Reuss Voigt Hill
#
# Bulk Modulus (GPa) = 35.32047 35.86258 35.59152
# Shear Modulus (GPa) = 26.23793 27.26679 26.75236
#
# Velocity S-wave (km/s) = 3.50308 3.57111 3.53726
# Velocity P-wave (km/s) = 5.73425 5.81178 5.77315
#
# Compressibility (1/GPa) = 0.02831220
#
# Stress axis : x y z
#
# Youngs Moduli (GPa) = 61.97011 55.75442 56.50310
#
# Poissons Ratio (x) = 0.09144 0.16593
# Poissons Ratio (y) = 0.10164 0.40414
# Poissons Ratio (z) = 0.18199 0.39878
#
# Static dielectric constant tensor:
#      x y z
#    x 1.923960 0.000000 0.000000 
#    y 0.000000 1.827030 0.000000 
#    z 0.000000 0.000000 1.863860 
# 
# From -- ./inp_files/17661.got.cif
#   From: 2010.05.17/outbox.cif.g08.bks.cpg/sg56_9_cif.got.tgz:17661.got - 2010.06.03 13:42:01.
