data_PCOD9429449
_publ_section_title
;
Structure prediction by ZEFSAII (Michael W. Deem and Ramdas Pophale) SiO2 
 PCOD9429449
Probable space group: P B A M
;
_chemical_formula_sum "Si O2"
_cell_formula_units_Z 58
_cell_length_a 18.000000
_cell_length_b 18.000000
_cell_length_c 9.000000
_cell_angle_alpha 90.000000
_cell_angle_beta 90.000000
_cell_angle_gamma 90.000000
_cell_volume 2916.000000
_symmetry_space_group_name_H-M "P B A M"
_symmetry_group_IT_number 55
_symmetry_cell_setting 'orthorhombic'
loop_
_space_group_symop_operation_xyz
x,y,z
-x,-y,z
1/2+x,1/2-y,-z
1/2-x,1/2+y,-z
-x,-y,-z
x,y,-z
1/2-x,1/2+y,z
1/2+x,1/2-y,z
loop_
_atom_site_type_symbol
_atom_site_label
_atom_site_fract_x
_atom_site_fract_y
_atom_site_fract_z
Si Si1 0.914821 0.670736 0.831428
Si Si2 0.937817 0.427949 0.186229
Si Si3 0.778507 0.354060 0.176570
Si Si4 0.350866 0.556537 0.676853
Si Si5 0.237477 0.304139 0.677222
Si Si6 0.031766 0.160992 0.172233
Si Si7 0.500000 0.000000 0.500000
Si Si8 0.131761 0.898613 0.177336
O O1 0.844368 0.666747 0.723475
O O2 0.949961 0.752397 0.815198
O O3 0.982825 0.613926 0.812468
O O4 0.886013 0.662986 0.000000
O O5 0.864886 0.376246 0.197156
O O6 0.943661 0.470097 0.353898
O O7 0.931804 0.454666 0.000000
O O8 0.725896 0.416277 0.249271
O O9 0.753922 0.276711 0.251780
O O10 0.764006 0.348833 0.000000
O O11 0.343659 0.550376 0.500000
O O12 0.413823 0.616047 0.721000
O O13 0.374450 0.479400 0.750806
O O14 0.242839 0.300023 0.500000
O O15 0.299889 0.357423 0.745439
O O16 0.945680 0.144449 0.202387
O O17 0.046684 0.138464 0.000000
O O18 0.143661 0.903278 0.000000
#
# Coordination Sequence:
#
# PCOD9429449 Si02
#       8
#     8   8   8   8   8   8   2   8
#     4  10  21  42  69  97 131 172 224 278 333 401
#     4  10  25  46  72 102 133 182 235 285 348 415
#     4  11  23  45  71  95 130 177 228 274 331 408
#     4  12  25  40  63  99 138 175 218 272 337 397
#     4  12  25  40  65 102 138 170 218 278 338 400
#     4  10  21  41  69  96 127 174 224 266 325 400
#     4  12  26  44  72  94 140 172 222 300 348 410
#     4  11  24  43  66  94 130 178 223 267 327 398
#
# _framework density 19.890260999999999
#
# number of rings (size 3 to 8) (size 9 to 14) (size 15 to 20)
#    0.000    1.103    1.379    4.759    2.897    6.069 
#    0.000    1.379    0.000    0.000    0.000    0.000 
#    0.000    0.000    0.000    0.000    0.000    0.000 
#
# Total GULP energy -323012.532645 kJ/mol
# GULP energy per Si atom -5569.181597 kJ/mol
# Density = 1.984499 g / cm^3
# Si number density = 19.890261 Si / 1000 Ang^3
#
#
#
# Elastic Constant Matrix: (Units=GPa)
#
#
# Indices 1 2 3 4 5 6 
#
# 1 108.7503 7.7540 54.6961 0.0000 0.0000 0.0000
# 2 7.7540 28.9652 32.8944 0.0000 0.0000 0.0000
# 3 54.6961 32.8944 175.3146 0.0000 0.0000 0.0000
# 4 0.0000 0.0000 0.0000 23.7739 0.0000 0.0000
# 5 0.0000 0.0000 0.0000 0.0000 19.7573 0.0000
# 6 0.0000 0.0000 0.0000 0.0000 0.0000 38.8214
#
#
#
# Elastic Compliance Matrix: (Units=1/GPa)
#
#
# Indices 1 2 3 4 5 6 
#
# 1 0.010940 0.001204 -0.003639 0.000000 0.000000 0.000000
# 2 0.001204 0.044005 -0.008632 0.000000 0.000000 0.000000
# 3 -0.003639 -0.008632 0.008459 0.000000 0.000000 0.000000
# 4 0.000000 0.000000 0.000000 0.042063 0.000000 0.000000
# 5 0.000000 0.000000 0.000000 0.000000 0.050614 0.000000
# 6 0.000000 0.000000 0.000000 0.000000 0.000000 0.025759
#
#
# Mechanical properties :
#
#
# Convention : Reuss Voigt Hill
#
# Bulk Modulus (GPa) = 24.23104 55.96880 40.09992
# Shear Modulus (GPa) = 22.96409 30.98290 26.97350
#
# Velocity S-wave (km/s) = 3.40154 3.95104 3.68654
# Velocity P-wave (km/s) = 5.25700 7.00101 6.19073
#
# Compressibility (1/GPa) = 0.04126939
#
# Stress axis : x y z
#
# Youngs Moduli (GPa) = 91.40966 22.72457 118.21651
#
# Poissons Ratio (x) = -0.02736 0.43019
# Poissons Ratio (y) = -0.11006 1.02049
# Poissons Ratio (z) = 0.33264 0.19617
#
# Static dielectric constant tensor:
#      x y z
#    x 1.692860 0.000000 0.000000 
#    y 0.000000 1.749530 0.000000 
#    z 0.000000 0.000000 1.741130 
# 
# From -- ./inp_files/7730.got.cif
#   From: 2010.05.17/outbox.ucp.g08.bks.cvg/sg55_4_cif.got.tgz:7730.got - 2010.06.11 16:36:00.
