data_PCOD9429733
_publ_section_title
;
Structure prediction by ZEFSAII (Michael W. Deem and Ramdas Pophale) SiO2 
 PCOD9429733
Probable space group: P C C N
;
_chemical_formula_sum "Si O2"
_cell_formula_units_Z 56
_cell_length_a 8.301408
_cell_length_b 21.369587
_cell_length_c 15.669044
_cell_angle_alpha 90.000000
_cell_angle_beta 90.000000
_cell_angle_gamma 90.000000
_cell_volume 2779.651748
_symmetry_space_group_name_H-M "P C C N"
_symmetry_group_IT_number 56
_symmetry_cell_setting 'orthorhombic'
loop_
_space_group_symop_operation_xyz
x,y,z
1/2-x,1/2-y,z
1/2+x,-y,1/2-z
-x,1/2+y,1/2-z
-x,-y,-z
1/2+x,1/2+y,-z
1/2-x,y,1/2+z
x,1/2-y,1/2+z
loop_
_atom_site_type_symbol
_atom_site_label
_atom_site_fract_x
_atom_site_fract_y
_atom_site_fract_z
Si Si1 0.534862 0.112397 0.665657
Si Si2 0.177000 0.318268 0.541509
Si Si3 0.647319 0.367747 0.745532
Si Si4 0.317844 0.498429 0.163512
Si Si5 0.765092 0.067415 0.002678
Si Si6 0.867349 0.190913 0.918293
Si Si7 0.554715 0.912352 0.906552
O O1 0.412416 0.162379 0.628262
O O2 0.668200 0.145659 0.721612
O O3 0.627948 0.080614 0.585638
O O4 0.435393 0.054159 0.701706
O O5 0.250000 0.250000 0.545305
O O6 0.316609 0.371993 0.537672
O O7 0.034606 0.314373 0.470886
O O8 0.661381 0.438937 0.782013
O O9 0.592183 0.321746 0.819659
O O10 0.537558 0.367790 0.661365
O O11 0.341703 0.518438 0.063681
O O12 0.147485 0.463328 0.151521
O O13 0.763139 0.131915 0.950271
O O14 0.585036 0.056583 0.036539
O O15 0.750000 0.250000 0.931085
#
# Coordination Sequence:
#
# PCOD9429733 Si02
#       7
#     8   8   8   8   8   8   8
#     4   9  19  34  54  79 108 142 181 222 265 320
#     4  10  21  38  58  79 104 139 184 231 273 321
#     4  10  21  36  54  80 113 146 177 218 275 329
#     4  10  18  32  53  81 111 144 180 220 264 316
#     4   9  18  33  55  80 108 144 184 221 264 316
#     4  10  21  38  58  78 105 142 184 229 277 328
#     4  10  20  35  55  83 114 145 181 223 270 322
#
# _framework density 20.146408999999998
#
# number of rings (size 3 to 8) (size 9 to 14) (size 15 to 20)
#    0.000    2.286    0.000    2.571    0.000    2.286 
#    0.000   12.143    0.000    0.000    0.000    0.000 
#    0.000    0.000    0.000    0.000    0.000    0.000 
#
# Total GULP energy -311886.341844 kJ/mol
# GULP energy per Si atom -5569.398962 kJ/mol
# Density = 2.010055 g / cm^3
# Si number density = 20.146409 Si / 1000 Ang^3
#
#
#
# Elastic Constant Matrix: (Units=GPa)
#
#
# Indices 1 2 3 4 5 6 
#
# 1 67.3707 18.3005 12.4056 0.0000 0.0000 0.0000
# 2 18.3005 48.6504 1.5024 0.0000 0.0000 0.0000
# 3 12.4056 1.5024 34.4707 0.0000 0.0000 0.0000
# 4 0.0000 0.0000 0.0000 11.6070 0.0000 0.0000
# 5 0.0000 0.0000 0.0000 0.0000 23.7717 0.0000
# 6 0.0000 0.0000 0.0000 0.0000 0.0000 26.8739
#
#
#
# Elastic Compliance Matrix: (Units=1/GPa)
#
#
# Indices 1 2 3 4 5 6 
#
# 1 0.017726 -0.006480 -0.006097 0.000000 0.000000 0.000000
# 2 -0.006480 0.022951 0.001332 0.000000 0.000000 0.000000
# 3 -0.006097 0.001332 0.031146 0.000000 0.000000 0.000000
# 4 0.000000 0.000000 0.000000 0.086155 0.000000 0.000000
# 5 0.000000 0.000000 0.000000 0.000000 0.042067 0.000000
# 6 0.000000 0.000000 0.000000 0.000000 0.000000 0.037211
#
#
# Mechanical properties :
#
#
# Convention : Reuss Voigt Hill
#
# Bulk Modulus (GPa) = 20.27016 23.87874 22.07445
# Shear Modulus (GPa) = 18.10346 20.33608 19.21977
#
# Velocity S-wave (km/s) = 3.00091 3.18058 3.09205
# Velocity P-wave (km/s) = 4.70006 5.03651 4.87119
#
# Compressibility (1/GPa) = 0.04933359
#
# Stress axis : x y z
#
# Youngs Moduli (GPa) = 56.41417 43.57096 32.10645
#
# Poissons Ratio (x) = 0.28232 0.19575
# Poissons Ratio (y) = 0.36554 -0.04275
# Poissons Ratio (z) = 0.34396 -0.05802
#
# Static dielectric constant tensor:
#      x y z
#    x 1.753450 0.000000 0.000000 
#    y 0.000000 1.720440 0.000000 
#    z 0.000000 0.000000 1.733240 
# 
# From -- ./inp_files/15169.got.cif
#   From: 2010.05.17/outbox.cif.g08.bks.cpg/sg56_8_cif.got.tgz:15169.got - 2010.06.03 13:42:01.
