data_PCOD9429743
_publ_section_title
;
Structure prediction by ZEFSAII (Michael W. Deem and Ramdas Pophale) SiO2 
 PCOD9429743
Probable space group: P C C N
;
_chemical_formula_sum "Si O2"
_cell_formula_units_Z 64
_cell_length_a 18.639895
_cell_length_b 8.920734
_cell_length_c 19.843769
_cell_angle_alpha 90.000000
_cell_angle_beta 90.000000
_cell_angle_gamma 90.000000
_cell_volume 3299.652570
_symmetry_space_group_name_H-M "P C C N"
_symmetry_group_IT_number 56
_symmetry_cell_setting 'orthorhombic'
loop_
_space_group_symop_operation_xyz
x,y,z
1/2-x,1/2-y,z
1/2+x,-y,1/2-z
-x,1/2+y,1/2-z
-x,-y,-z
1/2+x,1/2+y,-z
1/2-x,y,1/2+z
x,1/2-y,1/2+z
loop_
_atom_site_type_symbol
_atom_site_label
_atom_site_fract_x
_atom_site_fract_y
_atom_site_fract_z
Si Si1 0.146970 0.056250 0.187599
Si Si2 0.080037 0.422602 0.428775
Si Si3 0.435019 0.856058 0.862180
Si Si4 0.952561 0.832569 0.925747
Si Si5 0.420383 0.739081 0.715332
Si Si6 0.923770 0.672999 0.175686
Si Si7 0.280962 0.582063 0.751093
Si Si8 0.193527 0.863017 0.902228
O O1 0.116925 0.135726 0.120523
O O2 0.110738 0.142831 0.251188
O O3 0.116535 0.885018 0.182412
O O4 0.230407 0.031055 0.209341
O O5 0.062082 0.329658 0.495106
O O6 0.096425 0.323166 0.363342
O O7 0.152107 0.515194 0.445354
O O8 0.012040 0.532987 0.414769
O O9 0.505387 0.815643 0.903376
O O10 0.449398 0.810659 0.784962
O O11 0.370429 0.746880 0.880433
O O12 0.407204 0.024111 0.866515
O O13 0.490023 0.677830 0.679277
O O14 0.363333 0.606309 0.729155
O O15 0.250000 0.750000 0.740956
O O16 0.276779 0.564183 0.832445
O O17 0.250000 0.750000 0.934583
#
# Coordination Sequence:
#
# PCOD9429743 Si02
#       8
#     8   8   8   8   8   8   8   8
#     4  10  18  32  56  81 111 141 192 241 286 348
#     4  10  22  34  57  81 113 150 194 238 282 354
#     4   9  19  31  54  80 110 146 181 240 290 336
#     4  10  19  37  53  79 115 151 185 239 294 339
#     4   9  16  29  51  83 115 139 181 238 288 342
#     4  11  19  31  56  89 105 146 196 242 284 341
#     4   8  16  30  51  80 107 140 173 234 290 332
#     4   9  17  36  55  78 110 146 190 233 287 344
#
# _framework density 19.395982
#
# number of rings (size 3 to 8) (size 9 to 14) (size 15 to 20)
#    0.000    2.500    2.500    2.250    0.000    0.500 
#    0.000    4.375    0.000    0.000    6.500    0.000 
#    0.000    0.000    0.000    0.125    0.000    0.000 
#
# Total GULP energy -356283.818648 kJ/mol
# GULP energy per Si atom -5566.934666 kJ/mol
# Density = 1.935184 g / cm^3
# Si number density = 19.395982 Si / 1000 Ang^3
#
#
#
# Elastic Constant Matrix: (Units=GPa)
#
#
# Indices 1 2 3 4 5 6 
#
# 1 66.9969 3.7251 9.0218 0.0000 0.0000 0.0000
# 2 3.7251 12.5810 2.8773 0.0000 0.0000 0.0000
# 3 9.0218 2.8773 16.2956 0.0000 0.0000 0.0000
# 4 0.0000 0.0000 0.0000 16.4794 0.0000 0.0000
# 5 0.0000 0.0000 0.0000 0.0000 15.6206 0.0000
# 6 0.0000 0.0000 0.0000 0.0000 0.0000 21.4578
#
#
#
# Elastic Compliance Matrix: (Units=1/GPa)
#
#
# Indices 1 2 3 4 5 6 
#
# 1 0.016227 -0.002866 -0.008478 0.000000 0.000000 0.000000
# 2 -0.002866 0.083336 -0.013128 0.000000 0.000000 0.000000
# 3 -0.008478 -0.013128 0.068378 0.000000 0.000000 0.000000
# 4 0.000000 0.000000 0.000000 0.060682 0.000000 0.000000
# 5 0.000000 0.000000 0.000000 0.000000 0.064018 0.000000
# 6 0.000000 0.000000 0.000000 0.000000 0.000000 0.046603
#
#
# Mechanical properties :
#
#
# Convention : Reuss Voigt Hill
#
# Bulk Modulus (GPa) = 8.40351 14.12464 11.26408
# Shear Modulus (GPa) = 11.68625 16.06150 13.87388
#
# Velocity S-wave (km/s) = 2.45727 2.88077 2.67740
# Velocity P-wave (km/s) = 3.52036 4.28522 3.92148
#
# Compressibility (1/GPa) = 0.11899788
#
# Stress axis : x y z
#
# Youngs Moduli (GPa) = 61.62557 11.99960 14.62464
#
# Poissons Ratio (x) = 0.03439 0.12398
# Poissons Ratio (y) = 0.17661 0.19199
# Poissons Ratio (z) = 0.52245 0.15753
#
# Static dielectric constant tensor:
#      x y z
#    x 1.723770 0.000000 0.000000 
#    y 0.000000 1.720590 0.000000 
#    z 0.000000 0.000000 1.676060 
# 
# From -- ./inp_files/19361.got.cif
#   From: 2010.05.17/outbox.cif.g08.bks.cpg/sg56_10_cif.got.tgz:19361.got - 2010.06.03 13:42:01.
