data_PCOD9429087
_publ_section_title
;
Structure prediction by ZEFSAII (Michael W. Deem and Ramdas Pophale) SiO2 
 PCOD9429087
Probable space group: P B A M
;
_chemical_formula_sum "Si O2"
_cell_formula_units_Z 48
_cell_length_a 11.603686
_cell_length_b 10.027211
_cell_length_c 18.145939
_cell_angle_alpha 90.000000
_cell_angle_beta 90.000000
_cell_angle_gamma 90.000000
_cell_volume 2111.327325
_symmetry_space_group_name_H-M "P B A M"
_symmetry_group_IT_number 55
_symmetry_cell_setting 'orthorhombic'
loop_
_space_group_symop_operation_xyz
x,y,z
-x,-y,z
1/2+x,1/2-y,-z
1/2-x,1/2+y,-z
-x,-y,-z
x,y,-z
1/2-x,1/2+y,z
1/2+x,1/2-y,z
loop_
_atom_site_type_symbol
_atom_site_label
_atom_site_fract_x
_atom_site_fract_y
_atom_site_fract_z
Si Si1 0.609232 0.303735 0.589750
Si Si2 0.226966 0.942479 0.582412
Si Si3 0.804747 0.961706 0.082495
Si Si4 0.980311 0.207764 0.081586
Si Si5 0.614272 0.911859 0.196337
Si Si6 0.411009 0.120821 0.359260
O O1 0.608094 0.302362 0.500000
O O2 0.632071 0.455967 0.616078
O O3 0.486384 0.247417 0.617528
O O4 0.707999 0.191016 0.612422
O O5 0.189171 0.907249 0.500000
O O6 0.326373 0.057125 0.581052
O O7 0.715520 0.978062 0.148518
O O8 0.887305 0.833885 0.094944
O O9 0.896381 0.080591 0.078745
O O10 0.752005 0.950934 0.000000
O O11 0.927809 0.291079 0.146649
O O12 0.976952 0.271242 0.000000
O O13 0.647423 0.868849 0.278913
O O14 0.500000 0.000000 0.200645
O O15 0.500000 0.000000 0.350950
#
# Coordination Sequence:
#
# PCOD9429087 Si02
#       6
#     8   8   8   8   8   8
#     4   9  17  32  56  80 108 143 186 233 278 327
#     4   9  17  32  54  79 103 140 187 227 269 321
#     4   9  20  39  59  80 109 145 186 233 284 337
#     4   9  20  39  59  80 109 146 185 230 289 339
#     4  11  23  35  55  87 114 144 189 234 276 344
#     4   9  19  35  50  75 108 146 176 216 269 332
#
# _framework density 22.734514000000001
#
# number of rings (size 3 to 8) (size 9 to 14) (size 15 to 20)
#    0.000    2.667    0.000    2.000    2.333    4.667 
#    6.000    0.833    0.000    4.000    0.000    0.000 
#    0.000    0.000    0.000    0.167    0.000    0.000 
#
# Total GULP energy -267364.986069 kJ/mol
# GULP energy per Si atom -5570.103876 kJ/mol
# Density = 2.268277 g / cm^3
# Si number density = 22.734514 Si / 1000 Ang^3
#
#
#
# Elastic Constant Matrix: (Units=GPa)
#
#
# Indices 1 2 3 4 5 6 
#
# 1 78.7644 8.9229 35.6808 0.0000 0.0000 0.0000
# 2 8.9229 77.9544 15.3078 0.0000 0.0000 0.0000
# 3 35.6808 15.3078 107.9082 0.0000 0.0000 0.0000
# 4 0.0000 0.0000 0.0000 -2.1950 0.0000 0.0000
# 5 0.0000 0.0000 0.0000 0.0000 703.3643 0.0000
# 6 0.0000 0.0000 0.0000 0.0000 0.0000 32.9189
#
#
#
# Elastic Compliance Matrix: (Units=1/GPa)
#
#
# Indices 1 2 3 4 5 6 
#
# 1 0.014977 -0.000763 -0.004844 0.000000 0.000000 0.000000
# 2 -0.000763 0.013234 -0.001625 0.000000 0.000000 0.000000
# 3 -0.004844 -0.001625 0.011099 0.000000 0.000000 0.000000
# 4 0.000000 0.000000 0.000000 -0.455585 0.000000 0.000000
# 5 0.000000 0.000000 0.000000 0.000000 0.001422 0.000000
# 6 0.000000 0.000000 0.000000 0.000000 0.000000 0.030378
#
#
# Mechanical properties :
#
#
# Convention : Reuss Voigt Hill
#
# Bulk Modulus (GPa) = 40.24735 42.71668 41.48201
# Shear Modulus (GPa) = -13.82254 160.46534 73.32140
#
# Velocity S-wave (km/s) = -2.46844 8.41044 5.68517
# Velocity P-wave (km/s) = 3.10119 10.63692 7.83459
#
# Compressibility (1/GPa) = 0.02484636
#
# Stress axis : x y z
#
# Youngs Moduli (GPa) = 66.76944 75.56024 90.09512
#
# Poissons Ratio (x) = 0.05766 0.43642
# Poissons Ratio (y) = 0.05095 0.14641
# Poissons Ratio (z) = 0.32343 0.12279
#
# Static dielectric constant tensor:
#      x y z
#    x 1.882640 0.000000 0.000000 
#    y 0.000000 1.846540 0.000000 
#    z 0.000000 0.000000 1.873420 
# 
# From -- ./inp_files/21260.got.cif
#   From: 2010.05.17/outbox.cif.g08.bks.cpg/sg55_11_cif.got.tgz:21260.got - 2010.06.03 13:27:54.
