data_PCOD9429459
_publ_section_title
;
Structure prediction by ZEFSAII (Michael W. Deem and Ramdas Pophale) SiO2 
 PCOD9429459
Probable space group: P B A M
;
_chemical_formula_sum "Si O2"
_cell_formula_units_Z 48
_cell_length_a 9.000000
_cell_length_b 30.000000
_cell_length_c 9.000000
_cell_angle_alpha 90.000000
_cell_angle_beta 90.000000
_cell_angle_gamma 90.000000
_cell_volume 2430.000000
_symmetry_space_group_name_H-M "P B A M"
_symmetry_group_IT_number 55
_symmetry_cell_setting 'orthorhombic'
loop_
_space_group_symop_operation_xyz
x,y,z
-x,-y,z
1/2+x,1/2-y,-z
1/2-x,1/2+y,-z
-x,-y,-z
x,y,-z
1/2-x,1/2+y,z
1/2+x,1/2-y,z
loop_
_atom_site_type_symbol
_atom_site_label
_atom_site_fract_x
_atom_site_fract_y
_atom_site_fract_z
Si Si1 0.019565 0.146271 0.331270
Si Si2 0.086867 0.545168 0.180199
Si Si3 0.464267 0.859387 0.177596
Si Si4 0.793315 0.202951 0.823783
Si Si5 0.412639 0.545671 0.679215
Si Si6 0.808898 0.296245 0.331766
O O1 0.956609 0.149325 0.500000
O O2 0.950860 0.182913 0.221709
O O3 0.016092 0.094308 0.282365
O O4 0.186297 0.164927 0.341253
O O5 0.007963 0.591274 0.231816
O O6 0.251610 0.544241 0.246010
O O7 0.000000 0.500000 0.223146
O O8 0.094363 0.545912 0.000000
O O9 0.306470 0.839552 0.222743
O O10 0.569651 0.819514 0.229833
O O11 0.468582 0.862089 0.000000
O O12 0.761022 0.248919 0.738118
O O13 0.778620 0.210502 0.000000
O O14 0.500000 0.500000 0.719850
O O15 0.398073 0.546048 0.500000
O O16 0.862731 0.287431 0.500000
#
# Coordination Sequence:
#
# PCOD9429459 Si02
#       6
#     8   8   8   8   8   8
#     4  10  22  40  60  87 121 156 197 244 293 348
#     4  10  22  40  63  90 122 156 196 244 293 350
#     4  10  22  40  60  87 121 157 197 244 293 347
#     4  11  24  38  58  88 120 155 198 243 293 352
#     4  10  22  41  63  90 122 155 196 244 293 350
#     4  11  22  39  62  86 116 155 200 245 295 351
#
# _framework density 19.753086
#
# number of rings (size 3 to 8) (size 9 to 14) (size 15 to 20)
#    0.000    1.667    1.667    2.000    2.333    6.667 
#    0.000    0.000    0.000    0.000    0.000    0.000 
#    0.000    0.000    0.000    0.000    0.000    0.000 
#
# Total GULP energy -267493.976149 kJ/mol
# GULP energy per Si atom -5572.791170 kJ/mol
# Density = 1.970813 g / cm^3
# Si number density = 19.753086 Si / 1000 Ang^3
#
#
#
# Elastic Constant Matrix: (Units=GPa)
#
#
# Indices 1 2 3 4 5 6 
#
# 1 18.4168 2.9539 -16.6849 0.0000 0.0000 0.0000
# 2 2.9539 151.6859 14.9787 0.0000 0.0000 0.0000
# 3 -16.6849 14.9787 -46.8328 0.0000 0.0000 0.0000
# 4 0.0000 0.0000 0.0000 -371.7501 0.0000 0.0000
# 5 0.0000 0.0000 0.0000 0.0000 24.2271 0.0000
# 6 0.0000 0.0000 0.0000 0.0000 0.0000 29.1092
#
#
#
# Elastic Compliance Matrix: (Units=1/GPa)
#
#
# Indices 1 2 3 4 5 6 
#
# 1 0.041110 0.000626 -0.014446 0.000000 0.000000 0.000000
# 2 0.000626 0.006400 0.001824 0.000000 0.000000 0.000000
# 3 -0.014446 0.001824 -0.015623 0.000000 0.000000 0.000000
# 4 0.000000 0.000000 0.000000 -0.002690 0.000000 0.000000
# 5 0.000000 0.000000 0.000000 0.000000 0.041276 0.000000
# 6 0.000000 0.000000 0.000000 0.000000 0.000000 0.034353
#
#
# Mechanical properties :
#
#
# Convention : Reuss Voigt Hill
#
# Bulk Modulus (GPa) = 126.64728 13.97390 70.31059
# Shear Modulus (GPa) = 38.03677 -55.54795 -8.75559
#
# Velocity S-wave (km/s) = 4.39294 -5.30869 -2.10764
# Velocity P-wave (km/s) = 9.48604 5.52147 5.45428
#
# Compressibility (1/GPa) = 0.00789595
#
# Stress axis : x y z
#
# Youngs Moduli (GPa) = 24.32479 156.24361 -64.01008
#
# Poissons Ratio (x) = -0.09780 -0.92469
# Poissons Ratio (y) = -0.01523 0.11676
# Poissons Ratio (z) = 0.35140 -0.28499
#
# Static dielectric constant tensor:
#      x y z
#    x 1.746080 0.000000 0.000000 
#    y 0.000000 1.658960 0.000000 
#    z 0.000000 0.000000 1.691220 
# 
# From -- ./inp_files/2855.got.cif
#   From: 2010.05.17/outbox.ucp.g08.bks.cvg/sg55_2_cif.got.tgz:2855.got - 2010.06.11 16:36:00.
