data_PCOD9429612
_publ_section_title
;
Structure prediction by ZEFSAII (Michael W. Deem and Ramdas Pophale) SiO2 
 PCOD9429612
Probable space group: P C C N
;
_chemical_formula_sum "Si O2"
_cell_formula_units_Z 48
_cell_length_a 7.989465
_cell_length_b 14.646743
_cell_length_c 16.442932
_cell_angle_alpha 90.000000
_cell_angle_beta 90.000000
_cell_angle_gamma 90.000000
_cell_volume 1924.145992
_symmetry_space_group_name_H-M "P C C N"
_symmetry_group_IT_number 56
_symmetry_cell_setting 'orthorhombic'
loop_
_space_group_symop_operation_xyz
x,y,z
1/2-x,1/2-y,z
1/2+x,-y,1/2-z
-x,1/2+y,1/2-z
-x,-y,-z
1/2+x,1/2+y,-z
1/2-x,y,1/2+z
x,1/2-y,1/2+z
loop_
_atom_site_type_symbol
_atom_site_label
_atom_site_fract_x
_atom_site_fract_y
_atom_site_fract_z
Si Si1 0.802199 0.972535 0.266511
Si Si2 0.472090 0.217612 0.935929
Si Si3 0.158561 0.543396 0.046824
Si Si4 0.428647 0.278389 0.753907
Si Si5 0.641936 0.612161 0.994543
Si Si6 0.526710 0.117413 0.679479
O O1 0.924927 0.887045 0.245934
O O2 0.616281 0.930490 0.263843
O O3 0.832471 0.010417 0.358391
O O4 0.821612 0.050412 0.198609
O O5 0.627395 0.151334 0.951866
O O6 0.433097 0.228678 0.840926
O O7 0.485972 0.324436 0.957030
O O8 0.317130 0.165851 0.982586
O O9 0.312201 0.494683 0.999591
O O10 0.000000 0.500000 0.000000
O O11 0.250000 0.250000 0.714911
O O12 0.562043 0.221631 0.703119
O O13 0.567761 0.620464 0.905155
#
# Coordination Sequence:
#
# PCOD9429612 Si02
#       6
#     8   8   8   8   8   8
#     4  10  21  35  58  89 117 162 196 257 308 365
#     4  10  17  32  54  83 112 160 202 254 306 366
#     4   9  18  30  51  83 119 148 200 258 310 362
#     4  10  19  32  58  82 116 150 206 247 292 371
#     4   9  19  30  54  85 116 150 207 254 296 363
#     4  10  21  37  57  88 121 151 204 251 306 368
#
# _framework density 24.946131999999999
#
# number of rings (size 3 to 8) (size 9 to 14) (size 15 to 20)
#    0.000    2.333    3.333    0.000   14.000    0.000 
#    0.000    1.667    0.000    0.000    0.000    4.667 
#    0.000    0.000    0.000    0.000    0.000    0.000 
#
# Total GULP energy -267415.906434 kJ/mol
# GULP energy per Si atom -5571.164717 kJ/mol
# Density = 2.488935 g / cm^3
# Si number density = 24.946132 Si / 1000 Ang^3
#
#
#
# Elastic Constant Matrix: (Units=GPa)
#
#
# Indices 1 2 3 4 5 6 
#
# 1 84.3506 24.9453 15.7775 0.0000 0.0000 0.0000
# 2 24.9453 140.2620 7.3211 0.0000 0.0000 0.0000
# 3 15.7775 7.3211 79.1408 0.0000 0.0000 0.0000
# 4 0.0000 0.0000 0.0000 44.2770 0.0000 0.0000
# 5 0.0000 0.0000 0.0000 0.0000 -2.7984 0.0000
# 6 0.0000 0.0000 0.0000 0.0000 0.0000 48.0076
#
#
#
# Elastic Compliance Matrix: (Units=1/GPa)
#
#
# Indices 1 2 3 4 5 6 
#
# 1 0.012944 -0.002178 -0.002379 0.000000 0.000000 0.000000
# 2 -0.002178 0.007531 -0.000262 0.000000 0.000000 0.000000
# 3 -0.002379 -0.000262 0.013134 0.000000 0.000000 0.000000
# 4 0.000000 0.000000 0.000000 0.022585 0.000000 0.000000
# 5 0.000000 0.000000 0.000000 0.000000 -0.357345 0.000000
# 6 0.000000 0.000000 0.000000 0.000000 0.000000 0.020830
#
#
# Mechanical properties :
#
#
# Convention : Reuss Voigt Hill
#
# Bulk Modulus (GPa) = 41.71844 44.42682 43.07263
# Shear Modulus (GPa) = -19.03375 34.94454 7.95540
#
# Velocity S-wave (km/s) = -2.76523 3.74679 1.78772
# Velocity P-wave (km/s) = 2.56210 6.04695 4.64381
#
# Compressibility (1/GPa) = 0.02397021
#
# Stress axis : x y z
#
# Youngs Moduli (GPa) = 77.25364 132.79233 76.13660
#
# Poissons Ratio (x) = 0.28922 0.18114
# Poissons Ratio (y) = 0.16825 0.01998
# Poissons Ratio (z) = 0.18380 0.03485
#
# Static dielectric constant tensor:
#      x y z
#    x 1.931350 0.000000 0.000000 
#    y 0.000000 2.087810 0.000000 
#    z 0.000000 0.000000 2.055900 
# 
# From -- ./inp_files/15686.got.cif
#   From: 2010.05.17/outbox.cif.g08.bks.cpg/sg56_8_cif.got.tgz:15686.got - 2010.06.03 13:42:01.
