data_PCOD9429984
_publ_section_title
;
Structure prediction by ZEFSAII (Michael W. Deem and Ramdas Pophale) SiO2 
 PCOD9429984
Probable space group: P C C N
;
_chemical_formula_sum "Si O2"
_cell_formula_units_Z 64
_cell_length_a 21.735095
_cell_length_b 27.541989
_cell_length_c 5.639752
_cell_angle_alpha 90.000000
_cell_angle_beta 90.000000
_cell_angle_gamma 90.000000
_cell_volume 3376.112036
_symmetry_space_group_name_H-M "P C C N"
_symmetry_group_IT_number 56
_symmetry_cell_setting 'orthorhombic'
loop_
_space_group_symop_operation_xyz
x,y,z
1/2-x,1/2-y,z
1/2+x,-y,1/2-z
-x,1/2+y,1/2-z
-x,-y,-z
1/2+x,1/2+y,-z
1/2-x,y,1/2+z
x,1/2-y,1/2+z
loop_
_atom_site_type_symbol
_atom_site_label
_atom_site_fract_x
_atom_site_fract_y
_atom_site_fract_z
Si Si1 0.767355 0.546009 0.521683
Si Si2 0.463110 0.681596 0.675995
Si Si3 0.136899 0.764651 0.170689
Si Si4 0.512006 0.450053 0.719567
Si Si5 0.466148 0.659514 0.165880
Si Si6 0.777611 0.434829 0.074859
Si Si7 0.600026 0.507548 0.038494
Si Si8 0.598219 0.080224 0.855185
O O1 0.740531 0.569308 0.282236
O O2 0.734506 0.492965 0.558284
O O3 0.839182 0.536199 0.476252
O O4 0.422909 0.729624 0.668207
O O5 0.494129 0.674527 0.421021
O O6 0.415908 0.635776 0.698015
O O7 0.497293 0.679574 0.926934
O O8 0.168582 0.749740 0.420286
O O9 0.103716 0.817582 0.172974
O O10 0.529087 0.398613 0.841312
O O11 0.442157 0.462928 0.776533
O O12 0.533821 0.441217 0.452298
O O13 0.555013 0.492004 0.827789
O O14 0.751303 0.415891 0.325358
O O15 0.849791 0.423938 0.055767
O O16 0.620756 0.456364 0.154284
#
# Coordination Sequence:
#
# PCOD9429984 Si02
#       8
#     8   8   8   8   8   8   8   8
#     4  10  19  33  48  62  80 114 157 197 222 253
#     4   9  17  26  43  63  82 110 141 176 217 259
#     4   8  14  25  41  59  80 106 140 175 207 253
#     4  10  21  30  42  67  92 126 147 181 233 276
#     4   9  16  29  41  58  88 112 142 173 208 264
#     4  10  19  30  47  62  81 111 153 194 228 254
#     4  11  20  31  45  63  93 122 154 190 224 273
#     4  11  19  30  46  61  94 117 150 192 226 274
#
# _framework density 18.956717000000001
#
# number of rings (size 3 to 8) (size 9 to 14) (size 15 to 20)
#    0.000    2.250    3.750    1.875    0.000    0.000 
#    0.000    0.000    0.000    0.000    0.000    0.000 
#    0.000   67.000    0.000    0.000    0.000   60.000 
#
# Total GULP energy -356272.959442 kJ/mol
# GULP energy per Si atom -5566.764991 kJ/mol
# Density = 1.891357 g / cm^3
# Si number density = 18.956717 Si / 1000 Ang^3
#
#
#
# Elastic Constant Matrix: (Units=GPa)
#
#
# Indices 1 2 3 4 5 6 
#
# 1 56.9989 15.1812 10.7756 0.0000 0.0000 0.0000
# 2 15.1812 41.1946 6.5978 0.0000 0.0000 0.0000
# 3 10.7756 6.5978 152.4921 0.0000 0.0000 0.0000
# 4 0.0000 0.0000 0.0000 25.9962 0.0000 0.0000
# 5 0.0000 0.0000 0.0000 0.0000 18.9944 0.0000
# 6 0.0000 0.0000 0.0000 0.0000 0.0000 -1.6967
#
#
#
# Elastic Compliance Matrix: (Units=1/GPa)
#
#
# Indices 1 2 3 4 5 6 
#
# 1 0.019629 -0.007061 -0.001082 0.000000 0.000000 0.000000
# 2 -0.007061 0.026984 -0.000669 0.000000 0.000000 0.000000
# 3 -0.001082 -0.000669 0.006663 0.000000 0.000000 0.000000
# 4 0.000000 0.000000 0.000000 0.038467 0.000000 0.000000
# 5 0.000000 0.000000 0.000000 0.000000 0.052647 0.000000
# 6 0.000000 0.000000 0.000000 0.000000 0.000000 -0.589371
#
#
# Mechanical properties :
#
#
# Convention : Reuss Voigt Hill
#
# Bulk Modulus (GPa) = 28.04667 35.08831 31.56749
# Shear Modulus (GPa) = -12.03445 23.20085 5.58320
#
# Velocity S-wave (km/s) = -2.52233 3.50220 1.71803
# Velocity P-wave (km/s) = 2.51880 5.90794 4.54137
#
# Compressibility (1/GPa) = 0.03565485
#
# Stress axis : x y z
#
# Youngs Moduli (GPa) = 50.94454 37.05888 150.08099
#
# Poissons Ratio (x) = 0.26166 0.16232
# Poissons Ratio (y) = 0.35970 0.10034
# Poissons Ratio (z) = 0.05510 0.02478
#
# Static dielectric constant tensor:
#      x y z
#    x 1.625760 0.000000 0.000000 
#    y 0.000000 1.670950 0.000000 
#    z 0.000000 0.000000 1.870030 
# 
# From -- ./inp_files/968.got.cif
#   From: 2010.05.17/outbox.cif.g08.bks.cpg/sg56_1_cif.got.tgz:968.got - 2010.06.03 13:42:01.
