data_PCOD9429458
_publ_section_title
;
Structure prediction by ZEFSAII (Michael W. Deem and Ramdas Pophale) SiO2 
 PCOD9429458
Probable space group: P B A M
;
_chemical_formula_sum "Si O2"
_cell_formula_units_Z 64
_cell_length_a 30.000000
_cell_length_b 12.000000
_cell_length_c 9.000000
_cell_angle_alpha 90.000000
_cell_angle_beta 90.000000
_cell_angle_gamma 90.000000
_cell_volume 3240.000000
_symmetry_space_group_name_H-M "P B A M"
_symmetry_group_IT_number 55
_symmetry_cell_setting 'orthorhombic'
loop_
_space_group_symop_operation_xyz
x,y,z
-x,-y,z
1/2+x,1/2-y,-z
1/2-x,1/2+y,-z
-x,-y,-z
x,y,-z
1/2-x,1/2+y,z
1/2+x,1/2-y,z
loop_
_atom_site_type_symbol
_atom_site_label
_atom_site_fract_x
_atom_site_fract_y
_atom_site_fract_z
Si Si1 0.949924 0.481092 0.680881
Si Si2 0.628863 0.563901 0.177999
Si Si3 0.333421 0.781348 0.170553
Si Si4 0.042045 0.074187 0.821495
Si Si5 0.191170 0.507464 0.326626
Si Si6 0.719908 0.434174 0.172830
Si Si7 0.618469 0.802774 0.322646
Si Si8 0.078358 0.276478 0.675511
O O1 0.950098 0.475696 0.500000
O O2 0.925150 0.370177 0.731801
O O3 0.924616 0.594394 0.721653
O O4 0.000000 0.500000 0.731927
O O5 0.586613 0.490704 0.227179
O O6 0.675578 0.503853 0.209968
O O7 0.625956 0.685816 0.246152
O O8 0.625834 0.571952 0.000000
O O9 0.320755 0.902632 0.225701
O O10 0.292891 0.695592 0.180433
O O11 0.373282 0.737961 0.272399
O O12 0.349025 0.780714 0.000000
O O13 0.042654 0.196396 0.751301
O O14 0.042651 0.084717 0.000000
O O15 0.000000 0.000000 0.778194
O O16 0.185536 0.477304 0.500000
O O17 0.241063 0.539502 0.285227
O O18 0.159003 0.611688 0.296656
O O19 0.732252 0.459224 0.000000
O O20 0.614832 0.785967 0.500000
O O21 0.072985 0.271103 0.500000
#
# Coordination Sequence:
#
# PCOD9429458 Si02
#       8
#     8   8   8   8   8   8   8   8
#     4   9  19  37  59  84 119 157 190 237 297 351
#     4  10  22  41  60  84 119 157 198 242 290 353
#     4  11  22  41  66  88 118 159 202 246 300 359
#     4  10  22  41  62  86 122 162 198 246 306 360
#     4  11  24  41  61  90 123 153 195 248 301 350
#     4  10  23  42  62  86 117 157 201 242 293 355
#     4  10  22  40  59  85 121 157 194 241 296 351
#     4  11  21  37  63  91 119 153 202 254 300 352
#
# _framework density 19.753086
#
# number of rings (size 3 to 8) (size 9 to 14) (size 15 to 20)
#    0.000    1.750    2.500    1.125    3.500    3.250 
#    0.000    0.000    0.000    1.875    0.000    0.000 
#    0.000    0.000    0.000    0.000    0.000    0.000 
#
# Total GULP energy -357247.839375 kJ/mol
# GULP energy per Si atom -5581.997490 kJ/mol
# Density = 1.970813 g / cm^3
# Si number density = 19.753086 Si / 1000 Ang^3
#
#
#
# Elastic Constant Matrix: (Units=GPa)
#
#
# Indices 1 2 3 4 5 6 
#
# 1 67.7552 11.1833 12.8657 0.0000 0.0000 0.0000
# 2 11.1833 77.1730 12.6482 0.0000 0.0000 0.0000
# 3 12.8657 12.6482 -5.7974 0.0000 0.0000 0.0000
# 4 0.0000 0.0000 0.0000 30.8548 0.0000 0.0000
# 5 0.0000 0.0000 0.0000 0.0000 20.0516 0.0000
# 6 0.0000 0.0000 0.0000 0.0000 0.0000 15.2544
#
#
#
# Elastic Compliance Matrix: (Units=1/GPa)
#
#
# Indices 1 2 3 4 5 6 
#
# 1 0.012255 -0.004591 0.017179 0.000000 0.000000 0.000000
# 2 -0.004591 0.011265 0.014388 0.000000 0.000000 0.000000
# 3 0.017179 0.014388 -0.102977 0.000000 0.000000 0.000000
# 4 0.000000 0.000000 0.000000 0.032410 0.000000 0.000000
# 5 0.000000 0.000000 0.000000 0.000000 0.049871 0.000000
# 6 0.000000 0.000000 0.000000 0.000000 0.000000 0.065555
#
#
# Mechanical properties :
#
#
# Convention : Reuss Voigt Hill
#
# Bulk Modulus (GPa) = -39.20638 23.61391 -7.79624
# Shear Modulus (GPa) = 843.69012 20.06108 431.87560
#
# Velocity S-wave (km/s) = 20.68926 3.19029 14.80242
# Velocity P-wave (km/s) = 23.46989 5.05481 16.97626
#
# Compressibility (1/GPa) = -0.02550605
#
# Stress axis : x y z
#
# Youngs Moduli (GPa) = 81.60047 88.76922 -9.71093
#
# Poissons Ratio (x) = 0.40758 0.16682
# Poissons Ratio (y) = 0.37466 0.13972
# Poissons Ratio (z) = -1.40181 -1.27720
#
# Static dielectric constant tensor:
#      x y z
#    x 1.720990 0.000000 0.000000 
#    y 0.000000 1.679140 0.000000 
#    z 0.000000 0.000000 1.665810 
# 
# From -- ./inp_files/10763.got.cif
#   From: 2010.05.17/outbox.ucp.g08.bks.cvg/sg55_6_cif.got.tgz:10763.got - 2010.06.11 16:36:00.
