data_PCOD9429850
_publ_section_title
;
Structure prediction by ZEFSAII (Michael W. Deem and Ramdas Pophale) SiO2 
 PCOD9429850
Probable space group: P C C N
;
_chemical_formula_sum "Si O2"
_cell_formula_units_Z 64
_cell_length_a 17.062493
_cell_length_b 9.870839
_cell_length_c 19.487398
_cell_angle_alpha 90.000000
_cell_angle_beta 90.000000
_cell_angle_gamma 90.000000
_cell_volume 3282.089423
_symmetry_space_group_name_H-M "P C C N"
_symmetry_group_IT_number 56
_symmetry_cell_setting 'orthorhombic'
loop_
_space_group_symop_operation_xyz
x,y,z
1/2-x,1/2-y,z
1/2+x,-y,1/2-z
-x,1/2+y,1/2-z
-x,-y,-z
1/2+x,1/2+y,-z
1/2-x,y,1/2+z
x,1/2-y,1/2+z
loop_
_atom_site_type_symbol
_atom_site_label
_atom_site_fract_x
_atom_site_fract_y
_atom_site_fract_z
Si Si1 0.206219 0.105648 0.133341
Si Si2 0.550415 0.620268 0.780723
Si Si3 0.060930 0.866304 0.301979
Si Si4 0.865885 0.792402 0.641024
Si Si5 0.741162 0.092296 0.988132
Si Si6 0.291310 0.018744 0.370597
Si Si7 0.574390 0.003831 0.047913
Si Si8 0.736302 0.108781 0.256311
O O1 0.250000 0.250000 0.126409
O O2 0.114759 0.114964 0.157470
O O3 0.223555 0.012304 0.067324
O O4 0.243465 0.020720 0.195957
O O5 0.521462 0.475830 0.750358
O O6 0.480824 0.722705 0.796953
O O7 0.596594 0.679731 0.714605
O O8 0.149807 0.875403 0.275185
O O9 0.061334 0.912839 0.381365
O O10 0.786861 0.885774 0.638343
O O11 0.855956 0.633677 0.631108
O O12 0.912504 0.853137 0.577203
O O13 0.750000 0.250000 0.969014
O O14 0.785710 0.062986 0.059504
O O15 0.650712 0.055860 0.006615
O O16 0.292796 0.915825 0.307778
O O17 0.500000 0.000000 0.000000
O O18 0.750000 0.250000 0.294248
#
# Coordination Sequence:
#
# PCOD9429850 Si02
#       8
#     8   8   8   8   8   8   8   8
#     4  11  24  39  62  95 123 161 216 268 310 372
#     4  10  21  40  58  92 126 155 208 259 317 377
#     4  10  22  40  61  89 125 163 203 259 315 385
#     4   9  18  36  60  91 114 157 210 260 295 371
#     4  11  24  42  62  92 129 166 211 267 317 375
#     4  10  18  35  67  85 118 154 213 257 306 372
#     4  10  22  41  61  87 126 173 209 248 318 389
#     4  11  21  40  64  92 122 159 208 262 328 374
#
# _framework density 19.499773000000001
#
# number of rings (size 3 to 8) (size 9 to 14) (size 15 to 20)
#    0.000    1.750    5.000    1.500    5.250    2.000 
#   11.250    0.000    0.000    1.500    0.000    0.000 
#    0.000    0.000    0.000    0.000    0.000    0.000 
#
# Total GULP energy -356832.177502 kJ/mol
# GULP energy per Si atom -5575.502773 kJ/mol
# Density = 1.945539 g / cm^3
# Si number density = 19.499773 Si / 1000 Ang^3
#
#
#
# Elastic Constant Matrix: (Units=GPa)
#
#
# Indices 1 2 3 4 5 6 
#
# 1 47.3306 29.2092 26.7862 0.0000 0.0000 0.0000
# 2 29.2092 131.5503 37.2970 0.0000 0.0000 0.0000
# 3 26.7862 37.2970 86.6597 0.0000 0.0000 0.0000
# 4 0.0000 0.0000 0.0000 19.3208 0.0000 0.0000
# 5 0.0000 0.0000 0.0000 0.0000 18.4105 0.0000
# 6 0.0000 0.0000 0.0000 0.0000 0.0000 30.7608
#
#
#
# Elastic Compliance Matrix: (Units=1/GPa)
#
#
# Indices 1 2 3 4 5 6 
#
# 1 0.027515 -0.004212 -0.006692 0.000000 0.000000 0.000000
# 2 -0.004212 0.009303 -0.002702 0.000000 0.000000 0.000000
# 3 -0.006692 -0.002702 0.014771 0.000000 0.000000 0.000000
# 4 0.000000 0.000000 0.000000 0.051758 0.000000 0.000000
# 5 0.000000 0.000000 0.000000 0.000000 0.054317 0.000000
# 6 0.000000 0.000000 0.000000 0.000000 0.000000 0.032509
#
#
# Mechanical properties :
#
#
# Convention : Reuss Voigt Hill
#
# Bulk Modulus (GPa) = 41.02299 50.23616 45.62957
# Shear Modulus (GPa) = 22.17211 25.18164 23.67688
#
# Velocity S-wave (km/s) = 3.37567 3.59748 3.48834
# Velocity P-wave (km/s) = 6.02303 6.56309 6.29885
#
# Compressibility (1/GPa) = 0.02437658
#
# Stress axis : x y z
#
# Youngs Moduli (GPa) = 36.34441 107.49305 67.70163
#
# Poissons Ratio (x) = 0.45276 0.45305
# Poissons Ratio (y) = 0.15308 0.18292
# Poissons Ratio (z) = 0.24321 0.29044
#
# Static dielectric constant tensor:
#      x y z
#    x 1.727950 0.000000 0.000000 
#    y 0.000000 1.707510 0.000000 
#    z 0.000000 0.000000 1.665590 
# 
# From -- ./inp_files/16881.got.cif
#   From: 2010.05.17/outbox.cif.g08.bks.cpg/sg56_9_cif.got.tgz:16881.got - 2010.06.03 13:42:01.
