data_PCOD9429036
_publ_section_title
;
Structure prediction by ZEFSAII (Michael W. Deem and Ramdas Pophale) SiO2 
 PCOD9429036
Probable space group: P B A M
;
_chemical_formula_sum "Si O2"
_cell_formula_units_Z 42
_cell_length_a 20.491930
_cell_length_b 7.212956
_cell_length_c 11.543751
_cell_angle_alpha 90.000000
_cell_angle_beta 90.000000
_cell_angle_gamma 90.000000
_cell_volume 1706.251700
_symmetry_space_group_name_H-M "P B A M"
_symmetry_group_IT_number 55
_symmetry_cell_setting 'orthorhombic'
loop_
_space_group_symop_operation_xyz
x,y,z
-x,-y,z
1/2+x,1/2-y,-z
1/2-x,1/2+y,-z
-x,-y,-z
x,y,-z
1/2-x,1/2+y,z
1/2+x,1/2-y,z
loop_
_atom_site_type_symbol
_atom_site_label
_atom_site_fract_x
_atom_site_fract_y
_atom_site_fract_z
Si Si1 0.294018 0.048660 0.751267
Si Si2 0.738249 0.110614 0.500000
Si Si3 0.861388 0.942089 0.500000
Si Si4 0.500000 0.000000 0.000000
Si Si5 0.926531 0.356903 0.231190
Si Si6 0.556170 0.280993 0.707582
Si Si7 0.165784 0.184039 0.868283
O O1 0.287540 0.970960 0.621988
O O2 0.351148 0.201929 0.760677
O O3 0.221847 0.099415 0.789340
O O4 0.319806 0.900761 0.845664
O O5 0.817870 0.128308 0.500000
O O6 0.702178 0.309033 0.500000
O O7 0.906255 0.887448 0.392426
O O8 0.454595 0.096478 0.896273
O O9 0.929721 0.556891 0.298718
O O10 0.978315 0.215387 0.286711
O O11 0.592117 0.344318 0.825298
O O12 0.173628 0.129649 0.000000
#
# Coordination Sequence:
#
# PCOD9429036 Si02
#       7
#     8   4   4   2   8   8   8
#     4  11  22  37  56  86 110 152 185 232 283 329
#     4  12  20  37  54  83 114 147 187 233 273 339
#     4  12  20  36  57  80 119 141 189 225 285 331
#     4   8  16  28  48  74 116 142 164 228 282 328
#     4   9  19  30  52  82 111 140 185 229 285 320
#     4   9  19  32  51  82 106 145 175 232 279 321
#     4  11  22  35  55  82 117 146 188 227 277 337
#
# _framework density 24.615359999999999
#
# number of rings (size 3 to 8) (size 9 to 14) (size 15 to 20)
#    0.000    1.905    5.714    0.571   13.333    2.286 
#    0.000    0.000    0.000    1.143    0.000    5.333 
#    0.000    0.000    0.000    0.000    0.000    0.000 
#
# Total GULP energy -234056.953146 kJ/mol
# GULP energy per Si atom -5572.784599 kJ/mol
# Density = 2.455933 g / cm^3
# Si number density = 24.615360 Si / 1000 Ang^3
#
#
#
# Elastic Constant Matrix: (Units=GPa)
#
#
# Indices 1 2 3 4 5 6 
#
# 1 99.3886 28.0968 17.4689 0.0000 0.0000 0.0000
# 2 28.0968 31.2765 12.9198 0.0000 0.0000 0.0000
# 3 17.4689 12.9198 122.0212 0.0000 0.0000 0.0000
# 4 0.0000 0.0000 0.0000 18.6959 0.0000 0.0000
# 5 0.0000 0.0000 0.0000 0.0000 17.6399 0.0000
# 6 0.0000 0.0000 0.0000 0.0000 0.0000 36.1206
#
#
#
# Elastic Compliance Matrix: (Units=1/GPa)
#
#
# Indices 1 2 3 4 5 6 
#
# 1 0.013540 -0.011883 -0.000680 0.000000 0.000000 0.000000
# 2 -0.011883 0.043863 -0.002943 0.000000 0.000000 0.000000
# 3 -0.000680 -0.002943 0.008604 0.000000 0.000000 0.000000
# 4 0.000000 0.000000 0.000000 0.053488 0.000000 0.000000
# 5 0.000000 0.000000 0.000000 0.000000 0.056690 0.000000
# 6 0.000000 0.000000 0.000000 0.000000 0.000000 0.027685
#
#
# Mechanical properties :
#
#
# Convention : Reuss Voigt Hill
#
# Bulk Modulus (GPa) = 28.57503 41.07304 34.82403
# Shear Modulus (GPa) = 20.28004 27.43800 23.85902
#
# Velocity S-wave (km/s) = 2.87344 3.34229 3.11669
# Velocity P-wave (km/s) = 4.75843 5.62287 5.20862
#
# Compressibility (1/GPa) = 0.03499559
#
# Stress axis : x y z
#
# Youngs Moduli (GPa) = 73.85362 22.79809 116.22077
#
# Poissons Ratio (x) = 0.27090 0.07907
# Poissons Ratio (y) = 0.87758 0.34205
# Poissons Ratio (z) = 0.05024 0.06710
#
# Static dielectric constant tensor:
#      x y z
#    x 2.078950 0.000000 0.000000 
#    y 0.000000 2.203400 0.000000 
#    z 0.000000 0.000000 1.871420 
# 
# From -- ./inp_files/13272.got.cif
#   From: 2010.05.17/outbox.cif.g08.bks.cpg/sg55_7_cif.got.tgz:13272.got - 2010.06.03 13:27:54.
