data_PCOD9429765
_publ_section_title
;
Structure prediction by ZEFSAII (Michael W. Deem and Ramdas Pophale) SiO2 
 PCOD9429765
Probable space group: P C C N
;
_chemical_formula_sum "Si O2"
_cell_formula_units_Z 56
_cell_length_a 12.829758
_cell_length_b 15.634859
_cell_length_c 13.771724
_cell_angle_alpha 90.000000
_cell_angle_beta 90.000000
_cell_angle_gamma 90.000000
_cell_volume 2762.490187
_symmetry_space_group_name_H-M "P C C N"
_symmetry_group_IT_number 56
_symmetry_cell_setting 'orthorhombic'
loop_
_space_group_symop_operation_xyz
x,y,z
1/2-x,1/2-y,z
1/2+x,-y,1/2-z
-x,1/2+y,1/2-z
-x,-y,-z
1/2+x,1/2+y,-z
1/2-x,y,1/2+z
x,1/2-y,1/2+z
loop_
_atom_site_type_symbol
_atom_site_label
_atom_site_fract_x
_atom_site_fract_y
_atom_site_fract_z
Si Si1 0.293412 0.446995 0.122728
Si Si2 0.319024 0.322130 0.762376
Si Si3 0.397534 0.441946 0.485039
Si Si4 0.982240 0.382423 0.542435
Si Si5 0.393146 0.965510 0.794972
Si Si6 0.437892 0.041143 0.358388
Si Si7 0.997027 0.305667 0.116003
O O1 0.249914 0.364517 0.178754
O O2 0.203539 0.470519 0.046562
O O3 0.402668 0.415753 0.076763
O O4 0.314752 0.518941 0.205177
O O5 0.250000 0.250000 0.810014
O O6 0.346355 0.394492 0.838536
O O7 0.425353 0.292863 0.708397
O O8 0.500000 0.500000 0.500000
O O9 0.375830 0.459059 0.372262
O O10 0.435694 0.351992 0.530570
O O11 0.984536 0.405209 0.428847
O O12 0.962961 0.286335 0.575453
O O13 0.908106 0.451736 0.593591
O O14 0.505978 0.977350 0.743540
O O15 0.407850 0.873344 0.848118
#
# Coordination Sequence:
#
# PCOD9429765 Si02
#       7
#     8   8   8   8   8   8   8
#     4  10  20  32  58  88 122 158 201 252 309 375
#     4  10  18  33  52  89 122 150 196 257 304 364
#     4   9  19  35  55  87 124 163 202 256 318 365
#     4  10  19  37  55  87 119 160 199 255 313 374
#     4   9  19  37  56  87 119 164 209 252 309 377
#     4   9  21  35  55  82 122 163 195 241 325 377
#     4   9  18  35  58  83 125 159 204 256 311 374
#
# _framework density 20.271564000000001
#
# number of rings (size 3 to 8) (size 9 to 14) (size 15 to 20)
#    0.000    2.571    1.429    0.857    2.000    1.143 
#    5.143    0.000    0.000    0.857   14.857    0.000 
#    0.000    0.000    0.000    0.000    0.000    0.000 
#
# Total GULP energy -311892.448036 kJ/mol
# GULP energy per Si atom -5569.508001 kJ/mol
# Density = 2.022543 g / cm^3
# Si number density = 20.271564 Si / 1000 Ang^3
#
#
#
# Elastic Constant Matrix: (Units=GPa)
#
#
# Indices 1 2 3 4 5 6 
#
# 1 41.6491 29.3093 24.0973 0.0000 0.0000 0.0000
# 2 29.3093 120.2619 41.6408 0.0000 0.0000 0.0000
# 3 24.0973 41.6408 97.4163 0.0000 0.0000 0.0000
# 4 0.0000 0.0000 0.0000 17.9543 0.0000 0.0000
# 5 0.0000 0.0000 0.0000 0.0000 29.7701 0.0000
# 6 0.0000 0.0000 0.0000 0.0000 0.0000 33.6076
#
#
#
# Elastic Compliance Matrix: (Units=1/GPa)
#
#
# Indices 1 2 3 4 5 6 
#
# 1 0.031093 -0.005768 -0.005226 0.000000 0.000000 0.000000
# 2 -0.005768 0.010830 -0.003202 0.000000 0.000000 0.000000
# 3 -0.005226 -0.003202 0.012927 0.000000 0.000000 0.000000
# 4 0.000000 0.000000 0.000000 0.055697 0.000000 0.000000
# 5 0.000000 0.000000 0.000000 0.000000 0.033591 0.000000
# 6 0.000000 0.000000 0.000000 0.000000 0.000000 0.029755
#
#
# Mechanical properties :
#
#
# Convention : Reuss Voigt Hill
#
# Bulk Modulus (GPa) = 37.79745 49.93582 43.86664
# Shear Modulus (GPa) = 23.68504 27.21840 25.45172
#
# Velocity S-wave (km/s) = 3.42188 3.66825 3.54720
# Velocity P-wave (km/s) = 5.85648 6.52903 6.20188
#
# Compressibility (1/GPa) = 0.02645681
#
# Stress axis : x y z
#
# Youngs Moduli (GPa) = 32.16175 92.33764 77.35932
#
# Poissons Ratio (x) = 0.53264 0.40425
# Poissons Ratio (y) = 0.18552 0.24773
# Poissons Ratio (z) = 0.16806 0.29570
#
# Static dielectric constant tensor:
#      x y z
#    x 1.805970 0.000000 0.000000 
#    y 0.000000 1.727190 0.000000 
#    z 0.000000 0.000000 1.787160 
# 
# From -- ./inp_files/12351.got.cif
#   From: 2010.05.17/outbox.cif.g08.bks.cpg/sg56_7_cif.got.tgz:12351.got - 2010.06.03 13:42:01.
