data_PCOD9429327
_publ_section_title
;
Structure prediction by ZEFSAII (Michael W. Deem and Ramdas Pophale) SiO2 
 PCOD9429327
Probable space group: P B A M
;
_chemical_formula_sum "Si O2"
_cell_formula_units_Z 64
_cell_length_a 24.000000
_cell_length_b 15.000000
_cell_length_c 9.000000
_cell_angle_alpha 90.000000
_cell_angle_beta 90.000000
_cell_angle_gamma 90.000000
_cell_volume 3240.000000
_symmetry_space_group_name_H-M "P B A M"
_symmetry_group_IT_number 55
_symmetry_cell_setting 'orthorhombic'
loop_
_space_group_symop_operation_xyz
x,y,z
-x,-y,z
1/2+x,1/2-y,-z
1/2-x,1/2+y,-z
-x,-y,-z
x,y,-z
1/2-x,1/2+y,z
1/2+x,1/2-y,z
loop_
_atom_site_type_symbol
_atom_site_label
_atom_site_fract_x
_atom_site_fract_y
_atom_site_fract_z
Si Si1 0.869660 0.513724 0.674417
Si Si2 0.665758 0.546581 0.320221
Si Si3 0.758017 0.214752 0.679634
Si Si4 0.862723 0.694740 0.822779
Si Si5 0.547954 0.573827 0.173239
Si Si6 0.757818 0.414225 0.320994
Si Si7 0.040101 0.585192 0.170371
Si Si8 0.024310 0.234640 0.179680
O O1 0.873582 0.536676 0.500000
O O2 0.884163 0.596693 0.778311
O O3 0.807318 0.482678 0.709616
O O4 0.910364 0.433443 0.716359
O O5 0.664371 0.545804 0.500000
O O6 0.700281 0.635677 0.274032
O O7 0.603905 0.548717 0.257471
O O8 0.700731 0.459774 0.268223
O O9 0.756342 0.211420 0.500000
O O10 0.695771 0.202892 0.740739
O O11 0.773044 0.315040 0.730360
O O12 0.911345 0.762332 0.771332
O O13 0.855832 0.701770 0.000000
O O14 0.500000 0.500000 0.176725
O O15 0.516873 0.659920 0.238757
O O16 0.562808 0.589604 0.000000
O O17 0.753891 0.408274 0.500000
O O18 0.000000 0.500000 0.175272
O O19 0.004580 0.671412 0.209054
O O20 0.060737 0.594609 0.000000
O O21 0.026879 0.223302 0.000000
#
# Coordination Sequence:
#
# PCOD9429327 Si02
#       8
#     8   8   8   8   8   8   8   8
#     4  11  21  36  57  84 118 153 190 233 283 346
#     4  10  21  40  62  86 119 153 191 240 295 351
#     4  10  21  39  61  85 116 152 188 238 295 344
#     4  11  21  37  60  85 115 151 193 237 289 351
#     4  10  23  42  62  83 114 156 202 250 293 336
#     4   9  20  38  59  82 114 153 186 230 296 349
#     4  10  19  35  55  78 114 155 187 228 289 347
#     4   9  20  38  57  79 114 155 190 234 294 345
#
# _framework density 19.753086
#
# number of rings (size 3 to 8) (size 9 to 14) (size 15 to 20)
#    0.000    2.000    2.500    0.750    3.500    1.000 
#    0.000    2.500    0.000    0.000    0.000    0.000 
#    0.000    0.000    0.000    0.000    0.000    0.000 
#
# Total GULP energy -356904.135395 kJ/mol
# GULP energy per Si atom -5576.627116 kJ/mol
# Density = 1.970813 g / cm^3
# Si number density = 19.753086 Si / 1000 Ang^3
#
#
#
# Elastic Constant Matrix: (Units=GPa)
#
#
# Indices 1 2 3 4 5 6 
#
# 1 81.4239 -12.2014 10.8127 0.0000 0.0000 0.0000
# 2 -12.2014 30.3013 7.6645 0.0000 0.0000 0.0000
# 3 10.8127 7.6645 -2.9460 0.0000 0.0000 0.0000
# 4 0.0000 0.0000 0.0000 13.0485 0.0000 0.0000
# 5 0.0000 0.0000 0.0000 0.0000 29.1873 0.0000
# 6 0.0000 0.0000 0.0000 0.0000 0.0000 15.4748
#
#
#
# Elastic Compliance Matrix: (Units=1/GPa)
#
#
# Indices 1 2 3 4 5 6 
#
# 1 0.008616 -0.002732 0.024517 0.000000 0.000000 0.000000
# 2 -0.002732 0.020770 0.044010 0.000000 0.000000 0.000000
# 3 0.024517 0.044010 -0.134962 0.000000 0.000000 0.000000
# 4 0.000000 0.000000 0.000000 0.076637 0.000000 0.000000
# 5 0.000000 0.000000 0.000000 0.000000 0.034261 0.000000
# 6 0.000000 0.000000 0.000000 0.000000 0.000000 0.064621
#
#
# Mechanical properties :
#
#
# Convention : Reuss Voigt Hill
#
# Bulk Modulus (GPa) = 38.44030 13.48119 25.96075
# Shear Modulus (GPa) = -94.38542 18.37570 -38.00486
#
# Velocity S-wave (km/s) = -6.92000 3.05334 -4.39110
# Velocity P-wave (km/s) = 6.65927 4.38978 3.54088
#
# Compressibility (1/GPa) = 0.02601436
#
# Stress axis : x y z
#
# Youngs Moduli (GPa) = 116.05923 48.14653 -7.40951
#
# Poissons Ratio (x) = 0.13153 0.18166
# Poissons Ratio (y) = 0.31706 0.32609
# Poissons Ratio (z) = -2.84544 -2.11892
#
# Static dielectric constant tensor:
#      x y z
#    x 1.725590 0.000000 0.000000 
#    y 0.000000 1.762830 0.000000 
#    z 0.000000 0.000000 1.663960 
# 
# From -- ./inp_files/9673.got.cif
#   From: 2010.05.17/outbox.ucp.g08.bks.cvg/sg55_5_cif.got.tgz:9673.got - 2010.06.11 16:36:00.
