data_PCOD9429611
_publ_section_title
;
Structure prediction by ZEFSAII (Michael W. Deem and Ramdas Pophale) SiO2 
 PCOD9429611
Probable space group: P C C N
;
_chemical_formula_sum "Si O2"
_cell_formula_units_Z 40
_cell_length_a 4.990996
_cell_length_b 16.755393
_cell_length_c 25.346236
_cell_angle_alpha 90.000000
_cell_angle_beta 90.000000
_cell_angle_gamma 90.000000
_cell_volume 2119.606852
_symmetry_space_group_name_H-M "P C C N"
_symmetry_group_IT_number 56
_symmetry_cell_setting 'orthorhombic'
loop_
_space_group_symop_operation_xyz
x,y,z
1/2-x,1/2-y,z
1/2+x,-y,1/2-z
-x,1/2+y,1/2-z
-x,-y,-z
1/2+x,1/2+y,-z
1/2-x,y,1/2+z
x,1/2-y,1/2+z
loop_
_atom_site_type_symbol
_atom_site_label
_atom_site_fract_x
_atom_site_fract_y
_atom_site_fract_z
Si Si1 0.749376 0.590471 0.105542
Si Si2 0.062460 0.048767 0.733930
Si Si3 0.986379 0.697870 0.696004
Si Si4 0.750348 0.522408 0.880090
Si Si5 0.249666 0.441847 0.007524
O O1 0.651132 0.659849 0.143987
O O2 0.541637 0.517975 0.117421
O O3 0.042528 0.552508 0.114702
O O4 0.738733 0.614630 0.043529
O O5 0.951935 0.125313 0.764589
O O6 0.171726 0.062113 0.675035
O O7 0.319136 0.014279 0.765387
O O8 0.750000 0.750000 0.721373
O O9 0.250000 0.750000 0.685136
O O10 0.766564 0.580601 0.930942
O O11 0.500000 0.500000 0.000000
O O12 0.000000 0.500000 0.000000
#
# Coordination Sequence:
#
# PCOD9429611 Si02
#       5
#     8   8   8   8   8
#     4  10  18  33  52  77 110 137 178 231 285 334
#     4  12  21  36  57  80 110 150 195 236 279 338
#     4  12  24  36  52  80 118 153 189 230 293 349
#     4  10  17  32  54  81 103 137 181 238 277 317
#     4   8  16  27  49  78 103 127 167 224 279 323
#
# _framework density 18.871423
#
# number of rings (size 3 to 8) (size 9 to 14) (size 15 to 20)
#    0.000    1.600    4.000    2.400    0.000    0.000 
#    0.000    0.000    0.000    1.200    0.000    2.800 
#    0.000    0.000    0.000    0.000    0.000    0.000 
#
# Total GULP energy -222842.517674 kJ/mol
# GULP energy per Si atom -5571.062942 kJ/mol
# Density = 1.882847 g / cm^3
# Si number density = 18.871423 Si / 1000 Ang^3
#
#
#
# Elastic Constant Matrix: (Units=GPa)
#
#
# Indices 1 2 3 4 5 6 
#
# 1 92.1274 -3.6363 -4.6423 0.0000 0.0000 0.0000
# 2 -3.6363 38.4027 25.3481 0.0000 0.0000 0.0000
# 3 -4.6423 25.3481 156.3593 0.0000 0.0000 0.0000
# 4 0.0000 0.0000 0.0000 8.5111 0.0000 0.0000
# 5 0.0000 0.0000 0.0000 0.0000 24.0821 0.0000
# 6 0.0000 0.0000 0.0000 0.0000 0.0000 27.3578
#
#
#
# Elastic Compliance Matrix: (Units=1/GPa)
#
#
# Indices 1 2 3 4 5 6 
#
# 1 0.010900 0.000917 0.000175 0.000000 0.000000 0.000000
# 2 0.000917 0.029237 -0.004713 0.000000 0.000000 0.000000
# 3 0.000175 -0.004713 0.007165 0.000000 0.000000 0.000000
# 4 0.000000 0.000000 0.000000 0.117493 0.000000 0.000000
# 5 0.000000 0.000000 0.000000 0.000000 0.041525 0.000000
# 6 0.000000 0.000000 0.000000 0.000000 0.000000 0.036553
#
#
# Mechanical properties :
#
#
# Convention : Reuss Voigt Hill
#
# Bulk Modulus (GPa) = 24.96293 35.66983 30.31638
# Shear Modulus (GPa) = 18.97773 29.97822 24.47798
#
# Velocity S-wave (km/s) = 3.17461 3.98999 3.60542
# Velocity P-wave (km/s) = 5.16664 6.33792 5.78201
#
# Compressibility (1/GPa) = 0.04005941
#
# Stress axis : x y z
#
# Youngs Moduli (GPa) = 91.74710 34.20304 139.57327
#
# Poissons Ratio (x) = -0.03135 -0.02443
# Poissons Ratio (y) = -0.08409 0.65775
# Poissons Ratio (z) = -0.01606 0.16118
#
# Static dielectric constant tensor:
#      x y z
#    x 1.653410 0.000000 0.000000 
#    y 0.000000 1.706140 0.000000 
#    z 0.000000 0.000000 1.761630 
# 
# From -- ./inp_files/21600.got.cif
#   From: 2010.05.17/outbox.cif.g08.bks.cpg/sg56_11_cif.got.tgz:21600.got - 2010.06.03 13:42:01.
