data_PCOD9429691
_publ_section_title
;
Structure prediction by ZEFSAII (Michael W. Deem and Ramdas Pophale) SiO2 
 PCOD9429691
Probable space group: P C C N
;
_chemical_formula_sum "Si O2"
_cell_formula_units_Z 48
_cell_length_a 13.176232
_cell_length_b 9.096723
_cell_length_c 22.133400
_cell_angle_alpha 90.000000
_cell_angle_beta 90.000000
_cell_angle_gamma 90.000000
_cell_volume 2652.921114
_symmetry_space_group_name_H-M "P C C N"
_symmetry_group_IT_number 56
_symmetry_cell_setting 'orthorhombic'
loop_
_space_group_symop_operation_xyz
x,y,z
1/2-x,1/2-y,z
1/2+x,-y,1/2-z
-x,1/2+y,1/2-z
-x,-y,-z
1/2+x,1/2+y,-z
1/2-x,y,1/2+z
x,1/2-y,1/2+z
loop_
_atom_site_type_symbol
_atom_site_label
_atom_site_fract_x
_atom_site_fract_y
_atom_site_fract_z
Si Si1 0.997587 0.711413 0.272702
Si Si2 0.409490 0.986469 0.181966
Si Si3 0.861744 0.322380 0.613178
Si Si4 0.466874 0.554054 0.434832
Si Si5 0.289071 0.081788 0.734902
Si Si6 0.233455 0.422746 0.875383
O O1 0.955370 0.876751 0.278580
O O2 0.904232 0.600553 0.286402
O O3 0.040827 0.661417 0.208222
O O4 0.084739 0.691477 0.322068
O O5 0.445684 0.021530 0.114538
O O6 0.289410 0.990363 0.194623
O O7 0.750000 0.250000 0.614143
O O8 0.932842 0.225542 0.569436
O O9 0.832659 0.490723 0.601069
O O10 0.500000 0.500000 0.500000
O O11 0.366544 0.468840 0.411751
O O12 0.250000 0.250000 0.734177
O O13 0.284365 0.033006 0.804889
O O14 0.250000 0.250000 0.877442
#
# Coordination Sequence:
#
# PCOD9429691 Si02
#       6
#     8   8   8   8   8   8
#     4  10  18  30  50  81 111 137 179 235 285 330
#     4  10  19  31  53  79 111 141 180 232 284 333
#     4   9  19  34  56  81 107 146 192 235 284 346
#     4  10  21  37  54  79 115 158 189 222 287 355
#     4   9  17  29  49  83 113 138 178 233 293 329
#     4  10  18  33  59  83 104 142 194 237 279 342
#
# _framework density 18.093261999999999
#
# number of rings (size 3 to 8) (size 9 to 14) (size 15 to 20)
#    0.000    2.333    3.333    0.000    0.000    0.000 
#    0.000    5.000    0.000   13.000    0.000    0.000 
#    0.000    0.000    0.000    0.000    0.000    0.000 
#
# Total GULP energy -267435.144847 kJ/mol
# GULP energy per Si atom -5571.565518 kJ/mol
# Density = 1.805208 g / cm^3
# Si number density = 18.093262 Si / 1000 Ang^3
#
#
#
# Elastic Constant Matrix: (Units=GPa)
#
#
# Indices 1 2 3 4 5 6 
#
# 1 60.4251 2.4702 35.5538 0.0000 0.0000 0.0000
# 2 2.4702 64.9316 27.2796 0.0000 0.0000 0.0000
# 3 35.5538 27.2796 91.8025 0.0000 0.0000 0.0000
# 4 0.0000 0.0000 0.0000 14.1611 0.0000 0.0000
# 5 0.0000 0.0000 0.0000 0.0000 19.4335 0.0000
# 6 0.0000 0.0000 0.0000 0.0000 0.0000 16.0272
#
#
#
# Elastic Compliance Matrix: (Units=1/GPa)
#
#
# Indices 1 2 3 4 5 6 
#
# 1 0.021977 0.003131 -0.009442 0.000000 0.000000 0.000000
# 2 0.003131 0.018044 -0.006574 0.000000 0.000000 0.000000
# 3 -0.009442 -0.006574 0.016503 0.000000 0.000000 0.000000
# 4 0.000000 0.000000 0.000000 0.070616 0.000000 0.000000
# 5 0.000000 0.000000 0.000000 0.000000 0.051457 0.000000
# 6 0.000000 0.000000 0.000000 0.000000 0.000000 0.062394
#
#
# Mechanical properties :
#
#
# Convention : Reuss Voigt Hill
#
# Bulk Modulus (GPa) = 32.51691 38.64073 35.57882
# Shear Modulus (GPa) = 18.04973 20.04808 19.04890
#
# Velocity S-wave (km/s) = 3.16190 3.33234 3.24823
# Velocity P-wave (km/s) = 5.59830 6.01737 5.81161
#
# Compressibility (1/GPa) = 0.03075323
#
# Stress axis : x y z
#
# Youngs Moduli (GPa) = 45.50252 55.42090 60.59468
#
# Poissons Ratio (x) = -0.17350 0.57211
# Poissons Ratio (y) = -0.14245 0.39836
# Poissons Ratio (z) = 0.42962 0.36435
#
# Static dielectric constant tensor:
#      x y z
#    x 1.665200 0.000000 0.000000 
#    y 0.000000 1.692780 0.000000 
#    z 0.000000 0.000000 1.582860 
# 
# From -- ./inp_files/18975.got.cif
#   From: 2010.05.17/outbox.cif.g08.bks.cpg/sg56_10_cif.got.tgz:18975.got - 2010.06.03 13:42:01.
