data_PCOD9429126
_publ_section_title
;
Structure prediction by ZEFSAII (Michael W. Deem and Ramdas Pophale) SiO2 
 PCOD9429126
Probable space group: P B A M
;
_chemical_formula_sum "Si O2"
_cell_formula_units_Z 40
_cell_length_a 9.318717
_cell_length_b 18.833713
_cell_length_c 11.289435
_cell_angle_alpha 90.000000
_cell_angle_beta 90.000000
_cell_angle_gamma 90.000000
_cell_volume 1981.364048
_symmetry_space_group_name_H-M "P B A M"
_symmetry_group_IT_number 55
_symmetry_cell_setting 'orthorhombic'
loop_
_space_group_symop_operation_xyz
x,y,z
-x,-y,z
1/2+x,1/2-y,-z
1/2-x,1/2+y,-z
-x,-y,-z
x,y,-z
1/2-x,1/2+y,z
1/2+x,1/2-y,z
loop_
_atom_site_type_symbol
_atom_site_label
_atom_site_fract_x
_atom_site_fract_y
_atom_site_fract_z
Si Si1 0.190532 0.681343 0.139296
Si Si2 0.539362 0.280866 0.500000
Si Si3 0.145759 0.955075 0.133750
Si Si4 0.016378 0.813439 0.762966
Si Si5 0.863391 0.451700 0.274412
Si Si6 0.157577 0.650075 0.500000
O O1 0.351705 0.683480 0.192399
O O2 0.091708 0.740684 0.198669
O O3 0.122089 0.604982 0.168191
O O4 0.199800 0.693482 0.000000
O O5 0.483313 0.316258 0.379252
O O6 0.710373 0.294288 0.500000
O O7 0.485225 0.199059 0.500000
O O8 0.103482 0.877052 0.176994
O O9 0.241569 0.994754 0.230317
O O10 0.208582 0.953479 0.000000
O O11 0.000000 0.000000 0.126663
O O12 0.832316 0.401417 0.386732
O O13 0.000000 0.500000 0.298562
#
# Coordination Sequence:
#
# PCOD9429126 Si02
#       6
#     8   4   8   8   8   4
#     4  12  25  45  69 103 143 182 236 292 351 423
#     4  12  22  45  77  99 141 178 233 293 353 411
#     4  11  23  44  69  99 142 188 233 288 354 422
#     4  12  25  44  71 105 136 186 237 291 355 419
#     4  12  27  45  69 102 143 186 235 289 356 417
#     4  12  25  49  71 105 142 182 235 297 349 424
#
# _framework density 20.188112
#
# number of rings (size 3 to 8) (size 9 to 14) (size 15 to 20)
#    0.000    0.200    6.000    2.700    2.800    4.000 
#    0.000    2.000    0.000    0.000    0.000    0.000 
#    0.000    0.000    0.000    0.000    0.000    0.000 
#
# Total GULP energy -223656.984760 kJ/mol
# GULP energy per Si atom -5591.424619 kJ/mol
# Density = 2.014216 g / cm^3
# Si number density = 20.188112 Si / 1000 Ang^3
#
#
#
# Elastic Constant Matrix: (Units=GPa)
#
#
# Indices 1 2 3 4 5 6 
#
# 1 71.1900 46.4416 43.9810 0.0000 0.0000 0.0000
# 2 46.4416 96.4381 9.3053 0.0000 0.0000 0.0000
# 3 43.9810 9.3053 137.5246 0.0000 0.0000 0.0000
# 4 0.0000 0.0000 0.0000 35.3481 0.0000 0.0000
# 5 0.0000 0.0000 0.0000 0.0000 23.9765 0.0000
# 6 0.0000 0.0000 0.0000 0.0000 0.0000 44.3661
#
#
#
# Elastic Compliance Matrix: (Units=1/GPa)
#
#
# Indices 1 2 3 4 5 6 
#
# 1 0.026734 -0.012129 -0.007729 0.000000 0.000000 0.000000
# 2 -0.012129 0.015940 0.002800 0.000000 0.000000 0.000000
# 3 -0.007729 0.002800 0.009554 0.000000 0.000000 0.000000
# 4 0.000000 0.000000 0.000000 0.028290 0.000000 0.000000
# 5 0.000000 0.000000 0.000000 0.000000 0.041707 0.000000
# 6 0.000000 0.000000 0.000000 0.000000 0.000000 0.022540
#
#
# Mechanical properties :
#
#
# Convention : Reuss Voigt Hill
#
# Bulk Modulus (GPa) = 55.20892 56.06761 55.63826
# Shear Modulus (GPa) = 27.03912 34.43313 30.73612
#
# Velocity S-wave (km/s) = 3.66369 4.13439 3.90614
# Velocity P-wave (km/s) = 6.73079 7.11504 6.92558
#
# Compressibility (1/GPa) = 0.01811302
#
# Stress axis : x y z
#
# Youngs Moduli (GPa) = 37.40545 62.73570 104.67114
#
# Poissons Ratio (x) = 0.76089 0.80901
# Poissons Ratio (y) = 0.45367 -0.29310
# Poissons Ratio (z) = 0.28911 -0.17567
#
# Static dielectric constant tensor:
#      x y z
#    x 1.715470 0.000000 0.000000 
#    y 0.000000 1.699470 0.000000 
#    z 0.000000 0.000000 1.729650 
# 
# From -- ./inp_files/11931.got.cif
#   From: 2010.05.17/outbox.cif.g08.bks.cpg/sg55_6_cif.got.tgz:11931.got - 2010.06.03 13:27:54.
