data_PCOD9429001
_publ_section_title
;
Structure prediction by ZEFSAII (Michael W. Deem and Ramdas Pophale) SiO2 
 PCOD9429001
Probable space group: P B A M
;
_chemical_formula_sum "Si O2"
_cell_formula_units_Z 56
_cell_length_a 22.862174
_cell_length_b 9.842391
_cell_length_c 14.484969
_cell_angle_alpha 90.000000
_cell_angle_beta 90.000000
_cell_angle_gamma 90.000000
_cell_volume 3259.385354
_symmetry_space_group_name_H-M "P B A M"
_symmetry_group_IT_number 55
_symmetry_cell_setting 'orthorhombic'
loop_
_space_group_symop_operation_xyz
x,y,z
-x,-y,z
1/2+x,1/2-y,-z
1/2-x,1/2+y,-z
-x,-y,-z
x,y,-z
1/2-x,1/2+y,z
1/2+x,1/2-y,z
loop_
_atom_site_type_symbol
_atom_site_label
_atom_site_fract_x
_atom_site_fract_y
_atom_site_fract_z
Si Si1 0.823165 0.525925 0.705194
Si Si2 0.809321 0.096055 0.898500
Si Si3 0.125133 0.720180 0.390801
Si Si4 0.127754 0.220048 0.609726
Si Si5 0.809852 0.420694 0.101439
Si Si6 0.315655 0.463904 0.698105
Si Si7 0.997453 0.155885 0.388290
O O1 0.859032 0.431939 0.635510
O O2 0.836943 0.678339 0.675175
O O3 0.841233 0.480392 0.808420
O O4 0.753321 0.503114 0.697506
O O5 0.749471 0.009517 0.902503
O O6 0.798183 0.258607 0.886332
O O7 0.837987 0.041907 0.804232
O O8 0.837884 0.079203 0.000000
O O9 0.127632 0.738948 0.500000
O O10 0.172992 0.815887 0.343358
O O11 0.061074 0.767873 0.357265
O O12 0.136537 0.245158 0.500000
O O13 0.058796 0.228009 0.631929
O O14 0.149471 0.069565 0.635331
O O15 0.838371 0.435799 0.000000
O O16 0.994310 0.149572 0.500000
O O17 0.000000 0.000000 0.354845
#
# Coordination Sequence:
#
# PCOD9429001 Si02
#       7
#     8   8   8   8   8   8   8
#     4  11  23  34  49  83 115 141 172 213 270 329
#     4   9  18  32  51  76 105 139 177 218 262 311
#     4  11  21  35  55  76 105 143 183 220 259 313
#     4  11  23  37  54  76 108 145 182 224 261 307
#     4   9  18  33  52  75 106 141 177 218 261 311
#     4  11  21  34  53  79 110 146 175 208 265 330
#     4   9  18  36  57  74  94 134 192 234 258 296
#
# _framework density 17.181152999999998
#
# number of rings (size 3 to 8) (size 9 to 14) (size 15 to 20)
#    0.000    1.857    2.857    1.714    6.000    4.000 
#    0.000    2.143    0.000    0.000    0.000    6.000 
#    0.000    0.000    0.000    0.000    0.000    0.000 
#
# Total GULP energy -311880.172503 kJ/mol
# GULP energy per Si atom -5569.288795 kJ/mol
# Density = 1.714205 g / cm^3
# Si number density = 17.181153 Si / 1000 Ang^3
#
#
#
# Elastic Constant Matrix: (Units=GPa)
#
#
# Indices 1 2 3 4 5 6 
#
# 1 45.6854 -3.1967 21.5508 0.0000 0.0000 0.0000
# 2 -3.1967 28.7998 -7.8615 0.0000 0.0000 0.0000
# 3 21.5508 -7.8615 74.9623 0.0000 0.0000 0.0000
# 4 0.0000 0.0000 0.0000 28.3022 0.0000 0.0000
# 5 0.0000 0.0000 0.0000 0.0000 -4.5945 0.0000
# 6 0.0000 0.0000 0.0000 0.0000 0.0000 9.7400
#
#
#
# Elastic Compliance Matrix: (Units=1/GPa)
#
#
# Indices 1 2 3 4 5 6 
#
# 1 0.025343 0.000848 -0.007197 0.000000 0.000000 0.000000
# 2 0.000848 0.035774 0.003508 0.000000 0.000000 0.000000
# 3 -0.007197 0.003508 0.015777 0.000000 0.000000 0.000000
# 4 0.000000 0.000000 0.000000 0.035333 0.000000 0.000000
# 5 0.000000 0.000000 0.000000 0.000000 -0.217653 0.000000
# 6 0.000000 0.000000 0.000000 0.000000 0.000000 0.102669
#
#
# Mechanical properties :
#
#
# Convention : Reuss Voigt Hill
#
# Bulk Modulus (GPa) = 14.04235 18.93696 16.48966
# Shear Modulus (GPa) = 187.53363 15.95321 101.74342
#
# Velocity S-wave (km/s) = 10.45886 3.05048 7.70367
# Velocity P-wave (km/s) = 12.41133 4.84284 9.42057
#
# Compressibility (1/GPa) = 0.07121314
#
# Stress axis : x y z
#
# Youngs Moduli (GPa) = 39.45846 27.95308 63.38362
#
# Poissons Ratio (x) = -0.02372 0.45616
# Poissons Ratio (y) = -0.03348 -0.22234
# Poissons Ratio (z) = 0.28398 -0.09805
#
# Static dielectric constant tensor:
#      x y z
#    x 1.566490 0.000000 0.000000 
#    y 0.000000 1.570310 0.000000 
#    z 0.000000 0.000000 1.621380 
# 
# From -- ./inp_files/17613.got.cif
#   From: 2010.05.17/outbox.cif.g08.bks.cpg/sg55_9_cif.got.tgz:17613.got - 2010.06.03 13:27:54.
