data_PCOD9429341
_publ_section_title
;
Structure prediction by ZEFSAII (Michael W. Deem and Ramdas Pophale) SiO2 
 PCOD9429341
Probable space group: P B A M
;
_chemical_formula_sum "Si O2"
_cell_formula_units_Z 48
_cell_length_a 9.000000
_cell_length_b 30.000000
_cell_length_c 9.000000
_cell_angle_alpha 90.000000
_cell_angle_beta 90.000000
_cell_angle_gamma 90.000000
_cell_volume 2430.000000
_symmetry_space_group_name_H-M "P B A M"
_symmetry_group_IT_number 55
_symmetry_cell_setting 'orthorhombic'
loop_
_space_group_symop_operation_xyz
x,y,z
-x,-y,z
1/2+x,1/2-y,-z
1/2-x,1/2+y,-z
-x,-y,-z
x,y,-z
1/2-x,1/2+y,z
1/2+x,1/2-y,z
loop_
_atom_site_type_symbol
_atom_site_label
_atom_site_fract_x
_atom_site_fract_y
_atom_site_fract_z
Si Si1 0.098124 0.289306 0.820137
Si Si2 0.244032 0.697755 0.819365
Si Si3 0.593054 0.386192 0.322785
Si Si4 0.094461 0.461999 0.167445
Si Si5 0.732492 0.621917 0.181205
Si Si6 0.133216 0.026820 0.168079
O O1 0.165675 0.242051 0.775410
O O2 0.206234 0.329603 0.776939
O O3 0.928176 0.297046 0.774253
O O4 0.096093 0.289258 0.000000
O O5 0.321232 0.655818 0.744305
O O6 0.250239 0.693283 0.000000
O O7 0.587514 0.384886 0.500000
O O8 0.426297 0.387248 0.254631
O O9 0.674238 0.430506 0.262702
O O10 0.142689 0.414349 0.227437
O O11 0.245264 0.489173 0.151121
O O12 0.000000 0.500000 0.249554
O O13 0.027789 0.454390 0.000000
O O14 0.719198 0.619009 0.000000
O O15 0.090387 0.041686 0.000000
O O16 0.000000 0.000000 0.242282
#
# Coordination Sequence:
#
# PCOD9429341 Si02
#       6
#     8   8   8   8   8   8
#     4   9  19  35  64  95 116 141 186 243 294 339
#     4  10  20  38  62  90 116 146 187 238 292 346
#     4  12  25  38  55  83 118 159 198 236 283 338
#     4   9  18  31  55  89 118 143 182 234 288 340
#     4  10  19  37  61  88 118 150 190 239 287 340
#     4  10  19  36  60  85 111 149 194 238 285 334
#
# _framework density 19.753086
#
# number of rings (size 3 to 8) (size 9 to 14) (size 15 to 20)
#    0.000    2.000    1.667    2.500    2.333    3.000 
#    0.000    4.167    0.000    1.000    0.000    0.000 
#    0.000    0.000    0.000    0.000    0.000    0.000 
#
# Total GULP energy -267539.349863 kJ/mol
# GULP energy per Si atom -5573.736455 kJ/mol
# Density = 1.970813 g / cm^3
# Si number density = 19.753086 Si / 1000 Ang^3
#
#
#
# Elastic Constant Matrix: (Units=GPa)
#
#
# Indices 1 2 3 4 5 6 
#
# 1 1.2277 -20.9273 -4.0820 0.0000 0.0000 0.0000
# 2 -20.9273 112.5739 21.4107 0.0000 0.0000 0.0000
# 3 -4.0820 21.4107 41.8284 0.0000 0.0000 0.0000
# 4 0.0000 0.0000 0.0000 -2.2727 0.0000 0.0000
# 5 0.0000 0.0000 0.0000 0.0000 5.8692 0.0000
# 6 0.0000 0.0000 0.0000 0.0000 0.0000 36.7444
#
#
#
# Elastic Compliance Matrix: (Units=1/GPa)
#
#
# Indices 1 2 3 4 5 6 
#
# 1 -0.375536 -0.069619 -0.001013 0.000000 0.000000 0.000000
# 2 -0.069619 -0.003065 -0.005225 0.000000 0.000000 0.000000
# 3 -0.001013 -0.005225 0.026483 0.000000 0.000000 0.000000
# 4 0.000000 0.000000 0.000000 -0.440000 0.000000 0.000000
# 5 0.000000 0.000000 0.000000 0.000000 0.170382 0.000000
# 6 0.000000 0.000000 0.000000 0.000000 0.000000 0.027215
#
#
# Mechanical properties :
#
#
# Convention : Reuss Voigt Hill
#
# Bulk Modulus (GPa) = -1.98479 16.49254 7.25387
# Shear Modulus (GPa) = -8.18663 18.68340 5.24839
#
# Velocity S-wave (km/s) = -2.03801 3.07880 1.63180
# Velocity P-wave (km/s) = 2.55831 4.58325 2.68898
#
# Compressibility (1/GPa) = -0.50383202
#
# Stress axis : x y z
#
# Youngs Moduli (GPa) = -2.66286 -326.24885 37.76009
#
# Poissons Ratio (x) = -22.71304 0.03825
# Poissons Ratio (y) = -0.18538 0.19730
# Poissons Ratio (z) = -0.00270 -1.70470
#
# Static dielectric constant tensor:
#      x y z
#    x 3.372980 0.000000 0.000000 
#    y 0.000000 1.851530 0.000000 
#    z 0.000000 0.000000 1.670050 
# 
# From -- ./inp_files/2785.got.cif
#   From: 2010.05.17/outbox.ucp.g08.bks.cvg/sg55_2_cif.got.tgz:2785.got - 2010.06.11 16:36:00.
