data_PCOD9429018
_publ_section_title
;
Structure prediction by ZEFSAII (Michael W. Deem and Ramdas Pophale) SiO2 
 PCOD9429018
Probable space group: P B A M
;
_chemical_formula_sum "Si O2"
_cell_formula_units_Z 56
_cell_length_a 16.219741
_cell_length_b 9.811385
_cell_length_c 16.103016
_cell_angle_alpha 90.000000
_cell_angle_beta 90.000000
_cell_angle_gamma 90.000000
_cell_volume 2562.603750
_symmetry_space_group_name_H-M "P B A M"
_symmetry_group_IT_number 55
_symmetry_cell_setting 'orthorhombic'
loop_
_space_group_symop_operation_xyz
x,y,z
-x,-y,z
1/2+x,1/2-y,-z
1/2-x,1/2+y,-z
-x,-y,-z
x,y,-z
1/2-x,1/2+y,z
1/2+x,1/2-y,z
loop_
_atom_site_type_symbol
_atom_site_label
_atom_site_fract_x
_atom_site_fract_y
_atom_site_fract_z
Si Si1 0.060298 0.694723 0.657422
Si Si2 0.386466 0.580523 0.902110
Si Si3 0.261956 0.060353 0.208625
Si Si4 0.109291 0.397087 0.597115
Si Si5 0.903530 0.475954 0.906282
Si Si6 0.281381 0.320880 0.325438
Si Si7 0.454896 0.291936 0.846852
O O1 0.219827 0.693997 0.737942
O O2 0.092613 0.538960 0.646111
O O3 0.133938 0.792314 0.624922
O O4 0.970954 0.695605 0.614367
O O5 0.297020 0.605457 0.865976
O O6 0.418387 0.441716 0.859374
O O7 0.451359 0.697748 0.878809
O O8 0.387291 0.561513 0.000000
O O9 0.216885 0.957007 0.270831
O O10 0.339574 0.984679 0.165444
O O11 0.112196 0.431098 0.500000
O O12 0.195725 0.330975 0.624645
O O13 0.901378 0.311255 0.901497
O O14 0.000000 0.500000 0.886592
O O15 0.885774 0.524537 0.000000
O O16 0.454161 0.239236 0.247283
#
# Coordination Sequence:
#
# PCOD9429018 Si02
#       7
#     8   8   8   8   8   8   8
#     4  11  22  44  73  98 134 181 225 278 341 422
#     4  11  23  39  62  92 132 180 226 283 338 379
#     4  12  24  42  65  98 132 182 227 281 330 413
#     4  11  26  46  74 106 134 173 226 279 353 435
#     4  11  24  39  58  89 132 178 230 286 332 383
#     4  12  24  44  71 102 138 173 231 281 345 410
#     4  11  21  39  63  88 128 170 229 273 327 399
#
# _framework density 21.852774
#
# number of rings (size 3 to 8) (size 9 to 14) (size 15 to 20)
#    0.000    0.714    4.286    3.857    6.000    1.143 
#    0.000    1.429    0.000    0.857    0.000    0.000 
#    0.000    0.000    0.000    0.000    0.000    0.000 
#
# Total GULP energy -312904.903983 kJ/mol
# GULP energy per Si atom -5587.587571 kJ/mol
# Density = 2.180304 g / cm^3
# Si number density = 21.852774 Si / 1000 Ang^3
#
#
#
# Elastic Constant Matrix: (Units=GPa)
#
#
# Indices 1 2 3 4 5 6 
#
# 1 106.5011 -8.5851 33.5326 0.0000 0.0000 0.0000
# 2 -8.5851 39.7085 13.2726 0.0000 0.0000 0.0000
# 3 33.5326 13.2726 112.1000 0.0000 0.0000 0.0000
# 4 0.0000 0.0000 0.0000 18.6590 0.0000 0.0000
# 5 0.0000 0.0000 0.0000 0.0000 16.7309 0.0000
# 6 0.0000 0.0000 0.0000 0.0000 0.0000 37.2780
#
#
#
# Elastic Compliance Matrix: (Units=1/GPa)
#
#
# Indices 1 2 3 4 5 6 
#
# 1 0.010830 0.003565 -0.003662 0.000000 0.000000 0.000000
# 2 0.003565 0.027395 -0.004310 0.000000 0.000000 0.000000
# 3 -0.003662 -0.004310 0.010526 0.000000 0.000000 0.000000
# 4 0.000000 0.000000 0.000000 0.053594 0.000000 0.000000
# 5 0.000000 0.000000 0.000000 0.000000 0.059770 0.000000
# 6 0.000000 0.000000 0.000000 0.000000 0.000000 0.026825
#
#
# Mechanical properties :
#
#
# Convention : Reuss Voigt Hill
#
# Bulk Modulus (GPa) = 25.03854 37.19441 31.11647
# Shear Modulus (GPa) = 23.68935 29.20622 26.44779
#
# Velocity S-wave (km/s) = 3.29605 3.65978 3.48267
# Velocity P-wave (km/s) = 5.09588 5.90898 5.51743
#
# Compressibility (1/GPa) = 0.03993843
#
# Stress axis : x y z
#
# Youngs Moduli (GPa) = 92.33698 36.50293 95.00065
#
# Poissons Ratio (x) = -0.13015 0.34786
# Poissons Ratio (y) = -0.32922 0.40946
# Poissons Ratio (z) = 0.33811 0.15733
#
# Static dielectric constant tensor:
#      x y z
#    x 1.901760 0.000000 0.000000 
#    y 0.000000 1.801410 0.000000 
#    z 0.000000 0.000000 1.772450 
# 
# From -- ./inp_files/18957.got.cif
#   From: 2010.05.17/outbox.cif.g08.bks.cpg/sg55_10_cif.got.tgz:18957.got - 2010.06.03 13:27:54.
