data_PCOD9429078
_publ_section_title
;
Structure prediction by ZEFSAII (Michael W. Deem and Ramdas Pophale) SiO2 
 PCOD9429078
Probable space group: P B A M
;
_chemical_formula_sum "Si O2"
_cell_formula_units_Z 48
_cell_length_a 9.389749
_cell_length_b 13.894906
_cell_length_c 18.027148
_cell_angle_alpha 90.000000
_cell_angle_beta 90.000000
_cell_angle_gamma 90.000000
_cell_volume 2351.996226
_symmetry_space_group_name_H-M "P B A M"
_symmetry_group_IT_number 55
_symmetry_cell_setting 'orthorhombic'
loop_
_space_group_symop_operation_xyz
x,y,z
-x,-y,z
1/2+x,1/2-y,-z
1/2-x,1/2+y,-z
-x,-y,-z
x,y,-z
1/2-x,1/2+y,z
1/2+x,1/2-y,z
loop_
_atom_site_type_symbol
_atom_site_label
_atom_site_fract_x
_atom_site_fract_y
_atom_site_fract_z
Si Si1 0.531606 0.756404 0.205124
Si Si2 0.657893 0.043135 0.301524
Si Si3 0.144053 0.060128 0.588417
Si Si4 0.584825 0.098342 0.080481
Si Si5 0.853581 0.057892 0.159164
Si Si6 0.792175 0.771458 0.694897
O O1 0.474353 0.836230 0.148211
O O2 0.619176 0.671852 0.167719
O O3 0.395809 0.701413 0.238086
O O4 0.632723 0.788900 0.274193
O O5 0.762288 0.023554 0.231315
O O6 0.673673 0.158107 0.313887
O O7 0.500000 0.000000 0.288550
O O8 0.725226 0.995325 0.374093
O O9 0.151516 0.065503 0.500000
O O10 0.157902 0.165245 0.625594
O O11 0.000000 0.000000 0.608059
O O12 0.744527 0.059674 0.091898
O O13 0.500000 0.000000 0.081455
O O14 0.568843 0.147134 0.000000
O O15 0.000000 0.000000 0.151775
#
# Coordination Sequence:
#
# PCOD9429078 Si02
#       6
#     8   8   8   8   8   8
#     4  11  22  42  65  99 126 170 227 272 332 397
#     4  11  22  41  68  98 132 176 233 282 334 404
#     4  11  25  43  63  96 141 181 221 283 354 405
#     4  11  26  45  65  96 136 178 219 277 346 396
#     4  11  24  40  70  98 130 174 226 274 330 405
#     4  11  23  39  68  99 126 177 231 281 335 404
#
# _framework density 20.408194999999999
#
# number of rings (size 3 to 8) (size 9 to 14) (size 15 to 20)
#    0.000    1.000    3.333    5.000    4.667    2.000 
#    0.000    4.167    0.000    0.000    0.000    0.000 
#    0.000    0.000    0.000    0.000    0.000    0.000 
#
# Total GULP energy -267763.013983 kJ/mol
# GULP energy per Si atom -5578.396125 kJ/mol
# Density = 2.036175 g / cm^3
# Si number density = 20.408195 Si / 1000 Ang^3
#
#
#
# Elastic Constant Matrix: (Units=GPa)
#
#
# Indices 1 2 3 4 5 6 
#
# 1 142.6530 52.1944 44.1054 0.0000 0.0000 0.0000
# 2 52.1944 95.2554 47.0382 0.0000 0.0000 0.0000
# 3 44.1054 47.0382 99.8807 0.0000 0.0000 0.0000
# 4 0.0000 0.0000 0.0000 45.2952 0.0000 0.0000
# 5 0.0000 0.0000 0.0000 0.0000 46.9453 0.0000
# 6 0.0000 0.0000 0.0000 0.0000 0.0000 38.1712
#
#
#
# Elastic Compliance Matrix: (Units=1/GPa)
#
#
# Indices 1 2 3 4 5 6 
#
# 1 0.009118 -0.003919 -0.002181 0.000000 0.000000 0.000000
# 2 -0.003919 0.015364 -0.005505 0.000000 0.000000 0.000000
# 3 -0.002181 -0.005505 0.013567 0.000000 0.000000 0.000000
# 4 0.000000 0.000000 0.000000 0.022077 0.000000 0.000000
# 5 0.000000 0.000000 0.000000 0.000000 0.021301 0.000000
# 6 0.000000 0.000000 0.000000 0.000000 0.000000 0.026198
#
#
# Mechanical properties :
#
#
# Convention : Reuss Voigt Hill
#
# Bulk Modulus (GPa) = 67.38621 69.38501 68.38561
# Shear Modulus (GPa) = 36.82352 39.04575 37.93463
#
# Velocity S-wave (km/s) = 4.25237 4.37880 4.31605
# Velocity P-wave (km/s) = 7.56314 7.72254 7.64326
#
# Compressibility (1/GPa) = 0.01483983
#
# Stress axis : x y z
#
# Youngs Moduli (GPa) = 109.66963 65.08674 73.70641
#
# Poissons Ratio (x) = 0.25511 0.16072
# Poissons Ratio (y) = 0.42985 0.40574
# Poissons Ratio (z) = 0.23915 0.35829
#
# Static dielectric constant tensor:
#      x y z
#    x 1.857010 0.000000 0.000000 
#    y 0.000000 1.769630 0.000000 
#    z 0.000000 0.000000 1.723300 
# 
# From -- ./inp_files/20792.got.cif
#   From: 2010.05.17/outbox.cif.g08.bks.cpg/sg55_11_cif.got.tgz:20792.got - 2010.06.03 13:27:54.
