data_PCOD9429145
_publ_section_title
;
Structure prediction by ZEFSAII (Michael W. Deem and Ramdas Pophale) SiO2 
 PCOD9429145
Probable space group: P B A M
;
_chemical_formula_sum "Si O2"
_cell_formula_units_Z 34
_cell_length_a 12.335973
_cell_length_b 10.550416
_cell_length_c 12.434190
_cell_angle_alpha 90.000000
_cell_angle_beta 90.000000
_cell_angle_gamma 90.000000
_cell_volume 1618.305438
_symmetry_space_group_name_H-M "P B A M"
_symmetry_group_IT_number 55
_symmetry_cell_setting 'orthorhombic'
loop_
_space_group_symop_operation_xyz
x,y,z
-x,-y,z
1/2+x,1/2-y,-z
1/2-x,1/2+y,-z
-x,-y,-z
x,y,-z
1/2-x,1/2+y,z
1/2+x,1/2-y,z
loop_
_atom_site_type_symbol
_atom_site_label
_atom_site_fract_x
_atom_site_fract_y
_atom_site_fract_z
Si Si1 0.619036 0.563122 0.623608
Si Si2 0.500000 0.000000 0.500000
Si Si3 0.273073 0.034420 0.193645
Si Si4 0.532253 0.824512 0.297019
Si Si5 0.355016 0.773876 0.881676
O O1 0.500000 0.500000 0.629255
O O2 0.656040 0.560160 0.500000
O O3 0.702311 0.491326 0.699840
O O4 0.605068 0.706032 0.664971
O O5 0.488953 0.891301 0.404374
O O6 0.390733 0.080355 0.231573
O O7 0.216975 0.148171 0.129795
O O8 0.284685 0.901822 0.131935
O O9 0.439848 0.776683 0.216239
O O10 0.407404 0.775596 0.000000
#
# Coordination Sequence:
#
# PCOD9429145 Si02
#       5
#     8   2   8   8   8
#     4  11  24  42  69 105 143 179 228 292 353 422
#     4  12  24  44  72 104 142 182 230 304 350 430
#     4  12  25  46  71 105 139 187 239 289 363 419
#     4  12  25  45  72 105 143 186 235 289 360 427
#     4  12  27  47  72 103 143 188 242 300 350 424
#
# _framework density 21.009630000000001
#
# number of rings (size 3 to 8) (size 9 to 14) (size 15 to 20)
#    0.000    0.235    8.235    0.706    1.647    2.824 
#    0.000    1.176    0.000    0.000    0.000    0.000 
#    0.000    0.000    0.000    0.000    0.000    0.000 
#
# Total GULP energy -189696.624512 kJ/mol
# GULP energy per Si atom -5579.312486 kJ/mol
# Density = 2.096181 g / cm^3
# Si number density = 21.009630 Si / 1000 Ang^3
#
#
#
# Elastic Constant Matrix: (Units=GPa)
#
#
# Indices 1 2 3 4 5 6 
#
# 1 50.4673 9.4663 30.7910 0.0000 0.0000 0.0000
# 2 9.4663 120.2096 32.6413 0.0000 0.0000 0.0000
# 3 30.7910 32.6413 152.3244 0.0000 0.0000 0.0000
# 4 0.0000 0.0000 0.0000 -0.0760 0.0000 0.0000
# 5 0.0000 0.0000 0.0000 0.0000 19.7034 0.0000
# 6 0.0000 0.0000 0.0000 0.0000 0.0000 33.1086
#
#
#
# Elastic Compliance Matrix: (Units=1/GPa)
#
#
# Indices 1 2 3 4 5 6 
#
# 1 0.022640 -0.000574 -0.004453 0.000000 0.000000 0.000000
# 2 -0.000574 0.008847 -0.001780 0.000000 0.000000 0.000000
# 3 -0.004453 -0.001780 0.007847 0.000000 0.000000 0.000000
# 4 0.000000 0.000000 0.000000-13.159119 0.000000 0.000000
# 5 0.000000 0.000000 0.000000 0.000000 0.050753 0.000000
# 6 0.000000 0.000000 0.000000 0.000000 0.000000 0.030204
#
#
# Mechanical properties :
#
#
# Convention : Reuss Voigt Hill
#
# Bulk Modulus (GPa) = 38.88100 52.08872 45.48486
# Shear Modulus (GPa) = -0.38412 27.22070 13.41829
#
# Velocity S-wave (km/s) = -0.42805 3.60339 2.52994
# Velocity P-wave (km/s) = 4.27810 6.49301 5.49824
#
# Compressibility (1/GPa) = 0.02571950
#
# Stress axis : x y z
#
# Youngs Moduli (GPa) = 44.17057 113.02901 127.44401
#
# Poissons Ratio (x) = 0.06483 0.56757
# Poissons Ratio (y) = 0.02533 0.22684
# Poissons Ratio (z) = 0.19671 0.20118
#
# Static dielectric constant tensor:
#      x y z
#    x 1.752230 0.000000 0.000000 
#    y 0.000000 1.801920 0.000000 
#    z 0.000000 0.000000 1.714270 
# 
# From -- ./inp_files/12847.got.cif
#   From: 2010.05.17/outbox.cif.g08.bks.cpg/sg55_7_cif.got.tgz:12847.got - 2010.06.03 13:27:54.
