data_PCOD9429851
_publ_section_title
;
Structure prediction by ZEFSAII (Michael W. Deem and Ramdas Pophale) SiO2 
 PCOD9429851
Probable space group: P C C N
;
_chemical_formula_sum "Si O2"
_cell_formula_units_Z 56
_cell_length_a 20.261393
_cell_length_b 18.805126
_cell_length_c 8.679498
_cell_angle_alpha 90.000000
_cell_angle_beta 90.000000
_cell_angle_gamma 90.000000
_cell_volume 3307.045388
_symmetry_space_group_name_H-M "P C C N"
_symmetry_group_IT_number 56
_symmetry_cell_setting 'orthorhombic'
loop_
_space_group_symop_operation_xyz
x,y,z
1/2-x,1/2-y,z
1/2+x,-y,1/2-z
-x,1/2+y,1/2-z
-x,-y,-z
1/2+x,1/2+y,-z
1/2-x,y,1/2+z
x,1/2-y,1/2+z
loop_
_atom_site_type_symbol
_atom_site_label
_atom_site_fract_x
_atom_site_fract_y
_atom_site_fract_z
Si Si1 0.568763 0.513897 0.094711
Si Si2 0.012337 0.045373 0.350452
Si Si3 0.987467 0.306503 0.756216
Si Si4 0.993128 0.656808 0.604324
Si Si5 0.667761 0.300533 0.320055
Si Si6 0.709837 0.155345 0.166293
Si Si7 0.886570 0.447332 0.317252
O O1 0.552900 0.470540 0.247331
O O2 0.565167 0.598279 0.121108
O O3 0.500000 0.500000 0.000000
O O4 0.624374 0.480272 0.987243
O O5 0.018796 0.129744 0.356416
O O6 0.076497 0.010286 0.273308
O O7 0.000000 0.000000 0.500000
O O8 0.014445 0.229269 0.801683
O O9 0.998060 0.324321 0.576127
O O10 0.909793 0.307428 0.795097
O O11 0.059145 0.616044 0.663637
O O12 0.684959 0.218689 0.279815
O O13 0.711915 0.344338 0.197210
O O14 0.689125 0.323305 0.492822
O O15 0.674378 0.084641 0.225567
#
# Coordination Sequence:
#
# PCOD9429851 Si02
#       7
#     8   8   8   8   8   8   8
#     4   8  16  33  44  61  89 124 168 186 249 296
#     4  10  19  29  47  68  89 124 167 207 245 291
#     4  12  20  31  47  69  98 123 171 205 246 291
#     4  10  20  29  47  69  90 132 162 201 243 298
#     4  11  23  31  46  70  93 131 170 209 240 275
#     4  11  22  34  47  66  97 131 172 204 238 290
#     4  10  18  36  47  60  94 135 170 194 248 295
#
# _framework density 16.933544999999999
#
# number of rings (size 3 to 8) (size 9 to 14) (size 15 to 20)
#    0.000    2.000    5.714    3.429    6.000    0.000 
#    0.000    0.000    0.000    0.000    0.000    0.000 
#    0.000    0.000    0.000   36.000    0.286    0.000 
#
# Total GULP energy -311952.907678 kJ/mol
# GULP energy per Si atom -5570.587637 kJ/mol
# Density = 1.689500 g / cm^3
# Si number density = 16.933545 Si / 1000 Ang^3
#
#
#
# Elastic Constant Matrix: (Units=GPa)
#
#
# Indices 1 2 3 4 5 6 
#
# 1 20.6858 9.5040 -8.3835 0.0000 0.0000 0.0000
# 2 9.5040 112.2933 -5.7074 0.0000 0.0000 0.0000
# 3 -8.3835 -5.7074 33.8018 0.0000 0.0000 0.0000
# 4 0.0000 0.0000 0.0000 28.5718 0.0000 0.0000
# 5 0.0000 0.0000 0.0000 0.0000 10.4171 0.0000
# 6 0.0000 0.0000 0.0000 0.0000 0.0000 26.4815
#
#
#
# Elastic Compliance Matrix: (Units=1/GPa)
#
#
# Indices 1 2 3 4 5 6 
#
# 1 0.055497 -0.004032 0.013084 0.000000 0.000000 0.000000
# 2 -0.004032 0.009275 0.000566 0.000000 0.000000 0.000000
# 3 0.013084 0.000566 0.032925 0.000000 0.000000 0.000000
# 4 0.000000 0.000000 0.000000 0.035000 0.000000 0.000000
# 5 0.000000 0.000000 0.000000 0.000000 0.095996 0.000000
# 6 0.000000 0.000000 0.000000 0.000000 0.000000 0.037762
#
#
# Mechanical properties :
#
#
# Convention : Reuss Voigt Hill
#
# Bulk Modulus (GPa) = 8.55195 17.51191 13.03193
# Shear Modulus (GPa) = 17.47043 24.51858 20.99450
#
# Velocity S-wave (km/s) = 3.21550 3.80929 3.52492
# Velocity P-wave (km/s) = 4.34134 5.45084 4.92741
#
# Compressibility (1/GPa) = 0.11693245
#
# Stress axis : x y z
#
# Youngs Moduli (GPa) = 18.01891 107.81348 30.37225
#
# Poissons Ratio (x) = 0.43471 -0.39738
# Poissons Ratio (y) = 0.07265 -0.01719
# Poissons Ratio (z) = -0.23575 -0.06103
#
# Static dielectric constant tensor:
#      x y z
#    x 1.584790 0.000000 0.000000 
#    y 0.000000 1.615910 0.000000 
#    z 0.000000 0.000000 1.625780 
# 
# From -- ./inp_files/4847.got.cif
#   From: 2010.05.17/outbox.cif.g08.bks.cpg/sg56_3_cif.got.tgz:4847.got - 2010.06.03 13:42:01.
