data_PCOD9429750
_publ_section_title
;
Structure prediction by ZEFSAII (Michael W. Deem and Ramdas Pophale) SiO2 
 PCOD9429750
Probable space group: P C C N
;
_chemical_formula_sum "Si O2"
_cell_formula_units_Z 32
_cell_length_a 17.845065
_cell_length_b 6.830044
_cell_length_c 9.961363
_cell_angle_alpha 90.000000
_cell_angle_beta 90.000000
_cell_angle_gamma 90.000000
_cell_volume 1214.116614
_symmetry_space_group_name_H-M "P C C N"
_symmetry_group_IT_number 56
_symmetry_cell_setting 'orthorhombic'
loop_
_space_group_symop_operation_xyz
x,y,z
1/2-x,1/2-y,z
1/2+x,-y,1/2-z
-x,1/2+y,1/2-z
-x,-y,-z
1/2+x,1/2+y,-z
1/2-x,y,1/2+z
x,1/2-y,1/2+z
loop_
_atom_site_type_symbol
_atom_site_label
_atom_site_fract_x
_atom_site_fract_y
_atom_site_fract_z
Si Si1 0.226586 0.521418 0.170428
Si Si2 0.989971 0.768143 0.537555
Si Si3 0.084011 0.814902 0.800193
Si Si4 0.163360 0.075230 0.393074
O O1 0.250000 0.750000 0.159236
O O2 0.146075 0.533939 0.246006
O O3 0.289869 0.412657 0.256444
O O4 0.215947 0.441703 0.021870
O O5 0.040521 0.740163 0.669002
O O6 0.020056 0.643261 0.411067
O O7 0.902153 0.770358 0.574850
O O8 0.000000 0.000000 0.500000
O O9 0.128109 0.641064 0.873772
#
# Coordination Sequence:
#
# PCOD9429750 Si02
#       4
#     8   8   8   8
#     4  10  18  32  57  88 113 146 190 248 294 330
#     4  10  20  37  55  89 119 151 193 244 296 348
#     4  10  18  34  60  83 118 148 192 249 287 346
#     4  10  21  34  57  88 119 145 190 244 296 347
#
# _framework density 26.356612999999999
#
# number of rings (size 3 to 8) (size 9 to 14) (size 15 to 20)
#    0.000    2.000    5.000    2.250    3.500    0.000 
#    0.000    7.500    0.000    4.500    0.000    0.000 
#    0.000    0.000    0.000    0.000    0.000    0.000 
#
# Total GULP energy -179142.302450 kJ/mol
# GULP energy per Si atom -5598.196952 kJ/mol
# Density = 2.629662 g / cm^3
# Si number density = 26.356613 Si / 1000 Ang^3
#
#
#
# Elastic Constant Matrix: (Units=GPa)
#
#
# Indices 1 2 3 4 5 6 
#
# 1 120.8473 12.0783 60.1124 0.0000 0.0000 0.0000
# 2 12.0783 50.5458 -0.4868 0.0000 0.0000 0.0000
# 3 60.1124 -0.4868 173.5514 0.0000 0.0000 0.0000
# 4 0.0000 0.0000 0.0000 8.5987 0.0000 0.0000
# 5 0.0000 0.0000 0.0000 0.0000 77.8166 0.0000
# 6 0.0000 0.0000 0.0000 0.0000 0.0000 54.2677
#
#
#
# Elastic Compliance Matrix: (Units=1/GPa)
#
#
# Indices 1 2 3 4 5 6 
#
# 1 0.010303 -0.002496 -0.003576 0.000000 0.000000 0.000000
# 2 -0.002496 0.020389 0.000922 0.000000 0.000000 0.000000
# 3 -0.003576 0.000922 0.007003 0.000000 0.000000 0.000000
# 4 0.000000 0.000000 0.000000 0.116296 0.000000 0.000000
# 5 0.000000 0.000000 0.000000 0.000000 0.012851 0.000000
# 6 0.000000 0.000000 0.000000 0.000000 0.000000 0.018427
#
#
# Mechanical properties :
#
#
# Convention : Reuss Voigt Hill
#
# Bulk Modulus (GPa) = 36.50276 54.26135 45.38205
# Shear Modulus (GPa) = 24.42577 46.35265 35.38921
#
# Velocity S-wave (km/s) = 3.04755 4.19820 3.66827
# Velocity P-wave (km/s) = 5.12474 6.64319 5.93275
#
# Compressibility (1/GPa) = 0.02739519
#
# Stress axis : x y z
#
# Youngs Moduli (GPa) = 97.05900 49.04493 142.79514
#
# Poissons Ratio (x) = 0.12244 0.51058
# Poissons Ratio (y) = 0.24230 -0.13164
# Poissons Ratio (z) = 0.34705 -0.04521
#
# Static dielectric constant tensor:
#      x y z
#    x 2.115710 0.000000 0.000000 
#    y 0.000000 2.366530 0.000000 
#    z 0.000000 0.000000 1.965510 
# 
# From -- ./inp_files/1921.got.cif
#   From: 2010.05.17/outbox.cif.g08.bks.cpg/sg56_1_cif.got.tgz:1921.got - 2010.06.03 13:42:01.
