data_PCOD9429521
_publ_section_title
;
Structure prediction by ZEFSAII (Michael W. Deem and Ramdas Pophale) SiO2 
 PCOD9429521
Probable space group: P C C N
;
_chemical_formula_sum "Si O2"
_cell_formula_units_Z 48
_cell_length_a 16.442119
_cell_length_b 26.034489
_cell_length_c 5.382039
_cell_angle_alpha 90.000000
_cell_angle_beta 90.000000
_cell_angle_gamma 90.000000
_cell_volume 2303.847273
_symmetry_space_group_name_H-M "P C C N"
_symmetry_group_IT_number 56
_symmetry_cell_setting 'orthorhombic'
loop_
_space_group_symop_operation_xyz
x,y,z
1/2-x,1/2-y,z
1/2+x,-y,1/2-z
-x,1/2+y,1/2-z
-x,-y,-z
1/2+x,1/2+y,-z
1/2-x,y,1/2+z
x,1/2-y,1/2+z
loop_
_atom_site_type_symbol
_atom_site_label
_atom_site_fract_x
_atom_site_fract_y
_atom_site_fract_z
Si Si1 0.765076 0.557863 0.019581
Si Si2 0.201156 0.555877 0.475066
Si Si3 0.047408 0.447707 0.035096
Si Si4 0.483804 0.898906 0.463048
Si Si5 0.279459 0.692197 0.191732
Si Si6 0.037178 0.783112 0.060579
O O1 0.752708 0.588051 0.270931
O O2 0.707137 0.507070 0.022219
O O3 0.858118 0.541209 0.006164
O O4 0.248979 0.569888 0.726915
O O5 0.111024 0.580810 0.473584
O O6 0.028986 0.427977 0.311865
O O7 0.000000 0.500000 0.000000
O O8 0.015886 0.411277 0.812914
O O9 0.500804 0.838993 0.518795
O O10 0.250000 0.750000 0.242328
O O11 0.274574 0.669089 0.468651
O O12 0.368551 0.699316 0.082727
O O13 0.022142 0.753020 0.320096
#
# Coordination Sequence:
#
# PCOD9429521 Si02
#       6
#     8   8   8   8   8   8
#     4  10  19  35  60  85 117 158 197 242 310 364
#     4  10  20  37  53  81 118 156 211 254 299 354
#     4  12  23  41  64  88 130 164 206 259 319 374
#     4  12  26  40  61  95 122 171 217 257 307 383
#     4  10  16  30  49  73 101 147 210 242 303 336
#     4  12  23  39  58  79 121 160 209 259 300 346
#
# _framework density 20.834714999999999
#
# number of rings (size 3 to 8) (size 9 to 14) (size 15 to 20)
#    0.000    1.000    3.333    7.500    0.000    1.333 
#    0.000    0.000    0.000    0.000    0.000    0.000 
#    0.000   46.667    0.000    0.000    0.000    0.000 
#
# Total GULP energy -267894.477615 kJ/mol
# GULP energy per Si atom -5581.134950 kJ/mol
# Density = 2.078729 g / cm^3
# Si number density = 20.834715 Si / 1000 Ang^3
#
#
#
# Elastic Constant Matrix: (Units=GPa)
#
#
# Indices 1 2 3 4 5 6 
#
# 1 58.9523 0.2352 25.0750 0.0000 0.0000 0.0000
# 2 0.2352 52.8026 -1.7077 0.0000 0.0000 0.0000
# 3 25.0750 -1.7077 167.8756 0.0000 0.0000 0.0000
# 4 0.0000 0.0000 0.0000 22.1938 0.0000 0.0000
# 5 0.0000 0.0000 0.0000 0.0000 35.3948 0.0000
# 6 0.0000 0.0000 0.0000 0.0000 0.0000 5.0100
#
#
#
# Elastic Compliance Matrix: (Units=1/GPa)
#
#
# Indices 1 2 3 4 5 6 
#
# 1 0.018115 -0.000168 -0.002708 0.000000 0.000000 0.000000
# 2 -0.000168 0.018946 0.000218 0.000000 0.000000 0.000000
# 3 -0.002708 0.000218 0.006363 0.000000 0.000000 0.000000
# 4 0.000000 0.000000 0.000000 0.045058 0.000000 0.000000
# 5 0.000000 0.000000 0.000000 0.000000 0.028253 0.000000
# 6 0.000000 0.000000 0.000000 0.000000 0.000000 0.199602
#
#
# Mechanical properties :
#
#
# Convention : Reuss Voigt Hill
#
# Bulk Modulus (GPa) = 26.24051 36.31505 31.27778
# Shear Modulus (GPa) = 14.95412 29.58825 22.27119
#
# Velocity S-wave (km/s) = 2.68199 3.77257 3.27302
# Velocity P-wave (km/s) = 4.71304 6.03691 5.41558
#
# Compressibility (1/GPa) = 0.03810902
#
# Stress axis : x y z
#
# Youngs Moduli (GPa) = 55.20238 52.78087 157.14824
#
# Poissons Ratio (x) = 0.00888 0.42548
# Poissons Ratio (y) = 0.00929 -0.03424
# Poissons Ratio (z) = 0.14946 -0.01150
#
# Static dielectric constant tensor:
#      x y z
#    x 1.705150 0.000000 0.000000 
#    y 0.000000 1.818400 0.000000 
#    z 0.000000 0.000000 1.892250 
# 
# From -- ./inp_files/530.got.cif
#   From: 2010.05.17/outbox.cif.g08.bks.cpg/sg56_1_cif.got.tgz:530.got - 2010.06.03 13:42:01.
