data_PCOD9429353
_publ_section_title
;
Structure prediction by ZEFSAII (Michael W. Deem and Ramdas Pophale) SiO2 
 PCOD9429353
Probable space group: P B A M
;
_chemical_formula_sum "Si O2"
_cell_formula_units_Z 64
_cell_length_a 24.000000
_cell_length_b 15.000000
_cell_length_c 9.000000
_cell_angle_alpha 90.000000
_cell_angle_beta 90.000000
_cell_angle_gamma 90.000000
_cell_volume 3240.000000
_symmetry_space_group_name_H-M "P B A M"
_symmetry_group_IT_number 55
_symmetry_cell_setting 'orthorhombic'
loop_
_space_group_symop_operation_xyz
x,y,z
-x,-y,z
1/2+x,1/2-y,-z
1/2-x,1/2+y,-z
-x,-y,-z
x,y,-z
1/2-x,1/2+y,z
1/2+x,1/2-y,z
loop_
_atom_site_type_symbol
_atom_site_label
_atom_site_fract_x
_atom_site_fract_y
_atom_site_fract_z
Si Si1 0.199230 0.689100 0.822155
Si Si2 0.081285 0.750289 0.818614
Si Si3 0.122058 0.335760 0.172771
Si Si4 0.671659 0.509636 0.670248
Si Si5 0.713362 0.017718 0.821330
Si Si6 0.689386 0.297667 0.666639
Si Si7 0.497220 0.097421 0.823662
Si Si8 0.445562 0.445084 0.179476
O O1 0.145186 0.742623 0.769094
O O2 0.197363 0.584139 0.778506
O O3 0.257189 0.726245 0.764302
O O4 0.199421 0.691731 0.000000
O O5 0.048240 0.664595 0.762360
O O6 0.050445 0.841073 0.778929
O O7 0.081692 0.748061 0.000000
O O8 0.163413 0.415762 0.218105
O O9 0.136075 0.250614 0.268863
O O10 0.058340 0.362352 0.185349
O O11 0.133668 0.316196 0.000000
O O12 0.668455 0.540954 0.500000
O O13 0.727609 0.544532 0.750041
O O14 0.680706 0.403080 0.669902
O O15 0.613829 0.526267 0.754140
O O16 0.719672 0.018372 0.000000
O O17 0.700258 0.268575 0.500000
O O18 0.500000 0.000000 0.755496
O O19 0.483057 0.087075 0.000000
O O20 0.500000 0.500000 0.228785
O O21 0.442460 0.452757 0.000000
#
# Coordination Sequence:
#
# PCOD9429353 Si02
#       8
#     8   8   8   8   8   8   8   8
#     4   9  17  33  56  79 108 142 180 225 274 324
#     4   9  18  32  53  82 113 144 181 226 273 325
#     4  10  20  32  55  85 112 142 180 221 270 331
#     4  10  22  39  57  77 106 147 188 229 279 330
#     4   9  18  33  54  83 112 141 177 224 276 330
#     4  10  22  37  53  77 110 144 182 227 274 328
#     4   9  17  31  54  85 116 144 177 222 273 325
#     4  10  22  37  56  81 111 146 185 233 282 329
#
# _framework density 19.753086
#
# number of rings (size 3 to 8) (size 9 to 14) (size 15 to 20)
#    0.000    2.500    0.000    1.500    3.500    5.250 
#    0.000    0.000    0.000    1.125    0.000    0.000 
#    0.000    0.000    0.000    0.000    0.000    0.000 
#
# Total GULP energy -356910.912552 kJ/mol
# GULP energy per Si atom -5576.733009 kJ/mol
# Density = 1.970813 g / cm^3
# Si number density = 19.753086 Si / 1000 Ang^3
#
#
#
# Elastic Constant Matrix: (Units=GPa)
#
#
# Indices 1 2 3 4 5 6 
#
# 1 -17.5423 20.9569 8.6893 0.0000 0.0000 0.0000
# 2 20.9569 40.9262 12.8268 0.0000 0.0000 0.0000
# 3 8.6893 12.8268 -0.0783 0.0000 0.0000 0.0000
# 4 0.0000 0.0000 0.0000 46.6687 0.0000 0.0000
# 5 0.0000 0.0000 0.0000 0.0000 -15.8495 0.0000
# 6 0.0000 0.0000 0.0000 0.0000 0.0000 12.4033
#
#
#
# Elastic Compliance Matrix: (Units=1/GPa)
#
#
# Indices 1 2 3 4 5 6 
#
# 1 -0.036797 0.024812 -0.019045 0.000000 0.000000 0.000000
# 2 0.024812 -0.016263 0.089314 0.000000 0.000000 0.000000
# 3 -0.019045 0.089314 -0.253855 0.000000 0.000000 0.000000
# 4 0.000000 0.000000 0.000000 0.021428 0.000000 0.000000
# 5 0.000000 0.000000 0.000000 0.000000 -0.063093 0.000000
# 6 0.000000 0.000000 0.000000 0.000000 0.000000 0.080623
#
#
# Mechanical properties :
#
#
# Convention : Reuss Voigt Hill
#
# Bulk Modulus (GPa) = -8.56495 12.02795 1.73150
# Shear Modulus (GPa) = -10.05961 7.36667 -1.34647
#
# Velocity S-wave (km/s) = -2.25914 1.93325 -0.82652
# Velocity P-wave (km/s) = 3.33922 3.32951 0.17991
#
# Compressibility (1/GPa) = -0.11675486
#
# Stress axis : x y z
#
# Youngs Moduli (GPa) = -27.17581 -61.48933 -3.93925
#
# Poissons Ratio (x) = 1.52565 -0.07502
# Poissons Ratio (y) = 0.67428 0.35183
# Poissons Ratio (z) = -0.51756 5.49184
#
# Static dielectric constant tensor:
#      x y z
#    x 1.676490 0.000000 0.000000 
#    y 0.000000 1.739170 0.000000 
#    z 0.000000 0.000000 1.680360 
# 
# From -- ./inp_files/6523.got.cif
#   From: 2010.05.17/outbox.ucp.g08.bks.cvg/sg55_4_cif.got.tgz:6523.got - 2010.06.11 16:36:00.
