data_PCOD9429913
_publ_section_title
;
Structure prediction by ZEFSAII (Michael W. Deem and Ramdas Pophale) SiO2 
 PCOD9429913
Probable space group: P C C N
;
_chemical_formula_sum "Si O2"
_cell_formula_units_Z 36
_cell_length_a 22.723535
_cell_length_b 5.045268
_cell_length_c 12.379048
_cell_angle_alpha 90.000000
_cell_angle_beta 90.000000
_cell_angle_gamma 90.000000
_cell_volume 1419.212348
_symmetry_space_group_name_H-M "P C C N"
_symmetry_group_IT_number 56
_symmetry_cell_setting 'orthorhombic'
loop_
_space_group_symop_operation_xyz
x,y,z
1/2-x,1/2-y,z
1/2+x,-y,1/2-z
-x,1/2+y,1/2-z
-x,-y,-z
1/2+x,1/2+y,-z
1/2-x,y,1/2+z
x,1/2-y,1/2+z
loop_
_atom_site_type_symbol
_atom_site_label
_atom_site_fract_x
_atom_site_fract_y
_atom_site_fract_z
Si Si1 0.631079 0.055090 0.606990
Si Si2 0.808192 0.843899 0.439428
Si Si3 0.953566 0.321442 0.434929
Si Si4 0.250000 0.750000 0.393891
Si Si5 0.577499 0.657309 0.312472
O O1 0.659122 0.866836 0.515989
O O2 0.586711 0.905713 0.687057
O O3 0.592903 0.249306 0.531212
O O4 0.690361 0.161282 0.665565
O O5 0.750000 0.750000 0.374926
O O6 0.859479 0.930560 0.361212
O O7 0.778672 0.039688 0.524555
O O8 0.931927 0.536877 0.344648
O O9 0.000000 0.500000 0.500000
O O10 0.966928 0.049183 0.371181
#
# Coordination Sequence:
#
# PCOD9429913 Si02
#       5
#     8   8   8   4   8
#     4  10  23  39  63  93 130 166 217 263 321 391
#     4   9  20  37  58  91 131 168 206 259 314 388
#     4  11  25  45  66  94 130 168 219 278 322 381
#     4  10  18  38  62  86 136 164 202 264 318 384
#     4  11  24  41  67  94 123 171 215 263 327 386
#
# _framework density 25.366182999999999
#
# number of rings (size 3 to 8) (size 9 to 14) (size 15 to 20)
#    0.000    1.778    2.222    0.667    3.111    5.333 
#    0.000    0.000    0.000    0.000    0.000    0.000 
#    0.000    0.000    0.000    0.000    0.000    0.000 
#
# Total GULP energy -200677.993844 kJ/mol
# GULP energy per Si atom -5574.388718 kJ/mol
# Density = 2.530845 g / cm^3
# Si number density = 25.366183 Si / 1000 Ang^3
#
#
#
# Elastic Constant Matrix: (Units=GPa)
#
#
# Indices 1 2 3 4 5 6 
#
# 1 72.8291 -2.3771 13.4302 0.0000 0.0000 0.0000
# 2 -2.3771 58.7274 -5.8897 0.0000 0.0000 0.0000
# 3 13.4302 -5.8897 67.6277 0.0000 0.0000 0.0000
# 4 0.0000 0.0000 0.0000 46.6947 0.0000 0.0000
# 5 0.0000 0.0000 0.0000 0.0000 14.0713 0.0000
# 6 0.0000 0.0000 0.0000 0.0000 0.0000 35.0112
#
#
#
# Elastic Compliance Matrix: (Units=1/GPa)
#
#
# Indices 1 2 3 4 5 6 
#
# 1 0.014258 0.000296 -0.002806 0.000000 0.000000 0.000000
# 2 0.000296 0.017184 0.001438 0.000000 0.000000 0.000000
# 3 -0.002806 0.001438 0.015469 0.000000 0.000000 0.000000
# 4 0.000000 0.000000 0.000000 0.021416 0.000000 0.000000
# 5 0.000000 0.000000 0.000000 0.000000 0.071067 0.000000
# 6 0.000000 0.000000 0.000000 0.000000 0.000000 0.028562
#
#
# Mechanical properties :
#
#
# Convention : Reuss Voigt Hill
#
# Bulk Modulus (GPa) = 22.33800 23.27900 22.80850
# Shear Modulus (GPa) = 27.02376 32.09017 29.55697
#
# Velocity S-wave (km/s) = 3.26750 3.56065 3.41722
# Velocity P-wave (km/s) = 4.80216 5.10895 4.95793
#
# Compressibility (1/GPa) = 0.04476676
#
# Stress axis : x y z
#
# Youngs Moduli (GPa) = 70.13701 58.19371 64.64444
#
# Poissons Ratio (x) = -0.01721 0.18137
# Poissons Ratio (y) = -0.02074 -0.09295
# Poissons Ratio (z) = 0.19678 -0.08367
#
# Static dielectric constant tensor:
#      x y z
#    x -0.280180 0.000000 0.000000 
#    y 0.000000 2.027120 0.000000 
#    z 0.000000 0.000000 2.000190 
# 
# From -- ./inp_files/5533.got.cif
#   From: 2010.05.17/outbox.cif.g08.bks.cpg/sg56_3_cif.got.tgz:5533.got - 2010.06.03 13:42:01.
