data_PCOD9429004
_publ_section_title
;
Structure prediction by ZEFSAII (Michael W. Deem and Ramdas Pophale) SiO2 
 PCOD9429004
Probable space group: P B A M
;
_chemical_formula_sum "Si O2"
_cell_formula_units_Z 64
_cell_length_a 35.560687
_cell_length_b 11.496390
_cell_length_c 7.877236
_cell_angle_alpha 90.000000
_cell_angle_beta 90.000000
_cell_angle_gamma 90.000000
_cell_volume 3220.367891
_symmetry_space_group_name_H-M "P B A M"
_symmetry_group_IT_number 55
_symmetry_cell_setting 'orthorhombic'
loop_
_space_group_symop_operation_xyz
x,y,z
-x,-y,z
1/2+x,1/2-y,-z
1/2-x,1/2+y,-z
-x,-y,-z
x,y,-z
1/2-x,1/2+y,z
1/2+x,1/2-y,z
loop_
_atom_site_type_symbol
_atom_site_label
_atom_site_fract_x
_atom_site_fract_y
_atom_site_fract_z
Si Si1 0.277902 0.661475 0.206330
Si Si2 0.935445 0.720004 0.300768
Si Si3 0.081047 0.747121 0.694408
Si Si4 0.350471 0.373845 0.199871
Si Si5 0.265715 0.396045 0.207787
Si Si6 0.992728 0.130622 0.292231
Si Si7 0.457655 0.021107 0.194821
Si Si8 0.634885 0.373432 0.205102
O O1 0.260547 0.533750 0.258819
O O2 0.259535 0.784662 0.262918
O O3 0.322235 0.659600 0.251476
O O4 0.275764 0.660722 0.000000
O O5 0.940618 0.695077 0.500000
O O6 0.972220 0.790283 0.240065
O O7 0.935442 0.598846 0.204407
O O8 0.897820 0.793664 0.277277
O O9 0.085869 0.781626 0.500000
O O10 0.121316 0.768184 0.775853
O O11 0.065003 0.618201 0.706142
O O12 0.047370 0.824261 0.770797
O O13 0.308201 0.364928 0.265925
O O14 0.369724 0.492744 0.263464
O O15 0.345441 0.391976 0.000000
O O16 0.263556 0.396857 0.000000
O O17 0.991834 0.134171 0.500000
O O18 0.000000 0.000000 0.238640
O O19 0.500000 0.000000 0.262017
O O20 0.461462 0.060487 0.000000
O O21 0.632046 0.367050 0.000000
#
# Coordination Sequence:
#
# PCOD9429004 Si02
#       8
#     8   8   8   8   8   8   8   8
#     4   8  14  27  48  73 103 139 178 221 268 319
#     4  11  21  35  55  76 104 139 179 219 261 315
#     4  11  21  35  55  76 104 139 179 219 261 315
#     4   9  18  33  52  77 110 141 173 221 273 315
#     4   8  14  27  48  73 103 139 178 221 268 319
#     4   9  18  31  49  74 100 129 170 215 254 303
#     4  11  23  39  57  75 103 139 177 219 269 321
#     4   9  18  33  52  77 110 141 173 221 273 315
#
# _framework density 19.873505000000002
#
# number of rings (size 3 to 8) (size 9 to 14) (size 15 to 20)
#    0.000    2.500    1.250    3.375    0.000    2.000 
#    2.250    0.000    0.000    3.750    0.000    0.000 
#    0.000    0.000    0.000    0.000    0.000    0.000 
#
# Total GULP energy -356740.263169 kJ/mol
# GULP energy per Si atom -5574.066612 kJ/mol
# Density = 1.982827 g / cm^3
# Si number density = 19.873505 Si / 1000 Ang^3
#
#
#
# Elastic Constant Matrix: (Units=GPa)
#
#
# Indices 1 2 3 4 5 6 
#
# 1 53.7282 9.5035 2.4673 0.0000 0.0000 0.0000
# 2 9.5035 48.8827 -1.0043 0.0000 0.0000 0.0000
# 3 2.4673 -1.0043 22.8322 0.0000 0.0000 0.0000
# 4 0.0000 0.0000 0.0000 -4.5649 0.0000 0.0000
# 5 0.0000 0.0000 0.0000 0.0000 19.0188 0.0000
# 6 0.0000 0.0000 0.0000 0.0000 0.0000 38.8673
#
#
#
# Elastic Compliance Matrix: (Units=1/GPa)
#
#
# Indices 1 2 3 4 5 6 
#
# 1 0.019391 -0.003816 -0.002263 0.000000 0.000000 0.000000
# 2 -0.003816 0.021227 0.001346 0.000000 0.000000 0.000000
# 3 -0.002263 0.001346 0.044102 0.000000 0.000000 0.000000
# 4 0.000000 0.000000 0.000000 -0.219062 0.000000 0.000000
# 5 0.000000 0.000000 0.000000 0.000000 0.052580 0.000000
# 6 0.000000 0.000000 0.000000 0.000000 0.000000 0.025729
#
#
# Mechanical properties :
#
#
# Convention : Reuss Voigt Hill
#
# Bulk Modulus (GPa) = 13.28864 16.37512 14.83188
# Shear Modulus (GPa) = -232.74364 18.29599 -107.22382
#
# Velocity S-wave (km/s) = -10.83359 3.03747 -7.35325
# Velocity P-wave (km/s) = 12.23879 4.53422 8.03831
#
# Compressibility (1/GPa) = 0.07525222
#
# Stress axis : x y z
#
# Youngs Moduli (GPa) = 51.56979 47.11030 22.67496
#
# Poissons Ratio (x) = 0.17979 0.05132
# Poissons Ratio (y) = 0.19681 -0.03052
# Poissons Ratio (z) = 0.11672 -0.06341
#
# Static dielectric constant tensor:
#      x y z
#    x 1.679750 0.000000 0.000000 
#    y 0.000000 1.717460 0.000000 
#    z 0.000000 0.000000 1.715390 
# 
# From -- ./inp_files/10779.got.cif
#   From: 2010.05.17/outbox.cif.g08.bks.cpg/sg55_6_cif.got.tgz:10779.got - 2010.06.03 13:27:54.
