data_PCOD9429370
_publ_section_title
;
Structure prediction by ZEFSAII (Michael W. Deem and Ramdas Pophale) SiO2 
 PCOD9429370
Probable space group: P B A M
;
_chemical_formula_sum "Si O2"
_cell_formula_units_Z 56
_cell_length_a 15.000000
_cell_length_b 9.000000
_cell_length_c 21.000000
_cell_angle_alpha 90.000000
_cell_angle_beta 90.000000
_cell_angle_gamma 90.000000
_cell_volume 2835.000000
_symmetry_space_group_name_H-M "P B A M"
_symmetry_group_IT_number 55
_symmetry_cell_setting 'orthorhombic'
loop_
_space_group_symop_operation_xyz
x,y,z
-x,-y,z
1/2+x,1/2-y,-z
1/2-x,1/2+y,-z
-x,-y,-z
x,y,-z
1/2-x,1/2+y,z
1/2+x,1/2-y,z
loop_
_atom_site_type_symbol
_atom_site_label
_atom_site_fract_x
_atom_site_fract_y
_atom_site_fract_z
Si Si1 0.961254 0.664739 0.280907
Si Si2 0.873913 0.224654 0.636722
Si Si3 0.625252 0.779219 0.924725
Si Si4 0.958566 0.834899 0.848837
Si Si5 0.135472 0.396814 0.500000
Si Si6 0.704009 0.056794 0.363368
Si Si7 0.207179 0.046389 0.924454
Si Si8 0.444578 0.232645 0.500000
O O1 0.941042 0.754647 0.217433
O O2 0.872756 0.637809 0.322558
O O3 0.000000 0.500000 0.266761
O O4 0.038952 0.749554 0.320106
O O5 0.819993 0.382009 0.637901
O O6 0.803465 0.099780 0.657772
O O7 0.908894 0.196933 0.565019
O O8 0.533677 0.758531 0.886897
O O9 0.692879 0.909349 0.904028
O O10 0.681170 0.625842 0.916203
O O11 0.605501 0.794634 0.000000
O O12 0.868185 0.859157 0.888488
O O13 0.000000 0.000000 0.839457
O O14 0.192015 0.385895 0.564116
O O15 0.092808 0.562731 0.500000
O O16 0.051621 0.285049 0.500000
O O17 0.201709 0.079322 0.000000
#
# Coordination Sequence:
#
# PCOD9429370 Si02
#       8
#     8   8   8   8   4   8   8   4
#     4  10  22  38  53  73 104 143 180 212 252 309
#     4  10  20  35  56  79 103 135 174 216 262 311
#     4   9  18  34  56  81 107 135 170 213 260 308
#     4  10  21  36  55  77 105 141 176 212 258 306
#     4   9  15  30  57  80 101 132 171 213 260 314
#     4  10  20  35  56  79 103 135 174 216 262 311
#     4   9  18  34  56  81 107 135 170 213 260 308
#     4   9  15  30  57  80 101 132 171 213 260 314
#
# _framework density 19.753086
#
# number of rings (size 3 to 8) (size 9 to 14) (size 15 to 20)
#    0.000    2.429    1.429    0.857    0.000    5.143 
#    0.000    5.714    0.000    5.143    0.000    0.000 
#    0.000    0.000    0.000    0.000    0.000    0.000 
#
# Total GULP energy -312771.968875 kJ/mol
# GULP energy per Si atom -5585.213730 kJ/mol
# Density = 1.970813 g / cm^3
# Si number density = 19.753086 Si / 1000 Ang^3
#
#
#
# Elastic Constant Matrix: (Units=GPa)
#
#
# Indices 1 2 3 4 5 6 
#
# 1 6.8756 -17.6165 -13.0306 0.0000 0.0000 0.0000
# 2 -17.6165 -8.4638 6.1682 0.0000 0.0000 0.0000
# 3 -13.0306 6.1682 47.4719 0.0000 0.0000 0.0000
# 4 0.0000 0.0000 0.0000 10.1723 0.0000 0.0000
# 5 0.0000 0.0000 0.0000 0.0000 5.1519 0.0000
# 6 0.0000 0.0000 0.0000 0.0000 0.0000 34.1071
#
#
#
# Elastic Compliance Matrix: (Units=1/GPa)
#
#
# Indices 1 2 3 4 5 6 
#
# 1 0.032611 -0.056045 0.016233 0.000000 0.000000 0.000000
# 2 -0.056045 -0.011611 -0.013875 0.000000 0.000000 0.000000
# 3 0.016233 -0.013875 0.027324 0.000000 0.000000 0.000000
# 4 0.000000 0.000000 0.000000 0.098306 0.000000 0.000000
# 5 0.000000 0.000000 0.000000 0.000000 0.194105 0.000000
# 6 0.000000 0.000000 0.000000 0.000000 0.000000 0.029319
#
#
# Mechanical properties :
#
#
# Convention : Reuss Voigt Hill
#
# Bulk Modulus (GPa) = -16.93491 -0.34157 -8.63824
# Shear Modulus (GPa) = 10.92314 14.57710 12.75012
#
# Velocity S-wave (km/s) = 2.35411 2.71950 2.54338
# Velocity P-wave (km/s) = 1.09672 3.11249 2.05971
#
# Compressibility (1/GPa) = -0.05904961
#
# Stress axis : x y z
#
# Youngs Moduli (GPa) = 30.66484 -86.12629 36.59810
#
# Poissons Ratio (x) = -4.82693 -0.59411
# Poissons Ratio (y) = 1.71861 0.50780
# Poissons Ratio (z) = -0.49779 -1.19502
#
# Static dielectric constant tensor:
#      x y z
#    x 1.669270 0.000000 0.000000 
#    y 0.000000 1.699120 0.000000 
#    z 0.000000 0.000000 1.678960 
# 
# From -- ./inp_files/22656.got.cif
#   From: 2010.05.17/outbox.ucp.g08.bks.cvg/sg55_12_cif.got.tgz:22656.got - 2010.06.11 16:36:00.
