data_PCOD9429806
_publ_section_title
;
Structure prediction by ZEFSAII (Michael W. Deem and Ramdas Pophale) SiO2 
 PCOD9429806
Probable space group: P C C N
;
_chemical_formula_sum "Si O2"
_cell_formula_units_Z 64
_cell_length_a 17.416177
_cell_length_b 8.146412
_cell_length_c 22.505350
_cell_angle_alpha 90.000000
_cell_angle_beta 90.000000
_cell_angle_gamma 90.000000
_cell_volume 3193.044504
_symmetry_space_group_name_H-M "P C C N"
_symmetry_group_IT_number 56
_symmetry_cell_setting 'orthorhombic'
loop_
_space_group_symop_operation_xyz
x,y,z
1/2-x,1/2-y,z
1/2+x,-y,1/2-z
-x,1/2+y,1/2-z
-x,-y,-z
1/2+x,1/2+y,-z
1/2-x,y,1/2+z
x,1/2-y,1/2+z
loop_
_atom_site_type_symbol
_atom_site_label
_atom_site_fract_x
_atom_site_fract_y
_atom_site_fract_z
Si Si1 0.402665 0.162985 0.913825
Si Si2 0.974752 0.044022 0.331446
Si Si3 0.999691 0.339685 0.702435
Si Si4 0.174117 0.358172 0.511196
Si Si5 0.685977 0.557683 0.317259
Si Si6 0.758913 0.439279 0.089231
Si Si7 0.848260 0.581902 0.359533
Si Si8 0.648217 0.563207 0.181577
O O1 0.373977 0.287373 0.861816
O O2 0.484545 0.102160 0.891287
O O3 0.343761 0.011440 0.914695
O O4 0.390815 0.251272 0.977343
O O5 0.994437 0.851123 0.317632
O O6 0.882885 0.063550 0.334013
O O7 0.003489 0.144957 0.273853
O O8 0.071690 0.437992 0.674380
O O9 0.921342 0.431586 0.683571
O O10 0.250000 0.250000 0.526070
O O11 0.206595 0.475647 0.460421
O O12 0.146581 0.448404 0.570327
O O13 0.772549 0.501842 0.330202
O O14 0.669065 0.722754 0.353910
O O15 0.669965 0.607262 0.248900
O O16 0.750000 0.250000 0.080107
O O17 0.723399 0.484889 0.152612
#
# Coordination Sequence:
#
# PCOD9429806 Si02
#       8
#     8   8   8   8   8   8   8   8
#     4  10  20  34  61  82 112 149 196 236 291 337
#     4  10  19  35  53  85 118 153 188 242 298 344
#     4  10  21  34  57  81 123 153 185 244 295 347
#     4   9  18  36  59  82 107 149 197 241 274 342
#     4   9  19  30  57  83 114 145 188 235 285 349
#     4  10  21  35  59  84 115 146 187 243 289 341
#     4  10  18  34  59  81 109 154 196 226 290 344
#     4  10  20  36  55  89 113 148 193 234 292 353
#
# _framework density 20.043565999999998
#
# number of rings (size 3 to 8) (size 9 to 14) (size 15 to 20)
#    0.000    2.250    1.250    4.125    5.250    0.000 
#    0.000    5.000   11.000    0.000    0.000    0.000 
#    0.000    0.000    0.000    0.000    0.000    0.000 
#
# Total GULP energy -356943.187436 kJ/mol
# GULP energy per Si atom -5577.237304 kJ/mol
# Density = 1.999795 g / cm^3
# Si number density = 20.043566 Si / 1000 Ang^3
#
#
#
# Elastic Constant Matrix: (Units=GPa)
#
#
# Indices 1 2 3 4 5 6 
#
# 1 53.2130 -8.0424 28.1884 0.0000 0.0000 0.0000
# 2 -8.0424 35.7738 -8.1739 0.0000 0.0000 0.0000
# 3 28.1884 -8.1739 81.2418 0.0000 0.0000 0.0000
# 4 0.0000 0.0000 0.0000 19.6758 0.0000 0.0000
# 5 0.0000 0.0000 0.0000 0.0000 2.4394 0.0000
# 6 0.0000 0.0000 0.0000 0.0000 0.0000 13.9450
#
#
#
# Elastic Compliance Matrix: (Units=1/GPa)
#
#
# Indices 1 2 3 4 5 6 
#
# 1 0.023443 0.003492 -0.007783 0.000000 0.000000 0.000000
# 2 0.003492 0.029131 0.001719 0.000000 0.000000 0.000000
# 3 -0.007783 0.001719 0.015182 0.000000 0.000000 0.000000
# 4 0.000000 0.000000 0.000000 0.050824 0.000000 0.000000
# 5 0.000000 0.000000 0.000000 0.000000 0.409945 0.000000
# 6 0.000000 0.000000 0.000000 0.000000 0.000000 0.071710
#
#
# Mechanical properties :
#
#
# Convention : Reuss Voigt Hill
#
# Bulk Modulus (GPa) = 15.97091 21.57476 18.77283
# Shear Modulus (GPa) = 7.98405 17.76248 12.87326
#
# Velocity S-wave (km/s) = 1.99800 2.98013 2.53704
# Velocity P-wave (km/s) = 3.64802 4.75698 4.23892
#
# Compressibility (1/GPa) = 0.06261386
#
# Stress axis : x y z
#
# Youngs Moduli (GPa) = 42.65700 34.32733 65.86638
#
# Poissons Ratio (x) = -0.11987 0.51261
# Poissons Ratio (y) = -0.14896 -0.11325
# Poissons Ratio (z) = 0.33198 -0.05902
#
# Static dielectric constant tensor:
#      x y z
#    x 1.746510 0.000000 0.000000 
#    y 0.000000 1.995260 0.000000 
#    z 0.000000 0.000000 1.731590 
# 
# From -- ./inp_files/19311.got.cif
#   From: 2010.05.17/outbox.cif.g08.bks.cpg/sg56_10_cif.got.tgz:19311.got - 2010.06.03 13:42:01.
