data_PCOD9429849
_publ_section_title
;
Structure prediction by ZEFSAII (Michael W. Deem and Ramdas Pophale) SiO2 
 PCOD9429849
Probable space group: P C C N
;
_chemical_formula_sum "Si O2"
_cell_formula_units_Z 48
_cell_length_a 8.295715
_cell_length_b 13.251684
_cell_length_c 18.619521
_cell_angle_alpha 90.000000
_cell_angle_beta 90.000000
_cell_angle_gamma 90.000000
_cell_volume 2046.884790
_symmetry_space_group_name_H-M "P C C N"
_symmetry_group_IT_number 56
_symmetry_cell_setting 'orthorhombic'
loop_
_space_group_symop_operation_xyz
x,y,z
1/2-x,1/2-y,z
1/2+x,-y,1/2-z
-x,1/2+y,1/2-z
-x,-y,-z
1/2+x,1/2+y,-z
1/2-x,y,1/2+z
x,1/2-y,1/2+z
loop_
_atom_site_type_symbol
_atom_site_label
_atom_site_fract_x
_atom_site_fract_y
_atom_site_fract_z
Si Si1 0.011026 0.367954 0.730995
Si Si2 0.738337 0.985088 0.015199
Si Si3 0.565398 0.331770 0.474607
Si Si4 0.409742 0.319828 0.069029
Si Si5 0.775524 0.510754 0.678999
Si Si6 0.565291 0.787488 0.657622
O O1 0.068599 0.359443 0.649247
O O2 0.129190 0.433681 0.781452
O O3 0.013544 0.259174 0.766939
O O4 0.839450 0.421084 0.727561
O O5 0.587169 0.907316 0.015234
O O6 0.742159 0.021072 0.097636
O O7 0.879276 0.914147 0.984299
O O8 0.708244 0.087097 0.970702
O O9 0.551514 0.252430 0.539919
O O10 0.539953 0.264141 0.404023
O O11 0.250000 0.250000 0.067875
O O12 0.917169 0.593688 0.666938
O O13 0.750000 0.750000 0.640972
#
# Coordination Sequence:
#
# PCOD9429849 Si02
#       6
#     8   8   8   8   8   8
#     4  11  25  38  67  92 132 167 219 271 334 396
#     4  10  20  34  65  92 131 160 224 271 329 399
#     4  10  18  35  65  95 118 171 219 269 322 396
#     4  10  20  38  62  94 118 171 223 268 323 411
#     4  11  23  43  64  95 132 175 214 278 336 396
#     4  10  18  40  63  90 127 173 216 268 323 394
#
# _framework density 23.45027
#
# number of rings (size 3 to 8) (size 9 to 14) (size 15 to 20)
#    0.000    1.667    5.000    2.000    2.333    3.333 
#    0.000    3.333    0.000    0.000    0.000    0.000 
#    0.000    0.000    0.000    0.000    0.000    0.000 
#
# Total GULP energy -268242.030070 kJ/mol
# GULP energy per Si atom -5588.375626 kJ/mol
# Density = 2.339690 g / cm^3
# Si number density = 23.450270 Si / 1000 Ang^3
#
#
#
# Elastic Constant Matrix: (Units=GPa)
#
#
# Indices 1 2 3 4 5 6 
#
# 1 15.3873 18.5018 0.0362 0.0000 0.0000 0.0000
# 2 18.5018 39.4810 -6.5138 0.0000 0.0000 0.0000
# 3 0.0362 -6.5138 95.1132 0.0000 0.0000 0.0000
# 4 0.0000 0.0000 0.0000 28.8746 0.0000 0.0000
# 5 0.0000 0.0000 0.0000 0.0000 10.7108 0.0000
# 6 0.0000 0.0000 0.0000 0.0000 0.0000 39.0343
#
#
#
# Elastic Compliance Matrix: (Units=1/GPa)
#
#
# Indices 1 2 3 4 5 6 
#
# 1 0.151161 -0.071657 -0.004965 0.000000 0.000000 0.000000
# 2 -0.071657 0.059587 0.004108 0.000000 0.000000 0.000000
# 3 -0.004965 0.004108 0.010797 0.000000 0.000000 0.000000
# 4 0.000000 0.000000 0.000000 0.034632 0.000000 0.000000
# 5 0.000000 0.000000 0.000000 0.000000 0.093364 0.000000
# 6 0.000000 0.000000 0.000000 0.000000 0.000000 0.025618
#
#
# Mechanical properties :
#
#
# Convention : Reuss Voigt Hill
#
# Bulk Modulus (GPa) = 13.06898 19.33665 16.20281
# Shear Modulus (GPa) = 9.16264 24.92111 17.04188
#
# Velocity S-wave (km/s) = 1.97883 3.26348 2.69871
# Velocity P-wave (km/s) = 3.28727 4.73963 4.07862
#
# Compressibility (1/GPa) = 0.07651709
#
# Stress axis : x y z
#
# Youngs Moduli (GPa) = 6.61544 16.78225 92.61818
#
# Poissons Ratio (x) = 1.20257 0.45984
# Poissons Ratio (y) = 0.47404 -0.38048
# Poissons Ratio (z) = 0.03284 -0.06894
#
# Static dielectric constant tensor:
#      x y z
#    x 1.961940 0.000000 0.000000 
#    y 0.000000 1.873010 0.000000 
#    z 0.000000 0.000000 1.837090 
# 
# From -- ./inp_files/14849.got.cif
#   From: 2010.05.17/outbox.cif.g08.bks.cpg/sg56_8_cif.got.tgz:14849.got - 2010.06.03 13:42:01.
