data_PCOD9429897
_publ_section_title
;
Structure prediction by ZEFSAII (Michael W. Deem and Ramdas Pophale) SiO2 
 PCOD9429897
Probable space group: P C C N
;
_chemical_formula_sum "Si O2"
_cell_formula_units_Z 48
_cell_length_a 10.589789
_cell_length_b 20.512963
_cell_length_c 8.762463
_cell_angle_alpha 90.000000
_cell_angle_beta 90.000000
_cell_angle_gamma 90.000000
_cell_volume 1903.451874
_symmetry_space_group_name_H-M "P C C N"
_symmetry_group_IT_number 56
_symmetry_cell_setting 'orthorhombic'
loop_
_space_group_symop_operation_xyz
x,y,z
1/2-x,1/2-y,z
1/2+x,-y,1/2-z
-x,1/2+y,1/2-z
-x,-y,-z
1/2+x,1/2+y,-z
1/2-x,y,1/2+z
x,1/2-y,1/2+z
loop_
_atom_site_type_symbol
_atom_site_label
_atom_site_fract_x
_atom_site_fract_y
_atom_site_fract_z
Si Si1 0.760392 0.822794 0.779081
Si Si2 0.138455 0.801904 0.428942
Si Si3 0.198812 0.501598 0.193551
Si Si4 0.500494 0.806109 0.610579
Si Si5 0.671468 0.910774 0.053250
Si Si6 0.338150 0.912136 0.467219
O O1 0.750000 0.750000 0.844603
O O2 0.641837 0.816906 0.663933
O O3 0.738335 0.870118 0.919599
O O4 0.871066 0.854007 0.673300
O O5 0.250000 0.750000 0.410595
O O6 0.039551 0.762007 0.532889
O O7 0.077545 0.813251 0.266152
O O8 0.209177 0.868251 0.477253
O O9 0.248868 0.453585 0.326444
O O10 0.113528 0.464806 0.065572
O O11 0.141897 0.558235 0.299332
O O12 0.314455 0.532825 0.096058
O O13 0.452456 0.864426 0.504759
#
# Coordination Sequence:
#
# PCOD9429897 Si02
#       6
#     8   8   8   8   8   8
#     4  11  24  42  65  86 121 165 213 258 306 350
#     4  10  21  37  59  95 132 155 193 256 311 384
#     4   9  18  37  66  86 116 170 192 247 318 361
#     4  11  24  36  61  96 125 160 210 253 307 369
#     4   9  21  41  61  84 119 161 208 258 297 354
#     4  10  18  37  65  91 124 161 192 243 323 379
#
# _framework density 25.217341999999999
#
# number of rings (size 3 to 8) (size 9 to 14) (size 15 to 20)
#    0.000    2.000    1.667    2.000    7.000    0.000 
#    0.000    8.333    0.000    0.000    0.000    0.000 
#    0.000    0.000    0.000    0.000    0.000    0.000 
#
# Total GULP energy -267373.750587 kJ/mol
# GULP energy per Si atom -5570.286471 kJ/mol
# Density = 2.515995 g / cm^3
# Si number density = 25.217342 Si / 1000 Ang^3
#
#
#
# Elastic Constant Matrix: (Units=GPa)
#
#
# Indices 1 2 3 4 5 6 
#
# 1 61.4073 14.9591 10.5122 0.0000 0.0000 0.0000
# 2 14.9591 122.9919 57.0658 0.0000 0.0000 0.0000
# 3 10.5122 57.0658 144.2183 0.0000 0.0000 0.0000
# 4 0.0000 0.0000 0.0000 -693.7927 0.0000 0.0000
# 5 0.0000 0.0000 0.0000 0.0000 25.7306 0.0000
# 6 0.0000 0.0000 0.0000 0.0000 0.0000 7.7736
#
#
#
# Elastic Compliance Matrix: (Units=1/GPa)
#
#
# Indices 1 2 3 4 5 6 
#
# 1 0.016812 -0.001808 -0.000510 0.000000 0.000000 0.000000
# 2 -0.001808 0.010154 -0.003886 0.000000 0.000000 0.000000
# 3 -0.000510 -0.003886 0.008509 0.000000 0.000000 0.000000
# 4 0.000000 0.000000 0.000000 -0.001441 0.000000 0.000000
# 5 0.000000 0.000000 0.000000 0.000000 0.038864 0.000000
# 6 0.000000 0.000000 0.000000 0.000000 0.000000 0.128641
#
#
# Mechanical properties :
#
#
# Convention : Reuss Voigt Hill
#
# Bulk Modulus (GPa) = 43.35274 54.85464 49.10369
# Shear Modulus (GPa) = 22.55953 -115.65235 -46.54641
#
# Velocity S-wave (km/s) = 2.99424 -6.77951 -4.30095
# Velocity P-wave (km/s) = 5.40212 6.28350 2.26931
#
# Compressibility (1/GPa) = 0.02306659
#
# Stress axis : x y z
#
# Youngs Moduli (GPa) = 59.47958 98.48818 117.52678
#
# Poissons Ratio (x) = 0.17809 0.05994
# Poissons Ratio (y) = 0.10755 0.45669
# Poissons Ratio (z) = 0.03033 0.38271
#
# Static dielectric constant tensor:
#      x y z
#    x 2.141430 0.000000 0.000000 
#    y 0.000000 2.255590 0.000000 
#    z 0.000000 0.000000 1.928820 
# 
# From -- ./inp_files/2789.got.cif
#   From: 2010.05.17/outbox.cif.g08.bks.cpg/sg56_2_cif.got.tgz:2789.got - 2010.06.03 13:42:01.
