data_PCOD9429483
_publ_section_title
;
Structure prediction by ZEFSAII (Michael W. Deem and Ramdas Pophale) SiO2 
 PCOD9429483
Probable space group: P B A M
;
_chemical_formula_sum "Si O2"
_cell_formula_units_Z 48
_cell_length_a 9.000000
_cell_length_b 15.000000
_cell_length_c 18.000000
_cell_angle_alpha 90.000000
_cell_angle_beta 90.000000
_cell_angle_gamma 90.000000
_cell_volume 2430.000000
_symmetry_space_group_name_H-M "P B A M"
_symmetry_group_IT_number 55
_symmetry_cell_setting 'orthorhombic'
loop_
_space_group_symop_operation_xyz
x,y,z
-x,-y,z
1/2+x,1/2-y,-z
1/2-x,1/2+y,-z
-x,-y,-z
x,y,-z
1/2-x,1/2+y,z
1/2+x,1/2-y,z
loop_
_atom_site_type_symbol
_atom_site_label
_atom_site_fract_x
_atom_site_fract_y
_atom_site_fract_z
Si Si1 0.415239 0.903098 0.000000
Si Si2 0.327977 0.029139 0.326238
Si Si3 0.363543 0.675647 0.413755
Si Si4 0.193492 0.831439 0.654552
Si Si5 0.061557 0.242651 0.115612
Si Si6 0.821727 0.308634 0.784569
Si Si7 0.934421 0.099771 0.000000
O O1 0.441301 0.834083 0.068100
O O2 0.500000 0.000000 0.000000
O O3 0.239982 0.918168 0.000000
O O4 0.250791 0.098946 0.383974
O O5 0.320829 0.092247 0.251525
O O6 0.500000 0.000000 0.339470
O O7 0.242230 0.933597 0.328777
O O8 0.394306 0.658967 0.500000
O O9 0.519903 0.670113 0.369316
O O10 0.291187 0.774691 0.404868
O O11 0.220954 0.766024 0.724318
O O12 0.218862 0.203365 0.142642
O O13 0.981038 0.274060 0.189898
O O14 0.982693 0.162834 0.069609
O O15 0.000000 0.000000 0.000000
#
# Coordination Sequence:
#
# PCOD9429483 Si02
#       7
#     4   8   8   8   8   8   4
#     4  11  26  44  69  97 133 175 219 275 326 394
#     4  11  24  42  65  97 134 168 224 283 330 403
#     4  11  24  42  67  96 132 181 223 271 341 402
#     4  11  23  42  65  96 135 169 223 283 330 399
#     4  11  24  44  68  92 135 172 222 270 327 397
#     4  11  23  42  67  95 126 178 216 271 335 389
#     4  11  26  44  65 101 135 171 219 275 328 392
#
# _framework density 19.753086
#
# number of rings (size 3 to 8) (size 9 to 14) (size 15 to 20)
#    0.000    1.000    1.667    6.000    2.333    5.667 
#    0.000    0.000    0.000    0.000    0.000    0.000 
#    0.000    0.000    0.000    0.000    0.000    0.000 
#
# Total GULP energy -267590.155112 kJ/mol
# GULP energy per Si atom -5574.794898 kJ/mol
# Density = 1.970813 g / cm^3
# Si number density = 19.753086 Si / 1000 Ang^3
#
#
#
# Elastic Constant Matrix: (Units=GPa)
#
#
# Indices 1 2 3 4 5 6 
#
# 1 137.0792 62.3822 32.2567 0.0000 0.0000 0.0000
# 2 62.3822 210.5613 39.1655 0.0000 0.0000 0.0000
# 3 32.2567 39.1655 78.2782 0.0000 0.0000 0.0000
# 4 0.0000 0.0000 0.0000 16.6590 0.0000 0.0000
# 5 0.0000 0.0000 0.0000 0.0000 27.6571 0.0000
# 6 0.0000 0.0000 0.0000 0.0000 0.0000 48.0060
#
#
#
# Elastic Compliance Matrix: (Units=1/GPa)
#
#
# Indices 1 2 3 4 5 6 
#
# 1 0.008882 -0.002151 -0.002584 0.000000 0.000000 0.000000
# 2 -0.002151 0.005757 -0.001994 0.000000 0.000000 0.000000
# 3 -0.002584 -0.001994 0.014838 0.000000 0.000000 0.000000
# 4 0.000000 0.000000 0.000000 0.060027 0.000000 0.000000
# 5 0.000000 0.000000 0.000000 0.000000 0.036157 0.000000
# 6 0.000000 0.000000 0.000000 0.000000 0.000000 0.020831
#
#
# Mechanical properties :
#
#
# Convention : Reuss Voigt Hill
#
# Bulk Modulus (GPa) = 62.42682 77.05860 69.74271
# Shear Modulus (GPa) = 30.24992 37.93871 34.09431
#
# Velocity S-wave (km/s) = 3.91756 4.38727 4.15905
# Velocity P-wave (km/s) = 7.22047 8.04735 7.64510
#
# Compressibility (1/GPa) = 0.01601876
#
# Stress axis : x y z
#
# Youngs Moduli (GPa) = 112.58903 173.69035 67.39653
#
# Poissons Ratio (x) = 0.37357 0.17415
# Poissons Ratio (y) = 0.24215 0.13441
# Poissons Ratio (z) = 0.29092 0.34640
#
# Static dielectric constant tensor:
#      x y z
#    x 1.725730 0.000000 0.000000 
#    y 0.000000 1.642030 0.000000 
#    z 0.000000 0.000000 1.788840 
# 
# From -- ./inp_files/20835.got.cif
#   From: 2010.05.17/outbox.ucp.g08.bks.cvg/sg55_11_cif.got.tgz:20835.got - 2010.06.11 16:36:00.
