data_PCOD9429657
_publ_section_title
;
Structure prediction by ZEFSAII (Michael W. Deem and Ramdas Pophale) SiO2 
 PCOD9429657
Probable space group: P C C N
;
_chemical_formula_sum "Si O2"
_cell_formula_units_Z 48
_cell_length_a 28.395449
_cell_length_b 6.863787
_cell_length_c 8.919770
_cell_angle_alpha 90.000000
_cell_angle_beta 90.000000
_cell_angle_gamma 90.000000
_cell_volume 1738.465971
_symmetry_space_group_name_H-M "P C C N"
_symmetry_group_IT_number 56
_symmetry_cell_setting 'orthorhombic'
loop_
_space_group_symop_operation_xyz
x,y,z
1/2-x,1/2-y,z
1/2+x,-y,1/2-z
-x,1/2+y,1/2-z
-x,-y,-z
1/2+x,1/2+y,-z
1/2-x,y,1/2+z
x,1/2-y,1/2+z
loop_
_atom_site_type_symbol
_atom_site_label
_atom_site_fract_x
_atom_site_fract_y
_atom_site_fract_z
Si Si1 0.499579 0.669089 0.375684
Si Si2 0.063528 0.642058 0.596435
Si Si3 0.152327 0.558079 0.427769
Si Si4 0.601803 0.580474 0.360086
Si Si5 0.322010 0.017043 0.924880
Si Si6 0.237752 0.522804 0.638420
O O1 0.500000 0.500000 0.500000
O O2 0.469361 0.840779 0.450197
O O3 0.469396 0.597403 0.236076
O O4 0.554333 0.705189 0.340473
O O5 0.111350 0.535048 0.552023
O O6 0.082430 0.859847 0.628108
O O7 0.136073 0.441689 0.281909
O O8 0.160514 0.791422 0.397912
O O9 0.201394 0.502538 0.501194
O O10 0.630744 0.617629 0.512741
O O11 0.286614 0.042714 0.065754
O O12 0.290330 0.064033 0.779872
O O13 0.250000 0.750000 0.675774
#
# Coordination Sequence:
#
# PCOD9429657 Si02
#       6
#     8   8   8   8   8   8
#     4  10  22  36  54  75 102 146 185 226 269 315
#     4  10  19  36  51  73 107 139 181 228 267 309
#     4  10  18  28  48  70 103 145 171 211 263 322
#     4  10  20  33  50  73 104 144 184 216 262 313
#     4  10  18  29  45  71 108 141 175 211 255 326
#     4  10  18  26  44  71 104 142 173 200 261 332
#
# _framework density 27.61055
#
# number of rings (size 3 to 8) (size 9 to 14) (size 15 to 20)
#    0.000    2.000    1.667    5.500    4.667    0.667 
#    0.000    0.000    0.000    0.000    0.000    0.000 
#    0.000   16.000    0.000    0.000    0.000    0.000 
#
# Total GULP energy -268787.449142 kJ/mol
# GULP energy per Si atom -5599.738524 kJ/mol
# Density = 2.754771 g / cm^3
# Si number density = 27.610550 Si / 1000 Ang^3
#
#
#
# Elastic Constant Matrix: (Units=GPa)
#
#
# Indices 1 2 3 4 5 6 
#
# 1 197.0288 31.9856 73.9761 0.0000 0.0000 0.0000
# 2 31.9856 79.8374 19.6178 0.0000 0.0000 0.0000
# 3 73.9761 19.6178 149.2740 0.0000 0.0000 0.0000
# 4 0.0000 0.0000 0.0000 25.7526 0.0000 0.0000
# 5 0.0000 0.0000 0.0000 0.0000 76.9482 0.0000
# 6 0.0000 0.0000 0.0000 0.0000 0.0000 28.7795
#
#
#
# Elastic Compliance Matrix: (Units=1/GPa)
#
#
# Indices 1 2 3 4 5 6 
#
# 1 0.006496 -0.001872 -0.002973 0.000000 0.000000 0.000000
# 2 -0.001872 0.013483 -0.000844 0.000000 0.000000 0.000000
# 3 -0.002973 -0.000844 0.008283 0.000000 0.000000 0.000000
# 4 0.000000 0.000000 0.000000 0.038831 0.000000 0.000000
# 5 0.000000 0.000000 0.000000 0.000000 0.012996 0.000000
# 6 0.000000 0.000000 0.000000 0.000000 0.000000 0.034747
#
#
# Mechanical properties :
#
#
# Convention : Reuss Voigt Hill
#
# Bulk Modulus (GPa) = 59.22944 75.25547 67.24245
# Shear Modulus (GPa) = 37.92432 46.33343 42.12887
#
# Velocity S-wave (km/s) = 3.71016 4.10091 3.91042
# Velocity P-wave (km/s) = 6.31284 7.05256 6.69293
#
# Compressibility (1/GPa) = 0.01688350
#
# Stress axis : x y z
#
# Youngs Moduli (GPa) = 153.95262 74.16843 120.72346
#
# Poissons Ratio (x) = 0.13883 0.35891
# Poissons Ratio (y) = 0.28817 0.10193
# Poissons Ratio (z) = 0.45770 0.06262
#
# Static dielectric constant tensor:
#      x y z
#    x 2.137090 0.000000 0.000000 
#    y 0.000000 2.322060 0.000000 
#    z 0.000000 0.000000 2.104800 
# 
# From -- ./inp_files/2775.got.cif
#   From: 2010.05.17/outbox.cif.g08.bks.cpg/sg56_2_cif.got.tgz:2775.got - 2010.06.03 13:42:01.
