data_PCOD9429424
_publ_section_title
;
Structure prediction by ZEFSAII (Michael W. Deem and Ramdas Pophale) SiO2 
 PCOD9429424
Probable space group: P B A M
;
_chemical_formula_sum "Si O2"
_cell_formula_units_Z 64
_cell_length_a 30.000000
_cell_length_b 12.000000
_cell_length_c 9.000000
_cell_angle_alpha 90.000000
_cell_angle_beta 90.000000
_cell_angle_gamma 90.000000
_cell_volume 3240.000000
_symmetry_space_group_name_H-M "P B A M"
_symmetry_group_IT_number 55
_symmetry_cell_setting 'orthorhombic'
loop_
_space_group_symop_operation_xyz
x,y,z
-x,-y,z
1/2+x,1/2-y,-z
1/2-x,1/2+y,-z
-x,-y,-z
x,y,-z
1/2-x,1/2+y,z
1/2+x,1/2-y,z
loop_
_atom_site_type_symbol
_atom_site_label
_atom_site_fract_x
_atom_site_fract_y
_atom_site_fract_z
Si Si1 0.590434 0.920499 0.824761
Si Si2 0.631510 0.379880 0.678952
Si Si3 0.227035 0.089065 0.818323
Si Si4 0.990799 0.250287 0.822719
Si Si5 0.856170 0.245111 0.667079
Si Si6 0.436171 0.433434 0.328791
Si Si7 0.257360 0.339492 0.320814
Si Si8 0.080963 0.340201 0.676599
O O1 0.547162 0.843916 0.787474
O O2 0.632386 0.844242 0.779044
O O3 0.590093 0.037743 0.741348
O O4 0.589813 0.940898 0.000000
O O5 0.638483 0.397212 0.500000
O O6 0.675075 0.416665 0.768701
O O7 0.587515 0.452258 0.720690
O O8 0.619885 0.250253 0.704769
O O9 0.240187 0.216852 0.751700
O O10 0.248603 0.968437 0.751367
O O11 0.232426 0.089567 0.000000
O O12 0.974276 0.130205 0.762507
O O13 0.036124 0.291292 0.748778
O O14 0.995117 0.245673 0.000000
O O15 0.856118 0.292934 0.500000
O O16 0.895191 0.154218 0.675009
O O17 0.810142 0.182374 0.690632
O O18 0.450592 0.446270 0.500000
O O19 0.245261 0.342698 0.500000
O O20 0.074938 0.347194 0.500000
#
# Coordination Sequence:
#
# PCOD9429424 Si02
#       8
#     8   8   8   8   8   8   8   8
#     4  10  21  36  56  83 120 160 197 247 309 369
#     4  10  22  42  63  85 117 160 204 250 307 374
#     4  12  26  43  67 101 135 167 211 269 329 384
#     4  10  21  36  55  83 118 156 198 248 312 368
#     4   9  18  35  63  90 111 148 201 245 289 354
#     4   9  17  35  61  85 111 147 199 247 289 353
#     4  11  23  44  71  97 130 174 217 260 316 388
#     4  11  23  37  57  83 115 157 206 255 303 359
#
# _framework density 19.753086
#
# number of rings (size 3 to 8) (size 9 to 14) (size 15 to 20)
#    0.000    1.750    1.250    3.000    0.000    7.000 
#    0.000    3.750    0.000    0.000    0.000    0.000 
#    0.000    0.000    0.000    0.000    0.000    0.000 
#
# Total GULP energy -356782.563034 kJ/mol
# GULP energy per Si atom -5574.727547 kJ/mol
# Density = 1.970813 g / cm^3
# Si number density = 19.753086 Si / 1000 Ang^3
#
#
#
# Elastic Constant Matrix: (Units=GPa)
#
#
# Indices 1 2 3 4 5 6 
#
# 1 33.7135 16.3986 18.8387 0.0000 0.0000 0.0000
# 2 16.3986 143.5487 56.4645 0.0000 0.0000 0.0000
# 3 18.8387 56.4645 84.2899 0.0000 0.0000 0.0000
# 4 0.0000 0.0000 0.0000 28.7492 0.0000 0.0000
# 5 0.0000 0.0000 0.0000 0.0000 23.9245 0.0000
# 6 0.0000 0.0000 0.0000 0.0000 0.0000 26.8210
#
#
#
# Elastic Compliance Matrix: (Units=1/GPa)
#
#
# Indices 1 2 3 4 5 6 
#
# 1 0.034051 -0.001217 -0.006795 0.000000 0.000000 0.000000
# 2 -0.001217 0.009502 -0.006093 0.000000 0.000000 0.000000
# 3 -0.006795 -0.006093 0.017464 0.000000 0.000000 0.000000
# 4 0.000000 0.000000 0.000000 0.034784 0.000000 0.000000
# 5 0.000000 0.000000 0.000000 0.000000 0.041798 0.000000
# 6 0.000000 0.000000 0.000000 0.000000 0.000000 0.037284
#
#
# Mechanical properties :
#
#
# Convention : Reuss Voigt Hill
#
# Bulk Modulus (GPa) = 30.48192 49.43952 39.96072
# Shear Modulus (GPa) = 23.36130 27.22228 25.29179
#
# Velocity S-wave (km/s) = 3.44272 3.71634 3.58215
# Velocity P-wave (km/s) = 5.59179 6.59530 6.11417
#
# Compressibility (1/GPa) = 0.03280633
#
# Stress axis : x y z
#
# Youngs Moduli (GPa) = 29.36804 105.23995 57.25966
#
# Poissons Ratio (x) = 0.12808 0.38908
# Poissons Ratio (y) = 0.03574 0.34890
# Poissons Ratio (z) = 0.19956 0.64126
#
# Static dielectric constant tensor:
#      x y z
#    x 1.710430 0.000000 0.000000 
#    y 0.000000 1.730080 0.000000 
#    z 0.000000 0.000000 1.686160 
# 
# From -- ./inp_files/10843.got.cif
#   From: 2010.05.17/outbox.ucp.g08.bks.cvg/sg55_6_cif.got.tgz:10843.got - 2010.06.11 16:36:00.
