data_PCOD9429484
_publ_section_title
;
Structure prediction by ZEFSAII (Michael W. Deem and Ramdas Pophale) SiO2 
 PCOD9429484
Probable space group: P B A M
;
_chemical_formula_sum "Si O2"
_cell_formula_units_Z 64
_cell_length_a 30.000000
_cell_length_b 12.000000
_cell_length_c 9.000000
_cell_angle_alpha 90.000000
_cell_angle_beta 90.000000
_cell_angle_gamma 90.000000
_cell_volume 3240.000000
_symmetry_space_group_name_H-M "P B A M"
_symmetry_group_IT_number 55
_symmetry_cell_setting 'orthorhombic'
loop_
_space_group_symop_operation_xyz
x,y,z
-x,-y,z
1/2+x,1/2-y,-z
1/2-x,1/2+y,-z
-x,-y,-z
x,y,-z
1/2-x,1/2+y,z
1/2+x,1/2-y,z
loop_
_atom_site_type_symbol
_atom_site_label
_atom_site_fract_x
_atom_site_fract_y
_atom_site_fract_z
Si Si1 0.227908 0.915189 0.681889
Si Si2 0.760247 0.834107 0.178966
Si Si3 0.569453 0.446738 0.329439
Si Si4 0.632365 0.616116 0.823357
Si Si5 0.418814 0.164026 0.176520
Si Si6 0.152094 0.224963 0.331105
Si Si7 0.489857 0.753037 0.320330
Si Si8 0.410612 0.924155 0.322625
O O1 0.233402 0.915460 0.500000
O O2 0.242353 0.788703 0.749070
O O3 0.175671 0.918849 0.728934
O O4 0.248078 0.036975 0.749155
O O5 0.812523 0.817048 0.213094
O O6 0.750406 0.836379 0.000000
O O7 0.561672 0.485528 0.500000
O O8 0.589374 0.544586 0.229229
O O9 0.609470 0.355827 0.334604
O O10 0.527783 0.370745 0.278095
O O11 0.620274 0.745821 0.796854
O O12 0.640295 0.599713 0.000000
O O13 0.463520 0.212416 0.250887
O O14 0.409467 0.041955 0.241718
O O15 0.425274 0.156423 0.000000
O O16 0.171212 0.223984 0.500000
O O17 0.133000 0.347786 0.297949
O O18 0.492312 0.753272 0.500000
O O19 0.453015 0.847150 0.278538
O O20 0.414236 0.942642 0.500000
#
# Coordination Sequence:
#
# PCOD9429484 Si02
#       8
#     8   8   8   8   8   8   8   8
#     4  12  26  46  71  98 130 172 219 264 318 388
#     4  12  25  43  69 102 136 169 208 263 327 385
#     4   9  18  35  61  87 113 151 201 250 299 363
#     4  11  24  41  59  84 121 161 202 255 315 370
#     4  11  24  37  52  81 122 162 201 252 312 370
#     4   9  18  36  62  91 119 153 201 249 299 367
#     4   9  19  36  58  85 115 153 203 257 307 362
#     4   9  19  36  59  85 117 158 204 254 303 361
#
# _framework density 19.753086
#
# number of rings (size 3 to 8) (size 9 to 14) (size 15 to 20)
#    0.000    1.750    1.250    4.875    0.000    6.500 
#    0.000    7.500    0.000    0.000    0.000    0.000 
#    0.000    0.000    0.000    0.000    0.000    0.000 
#
# Total GULP energy -356857.205993 kJ/mol
# GULP energy per Si atom -5575.893844 kJ/mol
# Density = 1.970813 g / cm^3
# Si number density = 19.753086 Si / 1000 Ang^3
#
#
#
# Elastic Constant Matrix: (Units=GPa)
#
#
# Indices 1 2 3 4 5 6 
#
# 1 27.0546 14.1166 12.2828 0.0000 0.0000 0.0000
# 2 14.1166 143.4989 47.0460 0.0000 0.0000 0.0000
# 3 12.2828 47.0460 90.6611 0.0000 0.0000 0.0000
# 4 0.0000 0.0000 0.0000 39.5090 0.0000 0.0000
# 5 0.0000 0.0000 0.0000 0.0000 25.1118 0.0000
# 6 0.0000 0.0000 0.0000 0.0000 0.0000 28.9893
#
#
#
# Elastic Compliance Matrix: (Units=1/GPa)
#
#
# Indices 1 2 3 4 5 6 
#
# 1 0.040182 -0.002613 -0.004088 0.000000 0.000000 0.000000
# 2 -0.002613 0.008567 -0.004092 0.000000 0.000000 0.000000
# 3 -0.004088 -0.004092 0.013707 0.000000 0.000000 0.000000
# 4 0.000000 0.000000 0.000000 0.025311 0.000000 0.000000
# 5 0.000000 0.000000 0.000000 0.000000 0.039822 0.000000
# 6 0.000000 0.000000 0.000000 0.000000 0.000000 0.034496
#
#
# Mechanical properties :
#
#
# Convention : Reuss Voigt Hill
#
# Bulk Modulus (GPa) = 24.46713 45.34505 34.90609
# Shear Modulus (GPa) = 25.34306 31.23995 28.29150
#
# Velocity S-wave (km/s) = 3.58577 3.98115 3.78862
# Velocity P-wave (km/s) = 5.43664 6.64368 6.07024
#
# Compressibility (1/GPa) = 0.04087115
#
# Stress axis : x y z
#
# Youngs Moduli (GPa) = 24.88704 116.72457 72.95410
#
# Poissons Ratio (x) = 0.30495 0.29825
# Poissons Ratio (y) = 0.06502 0.29851
# Poissons Ratio (z) = 0.10174 0.47761
#
# Static dielectric constant tensor:
#      x y z
#    x 1.716680 0.000000 0.000000 
#    y 0.000000 1.748920 0.000000 
#    z 0.000000 0.000000 1.681580 
# 
# From -- ./inp_files/10799.got.cif
#   From: 2010.05.17/outbox.ucp.g08.bks.cvg/sg55_6_cif.got.tgz:10799.got - 2010.06.11 16:36:00.
