data_PCOD9429684
_publ_section_title
;
Structure prediction by ZEFSAII (Michael W. Deem and Ramdas Pophale) SiO2 
 PCOD9429684
Probable space group: P C C N
;
_chemical_formula_sum "Si O2"
_cell_formula_units_Z 64
_cell_length_a 17.361470
_cell_length_b 26.997404
_cell_length_c 8.102362
_cell_angle_alpha 90.000000
_cell_angle_beta 90.000000
_cell_angle_gamma 90.000000
_cell_volume 3797.695523
_symmetry_space_group_name_H-M "P C C N"
_symmetry_group_IT_number 56
_symmetry_cell_setting 'orthorhombic'
loop_
_space_group_symop_operation_xyz
x,y,z
1/2-x,1/2-y,z
1/2+x,-y,1/2-z
-x,1/2+y,1/2-z
-x,-y,-z
1/2+x,1/2+y,-z
1/2-x,y,1/2+z
x,1/2-y,1/2+z
loop_
_atom_site_type_symbol
_atom_site_label
_atom_site_fract_x
_atom_site_fract_y
_atom_site_fract_z
Si Si1 0.502506 0.907504 0.684828
Si Si2 0.825303 0.052981 0.460281
Si Si3 0.843122 0.203880 0.660797
Si Si4 0.036157 0.882142 0.856534
Si Si5 0.165008 0.952963 0.166183
Si Si6 0.402111 0.992403 0.345305
Si Si7 0.676718 0.315392 0.047517
Si Si8 0.040073 0.864626 0.505610
O O1 0.513335 0.874361 0.522100
O O2 0.546558 0.959168 0.670362
O O3 0.515947 0.883662 0.862230
O O4 0.410325 0.918641 0.679835
O O5 0.742172 0.072880 0.401872
O O6 0.820526 0.030800 0.645147
O O7 0.849480 0.014648 0.316786
O O8 0.891529 0.094543 0.467982
O O9 0.839541 0.262729 0.635978
O O10 0.767430 0.178425 0.580589
O O11 0.916946 0.182888 0.566652
O O12 0.840434 0.191429 0.854036
O O13 0.120151 0.856799 0.879758
O O14 0.003886 0.860965 0.686190
O O15 0.047046 0.941794 0.845792
O O16 0.142951 0.991220 0.020166
#
# Coordination Sequence:
#
# PCOD9429684 Si02
#       8
#     8   8   8   8   8   8   8   8
#     4  10  21  34  48  69  93 124 163 207 243 294
#     4  10  20  29  47  67  90 122 160 203 239 280
#     4  11  21  33  46  68  93 125 162 215 248 295
#     4  10  19  32  47  66  87 122 154 200 241 286
#     4  10  18  30  45  65  90 120 157 200 237 277
#     4  10  21  34  48  68  94 122 165 205 245 290
#     4  11  21  33  47  66  94 123 167 205 260 281
#     4  10  21  31  48  68  93 120 165 203 249 282
#
# _framework density 16.852325
#
# number of rings (size 3 to 8) (size 9 to 14) (size 15 to 20)
#    0.000    1.750    2.500    4.500    3.500    6.500 
#    0.000    0.000    0.000    0.000    0.000    0.000 
#    0.000    0.000    0.000    0.000    0.000   10.000 
#
# Total GULP energy -356752.364716 kJ/mol
# GULP energy per Si atom -5574.255699 kJ/mol
# Density = 1.681397 g / cm^3
# Si number density = 16.852325 Si / 1000 Ang^3
#
#
#
# Elastic Constant Matrix: (Units=GPa)
#
#
# Indices 1 2 3 4 5 6 
#
# 1 12.8838 8.7973 8.4603 0.0000 0.0000 0.0000
# 2 8.7973 41.3784 10.6306 0.0000 0.0000 0.0000
# 3 8.4603 10.6306 160.7859 0.0000 0.0000 0.0000
# 4 0.0000 0.0000 0.0000 17.7960 0.0000 0.0000
# 5 0.0000 0.0000 0.0000 0.0000 14.5771 0.0000
# 6 0.0000 0.0000 0.0000 0.0000 0.0000 23.1866
#
#
#
# Elastic Compliance Matrix: (Units=1/GPa)
#
#
# Indices 1 2 3 4 5 6 
#
# 1 0.092849 -0.018804 -0.003642 0.000000 0.000000 0.000000
# 2 -0.018804 0.028393 -0.000888 0.000000 0.000000 0.000000
# 3 -0.003642 -0.000888 0.006470 0.000000 0.000000 0.000000
# 4 0.000000 0.000000 0.000000 0.056192 0.000000 0.000000
# 5 0.000000 0.000000 0.000000 0.000000 0.068601 0.000000
# 6 0.000000 0.000000 0.000000 0.000000 0.000000 0.043128
#
#
# Mechanical properties :
#
#
# Convention : Reuss Voigt Hill
#
# Bulk Modulus (GPa) = 12.33916 30.09159 21.21537
# Shear Modulus (GPa) = 13.53852 23.58928 18.56390
#
# Velocity S-wave (km/s) = 2.83744 3.74540 3.32258
# Velocity P-wave (km/s) = 4.25119 6.04970 5.22836
#
# Compressibility (1/GPa) = 0.08104282
#
# Stress axis : x y z
#
# Youngs Moduli (GPa) = 10.77019 35.21968 154.56430
#
# Poissons Ratio (x) = 0.66229 0.56297
# Poissons Ratio (y) = 0.20253 0.13722
# Poissons Ratio (z) = 0.03923 0.03127
#
# Static dielectric constant tensor:
#      x y z
#    x 1.561160 0.000000 0.000000 
#    y 0.000000 1.572790 0.000000 
#    z 0.000000 0.000000 1.693530 
# 
# From -- ./inp_files/4287.got.cif
#   From: 2010.05.17/outbox.cif.g08.bks.cpg/sg56_3_cif.got.tgz:4287.got - 2010.06.03 13:42:01.
