data_PCOD9429667
_publ_section_title
;
Structure prediction by ZEFSAII (Michael W. Deem and Ramdas Pophale) SiO2 
 PCOD9429667
Probable space group: P C C N
;
_chemical_formula_sum "Si O2"
_cell_formula_units_Z 64
_cell_length_a 28.032304
_cell_length_b 17.769134
_cell_length_c 5.592609
_cell_angle_alpha 90.000000
_cell_angle_beta 90.000000
_cell_angle_gamma 90.000000
_cell_volume 2785.733161
_symmetry_space_group_name_H-M "P C C N"
_symmetry_group_IT_number 56
_symmetry_cell_setting 'orthorhombic'
loop_
_space_group_symop_operation_xyz
x,y,z
1/2-x,1/2-y,z
1/2+x,-y,1/2-z
-x,1/2+y,1/2-z
-x,-y,-z
1/2+x,1/2+y,-z
1/2-x,y,1/2+z
x,1/2-y,1/2+z
loop_
_atom_site_type_symbol
_atom_site_label
_atom_site_fract_x
_atom_site_fract_y
_atom_site_fract_z
Si Si1 0.556461 0.225502 0.343857
Si Si2 0.767874 0.335091 0.410717
Si Si3 0.751493 0.560089 0.251882
Si Si4 0.065848 0.431586 0.985293
Si Si5 0.659744 0.060646 0.267625
Si Si6 0.146745 0.991933 0.731557
Si Si7 0.052468 0.217428 0.273479
Si Si8 0.979248 0.439055 0.312523
O O1 0.579451 0.261365 0.581776
O O2 0.504532 0.266172 0.298455
O O3 0.547570 0.136632 0.391284
O O4 0.750000 0.250000 0.428038
O O5 0.758716 0.366508 0.675199
O O6 0.821274 0.357675 0.346757
O O7 0.749594 0.603263 0.501960
O O8 0.796422 0.501514 0.255285
O O9 0.701565 0.515393 0.250296
O O10 0.064646 0.370521 0.777924
O O11 0.050931 0.511672 0.874989
O O12 0.114386 0.440789 0.129585
O O13 0.024832 0.408135 0.168670
O O14 0.630731 0.032275 0.501837
O O15 0.643200 0.065462 0.993076
O O16 0.071321 0.248646 0.526794
O O17 0.000000 0.500000 0.500000
#
# Coordination Sequence:
#
# PCOD9429667 Si02
#       8
#     8   8   8   8   8   8   8   8
#     4  10  19  36  58  84 101 147 189 239 285 343
#     4  10  18  28  49  83 104 135 190 240 277 335
#     4   8  14  27  47  69  96 134 170 203 262 323
#     4  11  24  36  55  92 117 151 194 246 306 353
#     4  10  18  33  52  76 107 145 178 225 289 341
#     4  10  21  32  51  79 114 143 173 229 294 334
#     4  10  19  35  57  80 113 146 182 241 288 349
#     4  11  23  37  60  84 119 150 201 251 297 357
#
# _framework density 22.974202999999999
#
# number of rings (size 3 to 8) (size 9 to 14) (size 15 to 20)
#    0.000    2.000    2.500    4.500    3.500    0.000 
#    0.000    0.000    0.000    0.000   26.000    0.000 
#    0.000   27.000    0.000    0.000    0.000    0.000 
#
# Total GULP energy -356513.280797 kJ/mol
# GULP energy per Si atom -5570.520012 kJ/mol
# Density = 2.292191 g / cm^3
# Si number density = 22.974203 Si / 1000 Ang^3
#
#
#
# Elastic Constant Matrix: (Units=GPa)
#
#
# Indices 1 2 3 4 5 6 
#
# 1 27.1266 8.8997 13.5098 0.0000 0.0000 0.0000
# 2 8.8997 53.4833 -7.2814 0.0000 0.0000 0.0000
# 3 13.5098 -7.2814 129.6457 0.0000 0.0000 0.0000
# 4 0.0000 0.0000 0.0000 21.5044 0.0000 0.0000
# 5 0.0000 0.0000 0.0000 0.0000 15.9004 0.0000
# 6 0.0000 0.0000 0.0000 0.0000 0.0000 19.8669
#
#
#
# Elastic Compliance Matrix: (Units=1/GPa)
#
#
# Indices 1 2 3 4 5 6 
#
# 1 0.041734 -0.007595 -0.004776 0.000000 0.000000 0.000000
# 2 -0.007595 0.020224 0.001927 0.000000 0.000000 0.000000
# 3 -0.004776 0.001927 0.008319 0.000000 0.000000 0.000000
# 4 0.000000 0.000000 0.000000 0.046502 0.000000 0.000000
# 5 0.000000 0.000000 0.000000 0.000000 0.062891 0.000000
# 6 0.000000 0.000000 0.000000 0.000000 0.000000 0.050335
#
#
# Mechanical properties :
#
#
# Convention : Reuss Voigt Hill
#
# Bulk Modulus (GPa) = 20.24660 26.72353 23.48506
# Shear Modulus (GPa) = 18.70170 24.46284 21.58227
#
# Velocity S-wave (km/s) = 2.85622 3.26666 3.06831
# Velocity P-wave (km/s) = 4.43950 5.08776 4.77465
#
# Compressibility (1/GPa) = 0.04939101
#
# Stress axis : x y z
#
# Youngs Moduli (GPa) = 23.96114 49.44719 120.20376
#
# Poissons Ratio (x) = 0.37554 0.57403
# Poissons Ratio (y) = 0.18198 -0.23166
# Poissons Ratio (z) = 0.11443 -0.09530
#
# Static dielectric constant tensor:
#      x y z
#    x 1.960410 0.000000 0.000000 
#    y 0.000000 1.599240 0.000000 
#    z 0.000000 0.000000 1.999430 
# 
# From -- ./inp_files/1374.got.cif
#   From: 2010.05.17/outbox.cif.g08.bks.cpg/sg56_1_cif.got.tgz:1374.got - 2010.06.03 13:42:01.
