data_PCOD9429535
_publ_section_title
;
Structure prediction by ZEFSAII (Michael W. Deem and Ramdas Pophale) SiO2 
 PCOD9429535
Probable space group: P C C N
;
_chemical_formula_sum "Si O2"
_cell_formula_units_Z 64
_cell_length_a 22.711471
_cell_length_b 23.258126
_cell_length_c 5.429082
_cell_angle_alpha 90.000000
_cell_angle_beta 90.000000
_cell_angle_gamma 90.000000
_cell_volume 2867.783648
_symmetry_space_group_name_H-M "P C C N"
_symmetry_group_IT_number 56
_symmetry_cell_setting 'orthorhombic'
loop_
_space_group_symop_operation_xyz
x,y,z
1/2-x,1/2-y,z
1/2+x,-y,1/2-z
-x,1/2+y,1/2-z
-x,-y,-z
1/2+x,1/2+y,-z
1/2-x,y,1/2+z
x,1/2-y,1/2+z
loop_
_atom_site_type_symbol
_atom_site_label
_atom_site_fract_x
_atom_site_fract_y
_atom_site_fract_z
Si Si1 0.320720 0.517776 0.175929
Si Si2 0.819331 0.726459 0.412944
Si Si3 0.525216 0.089771 0.927595
Si Si4 0.278941 0.390771 0.226985
Si Si5 0.339508 0.781372 0.155115
Si Si6 0.048659 0.994562 0.201026
Si Si7 0.340194 0.584296 0.691351
Si Si8 0.016928 0.779942 0.653031
O O1 0.285673 0.458889 0.199500
O O2 0.386011 0.493585 0.123947
O O3 0.323828 0.550881 0.438436
O O4 0.310225 0.557297 0.935310
O O5 0.750000 0.750000 0.422441
O O6 0.845353 0.742473 0.675290
O O7 0.823663 0.658316 0.363895
O O8 0.587707 0.081100 0.782973
O O9 0.503251 0.153380 0.888525
O O10 0.472525 0.044726 0.885037
O O11 0.546310 0.070598 0.197978
O O12 0.270662 0.378667 0.517095
O O13 0.319692 0.748446 0.401640
O O14 0.324359 0.848748 0.165429
O O15 0.411169 0.777921 0.153863
O O16 0.000000 0.000000 0.000000
O O17 0.996944 0.743567 0.416668
#
# Coordination Sequence:
#
# PCOD9429535 Si02
#       8
#     8   8   8   8   8   8   8   8
#     4  11  23  35  53  81 113 146 180 224 282 337
#     4  10  16  31  56  83 103 132 183 229 276 323
#     4   9  19  31  52  74 101 143 185 226 266 315
#     4  12  22  37  58  84 114 143 181 233 283 340
#     4   9  16  27  46  72 102 136 177 221 264 296
#     4  10  19  34  54  75 105 144 194 226 262 323
#     4  10  19  34  50  77 115 144 176 226 273 326
#     4   9  18  28  44  70  96 131 175 220 269 316
#
# _framework density 22.316884999999999
#
# number of rings (size 3 to 8) (size 9 to 14) (size 15 to 20)
#    0.000    2.000    3.750    1.500    1.750    3.000 
#    0.000    0.000    0.000    1.500    0.000    0.000 
#    0.000   35.000    0.000    0.000    0.000    0.000 
#
# Total GULP energy -356613.487173 kJ/mol
# GULP energy per Si atom -5572.085737 kJ/mol
# Density = 2.226609 g / cm^3
# Si number density = 22.316885 Si / 1000 Ang^3
#
#
#
# Elastic Constant Matrix: (Units=GPa)
#
#
# Indices 1 2 3 4 5 6 
#
# 1 31.2539 0.5585 0.4701 0.0000 0.0000 0.0000
# 2 0.5585 154.5544 49.7492 0.0000 0.0000 0.0000
# 3 0.4701 49.7492 122.2601 0.0000 0.0000 0.0000
# 4 0.0000 0.0000 0.0000 34.7517 0.0000 0.0000
# 5 0.0000 0.0000 0.0000 0.0000 -30.5694 0.0000
# 6 0.0000 0.0000 0.0000 0.0000 0.0000 16.6090
#
#
#
# Elastic Compliance Matrix: (Units=1/GPa)
#
#
# Indices 1 2 3 4 5 6 
#
# 1 0.031999 -0.000087 -0.000087 0.000000 0.000000 0.000000
# 2 -0.000087 0.007446 -0.003029 0.000000 0.000000 0.000000
# 3 -0.000087 -0.003029 0.009412 0.000000 0.000000 0.000000
# 4 0.000000 0.000000 0.000000 0.028776 0.000000 0.000000
# 5 0.000000 0.000000 0.000000 0.000000 -0.032712 0.000000
# 6 0.000000 0.000000 0.000000 0.000000 0.000000 0.060208
#
#
# Mechanical properties :
#
#
# Convention : Reuss Voigt Hill
#
# Bulk Modulus (GPa) = 23.55813 45.51378 34.53596
# Shear Modulus (GPa) = 39.78155 21.31096 30.54626
#
# Velocity S-wave (km/s) = 4.22664 3.09354 3.70368
# Velocity P-wave (km/s) = 5.86501 5.76182 5.81365
#
# Compressibility (1/GPa) = 0.04244819
#
# Stress axis : x y z
#
# Youngs Moduli (GPa) = 31.25112 134.30652 106.24377
#
# Poissons Ratio (x) = 0.01175 0.00929
# Poissons Ratio (y) = 0.00273 0.32185
# Poissons Ratio (z) = 0.00273 0.40687
#
# Static dielectric constant tensor:
#      x y z
#    x 1.796070 0.000000 0.000000 
#    y 0.000000 1.848500 0.000000 
#    z 0.000000 0.000000 1.926940 
# 
# From -- ./inp_files/1259.got.cif
#   From: 2010.05.17/outbox.cif.g08.bks.cpg/sg56_1_cif.got.tgz:1259.got - 2010.06.03 13:42:01.
