data_PCOD9429150
_publ_section_title
;
Structure prediction by ZEFSAII (Michael W. Deem and Ramdas Pophale) SiO2 
 PCOD9429150
Probable space group: P B A M
;
_chemical_formula_sum "Si O2"
_cell_formula_units_Z 40
_cell_length_a 9.271054
_cell_length_b 9.606500
_cell_length_c 20.851570
_cell_angle_alpha 90.000000
_cell_angle_beta 90.000000
_cell_angle_gamma 90.000000
_cell_volume 1857.090456
_symmetry_space_group_name_H-M "P B A M"
_symmetry_group_IT_number 55
_symmetry_cell_setting 'orthorhombic'
loop_
_space_group_symop_operation_xyz
x,y,z
-x,-y,z
1/2+x,1/2-y,-z
1/2-x,1/2+y,-z
-x,-y,-z
x,y,-z
1/2-x,1/2+y,z
1/2+x,1/2-y,z
loop_
_atom_site_type_symbol
_atom_site_label
_atom_site_fract_x
_atom_site_fract_y
_atom_site_fract_z
Si Si1 0.752840 0.223506 0.155095
Si Si2 0.003745 0.665033 0.240192
Si Si3 0.390065 0.873839 0.574716
Si Si4 0.668871 0.468982 0.071357
Si Si5 0.923976 0.148265 0.362398
O O1 0.897844 0.295938 0.179382
O O2 0.652504 0.215406 0.217411
O O3 0.690647 0.315266 0.097715
O O4 0.772035 0.071613 0.125669
O O5 0.059746 0.753832 0.300075
O O6 0.000000 0.500000 0.252389
O O7 0.350604 0.889593 0.500000
O O8 0.481192 0.732799 0.585445
O O9 0.242227 0.870593 0.615687
O O10 0.500000 0.000000 0.591284
O O11 0.500000 0.500000 0.067573
O O12 0.731676 0.487965 0.000000
O O13 0.000000 0.000000 0.350629
#
# Coordination Sequence:
#
# PCOD9429150 Si02
#       5
#     8   8   8   8   8
#     4  12  24  44  68  99 131 184 227 287 354 418
#     4  12  27  45  68  96 140 179 233 287 347 416
#     4  11  25  48  75 107 148 188 232 289 356 425
#     4  11  24  43  68 101 138 175 227 290 355 427
#     4  12  27  44  71 107 140 190 242 296 352 420
#
# _framework density 21.539069999999999
#
# number of rings (size 3 to 8) (size 9 to 14) (size 15 to 20)
#    0.000    0.400    4.000    4.200    2.800    6.400 
#    0.000    1.000    0.000    0.000    0.000    0.000 
#    0.000    0.000    0.000    0.000    0.000    0.000 
#
# Total GULP energy -223721.898129 kJ/mol
# GULP energy per Si atom -5593.047453 kJ/mol
# Density = 2.149005 g / cm^3
# Si number density = 21.539070 Si / 1000 Ang^3
#
#
#
# Elastic Constant Matrix: (Units=GPa)
#
#
# Indices 1 2 3 4 5 6 
#
# 1 112.1285 34.1813 32.7920 0.0000 0.0000 0.0000
# 2 34.1813 118.2561 18.4049 0.0000 0.0000 0.0000
# 3 32.7920 18.4049 106.8535 0.0000 0.0000 0.0000
# 4 0.0000 0.0000 0.0000 -6.6252 0.0000 0.0000
# 5 0.0000 0.0000 0.0000 0.0000 53.0427 0.0000
# 6 0.0000 0.0000 0.0000 0.0000 0.0000 30.7303
#
#
#
# Elastic Compliance Matrix: (Units=1/GPa)
#
#
# Indices 1 2 3 4 5 6 
#
# 1 0.010527 -0.002610 -0.002781 0.000000 0.000000 0.000000
# 2 -0.002610 0.009336 -0.000807 0.000000 0.000000 0.000000
# 3 -0.002781 -0.000807 0.010351 0.000000 0.000000 0.000000
# 4 0.000000 0.000000 0.000000 -0.150940 0.000000 0.000000
# 5 0.000000 0.000000 0.000000 0.000000 0.018853 0.000000
# 6 0.000000 0.000000 0.000000 0.000000 0.000000 0.032541
#
#
# Mechanical properties :
#
#
# Convention : Reuss Voigt Hill
#
# Bulk Modulus (GPa) = 56.12265 56.44382 56.28324
# Shear Modulus (GPa) = -98.04814 32.22023 -32.91395
#
# Velocity S-wave (km/s) = -6.75425 3.87188 -3.91334
# Velocity P-wave (km/s) = 5.89184 6.80079 2.40178
#
# Compressibility (1/GPa) = 0.01781812
#
# Stress axis : x y z
#
# Youngs Moduli (GPa) = 94.99084 107.10930 96.60777
#
# Poissons Ratio (x) = 0.27956 0.26868
# Poissons Ratio (y) = 0.24793 0.07798
# Poissons Ratio (z) = 0.26418 0.08645
#
# Static dielectric constant tensor:
#      x y z
#    x 1.506510 0.000000 0.000000 
#    y 0.000000 1.743770 0.000000 
#    z 0.000000 0.000000 1.815350 
# 
# From -- ./inp_files/23403.got.cif
#   From: 2010.05.17/outbox.cif.g08.bks.cpg/sg55_12_cif.got.tgz:23403.got - 2010.06.03 13:27:54.
