data_PCOD9429751
_publ_section_title
;
Structure prediction by ZEFSAII (Michael W. Deem and Ramdas Pophale) SiO2 
 PCOD9429751
Probable space group: P C C N
;
_chemical_formula_sum "Si O2"
_cell_formula_units_Z 48
_cell_length_a 15.903535
_cell_length_b 21.270332
_cell_length_c 5.557444
_cell_angle_alpha 90.000000
_cell_angle_beta 90.000000
_cell_angle_gamma 90.000000
_cell_volume 1879.935863
_symmetry_space_group_name_H-M "P C C N"
_symmetry_group_IT_number 56
_symmetry_cell_setting 'orthorhombic'
loop_
_space_group_symop_operation_xyz
x,y,z
1/2-x,1/2-y,z
1/2+x,-y,1/2-z
-x,1/2+y,1/2-z
-x,-y,-z
1/2+x,1/2+y,-z
1/2-x,y,1/2+z
x,1/2-y,1/2+z
loop_
_atom_site_type_symbol
_atom_site_label
_atom_site_fract_x
_atom_site_fract_y
_atom_site_fract_z
Si Si1 0.697556 0.422651 0.024670
Si Si2 0.589465 0.545956 0.091488
Si Si3 0.059927 0.232994 0.523405
Si Si4 0.253351 0.360014 0.864266
Si Si5 0.931915 0.589463 0.089450
Si Si6 0.872917 0.217346 0.036911
O O1 0.747534 0.427397 0.770887
O O2 0.653739 0.354664 0.029448
O O3 0.633154 0.480214 0.036206
O O4 0.664234 0.597019 0.126200
O O5 0.546761 0.549090 0.353637
O O6 0.539197 0.567453 0.853327
O O7 0.102516 0.242549 0.780965
O O8 0.039954 0.160007 0.478056
O O9 0.973754 0.272934 0.536368
O O10 0.249140 0.324964 0.614407
O O11 0.170029 0.404732 0.876850
O O12 0.844300 0.251243 0.789052
#
# Coordination Sequence:
#
# PCOD9429751 Si02
#       6
#     8   8   8   8   8   8
#     4  12  23  37  63  97 129 161 198 245 315 389
#     4  10  19  33  55  89 125 151 189 251 315 375
#     4  10  21  39  62  82 111 164 220 261 300 346
#     4   8  14  25  44  71 107 139 169 221 288 346
#     4  10  18  32  58  84 114 161 204 244 307 366
#     4  10  23  42  62  84 122 165 208 260 303 351
#
# _framework density 25.532788
#
# number of rings (size 3 to 8) (size 9 to 14) (size 15 to 20)
#    0.000    2.000    0.000    6.000    0.000    2.000 
#    0.000    0.000    0.000   51.000    0.000    0.000 
#    0.000    0.000    0.000    0.000    0.000    0.000 
#
# Total GULP energy -268534.054819 kJ/mol
# GULP energy per Si atom -5594.459475 kJ/mol
# Density = 2.547467 g / cm^3
# Si number density = 25.532788 Si / 1000 Ang^3
#
#
#
# Elastic Constant Matrix: (Units=GPa)
#
#
# Indices 1 2 3 4 5 6 
#
# 1 65.2981 12.9248 22.5013 0.0000 0.0000 0.0000
# 2 12.9248 143.7537 58.6850 0.0000 0.0000 0.0000
# 3 22.5013 58.6850 316.3579 0.0000 0.0000 0.0000
# 4 0.0000 0.0000 0.0000 36.4522 0.0000 0.0000
# 5 0.0000 0.0000 0.0000 0.0000 39.9321 0.0000
# 6 0.0000 0.0000 0.0000 0.0000 0.0000 -36.6427
#
#
#
# Elastic Compliance Matrix: (Units=1/GPa)
#
#
# Indices 1 2 3 4 5 6 
#
# 1 0.015842 -0.001043 -0.000933 0.000000 0.000000 0.000000
# 2 -0.001043 0.007595 -0.001335 0.000000 0.000000 0.000000
# 3 -0.000933 -0.001335 0.003475 0.000000 0.000000 0.000000
# 4 0.000000 0.000000 0.000000 0.027433 0.000000 0.000000
# 5 0.000000 0.000000 0.000000 0.000000 0.025042 0.000000
# 6 0.000000 0.000000 0.000000 0.000000 0.000000 -0.027291
#
#
# Mechanical properties :
#
#
# Convention : Reuss Voigt Hill
#
# Bulk Modulus (GPa) = 49.28591 79.29243 64.28917
# Shear Modulus (GPa) = 76.35513 36.70157 56.52835
#
# Velocity S-wave (km/s) = 5.47446 3.79546 4.71037
# Velocity P-wave (km/s) = 7.70094 7.09436 7.40386
#
# Compressibility (1/GPa) = 0.02028977
#
# Stress axis : x y z
#
# Youngs Moduli (GPa) = 63.12135 131.66539 287.77465
#
# Poissons Ratio (x) = 0.13738 0.26857
# Poissons Ratio (y) = 0.06586 0.38409
# Poissons Ratio (z) = 0.05891 0.17573
#
# Static dielectric constant tensor:
#      x y z
#    x 2.011430 0.000000 0.000000 
#    y 0.000000 1.958690 0.000000 
#    z 0.000000 0.000000 2.101010 
# 
# From -- ./inp_files/1059.got.cif
#   From: 2010.05.17/outbox.cif.g08.bks.cpg/sg56_1_cif.got.tgz:1059.got - 2010.06.03 13:42:01.
