data_PCOD9429140
_publ_section_title
;
Structure prediction by ZEFSAII (Michael W. Deem and Ramdas Pophale) SiO2 
 PCOD9429140
Probable space group: P B A M
;
_chemical_formula_sum "Si O2"
_cell_formula_units_Z 64
_cell_length_a 15.577042
_cell_length_b 23.973144
_cell_length_c 8.590750
_cell_angle_alpha 90.000000
_cell_angle_beta 90.000000
_cell_angle_gamma 90.000000
_cell_volume 3208.049537
_symmetry_space_group_name_H-M "P B A M"
_symmetry_group_IT_number 55
_symmetry_cell_setting 'orthorhombic'
loop_
_space_group_symop_operation_xyz
x,y,z
-x,-y,z
1/2+x,1/2-y,-z
1/2-x,1/2+y,-z
-x,-y,-z
x,y,-z
1/2-x,1/2+y,z
1/2+x,1/2-y,z
loop_
_atom_site_type_symbol
_atom_site_label
_atom_site_fract_x
_atom_site_fract_y
_atom_site_fract_z
Si Si1 0.745106 0.420860 0.684860
Si Si2 0.100406 0.875978 0.315013
Si Si3 0.102109 0.369986 0.185519
Si Si4 0.078768 0.642412 0.313661
Si Si5 0.849390 0.245523 0.813884
Si Si6 0.919363 0.858403 0.184117
Si Si7 0.841540 0.749077 0.685332
Si Si8 0.253438 0.455590 0.814253
O O1 0.731959 0.413228 0.500000
O O2 0.835016 0.391383 0.726462
O O3 0.666475 0.391967 0.773360
O O4 0.748856 0.485602 0.728148
O O5 0.110697 0.878354 0.500000
O O6 0.125549 0.814395 0.254687
O O7 0.163564 0.920216 0.235854
O O8 0.001925 0.884751 0.266811
O O9 0.163899 0.244703 0.500000
O O10 0.128808 0.312782 0.269882
O O11 0.170368 0.417944 0.224605
O O12 0.005861 0.383570 0.237871
O O13 0.069699 0.643594 0.500000
O O14 0.091332 0.705152 0.251158
O O15 0.752337 0.258167 0.759249
O O16 0.853779 0.243727 0.000000
O O17 0.904648 0.795725 0.246369
O O18 0.933257 0.857320 0.000000
O O19 0.894242 0.639280 0.000000
O O20 0.254614 0.464569 0.000000
#
# Coordination Sequence:
#
# PCOD9429140 Si02
#       8
#     8   8   8   8   8   8   8   8
#     4  11  25  45  68  94 128 169 219 271 323 381
#     4  12  25  43  68  97 132 171 214 265 323 384
#     4  11  24  42  66  96 132 171 215 265 321 382
#     4  11  24  42  66  96 132 171 215 265 321 382
#     4  12  23  39  65  97 133 171 213 260 322 386
#     4  12  25  43  68  97 132 171 214 265 323 384
#     4  12  23  39  65  97 133 171 213 260 322 386
#     4  11  25  45  68  94 128 169 219 271 323 381
#
# _framework density 19.949815999999998
#
# number of rings (size 3 to 8) (size 9 to 14) (size 15 to 20)
#    0.000    0.500    2.500    6.750    0.000    4.000 
#    0.000    5.000    0.000    0.000    0.000    0.000 
#    0.000    0.000    0.000    0.000    0.000    0.000 
#
# Total GULP energy -358454.692280 kJ/mol
# GULP energy per Si atom -5600.854567 kJ/mol
# Density = 1.990441 g / cm^3
# Si number density = 19.949816 Si / 1000 Ang^3
#
#
#
# Elastic Constant Matrix: (Units=GPa)
#
#
# Indices 1 2 3 4 5 6 
#
# 1 81.5817 3.8601 -3.9873 0.0000 0.0000 0.0000
# 2 3.8601 79.7331 -4.2707 0.0000 0.0000 0.0000
# 3 -3.9873 -4.2707 44.1743 0.0000 0.0000 0.0000
# 4 0.0000 0.0000 0.0000 29.0695 0.0000 0.0000
# 5 0.0000 0.0000 0.0000 0.0000 36.5736 0.0000
# 6 0.0000 0.0000 0.0000 0.0000 0.0000 2.2257
#
#
#
# Elastic Compliance Matrix: (Units=1/GPa)
#
#
# Indices 1 2 3 4 5 6 
#
# 1 0.012335 -0.000540 0.001061 0.000000 0.000000 0.000000
# 2 -0.000540 0.012631 0.001172 0.000000 0.000000 0.000000
# 3 0.001061 0.001172 0.022847 0.000000 0.000000 0.000000
# 4 0.000000 0.000000 0.000000 0.034400 0.000000 0.000000
# 5 0.000000 0.000000 0.000000 0.000000 0.027342 0.000000
# 6 0.000000 0.000000 0.000000 0.000000 0.000000 0.449301
#
#
# Mechanical properties :
#
#
# Convention : Reuss Voigt Hill
#
# Bulk Modulus (GPa) = 19.53164 21.85481 20.69323
# Shear Modulus (GPa) = 8.73307 27.56622 18.14965
#
# Velocity S-wave (km/s) = 2.09452 3.72126 3.01950
# Velocity P-wave (km/s) = 3.95740 5.42608 4.74886
#
# Compressibility (1/GPa) = 0.05119897
#
# Stress axis : x y z
#
# Youngs Moduli (GPa) = 81.06956 79.17163 43.76991
#
# Poissons Ratio (x) = 0.04278 -0.04645
# Poissons Ratio (y) = 0.04380 -0.05131
# Poissons Ratio (z) = -0.08603 -0.09282
#
# Static dielectric constant tensor:
#      x y z
#    x 1.715630 0.000000 0.000000 
#    y 0.000000 1.670670 0.000000 
#    z 0.000000 0.000000 1.663150 
# 
# From -- ./inp_files/6718.got.cif
#   From: 2010.05.17/outbox.cif.g08.bks.cpg/sg55_4_cif.got.tgz:6718.got - 2010.06.03 13:27:54.
