data_PCOD9429276
_publ_section_title
;
Structure prediction by ZEFSAII (Michael W. Deem and Ramdas Pophale) SiO2 
 PCOD9429276
Probable space group: P B A M
;
_chemical_formula_sum "Si O2"
_cell_formula_units_Z 64
_cell_length_a 15.000000
_cell_length_b 24.000000
_cell_length_c 9.000000
_cell_angle_alpha 90.000000
_cell_angle_beta 90.000000
_cell_angle_gamma 90.000000
_cell_volume 3240.000000
_symmetry_space_group_name_H-M "P B A M"
_symmetry_group_IT_number 55
_symmetry_cell_setting 'orthorhombic'
loop_
_space_group_symop_operation_xyz
x,y,z
-x,-y,z
1/2+x,1/2-y,-z
1/2-x,1/2+y,-z
-x,-y,-z
x,y,-z
1/2-x,1/2+y,z
1/2+x,1/2-y,z
loop_
_atom_site_type_symbol
_atom_site_label
_atom_site_fract_x
_atom_site_fract_y
_atom_site_fract_z
Si Si1 0.135690 0.630543 0.175686
Si Si2 0.970713 0.290874 0.325881
Si Si3 0.267081 0.714808 0.669940
Si Si4 0.400924 0.611883 0.328016
Si Si5 0.761256 0.096682 0.824100
Si Si6 0.581400 0.665743 0.679436
Si Si7 0.358790 0.803713 0.170389
Si Si8 0.240132 0.031463 0.821636
O O1 0.040218 0.653490 0.222930
O O2 0.186800 0.675250 0.278098
O O3 0.173064 0.569687 0.214840
O O4 0.150506 0.638473 0.000000
O O5 0.953956 0.300635 0.500000
O O6 0.928332 0.231094 0.278128
O O7 0.075321 0.282277 0.297244
O O8 0.255087 0.734837 0.500000
O O9 0.346465 0.669718 0.674361
O O10 0.276474 0.762906 0.791265
O O11 0.408871 0.594163 0.500000
O O12 0.496888 0.629127 0.266974
O O13 0.343996 0.565337 0.242924
O O14 0.833758 0.132417 0.736248
O O15 0.671315 0.132739 0.811725
O O16 0.754721 0.032639 0.772527
O O17 0.784352 0.096357 0.000000
O O18 0.578556 0.666176 0.500000
O O19 0.387876 0.793931 0.000000
O O20 0.233343 0.031279 0.000000
#
# Coordination Sequence:
#
# PCOD9429276 Si02
#       8
#     8   8   8   8   8   8   8   8
#     4  10  20  35  57  84 109 142 189 234 275 328
#     4  11  22  38  58  84 116 147 180 227 288 344
#     4  10  18  33  55  80 113 148 180 222 280 337
#     4   9  18  34  55  81 112 146 183 223 271 326
#     4  10  23  40  56  79 111 149 188 230 277 327
#     4  10  21  37  56  83 116 147 180 222 278 337
#     4  11  22  36  56  81 111 146 187 233 281 334
#     4   9  20  39  58  78 110 149 191 231 273 324
#
# _framework density 19.753086
#
# number of rings (size 3 to 8) (size 9 to 14) (size 15 to 20)
#    0.000    2.000    1.250    2.250    0.000    6.500 
#    0.000    3.125    0.000    3.750    0.000    0.000 
#    0.000    0.000    0.000    0.000    0.000    0.000 
#
# Total GULP energy -356339.036795 kJ/mol
# GULP energy per Si atom -5567.797450 kJ/mol
# Density = 1.970813 g / cm^3
# Si number density = 19.753086 Si / 1000 Ang^3
#
#
#
# Elastic Constant Matrix: (Units=GPa)
#
#
# Indices 1 2 3 4 5 6 
#
# 1 18.0262 23.6453 3.0428 0.0000 0.0000 0.0000
# 2 23.6453 139.1900 34.8510 0.0000 0.0000 0.0000
# 3 3.0428 34.8510 44.8728 0.0000 0.0000 0.0000
# 4 0.0000 0.0000 0.0000 21.7839 0.0000 0.0000
# 5 0.0000 0.0000 0.0000 0.0000 29.2492 0.0000
# 6 0.0000 0.0000 0.0000 0.0000 0.0000 21.4262
#
#
#
# Elastic Compliance Matrix: (Units=1/GPa)
#
#
# Indices 1 2 3 4 5 6 
#
# 1 0.072567 -0.013774 0.005777 0.000000 0.000000 0.000000
# 2 -0.013774 0.011533 -0.008023 0.000000 0.000000 0.000000
# 3 0.005777 -0.008023 0.028125 0.000000 0.000000 0.000000
# 4 0.000000 0.000000 0.000000 0.045905 0.000000 0.000000
# 5 0.000000 0.000000 0.000000 0.000000 0.034189 0.000000
# 6 0.000000 0.000000 0.000000 0.000000 0.000000 0.046672
#
#
# Mechanical properties :
#
#
# Convention : Reuss Voigt Hill
#
# Bulk Modulus (GPa) = 12.47122 36.12969 24.30045
# Shear Modulus (GPa) = 16.79201 23.86187 20.32694
#
# Velocity S-wave (km/s) = 2.91880 3.47941 3.21136
# Velocity P-wave (km/s) = 4.20553 5.87129 5.10679
#
# Compressibility (1/GPa) = 0.08018463
#
# Stress axis : x y z
#
# Youngs Moduli (GPa) = 13.78033 86.70567 35.55562
#
# Poissons Ratio (x) = 1.19429 -0.20541
# Poissons Ratio (y) = 0.18981 0.28528
# Poissons Ratio (z) = -0.07961 0.69568
#
# Static dielectric constant tensor:
#      x y z
#    x 2.070290 0.000000 0.000000 
#    y 0.000000 1.727450 0.000000 
#    z 0.000000 0.000000 1.662250 
# 
# From -- ./inp_files/6500.got.cif
#   From: 2010.05.17/outbox.ucp.g08.bks.cvg/sg55_4_cif.got.tgz:6500.got - 2010.06.11 16:36:00.
