data_PCOD9429119
_publ_section_title
;
Structure prediction by ZEFSAII (Michael W. Deem and Ramdas Pophale) SiO2 
 PCOD9429119
Probable space group: P B A M
;
_chemical_formula_sum "Si O2"
_cell_formula_units_Z 56
_cell_length_a 13.086672
_cell_length_b 13.707419
_cell_length_c 14.220646
_cell_angle_alpha 90.000000
_cell_angle_beta 90.000000
_cell_angle_gamma 90.000000
_cell_volume 2550.963421
_symmetry_space_group_name_H-M "P B A M"
_symmetry_group_IT_number 55
_symmetry_cell_setting 'orthorhombic'
loop_
_space_group_symop_operation_xyz
x,y,z
-x,-y,z
1/2+x,1/2-y,-z
1/2-x,1/2+y,-z
-x,-y,-z
x,y,-z
1/2-x,1/2+y,z
1/2+x,1/2-y,z
loop_
_atom_site_type_symbol
_atom_site_label
_atom_site_fract_x
_atom_site_fract_y
_atom_site_fract_z
Si Si1 0.456994 0.609822 0.697390
Si Si2 0.043006 0.390178 0.197390
Si Si3 0.244790 0.615223 0.393790
Si Si4 0.897552 0.567039 0.603000
Si Si5 0.255210 0.384777 0.106210
Si Si6 0.602448 0.432961 0.897000
Si Si7 0.624330 0.750000 0.250000
O O1 0.500000 0.500000 0.696517
O O2 0.364827 0.617294 0.625328
O O3 0.411316 0.628961 0.802866
O O4 0.551085 0.682244 0.686840
O O5 0.088684 0.371039 0.302866
O O6 0.135174 0.382706 0.125328
O O7 0.000000 0.500000 0.196517
O O8 0.948915 0.317756 0.186840
O O9 0.220344 0.646276 0.500000
O O10 0.197319 0.506529 0.383421
O O11 0.190105 0.682209 0.317487
O O12 0.888447 0.615486 0.500000
O O13 0.000000 0.500000 0.598969
O O14 0.302681 0.493471 0.116579
O O15 0.309896 0.317792 0.182513
O O16 0.279656 0.353724 0.000000
O O17 0.500000 0.500000 0.901031
O O18 0.611552 0.384513 0.000000
#
# Coordination Sequence:
#
# PCOD9429119 Si02
#       7
#     8   8   8   8   8   8   8
#     4  11  23  42  70  98 137 176 225 279 332 393
#     4  11  23  42  70  98 137 176 225 279 332 393
#     4  11  24  43  66  96 132 175 225 277 339 398
#     4   9  17  36  68  97 124 167 219 268 326 396
#     4  11  24  43  66  96 132 175 225 277 339 398
#     4   9  17  36  68  97 124 167 219 268 326 396
#     4  12  24  42  68  96 136 178 224 278 330 396
#
# _framework density 21.952490000000001
#
# number of rings (size 3 to 8) (size 9 to 14) (size 15 to 20)
#    0.000    1.429    5.714    1.714    0.000    1.714 
#    0.000    4.286    0.000    0.000    0.000    0.000 
#    0.000    0.000    0.000    0.000    0.000    0.000 
#
# Total GULP energy -313113.937553 kJ/mol
# GULP energy per Si atom -5591.320313 kJ/mol
# Density = 2.190253 g / cm^3
# Si number density = 21.952490 Si / 1000 Ang^3
#
#
#
# Elastic Constant Matrix: (Units=GPa)
#
#
# Indices 1 2 3 4 5 6 
#
# 1 103.1734 20.3673 5.9925 0.0000 0.0000 0.0000
# 2 20.3673 39.8227 -13.1859 0.0000 0.0000 0.0000
# 3 5.9925 -13.1859 73.6219 0.0000 0.0000 0.0000
# 4 0.0000 0.0000 0.0000 12.1889 0.0000 0.0000
# 5 0.0000 0.0000 0.0000 0.0000 26.1034 0.0000
# 6 0.0000 0.0000 0.0000 0.0000 0.0000 -27.9360
#
#
#
# Elastic Compliance Matrix: (Units=1/GPa)
#
#
# Indices 1 2 3 4 5 6 
#
# 1 0.011060 -0.006330 -0.002034 0.000000 0.000000 0.000000
# 2 -0.006330 0.030317 0.005945 0.000000 0.000000 0.000000
# 3 -0.002034 0.005945 0.014813 0.000000 0.000000 0.000000
# 4 0.000000 0.000000 0.000000 0.082042 0.000000 0.000000
# 5 0.000000 0.000000 0.000000 0.000000 0.038309 0.000000
# 6 0.000000 0.000000 0.000000 0.000000 0.000000 -0.035796
#
#
# Mechanical properties :
#
#
# Convention : Reuss Voigt Hill
#
# Bulk Modulus (GPa) = 19.47313 26.99620 23.23467
# Shear Modulus (GPa) = 30.73115 15.63419 23.18267
#
# Velocity S-wave (km/s) = 3.74557 2.67157 3.25320
# Velocity P-wave (km/s) = 5.25315 4.67340 4.97173
#
# Compressibility (1/GPa) = 0.05135280
#
# Stress axis : x y z
#
# Youngs Moduli (GPa) = 90.41427 32.98432 67.50705
#
# Poissons Ratio (x) = 0.20880 0.13731
# Poissons Ratio (y) = 0.57234 -0.40134
# Poissons Ratio (z) = 0.18390 -0.19610
#
# Static dielectric constant tensor:
#      x y z
#    x 1.790750 0.000000 0.000000 
#    y 0.000000 1.824800 0.000000 
#    z 0.000000 0.000000 1.795950 
# 
# From -- ./inp_files/18405.got.cif
#   From: 2010.05.17/outbox.cif.g08.bks.cpg/sg55_10_cif.got.tgz:18405.got - 2010.06.03 13:27:54.
