data_PCOD9429342
_publ_section_title
;
Structure prediction by ZEFSAII (Michael W. Deem and Ramdas Pophale) SiO2 
 PCOD9429342
Probable space group: P B A M
;
_chemical_formula_sum "Si O2"
_cell_formula_units_Z 48
_cell_length_a 30.000000
_cell_length_b 9.000000
_cell_length_c 9.000000
_cell_angle_alpha 90.000000
_cell_angle_beta 90.000000
_cell_angle_gamma 90.000000
_cell_volume 2430.000000
_symmetry_space_group_name_H-M "P B A M"
_symmetry_group_IT_number 55
_symmetry_cell_setting 'orthorhombic'
loop_
_space_group_symop_operation_xyz
x,y,z
-x,-y,z
1/2+x,1/2-y,-z
1/2-x,1/2+y,-z
-x,-y,-z
x,y,-z
1/2-x,1/2+y,z
1/2+x,1/2-y,z
loop_
_atom_site_type_symbol
_atom_site_label
_atom_site_fract_x
_atom_site_fract_y
_atom_site_fract_z
Si Si1 0.219406 0.204408 0.322015
Si Si2 0.038459 0.392806 0.172638
Si Si3 0.202655 0.885635 0.823424
Si Si4 0.113684 0.916298 0.323661
Si Si5 0.379522 0.765670 0.676518
Si Si6 0.014644 0.831069 0.664813
O O1 0.226041 0.205671 0.500000
O O2 0.260746 0.272551 0.236169
O O3 0.172660 0.288399 0.289470
O O4 0.212271 0.038637 0.263206
O O5 0.086404 0.378304 0.247772
O O6 0.000000 0.500000 0.236502
O O7 0.014576 0.237457 0.205893
O O8 0.044133 0.425823 0.000000
O O9 0.152840 0.845292 0.772149
O O10 0.205171 0.904447 0.000000
O O11 0.124979 0.913289 0.500000
O O12 0.067098 0.832831 0.304501
O O13 0.109862 0.092382 0.283620
O O14 0.385424 0.776081 0.500000
O O15 0.005887 0.762803 0.500000
O O16 0.000000 0.000000 0.651811
#
# Coordination Sequence:
#
# PCOD9429342 Si02
#       6
#     8   8   8   8   8   8
#     4  10  21  40  63  85 113 152 194 235 283 344
#     4  11  24  38  52  79 119 155 184 227 285 340
#     4  11  22  37  59  89 120 149 186 237 292 342
#     4   9  18  35  59  85 112 144 186 236 283 336
#     4   9  18  36  61  83 106 145 192 232 273 332
#     4  10  19  36  61  85 108 141 190 238 274 325
#
# _framework density 19.753086
#
# number of rings (size 3 to 8) (size 9 to 14) (size 15 to 20)
#    0.000    2.000    1.667    3.500    0.000    5.667 
#    3.000    0.000    0.000    0.000    0.000    0.000 
#    0.000    0.000    0.000    0.000    0.000    0.000 
#
# Total GULP energy -267653.682423 kJ/mol
# GULP energy per Si atom -5576.118384 kJ/mol
# Density = 1.970813 g / cm^3
# Si number density = 19.753086 Si / 1000 Ang^3
#
#
#
# Elastic Constant Matrix: (Units=GPa)
#
#
# Indices 1 2 3 4 5 6 
#
# 1 77.7452 -9.9546 11.9067 0.0000 0.0000 0.0000
# 2 -9.9546 -3.9514 -12.4845 0.0000 0.0000 0.0000
# 3 11.9067 -12.4845 13.8518 0.0000 0.0000 0.0000
# 4 0.0000 0.0000 0.0000 21.0440 0.0000 0.0000
# 5 0.0000 0.0000 0.0000 0.0000 9.3778 0.0000
# 6 0.0000 0.0000 0.0000 0.0000 0.0000 28.3845
#
#
#
# Elastic Compliance Matrix: (Units=1/GPa)
#
#
# Indices 1 2 3 4 5 6 
#
# 1 0.014804 0.000756 -0.012043 0.000000 0.000000 0.000000
# 2 0.000756 -0.065735 -0.059897 0.000000 0.000000 0.000000
# 3 -0.012043 -0.059897 0.028560 0.000000 0.000000 0.000000
# 4 0.000000 0.000000 0.000000 0.047520 0.000000 0.000000
# 5 0.000000 0.000000 0.000000 0.000000 0.106634 0.000000
# 6 0.000000 0.000000 0.000000 0.000000 0.000000 0.035230
#
#
# Mechanical properties :
#
#
# Convention : Reuss Voigt Hill
#
# Bulk Modulus (GPa) = -6.07025 7.39786 0.66380
# Shear Modulus (GPa) = 19.64885 18.30648 18.97766
#
# Velocity S-wave (km/s) = 3.15734 3.04758 3.10295
# Velocity P-wave (km/s) = 3.19563 4.01709 3.62967
#
# Compressibility (1/GPa) = -0.16473784
#
# Stress axis : x y z
#
# Youngs Moduli (GPa) = 67.55021 -15.21259 35.01355
#
# Poissons Ratio (x) = 0.01151 0.42168
# Poissons Ratio (y) = -0.05109 2.09719
# Poissons Ratio (z) = 0.81352 -0.91118
#
# Static dielectric constant tensor:
#      x y z
#    x 1.735180 0.000000 0.000000 
#    y 0.000000 1.720980 0.000000 
#    z 0.000000 0.000000 1.670540 
# 
# From -- ./inp_files/2863.got.cif
#   From: 2010.05.17/outbox.ucp.g08.bks.cvg/sg55_2_cif.got.tgz:2863.got - 2010.06.11 16:36:00.
