data_PCOD9429161
_publ_section_title
;
Structure prediction by ZEFSAII (Michael W. Deem and Ramdas Pophale) SiO2 
 PCOD9429161
Probable space group: P B A M
;
_chemical_formula_sum "Si O2"
_cell_formula_units_Z 40
_cell_length_a 9.113888
_cell_length_b 9.292309
_cell_length_c 19.746715
_cell_angle_alpha 90.000000
_cell_angle_beta 90.000000
_cell_angle_gamma 90.000000
_cell_volume 1672.330800
_symmetry_space_group_name_H-M "P B A M"
_symmetry_group_IT_number 55
_symmetry_cell_setting 'orthorhombic'
loop_
_space_group_symop_operation_xyz
x,y,z
-x,-y,z
1/2+x,1/2-y,-z
1/2-x,1/2+y,-z
-x,-y,-z
x,y,-z
1/2-x,1/2+y,z
1/2+x,1/2-y,z
loop_
_atom_site_type_symbol
_atom_site_label
_atom_site_fract_x
_atom_site_fract_y
_atom_site_fract_z
Si Si1 0.600313 0.866671 0.877783
Si Si2 0.448570 0.669591 0.763177
Si Si3 0.833989 0.055321 0.074915
Si Si4 0.677627 0.522729 0.579801
Si Si5 0.686590 0.788094 0.670897
O O1 0.500051 0.777122 0.823709
O O2 0.662177 0.727718 0.917916
O O3 0.500000 0.000000 0.904960
O O4 0.746612 0.965232 0.868254
O O5 0.500000 0.500000 0.767905
O O6 0.529280 0.745336 0.699517
O O7 0.281236 0.683669 0.739050
O O8 0.773882 0.019397 0.000000
O O9 0.000000 0.000000 0.076504
O O10 0.500000 0.500000 0.587949
O O11 0.705247 0.530812 0.500000
O O12 0.725016 0.657938 0.622818
O O13 0.780198 0.411144 0.618240
#
# Coordination Sequence:
#
# PCOD9429161 Si02
#       5
#     8   8   8   8   8
#     4  12  29  47  76 115 150 201 249 304 373 454
#     4  12  29  48  73 106 159 200 252 315 382 459
#     4  11  26  50  78 112 153 194 249 311 370 439
#     4  11  24  46  71 104 148 195 256 324 388 458
#     4  12  23  49  70 105 145 199 246 315 390 456
#
# _framework density 23.918714999999999
#
# number of rings (size 3 to 8) (size 9 to 14) (size 15 to 20)
#    0.000    0.400    4.000    3.000   11.200    3.200 
#    0.000    1.000    0.000    0.000    0.000    0.000 
#    0.000    0.000    0.000    0.000    0.000    0.000 
#
# Total GULP energy -222812.605033 kJ/mol
# GULP energy per Si atom -5570.315126 kJ/mol
# Density = 2.386427 g / cm^3
# Si number density = 23.918715 Si / 1000 Ang^3
#
#
#
# Elastic Constant Matrix: (Units=GPa)
#
#
# Indices 1 2 3 4 5 6 
#
# 1 54.7317 0.8122 -2.6498 0.0000 0.0000 0.0000
# 2 0.8122 147.2490 16.4784 0.0000 0.0000 0.0000
# 3 -2.6498 16.4784 120.9651 0.0000 0.0000 0.0000
# 4 0.0000 0.0000 0.0000 97.3006 0.0000 0.0000
# 5 0.0000 0.0000 0.0000 0.0000 29.1885 0.0000
# 6 0.0000 0.0000 0.0000 0.0000 0.0000 112.2762
#
#
#
# Elastic Compliance Matrix: (Units=1/GPa)
#
#
# Indices 1 2 3 4 5 6 
#
# 1 0.018294 -0.000148 0.000421 0.000000 0.000000 0.000000
# 2 -0.000148 0.006898 -0.000943 0.000000 0.000000 0.000000
# 3 0.000421 -0.000943 0.008405 0.000000 0.000000 0.000000
# 4 0.000000 0.000000 0.000000 0.010277 0.000000 0.000000
# 5 0.000000 0.000000 0.000000 0.000000 0.034260 0.000000
# 6 0.000000 0.000000 0.000000 0.000000 0.000000 0.008907
#
#
# Mechanical properties :
#
#
# Convention : Reuss Voigt Hill
#
# Bulk Modulus (GPa) = 31.00235 39.13639 35.06937
# Shear Modulus (GPa) = 50.43806 68.30673 59.37239
#
# Velocity S-wave (km/s) = 4.59707 5.34975 4.98763
# Velocity P-wave (km/s) = 6.41616 7.38631 6.91826
#
# Compressibility (1/GPa) = 0.03225562
#
# Stress axis : x y z
#
# Youngs Moduli (GPa) = 54.66415 144.97906 118.98380
#
# Poissons Ratio (x) = 0.02146 -0.05008
# Poissons Ratio (y) = 0.00809 0.11218
# Poissons Ratio (z) = -0.02301 0.13669
#
# Static dielectric constant tensor:
#      x y z
#    x 1.950910 0.000000 0.000000 
#    y 0.000000 1.822280 0.000000 
#    z 0.000000 0.000000 1.939970 
# 
# From -- ./inp_files/23408.got.cif
#   From: 2010.05.17/outbox.cif.g08.bks.cpg/sg55_12_cif.got.tgz:23408.got - 2010.06.03 13:27:54.
