data_PCOD9429269
_publ_section_title
;
Structure prediction by ZEFSAII (Michael W. Deem and Ramdas Pophale) SiO2 
 PCOD9429269
Probable space group: P B A M
;
_chemical_formula_sum "Si O2"
_cell_formula_units_Z 64
_cell_length_a 12.000000
_cell_length_b 30.000000
_cell_length_c 9.000000
_cell_angle_alpha 90.000000
_cell_angle_beta 90.000000
_cell_angle_gamma 90.000000
_cell_volume 3240.000000
_symmetry_space_group_name_H-M "P B A M"
_symmetry_group_IT_number 55
_symmetry_cell_setting 'orthorhombic'
loop_
_space_group_symop_operation_xyz
x,y,z
-x,-y,z
1/2+x,1/2-y,-z
1/2-x,1/2+y,-z
-x,-y,-z
x,y,-z
1/2-x,1/2+y,z
1/2+x,1/2-y,z
loop_
_atom_site_type_symbol
_atom_site_label
_atom_site_fract_x
_atom_site_fract_y
_atom_site_fract_z
Si Si1 0.056636 0.207240 0.318664
Si Si2 0.121696 0.482033 0.178313
Si Si3 0.142969 0.380068 0.822532
Si Si4 0.758499 0.438654 0.330092
Si Si5 0.998303 0.049219 0.671736
Si Si6 0.505536 0.194446 0.324602
Si Si7 0.371946 0.363599 0.319991
Si Si8 0.726244 0.842169 0.322650
O O1 0.061968 0.208698 0.500000
O O2 0.051614 0.258357 0.270015
O O3 0.162455 0.179837 0.262273
O O4 0.949541 0.177939 0.280636
O O5 0.134821 0.431298 0.230192
O O6 0.208259 0.517167 0.243567
O O7 0.000000 0.500000 0.219975
O O8 0.130279 0.482278 0.000000
O O9 0.047287 0.348345 0.762601
O O10 0.253639 0.359360 0.753940
O O11 0.144802 0.380285 0.000000
O O12 0.798284 0.444131 0.500000
O O13 0.625118 0.434357 0.332036
O O14 0.801080 0.391726 0.264424
O O15 0.959445 0.043018 0.500000
O O16 0.924645 0.089300 0.733533
O O17 0.000000 0.000000 0.742124
O O18 0.532760 0.189295 0.500000
O O19 0.372733 0.192754 0.309711
O O20 0.364873 0.365120 0.500000
O O21 0.743750 0.849937 0.500000
#
# Coordination Sequence:
#
# PCOD9429269 Si02
#       8
#     8   8   8   8   8   8   8   8
#     4   9  18  33  57  88 114 143 183 232 285 336
#     4  10  22  39  56  75 107 153 196 232 279 337
#     4  11  24  40  56  80 117 153 189 236 284 333
#     4  10  18  31  54  82 110 139 178 233 284 329
#     4   9  16  27  47  78 110 141 177 220 272 327
#     4  10  21  35  59  86 110 145 189 233 281 340
#     4  10  19  35  59  85 115 149 187 228 279 343
#     4   9  17  32  54  86 118 138 176 236 287 331
#
# _framework density 19.753086
#
# number of rings (size 3 to 8) (size 9 to 14) (size 15 to 20)
#    0.000    2.250    1.250    1.875    1.750    2.250 
#    0.000    1.250    0.000    3.750    0.000    0.000 
#    0.000    0.000    0.000    0.000    0.000    0.000 
#
# Total GULP energy -356771.564430 kJ/mol
# GULP energy per Si atom -5574.555694 kJ/mol
# Density = 1.970813 g / cm^3
# Si number density = 19.753086 Si / 1000 Ang^3
#
#
#
# Elastic Constant Matrix: (Units=GPa)
#
#
# Indices 1 2 3 4 5 6 
#
# 1 61.8337 24.2775 17.1015 0.0000 0.0000 0.0000
# 2 24.2775 115.2245 12.3576 0.0000 0.0000 0.0000
# 3 17.1015 12.3576 2.3426 0.0000 0.0000 0.0000
# 4 0.0000 0.0000 0.0000 11.0045 0.0000 0.0000
# 5 0.0000 0.0000 0.0000 0.0000 -43.3387 0.0000
# 6 0.0000 0.0000 0.0000 0.0000 0.0000 20.4405
#
#
#
# Elastic Compliance Matrix: (Units=1/GPa)
#
#
# Indices 1 2 3 4 5 6 
#
# 1 -0.006672 -0.008791 0.095076 0.000000 0.000000 0.000000
# 2 -0.008791 0.008401 0.019859 0.000000 0.000000 0.000000
# 3 0.095076 0.019859 -0.371958 0.000000 0.000000 0.000000
# 4 0.000000 0.000000 0.000000 0.090872 0.000000 0.000000
# 5 0.000000 0.000000 0.000000 0.000000 -0.023074 0.000000
# 6 0.000000 0.000000 0.000000 0.000000 0.000000 0.048922
#
#
# Mechanical properties :
#
#
# Convention : Reuss Voigt Hill
#
# Bulk Modulus (GPa) = -6.33154 31.87491 12.77169
# Shear Modulus (GPa) = -9.64423 5.99890 -1.82266
#
# Velocity S-wave (km/s) = -2.21201 1.74457 -0.96163
# Velocity P-wave (km/s) = 3.12030 4.49775 2.29058
#
# Compressibility (1/GPa) = -0.15793949
#
# Stress axis : x y z
#
# Youngs Moduli (GPa) = -149.88929 119.03206 -2.68847
#
# Poissons Ratio (x) = 1.04641 0.25561
# Poissons Ratio (y) = -1.31768 0.05339
# Poissons Ratio (z) = 14.25094 -2.36389
#
# Static dielectric constant tensor:
#      x y z
#    x 1.629050 0.000000 0.000000 
#    y 0.000000 1.649470 0.000000 
#    z 0.000000 0.000000 1.677790 
# 
# From -- ./inp_files/4601.got.cif
#   From: 2010.05.17/outbox.ucp.g08.bks.cvg/sg55_3_cif.got.tgz:4601.got - 2010.06.11 16:36:00.
