data_PCOD9429407
_publ_section_title
;
Structure prediction by ZEFSAII (Michael W. Deem and Ramdas Pophale) SiO2 
 PCOD9429407
Probable space group: P B A M
;
_chemical_formula_sum "Si O2"
_cell_formula_units_Z 64
_cell_length_a 30.000000
_cell_length_b 12.000000
_cell_length_c 9.000000
_cell_angle_alpha 90.000000
_cell_angle_beta 90.000000
_cell_angle_gamma 90.000000
_cell_volume 3240.000000
_symmetry_space_group_name_H-M "P B A M"
_symmetry_group_IT_number 55
_symmetry_cell_setting 'orthorhombic'
loop_
_space_group_symop_operation_xyz
x,y,z
-x,-y,z
1/2+x,1/2-y,-z
1/2-x,1/2+y,-z
-x,-y,-z
x,y,-z
1/2-x,1/2+y,z
1/2+x,1/2-y,z
loop_
_atom_site_type_symbol
_atom_site_label
_atom_site_fract_x
_atom_site_fract_y
_atom_site_fract_z
Si Si1 0.691549 0.764343 0.324131
Si Si2 0.946755 0.801544 0.323260
Si Si3 0.670614 0.537083 0.827991
Si Si4 0.607793 0.919717 0.321176
Si Si5 0.468502 0.220134 0.177871
Si Si6 0.935794 0.032563 0.827691
Si Si7 0.284361 0.696896 0.823321
Si Si8 0.640887 0.165762 0.322094
O O1 0.697561 0.774782 0.500000
O O2 0.685165 0.636927 0.276782
O O3 0.647803 0.834909 0.282402
O O4 0.735104 0.806512 0.241088
O O5 0.952603 0.798169 0.500000
O O6 0.953038 0.927247 0.264426
O O7 0.897503 0.756084 0.287233
O O8 0.982284 0.721019 0.245353
O O9 0.617504 0.527880 0.820908
O O10 0.691922 0.419754 0.786145
O O11 0.682905 0.562720 0.000000
O O12 0.601685 0.918012 0.500000
O O13 0.563459 0.873818 0.244284
O O14 0.622901 0.044003 0.278188
O O15 0.449784 0.343496 0.220088
O O16 0.469200 0.213172 0.000000
O O17 0.949148 0.017898 0.000000
O O18 0.313669 0.796189 0.754415
O O19 0.283583 0.709009 0.000000
O O20 0.647407 0.164531 0.500000
#
# Coordination Sequence:
#
# PCOD9429407 Si02
#       8
#     8   8   8   8   8   8   8   8
#     4  11  24  40  63  92 123 158 200 250 300 360
#     4  11  23  38  61  90 122 159 201 249 299 360
#     4  10  21  40  64  91 124 160 200 248 303 359
#     4  10  23  43  63  86 119 158 202 250 300 356
#     4  11  23  39  62  89 121 159 199 248 303 361
#     4  10  20  38  61  88 123 157 195 246 303 357
#     4  11  24  41  64  92 123 159 201 250 299 358
#     4  10  23  43  63  87 121 161 203 249 303 358
#
# _framework density 19.753086
#
# number of rings (size 3 to 8) (size 9 to 14) (size 15 to 20)
#    0.000    1.500    2.500    1.875    1.750    6.000 
#    0.000    2.500    0.000    0.000    0.000    0.000 
#    0.000    0.000    0.000    0.000    0.000    0.000 
#
# Total GULP energy -357724.997892 kJ/mol
# GULP energy per Si atom -5589.453092 kJ/mol
# Density = 1.970813 g / cm^3
# Si number density = 19.753086 Si / 1000 Ang^3
#
#
#
# Elastic Constant Matrix: (Units=GPa)
#
#
# Indices 1 2 3 4 5 6 
#
# 1 43.9880 -18.1827 9.3951 0.0000 0.0000 0.0000
# 2 -18.1827 40.2922 16.5933 0.0000 0.0000 0.0000
# 3 9.3951 16.5933 14.6337 0.0000 0.0000 0.0000
# 4 0.0000 0.0000 0.0000 29.3761 0.0000 0.0000
# 5 0.0000 0.0000 0.0000 0.0000 34.6379 0.0000
# 6 0.0000 0.0000 0.0000 0.0000 0.0000 14.8458
#
#
#
# Elastic Compliance Matrix: (Units=1/GPa)
#
#
# Indices 1 2 3 4 5 6 
#
# 1 -1.315397 -1.766115 2.847121 0.000000 0.000000 0.000000
# 2 -1.766115 -2.324709 3.769884 0.000000 0.000000 0.000000
# 3 2.847121 3.769884 -6.034269 0.000000 0.000000 0.000000
# 4 0.000000 0.000000 0.000000 0.034041 0.000000 0.000000
# 5 0.000000 0.000000 0.000000 0.000000 0.028870 0.000000
# 6 0.000000 0.000000 0.000000 0.000000 0.000000 0.067359
#
#
# Mechanical properties :
#
#
# Convention : Reuss Voigt Hill
#
# Bulk Modulus (GPa) = 36.49120 12.72504 24.60812
# Shear Modulus (GPa) = -0.25992 21.84584 10.79296
#
# Velocity S-wave (km/s) = -0.36314 3.32918 2.34004
# Velocity P-wave (km/s) = 4.28228 4.60804 4.44814
#
# Compressibility (1/GPa) = 0.02740387
#
# Stress axis : x y z
#
# Youngs Moduli (GPa) = -0.76023 -0.43016 -0.16572
#
# Poissons Ratio (x) = -0.75971 0.47183
# Poissons Ratio (y) = -1.34265 0.62475
# Poissons Ratio (z) = 2.16446 1.62166
#
# Static dielectric constant tensor:
#      x y z
#    x 1.690010 0.000000 0.000000 
#    y 0.000000 1.674080 0.000000 
#    z 0.000000 0.000000 1.662840 
# 
# From -- ./inp_files/4484.got.cif
#   From: 2010.05.17/outbox.ucp.g08.bks.cvg/sg55_3_cif.got.tgz:4484.got - 2010.06.11 16:36:00.
