data_PCOD9429345
_publ_section_title
;
Structure prediction by ZEFSAII (Michael W. Deem and Ramdas Pophale) SiO2 
 PCOD9429345
Probable space group: P B A M
;
_chemical_formula_sum "Si O2"
_cell_formula_units_Z 64
_cell_length_a 30.000000
_cell_length_b 12.000000
_cell_length_c 9.000000
_cell_angle_alpha 90.000000
_cell_angle_beta 90.000000
_cell_angle_gamma 90.000000
_cell_volume 3240.000000
_symmetry_space_group_name_H-M "P B A M"
_symmetry_group_IT_number 55
_symmetry_cell_setting 'orthorhombic'
loop_
_space_group_symop_operation_xyz
x,y,z
-x,-y,z
1/2+x,1/2-y,-z
1/2-x,1/2+y,-z
-x,-y,-z
x,y,-z
1/2-x,1/2+y,z
1/2+x,1/2-y,z
loop_
_atom_site_type_symbol
_atom_site_label
_atom_site_fract_x
_atom_site_fract_y
_atom_site_fract_z
Si Si1 0.629431 0.165049 0.675828
Si Si2 0.302727 0.244049 0.824140
Si Si3 0.831043 0.036347 0.327069
Si Si4 0.548143 0.758585 0.823456
Si Si5 0.433632 0.476046 0.673120
Si Si6 0.622632 0.928281 0.178043
Si Si7 0.711323 0.311783 0.320986
Si Si8 0.537299 0.287954 0.675671
O O1 0.635436 0.146830 0.500000
O O2 0.671598 0.233301 0.732644
O O3 0.585641 0.237839 0.696591
O O4 0.623322 0.048574 0.753820
O O5 0.327273 0.355265 0.772182
O O6 0.332808 0.138639 0.783967
O O7 0.256761 0.234647 0.739791
O O8 0.296256 0.245737 0.000000
O O9 0.821561 0.064540 0.500000
O O10 0.881467 0.991902 0.322222
O O11 0.798288 0.938845 0.275594
O O12 0.560576 0.637544 0.760571
O O13 0.581963 0.851990 0.767766
O O14 0.498758 0.780054 0.766066
O O15 0.550276 0.755441 0.000000
O O16 0.444539 0.455968 0.500000
O O17 0.461184 0.583084 0.724617
O O18 0.619755 0.935308 0.000000
O O19 0.710755 0.312153 0.500000
O O20 0.527124 0.285221 0.500000
#
# Coordination Sequence:
#
# PCOD9429345 Si02
#       8
#     8   8   8   8   8   8   8   8
#     4  10  22  41  64  87 115 151 196 246 294 346
#     4  11  24  41  60  87 123 160 197 241 290 348
#     4  10  20  38  65  91 118 153 194 242 295 348
#     4  11  23  39  58  85 120 158 196 238 286 345
#     4  10  19  36  62  89 119 152 188 237 295 347
#     4  10  24  43  58  80 120 160 196 239 289 344
#     4  10  22  41  63  91 120 151 195 247 296 348
#     4  10  21  39  61  89 119 149 190 243 296 348
#
# _framework density 19.753086
#
# number of rings (size 3 to 8) (size 9 to 14) (size 15 to 20)
#    0.000    1.750    2.500    1.125    1.750    6.000 
#    0.000    2.500    0.000    0.000    0.000    0.000 
#    0.000    0.000    0.000    0.000    0.000    0.000 
#
# Total GULP energy -357277.712629 kJ/mol
# GULP energy per Si atom -5582.464260 kJ/mol
# Density = 1.970813 g / cm^3
# Si number density = 19.753086 Si / 1000 Ang^3
#
#
#
# Elastic Constant Matrix: (Units=GPa)
#
#
# Indices 1 2 3 4 5 6 
#
# 1 98.1624 79.8198 33.2762 0.0000 0.0000 0.0000
# 2 79.8198 169.7245 42.8812 0.0000 0.0000 0.0000
# 3 33.2762 42.8812 5.7136 0.0000 0.0000 0.0000
# 4 0.0000 0.0000 0.0000 41.3361 0.0000 0.0000
# 5 0.0000 0.0000 0.0000 0.0000 -5.2257 0.0000
# 6 0.0000 0.0000 0.0000 0.0000 0.0000 -73.5271
#
#
#
# Elastic Compliance Matrix: (Units=1/GPa)
#
#
# Indices 1 2 3 4 5 6 
#
# 1 0.010617 -0.011861 0.027183 0.000000 0.000000 0.000000
# 2 -0.011861 0.006676 0.018975 0.000000 0.000000 0.000000
# 3 0.027183 0.018975 -0.125703 0.000000 0.000000 0.000000
# 4 0.000000 0.000000 0.000000 0.024192 0.000000 0.000000
# 5 0.000000 0.000000 0.000000 0.000000 -0.191363 0.000000
# 6 0.000000 0.000000 0.000000 0.000000 0.000000 -0.013600
#
#
# Mechanical properties :
#
#
# Convention : Reuss Voigt Hill
#
# Bulk Modulus (GPa) = -25.11546 65.06164 19.97309
# Shear Modulus (GPa) = -13.47531 0.35822 -6.55854
#
# Velocity S-wave (km/s) = -2.61471 0.42631 -1.82414
# Velocity P-wave (km/s) = 4.67524 5.76639 2.38678
#
# Compressibility (1/GPa) = -0.03981612
#
# Stress axis : x y z
#
# Youngs Moduli (GPa) = 94.18803 149.79570 -7.95523
#
# Poissons Ratio (x) = 1.77670 0.21624
# Poissons Ratio (y) = 1.11715 0.15095
# Poissons Ratio (z) = -2.56028 -2.84244
#
# Static dielectric constant tensor:
#      x y z
#    x 1.731290 0.000000 0.000000 
#    y 0.000000 1.651770 0.000000 
#    z 0.000000 0.000000 1.658270 
# 
# From -- ./inp_files/4665.got.cif
#   From: 2010.05.17/outbox.ucp.g08.bks.cvg/sg55_3_cif.got.tgz:4665.got - 2010.06.11 16:36:00.
