data_PCOD9429634
_publ_section_title
;
Structure prediction by ZEFSAII (Michael W. Deem and Ramdas Pophale) SiO2 
 PCOD9429634
Probable space group: P C C N
;
_chemical_formula_sum "Si O2"
_cell_formula_units_Z 60
_cell_length_a 26.298015
_cell_length_b 7.222833
_cell_length_c 13.827689
_cell_angle_alpha 90.000000
_cell_angle_beta 90.000000
_cell_angle_gamma 90.000000
_cell_volume 2626.516573
_symmetry_space_group_name_H-M "P C C N"
_symmetry_group_IT_number 56
_symmetry_cell_setting 'orthorhombic'
loop_
_space_group_symop_operation_xyz
x,y,z
1/2-x,1/2-y,z
1/2+x,-y,1/2-z
-x,1/2+y,1/2-z
-x,-y,-z
1/2+x,1/2+y,-z
1/2-x,y,1/2+z
x,1/2-y,1/2+z
loop_
_atom_site_type_symbol
_atom_site_label
_atom_site_fract_x
_atom_site_fract_y
_atom_site_fract_z
Si Si1 0.947803 0.125628 0.205272
Si Si2 0.295470 0.099701 0.974052
Si Si3 0.250000 0.750000 0.939326
Si Si4 0.646096 0.873791 0.215722
Si Si5 0.634260 0.618059 0.928351
Si Si6 0.155427 0.543708 0.359543
Si Si7 0.535094 0.691282 0.653808
Si Si8 0.520470 0.809889 0.452485
O O1 0.888230 0.160397 0.194375
O O2 0.980018 0.149658 0.301871
O O3 0.979419 0.243310 0.126803
O O4 0.954351 0.908914 0.177343
O O5 0.250000 0.250000 0.965450
O O6 0.319390 0.048598 0.870037
O O7 0.273955 0.906047 0.008127
O O8 0.338361 0.192734 0.039058
O O9 0.291079 0.642322 0.873925
O O10 0.657674 0.936374 0.324887
O O11 0.656931 0.652212 0.197414
O O12 0.586168 0.904354 0.192988
O O13 0.574988 0.648451 0.906679
O O14 0.638417 0.498263 0.027628
O O15 0.531386 0.672542 0.539355
O O16 0.500000 0.000000 0.500000
#
# Coordination Sequence:
#
# PCOD9429634 Si02
#       8
#     8   8   4   8   8   8   8   8
#     4  10  20  36  60  93 127 166 211 258 320 396
#     4  11  23  44  67  92 129 174 220 272 329 385
#     4  12  24  48  68  88 132 174 216 282 334 374
#     4  10  20  38  67  94 125 171 216 264 329 394
#     4  11  19  39  70  94 128 169 222 268 327 403
#     4  10  22  43  62  94 132 169 215 273 328 384
#     4  10  19  34  60  91 128 166 206 252 320 391
#     4  10  17  34  63  90 127 172 208 254 325 395
#
# _framework density 22.843944
#
# number of rings (size 3 to 8) (size 9 to 14) (size 15 to 20)
#    0.000    1.600    9.333    0.000    0.000    1.600 
#    0.000    6.000    0.000    0.000    0.000    0.000 
#    0.000    0.000    0.000    0.000    0.000    0.000 
#
# Total GULP energy -334867.433131 kJ/mol
# GULP energy per Si atom -5581.123886 kJ/mol
# Density = 2.279195 g / cm^3
# Si number density = 22.843944 Si / 1000 Ang^3
#
#
#
# Elastic Constant Matrix: (Units=GPa)
#
#
# Indices 1 2 3 4 5 6 
#
# 1 111.8883 21.9551 -15.5458 0.0000 0.0000 0.0000
# 2 21.9551 57.1658 -3.1516 0.0000 0.0000 0.0000
# 3 -15.5458 -3.1516 65.1962 0.0000 0.0000 0.0000
# 4 0.0000 0.0000 0.0000 11.2651 0.0000 0.0000
# 5 0.0000 0.0000 0.0000 0.0000 12.4924 0.0000
# 6 0.0000 0.0000 0.0000 0.0000 0.0000 36.5183
#
#
#
# Elastic Compliance Matrix: (Units=1/GPa)
#
#
# Indices 1 2 3 4 5 6 
#
# 1 0.009971 -0.003708 0.002198 0.000000 0.000000 0.000000
# 2 -0.003708 0.018919 0.000030 0.000000 0.000000 0.000000
# 3 0.002198 0.000030 0.015864 0.000000 0.000000 0.000000
# 4 0.000000 0.000000 0.000000 0.088770 0.000000 0.000000
# 5 0.000000 0.000000 0.000000 0.000000 0.080048 0.000000
# 6 0.000000 0.000000 0.000000 0.000000 0.000000 0.027384
#
#
# Mechanical properties :
#
#
# Convention : Reuss Voigt Hill
#
# Bulk Modulus (GPa) = 23.92679 26.75173 25.33926
# Shear Modulus (GPa) = 19.39148 27.45468 23.42308
#
# Velocity S-wave (km/s) = 2.91669 3.47051 3.20559
# Velocity P-wave (km/s) = 4.67328 5.27213 4.98171
#
# Compressibility (1/GPa) = 0.04179416
#
# Stress axis : x y z
#
# Youngs Moduli (GPa) = 100.29574 52.85755 63.03602
#
# Poissons Ratio (x) = 0.19600 -0.13856
# Poissons Ratio (y) = 0.37190 -0.00191
# Poissons Ratio (z) = -0.22047 -0.00160
#
# Static dielectric constant tensor:
#      x y z
#    x 1.891550 0.000000 0.000000 
#    y 0.000000 1.986520 0.000000 
#    z 0.000000 0.000000 1.858620 
# 
# From -- ./inp_files/13416.got.cif
#   From: 2010.05.17/outbox.cif.g08.bks.cpg/sg56_7_cif.got.tgz:13416.got - 2010.06.03 13:42:01.
