data_PCOD9429024
_publ_section_title
;
Structure prediction by ZEFSAII (Michael W. Deem and Ramdas Pophale) SiO2 
 PCOD9429024
Probable space group: P B A M
;
_chemical_formula_sum "Si O2"
_cell_formula_units_Z 36
_cell_length_a 7.488302
_cell_length_b 14.626340
_cell_length_c 15.640582
_cell_angle_alpha 90.000000
_cell_angle_beta 90.000000
_cell_angle_gamma 90.000000
_cell_volume 1713.057439
_symmetry_space_group_name_H-M "P B A M"
_symmetry_group_IT_number 55
_symmetry_cell_setting 'orthorhombic'
loop_
_space_group_symop_operation_xyz
x,y,z
-x,-y,z
1/2+x,1/2-y,-z
1/2-x,1/2+y,-z
-x,-y,-z
x,y,-z
1/2-x,1/2+y,z
1/2+x,1/2-y,z
loop_
_atom_site_type_symbol
_atom_site_label
_atom_site_fract_x
_atom_site_fract_y
_atom_site_fract_z
Si Si1 0.709792 0.470468 0.594787
Si Si2 0.087406 0.169763 0.270994
Si Si3 0.500000 0.000000 0.153582
Si Si4 0.859385 0.917529 0.095474
Si Si5 0.673926 0.125928 0.295496
O O1 0.500000 0.500000 0.591055
O O2 0.758126 0.437570 0.500000
O O3 0.710861 0.395106 0.669843
O O4 0.826203 0.557429 0.624064
O O5 0.135789 0.156120 0.171656
O O6 0.099556 0.272582 0.304517
O O7 0.884199 0.136858 0.277031
O O8 0.336884 0.039208 0.099884
O O9 0.579947 0.077160 0.216116
O O10 0.897799 0.882399 0.000000
O O11 0.000000 0.000000 0.113851
#
# Coordination Sequence:
#
# PCOD9429024 Si02
#       5
#     8   8   4   8   8
#     4   9  19  39  66  93 128 171 217 270 329 390
#     4  11  21  42  63  96 134 175 218 273 330 395
#     4  12  21  42  67  96 126 176 217 278 325 400
#     4  11  22  41  67  95 131 174 222 275 332 393
#     4  11  23  38  69  93 133 175 219 270 335 391
#
# _framework density 21.015058
#
# number of rings (size 3 to 8) (size 9 to 14) (size 15 to 20)
#    0.000    1.333    4.444    2.333    0.000    0.889 
#    0.000    6.111    0.000    0.000    0.000    0.000 
#    0.000    0.000    0.000    0.000    0.000    0.000 
#
# Total GULP energy -201166.090425 kJ/mol
# GULP energy per Si atom -5587.946956 kJ/mol
# Density = 2.096723 g / cm^3
# Si number density = 21.015058 Si / 1000 Ang^3
#
#
#
# Elastic Constant Matrix: (Units=GPa)
#
#
# Indices 1 2 3 4 5 6 
#
# 1 84.1493 17.9886 16.4821 0.0000 0.0000 0.0000
# 2 17.9886 111.8042 53.5754 0.0000 0.0000 0.0000
# 3 16.4821 53.5754 134.6881 0.0000 0.0000 0.0000
# 4 0.0000 0.0000 0.0000 6.9887 0.0000 0.0000
# 5 0.0000 0.0000 0.0000 0.0000 13.5108 0.0000
# 6 0.0000 0.0000 0.0000 0.0000 0.0000 34.8758
#
#
#
# Elastic Compliance Matrix: (Units=1/GPa)
#
#
# Indices 1 2 3 4 5 6 
#
# 1 0.012393 -0.001566 -0.000894 0.000000 0.000000 0.000000
# 2 -0.001566 0.011248 -0.004283 0.000000 0.000000 0.000000
# 3 -0.000894 -0.004283 0.009237 0.000000 0.000000 0.000000
# 4 0.000000 0.000000 0.000000 0.143088 0.000000 0.000000
# 5 0.000000 0.000000 0.000000 0.000000 0.074015 0.000000
# 6 0.000000 0.000000 0.000000 0.000000 0.000000 0.028673
#
#
# Mechanical properties :
#
#
# Convention : Reuss Voigt Hill
#
# Bulk Modulus (GPa) = 51.56022 56.30375 53.93199
# Shear Modulus (GPa) = 16.74459 27.24812 21.99635
#
# Velocity S-wave (km/s) = 2.82581 3.60474 3.23878
# Velocity P-wave (km/s) = 5.93591 6.64649 6.30123
#
# Compressibility (1/GPa) = 0.01939480
#
# Stress axis : x y z
#
# Youngs Moduli (GPa) = 80.68807 88.90203 108.25466
#
# Poissons Ratio (x) = 0.13920 0.09676
# Poissons Ratio (y) = 0.12633 0.46362
# Poissons Ratio (z) = 0.07212 0.38074
#
# Static dielectric constant tensor:
#      x y z
#    x 1.788280 0.000000 0.000000 
#    y 0.000000 1.747970 0.000000 
#    z 0.000000 0.000000 1.741560 
# 
# From -- ./inp_files/16996.got.cif
#   From: 2010.05.17/outbox.cif.g08.bks.cpg/sg55_9_cif.got.tgz:16996.got - 2010.06.03 13:27:54.
