data_PCOD9429778
_publ_section_title
;
Structure prediction by ZEFSAII (Michael W. Deem and Ramdas Pophale) SiO2 
 PCOD9429778
Probable space group: P C C N
;
_chemical_formula_sum "Si O2"
_cell_formula_units_Z 56
_cell_length_a 13.194940
_cell_length_b 19.634705
_cell_length_c 9.208983
_cell_angle_alpha 90.000000
_cell_angle_beta 90.000000
_cell_angle_gamma 90.000000
_cell_volume 2385.851845
_symmetry_space_group_name_H-M "P C C N"
_symmetry_group_IT_number 56
_symmetry_cell_setting 'orthorhombic'
loop_
_space_group_symop_operation_xyz
x,y,z
1/2-x,1/2-y,z
1/2+x,-y,1/2-z
-x,1/2+y,1/2-z
-x,-y,-z
1/2+x,1/2+y,-z
1/2-x,y,1/2+z
x,1/2-y,1/2+z
loop_
_atom_site_type_symbol
_atom_site_label
_atom_site_fract_x
_atom_site_fract_y
_atom_site_fract_z
Si Si1 0.750000 0.250000 0.614547
Si Si2 0.315553 0.953728 0.328640
Si Si3 0.113399 0.865344 0.296681
Si Si4 0.250000 0.250000 0.980603
Si Si5 0.242550 0.454622 0.069004
Si Si6 0.085876 0.656143 0.485106
Si Si7 0.457842 0.292426 0.510540
Si Si8 0.825847 0.635926 0.180643
O O1 0.831666 0.208989 0.707300
O O2 0.803873 0.307144 0.519036
O O3 0.203103 0.918404 0.331353
O O4 0.401453 0.896687 0.352926
O O5 0.317020 0.997246 0.181931
O O6 0.318175 0.001752 0.469525
O O7 0.071306 0.881054 0.137812
O O8 0.024033 0.849669 0.410024
O O9 0.346397 0.273649 0.571312
O O10 0.234842 0.314595 0.374463
O O11 0.301593 0.399571 0.168642
O O12 0.171749 0.420001 0.948101
O O13 0.012992 0.720424 0.484272
O O14 0.425466 0.318481 0.349399
#
# Coordination Sequence:
#
# PCOD9429778 Si02
#       8
#     4   8   8   4   8   8   8   8
#     4   8  18  30  50  88 132 166 194 254 324 386
#     4  10  20  37  64  91 134 170 205 255 321 403
#     4  10  18  33  58  93 128 162 210 258 322 387
#     4   8  20  42  64  86 114 164 222 272 318 354
#     4  10  20  39  64  91 122 178 208 253 317 396
#     4  10  18  33  59  93 128 161 210 260 325 384
#     4   9  21  39  60  92 123 164 209 284 318 372
#     4   9  21  39  68  87 118 164 221 264 324 367
#
# _framework density 23.471700999999999
#
# number of rings (size 3 to 8) (size 9 to 14) (size 15 to 20)
#    0.857    1.714    1.429    0.429    0.000    2.857 
#    2.571    2.857    6.286    2.571    0.000    0.000 
#    0.000    0.000    0.000    0.000    0.000    0.000 
#
# Total GULP energy -311902.724086 kJ/mol
# GULP energy per Si atom -5569.691502 kJ/mol
# Density = 2.341828 g / cm^3
# Si number density = 23.471701 Si / 1000 Ang^3
#
#
#
# Elastic Constant Matrix: (Units=GPa)
#
#
# Indices 1 2 3 4 5 6 
#
# 1 53.0374 9.9357 10.3481 0.0000 0.0000 0.0000
# 2 9.9357 83.0007 29.0261 0.0000 0.0000 0.0000
# 3 10.3481 29.0261 112.8755 0.0000 0.0000 0.0000
# 4 0.0000 0.0000 0.0000 14.2798 0.0000 0.0000
# 5 0.0000 0.0000 0.0000 0.0000 18.4300 0.0000
# 6 0.0000 0.0000 0.0000 0.0000 0.0000 26.1714
#
#
#
# Elastic Compliance Matrix: (Units=1/GPa)
#
#
# Indices 1 2 3 4 5 6 
#
# 1 0.019460 -0.001874 -0.001302 0.000000 0.000000 0.000000
# 2 -0.001874 0.013419 -0.003279 0.000000 0.000000 0.000000
# 3 -0.001302 -0.003279 0.009822 0.000000 0.000000 0.000000
# 4 0.000000 0.000000 0.000000 0.070029 0.000000 0.000000
# 5 0.000000 0.000000 0.000000 0.000000 0.054260 0.000000
# 6 0.000000 0.000000 0.000000 0.000000 0.000000 0.038210
#
#
# Mechanical properties :
#
#
# Convention : Reuss Voigt Hill
#
# Bulk Modulus (GPa) = 33.56778 38.61484 36.09131
# Shear Modulus (GPa) = 21.92607 25.08314 23.50460
#
# Velocity S-wave (km/s) = 3.05970 3.27257 3.16793
# Velocity P-wave (km/s) = 5.17830 5.54680 5.36572
#
# Compressibility (1/GPa) = 0.02979047
#
# Stress axis : x y z
#
# Youngs Moduli (GPa) = 51.38812 74.52059 101.81352
#
# Poissons Ratio (x) = 0.13966 0.13257
# Poissons Ratio (y) = 0.09631 0.33384
# Poissons Ratio (z) = 0.06691 0.24435
#
# Static dielectric constant tensor:
#      x y z
#    x 1.945950 0.000000 0.000000 
#    y 0.000000 1.992380 0.000000 
#    z 0.000000 0.000000 1.939870 
# 
# From -- ./inp_files/3611.got.cif
#   From: 2010.05.17/outbox.cif.g08.bks.cpg/sg56_2_cif.got.tgz:3611.got - 2010.06.03 13:42:01.
