data_PCOD9429007
_publ_section_title
;
Structure prediction by ZEFSAII (Michael W. Deem and Ramdas Pophale) SiO2 
 PCOD9429007
Probable space group: P B A M
;
_chemical_formula_sum "Si O2"
_cell_formula_units_Z 40
_cell_length_a 8.382418
_cell_length_b 13.299395
_cell_length_c 14.007080
_cell_angle_alpha 90.000000
_cell_angle_beta 90.000000
_cell_angle_gamma 90.000000
_cell_volume 1561.524519
_symmetry_space_group_name_H-M "P B A M"
_symmetry_group_IT_number 55
_symmetry_cell_setting 'orthorhombic'
loop_
_space_group_symop_operation_xyz
x,y,z
-x,-y,z
1/2+x,1/2-y,-z
1/2-x,1/2+y,-z
-x,-y,-z
x,y,-z
1/2-x,1/2+y,z
1/2+x,1/2-y,z
loop_
_atom_site_type_symbol
_atom_site_label
_atom_site_fract_x
_atom_site_fract_y
_atom_site_fract_z
Si Si1 0.292845 0.695847 0.500000
Si Si2 0.005695 0.800703 0.789923
Si Si3 0.354965 0.401870 0.500000
Si Si4 0.856452 0.604341 0.794802
Si Si5 0.774945 0.939650 0.334895
Si Si6 0.779420 0.537544 0.000000
Si Si7 0.932433 0.852938 0.000000
O O1 0.476450 0.657098 0.500000
O O2 0.276136 0.814586 0.500000
O O3 0.214041 0.646186 0.593149
O O4 0.981296 0.686389 0.757906
O O5 0.904817 0.882192 0.730362
O O6 0.939716 0.798418 0.898715
O O7 0.186570 0.836933 0.787055
O O8 0.335478 0.473526 0.591457
O O9 0.834980 0.502946 0.735329
O O10 0.867836 0.572351 0.905147
O O11 0.601892 0.587687 0.000000
O O12 0.726143 0.421367 0.000000
#
# Coordination Sequence:
#
# PCOD9429007 Si02
#       7
#     4   8   4   8   8   4   4
#     4  11  23  41  62  86 112 145 187 233 282 336
#     4  11  21  36  58  85 114 149 190 232 275 327
#     4  11  23  41  62  86 112 145 187 233 282 336
#     4  11  21  36  58  85 114 149 190 232 275 327
#     4  11  22  39  63  84 111 151 192 227 273 342
#     4   9  17  32  57  82 109 150 195 227 264 328
#     4   9  17  32  57  82 109 150 195 227 264 328
#
# _framework density 25.615995000000002
#
# number of rings (size 3 to 8) (size 9 to 14) (size 15 to 20)
#    0.000    1.400    2.000    6.000    0.000    0.000 
#    0.000    5.000    0.000    1.200    0.000    0.000 
#    0.000    0.000    0.000    0.000    0.000    0.000 
#
# Total GULP energy -224127.143773 kJ/mol
# GULP energy per Si atom -5603.178594 kJ/mol
# Density = 2.555769 g / cm^3
# Si number density = 25.615995 Si / 1000 Ang^3
#
#
#
# Elastic Constant Matrix: (Units=GPa)
#
#
# Indices 1 2 3 4 5 6 
#
# 1 83.6275 52.7864 38.6078 0.0000 0.0000 0.0000
# 2 52.7864 149.3343 38.0306 0.0000 0.0000 0.0000
# 3 38.6078 38.0306 170.7321 0.0000 0.0000 0.0000
# 4 0.0000 0.0000 0.0000 -0.2243 0.0000 0.0000
# 5 0.0000 0.0000 0.0000 0.0000 -78.5627 0.0000
# 6 0.0000 0.0000 0.0000 0.0000 0.0000 53.5733
#
#
#
# Elastic Compliance Matrix: (Units=1/GPa)
#
#
# Indices 1 2 3 4 5 6 
#
# 1 0.016384 -0.005139 -0.002560 0.000000 0.000000 0.000000
# 2 -0.005139 0.008711 -0.000778 0.000000 0.000000 0.000000
# 3 -0.002560 -0.000778 0.006609 0.000000 0.000000 0.000000
# 4 0.000000 0.000000 0.000000 -4.458088 0.000000 0.000000
# 5 0.000000 0.000000 0.000000 0.000000 -0.012729 0.000000
# 6 0.000000 0.000000 0.000000 0.000000 0.000000 0.018666
#
#
# Mechanical properties :
#
#
# Convention : Reuss Voigt Hill
#
# Bulk Modulus (GPa) = 67.80123 73.61592 70.70858
# Shear Modulus (GPa) = -1.13673 13.24186 6.05257
#
# Velocity S-wave (km/s) = -0.66687 2.27609 1.53881
# Velocity P-wave (km/s) = 5.09243 5.97563 5.55162
#
# Compressibility (1/GPa) = 0.01474899
#
# Stress axis : x y z
#
# Youngs Moduli (GPa) = 61.03651 114.79459 151.29970
#
# Poissons Ratio (x) = 0.58996 0.38734
# Poissons Ratio (y) = 0.31368 0.11775
# Poissons Ratio (z) = 0.15626 0.08934
#
# Static dielectric constant tensor:
#      x y z
#    x 2.028200 0.000000 0.000000 
#    y 0.000000 1.999620 0.000000 
#    z 0.000000 0.000000 1.995900 
# 
# From -- ./inp_files/18188.got.cif
#   From: 2010.05.17/outbox.cif.g08.bks.cpg/sg55_10_cif.got.tgz:18188.got - 2010.06.03 13:27:54.
