data_PCOD9429243
_publ_section_title
;
Structure prediction by ZEFSAII (Michael W. Deem and Ramdas Pophale) SiO2 
 PCOD9429243
Probable space group: P B A M
;
_chemical_formula_sum "Si O2"
_cell_formula_units_Z 48
_cell_length_a 7.991573
_cell_length_b 12.710391
_cell_length_c 21.741156
_cell_angle_alpha 90.000000
_cell_angle_beta 90.000000
_cell_angle_gamma 90.000000
_cell_volume 2208.380043
_symmetry_space_group_name_H-M "P B A M"
_symmetry_group_IT_number 55
_symmetry_cell_setting 'orthorhombic'
loop_
_space_group_symop_operation_xyz
x,y,z
-x,-y,z
1/2+x,1/2-y,-z
1/2-x,1/2+y,-z
-x,-y,-z
x,y,-z
1/2-x,1/2+y,z
1/2+x,1/2-y,z
loop_
_atom_site_type_symbol
_atom_site_label
_atom_site_fract_x
_atom_site_fract_y
_atom_site_fract_z
Si Si1 0.812724 0.919231 0.500000
Si Si2 0.969866 0.212668 0.167924
Si Si3 0.674738 0.565391 0.069445
Si Si4 0.830075 0.567094 0.600744
Si Si5 0.186542 0.581569 0.830992
Si Si6 0.170911 0.934178 0.730171
Si Si7 0.026841 0.285317 0.500000
O O1 0.788887 0.992178 0.440462
O O2 0.967815 0.840152 0.500000
O O3 0.654119 0.839498 0.500000
O O4 0.966185 0.337914 0.169658
O O5 0.877828 0.164819 0.227669
O O6 0.150619 0.158117 0.167232
O O7 0.871800 0.169086 0.108074
O O8 0.500000 0.500000 0.067259
O O9 0.797010 0.492839 0.109766
O O10 0.730937 0.585828 0.000000
O O11 0.750513 0.594839 0.665563
O O12 0.880268 0.667317 0.559768
O O13 0.000000 0.500000 0.610029
O O14 0.210569 0.509925 0.770959
O O15 0.000000 0.000000 0.720332
#
# Coordination Sequence:
#
# PCOD9429243 Si02
#       7
#     4   8   8   8   8   8   4
#     4   9  19  35  52  72  98 125 155 193 236 280
#     4   9  18  32  49  70  96 125 158 196 236 279
#     4   8  15  30  50  69  93 127 161 192 233 285
#     4   9  19  35  52  71  97 126 156 194 237 277
#     4   9  18  32  49  70  96 125 158 196 236 279
#     4   9  19  34  49  68  96 128 160 192 231 283
#     4   9  19  35  52  72  98 125 155 193 236 280
#
# _framework density 21.735389999999999
#
# number of rings (size 3 to 8) (size 9 to 14) (size 15 to 20)
#    0.000    3.167    0.000    3.000    0.000    4.667 
#    0.000   10.833    0.000    1.000    0.000    0.000 
#    0.000    0.000    0.000    0.000    0.000    0.000 
#
# Total GULP energy -268296.970058 kJ/mol
# GULP energy per Si atom -5589.520210 kJ/mol
# Density = 2.168592 g / cm^3
# Si number density = 21.735390 Si / 1000 Ang^3
#
#
#
# Elastic Constant Matrix: (Units=GPa)
#
#
# Indices 1 2 3 4 5 6 
#
# 1 62.8847 39.2510 36.6529 0.0000 0.0000 0.0000
# 2 39.2510 61.6914 22.4665 0.0000 0.0000 0.0000
# 3 36.6529 22.4665 158.9455 0.0000 0.0000 0.0000
# 4 0.0000 0.0000 0.0000 2.2752 0.0000 0.0000
# 5 0.0000 0.0000 0.0000 0.0000 7.1387 0.0000
# 6 0.0000 0.0000 0.0000 0.0000 0.0000 44.4013
#
#
#
# Elastic Compliance Matrix: (Units=1/GPa)
#
#
# Indices 1 2 3 4 5 6 
#
# 1 0.028906 -0.016830 -0.004287 0.000000 0.000000 0.000000
# 2 -0.016830 0.026888 0.000080 0.000000 0.000000 0.000000
# 3 -0.004287 0.000080 0.007269 0.000000 0.000000 0.000000
# 4 0.000000 0.000000 0.000000 0.439518 0.000000 0.000000
# 5 0.000000 0.000000 0.000000 0.000000 0.140081 0.000000
# 6 0.000000 0.000000 0.000000 0.000000 0.000000 0.022522
#
#
# Mechanical properties :
#
#
# Convention : Reuss Voigt Hill
#
# Bulk Modulus (GPa) = 47.64180 53.36250 50.50215
# Shear Modulus (GPa) = 7.00032 23.10646 15.05339
#
# Velocity S-wave (km/s) = 1.79658 3.26403 2.63454
# Velocity P-wave (km/s) = 5.12544 6.22972 5.70437
#
# Compressibility (1/GPa) = 0.02098997
#
# Stress axis : x y z
#
# Youngs Moduli (GPa) = 34.59548 37.19068 137.57757
#
# Poissons Ratio (x) = 0.62592 0.58976
# Poissons Ratio (y) = 0.58224 -0.01106
# Poissons Ratio (z) = 0.14830 -0.00299
#
# Static dielectric constant tensor:
#      x y z
#    x 1.883470 0.000000 0.000000 
#    y 0.000000 1.745060 0.000000 
#    z 0.000000 0.000000 1.738050 
# 
# From -- ./inp_files/22554.got.cif
#   From: 2010.05.17/outbox.cif.g08.bks.cpg/sg55_12_cif.got.tgz:22554.got - 2010.06.03 13:27:54.
