data_PCOD9429838
_publ_section_title
;
Structure prediction by ZEFSAII (Michael W. Deem and Ramdas Pophale) SiO2 
 PCOD9429838
Probable space group: P C C N
;
_chemical_formula_sum "Si O2"
_cell_formula_units_Z 48
_cell_length_a 4.893663
_cell_length_b 26.402141
_cell_length_c 13.995745
_cell_angle_alpha 90.000000
_cell_angle_beta 90.000000
_cell_angle_gamma 90.000000
_cell_volume 1808.294768
_symmetry_space_group_name_H-M "P C C N"
_symmetry_group_IT_number 56
_symmetry_cell_setting 'orthorhombic'
loop_
_space_group_symop_operation_xyz
x,y,z
1/2-x,1/2-y,z
1/2+x,-y,1/2-z
-x,1/2+y,1/2-z
-x,-y,-z
1/2+x,1/2+y,-z
1/2-x,y,1/2+z
x,1/2-y,1/2+z
loop_
_atom_site_type_symbol
_atom_site_label
_atom_site_fract_x
_atom_site_fract_y
_atom_site_fract_z
Si Si1 0.691165 0.472136 0.612209
Si Si2 0.569954 0.347761 0.388048
Si Si3 0.663330 0.593089 0.890865
Si Si4 0.117871 0.303343 0.085637
Si Si5 0.939576 0.440193 0.418711
Si Si6 0.930759 0.700846 0.704078
O O1 0.400015 0.447338 0.634344
O O2 0.749208 0.470809 0.496295
O O3 0.889327 0.428619 0.652577
O O4 0.853035 0.523808 0.639509
O O5 0.532843 0.331212 0.499039
O O6 0.725359 0.401333 0.374275
O O7 0.285119 0.342621 0.331051
O O8 0.794773 0.307989 0.352584
O O9 0.681266 0.652528 0.876760
O O10 0.630659 0.588916 0.006006
O O11 0.250000 0.250000 0.055079
O O12 0.971501 0.294475 0.186086
O O13 0.750000 0.750000 0.683009
#
# Coordination Sequence:
#
# PCOD9429838 Si02
#       6
#     8   8   8   8   8   8
#     4   9  19  32  59  98 135 166 229 273 340 422
#     4  12  24  44  73 103 138 187 244 289 352 433
#     4  10  18  35  59  95 127 175 225 271 332 417
#     4  11  25  47  73 101 140 189 234 293 359 411
#     4   9  20  33  62  98 134 171 224 276 346 413
#     4  11  28  47  67 101 145 185 235 297 354 424
#
# _framework density 26.544345
#
# number of rings (size 3 to 8) (size 9 to 14) (size 15 to 20)
#    1.000    0.667    1.667    2.500    0.000    5.333 
#    0.000    9.167    0.000    5.000    0.000    0.000 
#    0.000    0.000    0.000    0.000    0.000    0.000 
#
# Total GULP energy -267729.640678 kJ/mol
# GULP energy per Si atom -5577.700847 kJ/mol
# Density = 2.648393 g / cm^3
# Si number density = 26.544345 Si / 1000 Ang^3
#
#
#
# Elastic Constant Matrix: (Units=GPa)
#
#
# Indices 1 2 3 4 5 6 
#
# 1 132.7156 11.7437 31.8554 0.0000 0.0000 0.0000
# 2 11.7437 119.4642 24.5207 0.0000 0.0000 0.0000
# 3 31.8554 24.5207 103.8814 0.0000 0.0000 0.0000
# 4 0.0000 0.0000 0.0000 -19.7116 0.0000 0.0000
# 5 0.0000 0.0000 0.0000 0.0000 3.9546 0.0000
# 6 0.0000 0.0000 0.0000 0.0000 0.0000 48.3669
#
#
#
# Elastic Compliance Matrix: (Units=1/GPa)
#
#
# Indices 1 2 3 4 5 6 
#
# 1 0.008144 -0.000303 -0.002426 0.000000 0.000000 0.000000
# 2 -0.000303 0.008808 -0.001986 0.000000 0.000000 0.000000
# 3 -0.002426 -0.001986 0.010839 0.000000 0.000000 0.000000
# 4 0.000000 0.000000 0.000000 -0.050732 0.000000 0.000000
# 5 0.000000 0.000000 0.000000 0.000000 0.252867 0.000000
# 6 0.000000 0.000000 0.000000 0.000000 0.000000 0.020675
#
#
# Mechanical properties :
#
#
# Convention : Reuss Voigt Hill
#
# Bulk Modulus (GPa) = 54.46178 54.70009 54.58094
# Shear Modulus (GPa) = 18.78621 25.71808 22.25215
#
# Velocity S-wave (km/s) = 2.66320 3.11605 2.89848
# Velocity P-wave (km/s) = 5.47893 5.79639 5.63990
#
# Compressibility (1/GPa) = 0.01836150
#
# Stress axis : x y z
#
# Youngs Moduli (GPa) = 122.79012 113.53104 92.25822
#
# Poissons Ratio (x) = 0.03436 0.22381
# Poissons Ratio (y) = 0.03716 0.18325
# Poissons Ratio (z) = 0.29788 0.22551
#
# Static dielectric constant tensor:
#      x y z
#    x 2.097200 0.000000 0.000000 
#    y 0.000000 2.230390 0.000000 
#    z 0.000000 0.000000 2.148700 
# 
# From -- ./inp_files/9781.got.cif
#   From: 2010.05.17/outbox.cif.g08.bks.cpg/sg56_5_cif.got.tgz:9781.got - 2010.06.03 13:42:01.
