data_PCOD9429533
_publ_section_title
;
Structure prediction by ZEFSAII (Michael W. Deem and Ramdas Pophale) SiO2 
 PCOD9429533
Probable space group: P C C N
;
_chemical_formula_sum "Si O2"
_cell_formula_units_Z 48
_cell_length_a 17.800951
_cell_length_b 5.890646
_cell_length_c 24.069840
_cell_angle_alpha 90.000000
_cell_angle_beta 90.000000
_cell_angle_gamma 90.000000
_cell_volume 2523.941779
_symmetry_space_group_name_H-M "P C C N"
_symmetry_group_IT_number 56
_symmetry_cell_setting 'orthorhombic'
loop_
_space_group_symop_operation_xyz
x,y,z
1/2-x,1/2-y,z
1/2+x,-y,1/2-z
-x,1/2+y,1/2-z
-x,-y,-z
1/2+x,1/2+y,-z
1/2-x,y,1/2+z
x,1/2-y,1/2+z
loop_
_atom_site_type_symbol
_atom_site_label
_atom_site_fract_x
_atom_site_fract_y
_atom_site_fract_z
Si Si1 0.587967 0.809009 0.709155
Si Si2 0.055553 0.084523 0.185009
Si Si3 0.466522 0.965963 0.881556
Si Si4 0.942066 0.146423 0.925698
Si Si5 0.710898 0.500107 0.140301
Si Si6 0.398912 0.897380 0.453419
O O1 0.606773 0.686818 0.766766
O O2 0.578994 0.632598 0.658539
O O3 0.646996 0.993444 0.688221
O O4 0.504945 0.917402 0.713678
O O5 0.006381 0.283175 0.157448
O O6 0.089557 0.956337 0.131620
O O7 0.412818 0.849113 0.926286
O O8 0.532696 0.097815 0.913476
O O9 0.893107 0.113698 0.980474
O O10 0.023076 0.027046 0.938388
O O11 0.750000 0.750000 0.146885
O O12 0.669233 0.503400 0.080544
O O13 0.750000 0.250000 0.144158
#
# Coordination Sequence:
#
# PCOD9429533 Si02
#       6
#     8   8   8   8   8   8
#     4  11  20  34  56  86 125 154 206 249 313 372
#     4  10  19  31  57  88 115 152 188 264 318 356
#     4  10  16  31  53  89 117 148 183 251 327 360
#     4   9  19  32  56  90 113 146 188 261 322 356
#     4  12  26  41  60  88 125 173 210 247 297 379
#     4  10  19  35  55  83 121 147 198 250 308 366
#
# _framework density 19.017871
#
# number of rings (size 3 to 8) (size 9 to 14) (size 15 to 20)
#    0.000    1.667    6.667    1.500    0.000    0.000 
#    0.000    0.000    0.000    1.000    0.000    0.000 
#    0.000    0.000    0.000    0.000    0.000    0.000 
#
# Total GULP energy -267407.640631 kJ/mol
# GULP energy per Si atom -5570.992513 kJ/mol
# Density = 1.897459 g / cm^3
# Si number density = 19.017871 Si / 1000 Ang^3
#
#
#
# Elastic Constant Matrix: (Units=GPa)
#
#
# Indices 1 2 3 4 5 6 
#
# 1 27.9962 11.1845 19.0493 0.0000 0.0000 0.0000
# 2 11.1845 71.1996 20.9061 0.0000 0.0000 0.0000
# 3 19.0493 20.9061 126.9234 0.0000 0.0000 0.0000
# 4 0.0000 0.0000 0.0000 18.9774 0.0000 0.0000
# 5 0.0000 0.0000 0.0000 0.0000 12.6763 0.0000
# 6 0.0000 0.0000 0.0000 0.0000 0.0000 21.7354
#
#
#
# Elastic Compliance Matrix: (Units=1/GPa)
#
#
# Indices 1 2 3 4 5 6 
#
# 1 0.041354 -0.004911 -0.005398 0.000000 0.000000 0.000000
# 2 -0.004911 0.015342 -0.001790 0.000000 0.000000 0.000000
# 3 -0.005398 -0.001790 0.008984 0.000000 0.000000 0.000000
# 4 0.000000 0.000000 0.000000 0.052694 0.000000 0.000000
# 5 0.000000 0.000000 0.000000 0.000000 0.078887 0.000000
# 6 0.000000 0.000000 0.000000 0.000000 0.000000 0.046008
#
#
# Mechanical properties :
#
#
# Convention : Reuss Voigt Hill
#
# Bulk Modulus (GPa) = 24.10687 36.48878 30.29783
# Shear Modulus (GPa) = 17.77498 22.34310 20.05904
#
# Velocity S-wave (km/s) = 3.06051 3.43132 3.25121
# Velocity P-wave (km/s) = 5.01921 5.90990 5.48267
#
# Compressibility (1/GPa) = 0.04148195
#
# Stress axis : x y z
#
# Youngs Moduli (GPa) = 24.18155 65.18017 111.31263
#
# Poissons Ratio (x) = 0.32012 0.60083
# Poissons Ratio (y) = 0.11876 0.19925
# Poissons Ratio (z) = 0.13052 0.11667
#
# Static dielectric constant tensor:
#      x y z
#    x 1.697890 0.000000 0.000000 
#    y 0.000000 1.754430 0.000000 
#    z 0.000000 0.000000 1.668070 
# 
# From -- ./inp_files/21239.got.cif
#   From: 2010.05.17/outbox.cif.g08.bks.cpg/sg56_11_cif.got.tgz:21239.got - 2010.06.03 13:42:01.
