data_PCOD9429090
_publ_section_title
;
Structure prediction by ZEFSAII (Michael W. Deem and Ramdas Pophale) SiO2 
 PCOD9429090
Probable space group: P B A M
;
_chemical_formula_sum "Si O2"
_cell_formula_units_Z 58
_cell_length_a 29.108626
_cell_length_b 11.829404
_cell_length_c 8.056983
_cell_angle_alpha 90.000000
_cell_angle_beta 90.000000
_cell_angle_gamma 90.000000
_cell_volume 2774.322970
_symmetry_space_group_name_H-M "P B A M"
_symmetry_group_IT_number 55
_symmetry_cell_setting 'orthorhombic'
loop_
_space_group_symop_operation_xyz
x,y,z
-x,-y,z
1/2+x,1/2-y,-z
1/2-x,1/2+y,-z
-x,-y,-z
x,y,-z
1/2-x,1/2+y,z
1/2+x,1/2-y,z
loop_
_atom_site_type_symbol
_atom_site_label
_atom_site_fract_x
_atom_site_fract_y
_atom_site_fract_z
Si Si1 0.790538 0.693199 0.700594
Si Si2 0.969869 0.136116 0.687665
Si Si3 0.686481 0.658718 0.306999
Si Si4 0.425936 0.718151 0.306440
Si Si5 0.896136 0.302185 0.187646
Si Si6 0.121541 0.445537 0.299821
Si Si7 0.341539 0.581438 0.190393
Si Si8 0.000000 0.000000 0.000000
O O1 0.791298 0.693886 0.500000
O O2 0.738955 0.665739 0.753934
O O3 0.828363 0.600609 0.753923
O O4 0.808188 0.815283 0.759566
O O5 0.965263 0.085923 0.500000
O O6 0.932030 0.233432 0.701376
O O7 0.020756 0.189848 0.705705
O O8 0.967666 0.055612 0.848690
O O9 0.685803 0.693733 0.500000
O O10 0.652772 0.741520 0.210248
O O11 0.667981 0.531060 0.293404
O O12 0.412393 0.710376 0.500000
O O13 0.392590 0.631568 0.213928
O O14 0.413512 0.845128 0.251340
O O15 0.891225 0.433291 0.230778
O O16 0.912386 0.291094 0.000000
O O17 0.121487 0.454148 0.500000
O O18 0.334144 0.551221 0.000000
#
# Coordination Sequence:
#
# PCOD9429090 Si02
#       8
#     8   8   8   8   8   8   8   2
#     4   9  21  42  65  89 118 165 220 262 317 395
#     4  11  25  45  69  98 135 180 224 275 336 389
#     4  11  24  41  64  88 121 169 218 265 323 391
#     4   9  21  42  68  94 122 169 222 266 319 390
#     4  12  26  43  60  96 136 173 217 271 330 396
#     4   9  19  41  68  93 125 165 217 272 327 393
#     4  11  23  37  61  93 128 158 200 264 326 384
#     4  12  26  44  68 100 136 172 226 268 322 402
#
# _framework density 20.905999999999999
#
# number of rings (size 3 to 8) (size 9 to 14) (size 15 to 20)
#    0.000    1.655    0.690    3.931    4.828    3.862 
#    0.000    2.759    0.000    0.000    0.000    0.000 
#    0.000    0.000    0.000    0.000    0.000    0.000 
#
# Total GULP energy -323655.450365 kJ/mol
# GULP energy per Si atom -5580.266386 kJ/mol
# Density = 2.085842 g / cm^3
# Si number density = 20.906000 Si / 1000 Ang^3
#
#
#
# Elastic Constant Matrix: (Units=GPa)
#
#
# Indices 1 2 3 4 5 6 
#
# 1 72.9884 23.1278 23.0407 0.0000 0.0000 0.0000
# 2 23.1278 98.7335 25.3336 0.0000 0.0000 0.0000
# 3 23.0407 25.3336 84.3747 0.0000 0.0000 0.0000
# 4 0.0000 0.0000 0.0000 76.7160 0.0000 0.0000
# 5 0.0000 0.0000 0.0000 0.0000 4.0040 0.0000
# 6 0.0000 0.0000 0.0000 0.0000 0.0000 18.2429
#
#
#
# Elastic Compliance Matrix: (Units=1/GPa)
#
#
# Indices 1 2 3 4 5 6 
#
# 1 0.015671 -0.002788 -0.003442 0.000000 0.000000 0.000000
# 2 -0.002788 0.011470 -0.002683 0.000000 0.000000 0.000000
# 3 -0.003442 -0.002683 0.013597 0.000000 0.000000 0.000000
# 4 0.000000 0.000000 0.000000 0.013035 0.000000 0.000000
# 5 0.000000 0.000000 0.000000 0.000000 0.249749 0.000000
# 6 0.000000 0.000000 0.000000 0.000000 0.000000 0.054816
#
#
# Mechanical properties :
#
#
# Convention : Reuss Voigt Hill
#
# Bulk Modulus (GPa) = 43.64369 44.34454 43.99411
# Shear Modulus (GPa) = 13.02763 32.09888 22.56325
#
# Velocity S-wave (km/s) = 2.49901 3.92266 3.28879
# Velocity P-wave (km/s) = 5.40816 6.46326 5.95911
#
# Compressibility (1/GPa) = 0.02291282
#
# Stress axis : x y z
#
# Youngs Moduli (GPa) = 63.81314 87.18746 73.54377
#
# Poissons Ratio (x) = 0.24304 0.25316
# Poissons Ratio (y) = 0.17788 0.19728
# Poissons Ratio (z) = 0.21967 0.23388
#
# Static dielectric constant tensor:
#      x y z
#    x 1.744100 0.000000 0.000000 
#    y 0.000000 1.721480 0.000000 
#    z 0.000000 0.000000 1.758420 
# 
# From -- ./inp_files/10688.got.cif
#   From: 2010.05.17/outbox.cif.g08.bks.cpg/sg55_6_cif.got.tgz:10688.got - 2010.06.03 13:27:54.
