data_PCOD9429624
_publ_section_title
;
Structure prediction by ZEFSAII (Michael W. Deem and Ramdas Pophale) SiO2 
 PCOD9429624
Probable space group: P C C N
;
_chemical_formula_sum "Si O2"
_cell_formula_units_Z 44
_cell_length_a 13.028822
_cell_length_b 17.501843
_cell_length_c 8.276565
_cell_angle_alpha 90.000000
_cell_angle_beta 90.000000
_cell_angle_gamma 90.000000
_cell_volume 1887.291851
_symmetry_space_group_name_H-M "P C C N"
_symmetry_group_IT_number 56
_symmetry_cell_setting 'orthorhombic'
loop_
_space_group_symop_operation_xyz
x,y,z
1/2-x,1/2-y,z
1/2+x,-y,1/2-z
-x,1/2+y,1/2-z
-x,-y,-z
1/2+x,1/2+y,-z
1/2-x,y,1/2+z
x,1/2-y,1/2+z
loop_
_atom_site_type_symbol
_atom_site_label
_atom_site_fract_x
_atom_site_fract_y
_atom_site_fract_z
Si Si1 0.033780 0.064785 0.198938
Si Si2 0.251956 0.403341 0.163564
Si Si3 0.750000 0.750000 0.127306
Si Si4 0.890240 0.089997 0.621398
Si Si5 0.427381 0.168327 0.992008
Si Si6 0.183243 0.562093 0.249276
O O1 0.134857 0.080445 0.093988
O O2 0.036373 0.137387 0.319934
O O3 0.917436 0.067215 0.137539
O O4 0.054925 0.984276 0.294521
O O5 0.247859 0.325531 0.265399
O O6 0.157981 0.393512 0.043777
O O7 0.226571 0.477069 0.267606
O O8 0.643362 0.756905 0.027205
O O9 0.854529 0.071573 0.436434
O O10 0.784234 0.111135 0.711283
O O11 0.975782 0.157096 0.608763
#
# Coordination Sequence:
#
# PCOD9429624 Si02
#       6
#     8   8   4   8   8   8
#     4   9  17  31  52  78 113 151 175 234 296 337
#     4  10  18  31  50  79 109 140 189 234 273 340
#     4  10  22  30  50  78 108 150 186 224 282 332
#     4  10  18  32  55  81 116 150 181 235 291 341
#     4  10  17  34  52  75 111 147 184 228 286 334
#     4  10  18  33  54  82 115 146 186 231 296 339
#
# _framework density 23.313828000000001
#
# number of rings (size 3 to 8) (size 9 to 14) (size 15 to 20)
#    0.000    2.182    3.636    1.636    0.000    0.000 
#    0.000    7.273    0.000    0.000    0.000   43.273 
#    0.000    0.000    0.000    0.000    0.000    0.000 
#
# Total GULP energy -245085.752947 kJ/mol
# GULP energy per Si atom -5570.130749 kJ/mol
# Density = 2.326076 g / cm^3
# Si number density = 23.313828 Si / 1000 Ang^3
#
#
#
# Elastic Constant Matrix: (Units=GPa)
#
#
# Indices 1 2 3 4 5 6 
#
# 1 151.8760 28.9700 9.6987 0.0000 0.0000 0.0000
# 2 28.9700 53.6422 8.4567 0.0000 0.0000 0.0000
# 3 9.6987 8.4567 28.6628 0.0000 0.0000 0.0000
# 4 0.0000 0.0000 0.0000 9.8234 0.0000 0.0000
# 5 0.0000 0.0000 0.0000 0.0000 33.5196 0.0000
# 6 0.0000 0.0000 0.0000 0.0000 0.0000 43.0017
#
#
#
# Elastic Compliance Matrix: (Units=1/GPa)
#
#
# Indices 1 2 3 4 5 6 
#
# 1 0.007393 -0.003774 -0.001388 0.000000 0.000000 0.000000
# 2 -0.003774 0.021478 -0.005060 0.000000 0.000000 0.000000
# 3 -0.001388 -0.005060 0.036851 0.000000 0.000000 0.000000
# 4 0.000000 0.000000 0.000000 0.101798 0.000000 0.000000
# 5 0.000000 0.000000 0.000000 0.000000 0.029833 0.000000
# 6 0.000000 0.000000 0.000000 0.000000 0.000000 0.023255
#
#
# Mechanical properties :
#
#
# Convention : Reuss Voigt Hill
#
# Bulk Modulus (GPa) = 22.08573 36.49243 29.28908
# Shear Modulus (GPa) = 19.52028 29.73930 24.62979
#
# Velocity S-wave (km/s) = 2.89672 3.57544 3.25383
# Velocity P-wave (km/s) = 4.54773 5.72116 5.16786
#
# Compressibility (1/GPa) = 0.04527810
#
# Stress axis : x y z
#
# Youngs Moduli (GPa) = 135.26699 46.55981 27.13631
#
# Poissons Ratio (x) = 0.17570 0.03767
# Poissons Ratio (y) = 0.51046 0.13731
# Poissons Ratio (z) = 0.18777 0.23559
#
# Static dielectric constant tensor:
#      x y z
#    x 1.980070 0.000000 0.000000 
#    y 0.000000 1.866570 0.000000 
#    z 0.000000 0.000000 2.041770 
# 
# From -- ./inp_files/7086.got.cif
#   From: 2010.05.17/outbox.cif.g08.bks.cpg/sg56_4_cif.got.tgz:7086.got - 2010.06.03 13:42:01.
