data_PCOD9429375
_publ_section_title
;
Structure prediction by ZEFSAII (Michael W. Deem and Ramdas Pophale) SiO2 
 PCOD9429375
Probable space group: P B A M
;
_chemical_formula_sum "Si O2"
_cell_formula_units_Z 48
_cell_length_a 9.000000
_cell_length_b 30.000000
_cell_length_c 9.000000
_cell_angle_alpha 90.000000
_cell_angle_beta 90.000000
_cell_angle_gamma 90.000000
_cell_volume 2430.000000
_symmetry_space_group_name_H-M "P B A M"
_symmetry_group_IT_number 55
_symmetry_cell_setting 'orthorhombic'
loop_
_space_group_symop_operation_xyz
x,y,z
-x,-y,z
1/2+x,1/2-y,-z
1/2-x,1/2+y,-z
-x,-y,-z
x,y,-z
1/2-x,1/2+y,z
1/2+x,1/2-y,z
loop_
_atom_site_type_symbol
_atom_site_label
_atom_site_fract_x
_atom_site_fract_y
_atom_site_fract_z
Si Si1 0.153407 0.474295 0.659776
Si Si2 0.632865 0.465809 0.837820
Si Si3 0.186167 0.297731 0.679972
Si Si4 0.693033 0.372034 0.824427
Si Si5 0.524182 0.291441 0.679804
Si Si6 0.512041 0.112807 0.318602
O O1 0.217736 0.461496 0.500000
O O2 0.257058 0.510600 0.729117
O O3 0.000000 0.500000 0.644233
O O4 0.110591 0.428486 0.738092
O O5 0.500000 0.500000 0.847267
O O6 0.590773 0.415683 0.797987
O O7 0.706183 0.462258 0.000000
O O8 0.192228 0.295439 0.500000
O O9 0.355321 0.296767 0.732788
O O10 0.093279 0.255181 0.730443
O O11 0.099475 0.342363 0.716237
O O12 0.626690 0.330548 0.739101
O O13 0.852458 0.385207 0.757770
O O14 0.701588 0.362817 0.000000
O O15 0.524585 0.292275 0.500000
O O16 0.493819 0.108604 0.500000
#
# Coordination Sequence:
#
# PCOD9429375 Si02
#       6
#     8   8   8   8   8   8
#     4  10  20  35  57  87 116 145 187 237 281 323
#     4  10  23  40  56  77 112 156 196 230 275 339
#     4   9  19  36  61  89 112 144 185 225 277 340
#     4  11  23  38  56  82 113 149 191 233 280 332
#     4  10  20  37  61  85 111 144 184 228 277 334
#     4  10  20  37  60  86 117 148 186 233 281 337
#
# _framework density 19.753086
#
# number of rings (size 3 to 8) (size 9 to 14) (size 15 to 20)
#    0.000    2.000    1.667    1.500    2.333    4.667 
#    0.000    4.167    0.000    0.000    0.000    0.000 
#    0.000    0.000    0.000    0.000    0.000    0.000 
#
# Total GULP energy -267357.453162 kJ/mol
# GULP energy per Si atom -5569.946941 kJ/mol
# Density = 1.970813 g / cm^3
# Si number density = 19.753086 Si / 1000 Ang^3
#
#
#
# Elastic Constant Matrix: (Units=GPa)
#
#
# Indices 1 2 3 4 5 6 
#
# 1 11.5696 0.2958 8.8518 0.0000 0.0000 0.0000
# 2 0.2958 131.5311 10.6757 0.0000 0.0000 0.0000
# 3 8.8518 10.6757 9.2480 0.0000 0.0000 0.0000
# 4 0.0000 0.0000 0.0000 -18.5650 0.0000 0.0000
# 5 0.0000 0.0000 0.0000 0.0000 133.5139 0.0000
# 6 0.0000 0.0000 0.0000 0.0000 0.0000 31.3695
#
#
#
# Elastic Compliance Matrix: (Units=1/GPa)
#
#
# Indices 1 2 3 4 5 6 
#
# 1 0.440323 0.036652 -0.463769 0.000000 0.000000 0.000000
# 2 0.036652 0.011440 -0.048287 0.000000 0.000000 0.000000
# 3 -0.463769 -0.048287 0.607775 0.000000 0.000000 0.000000
# 4 0.000000 0.000000 0.000000 -0.053865 0.000000 0.000000
# 5 0.000000 0.000000 0.000000 0.000000 0.007490 0.000000
# 6 0.000000 0.000000 0.000000 0.000000 0.000000 0.031878
#
#
# Mechanical properties :
#
#
# Convention : Reuss Voigt Hill
#
# Bulk Modulus (GPa) = 9.19730 21.33282 15.26506
# Shear Modulus (GPa) = 2.46052 38.09869 20.27961
#
# Velocity S-wave (km/s) = 1.11729 4.39651 3.20762
# Velocity P-wave (km/s) = 2.51609 6.04943 4.63284
#
# Compressibility (1/GPa) = 0.10872756
#
# Stress axis : x y z
#
# Youngs Moduli (GPa) = 2.27106 87.41594 1.64535
#
# Poissons Ratio (x) = -3.20393 0.76306
# Poissons Ratio (y) = -0.08324 0.07945
# Poissons Ratio (z) = 1.05325 4.22106
#
# Static dielectric constant tensor:
#      x y z
#    x 1.669150 0.000000 0.000000 
#    y 0.000000 1.717610 0.000000 
#    z 0.000000 0.000000 1.952150 
# 
# From -- ./inp_files/2782.got.cif
#   From: 2010.05.17/outbox.ucp.g08.bks.cvg/sg55_2_cif.got.tgz:2782.got - 2010.06.11 16:36:00.
