data_PCOD9429093
_publ_section_title
;
Structure prediction by ZEFSAII (Michael W. Deem and Ramdas Pophale) SiO2 
 PCOD9429093
Probable space group: P B A M
;
_chemical_formula_sum "Si O2"
_cell_formula_units_Z 52
_cell_length_a 19.504092
_cell_length_b 5.587247
_cell_length_c 20.812932
_cell_angle_alpha 90.000000
_cell_angle_beta 90.000000
_cell_angle_gamma 90.000000
_cell_volume 2268.072188
_symmetry_space_group_name_H-M "P B A M"
_symmetry_group_IT_number 55
_symmetry_cell_setting 'orthorhombic'
loop_
_space_group_symop_operation_xyz
x,y,z
-x,-y,z
1/2+x,1/2-y,-z
1/2-x,1/2+y,-z
-x,-y,-z
x,y,-z
1/2-x,1/2+y,z
1/2+x,1/2-y,z
loop_
_atom_site_type_symbol
_atom_site_label
_atom_site_fract_x
_atom_site_fract_y
_atom_site_fract_z
Si Si1 0.069785 0.948999 0.197685
Si Si2 0.335902 0.790680 0.126619
Si Si3 0.933584 0.332123 0.930328
Si Si4 0.789421 0.940532 0.000000
Si Si5 0.543122 0.748449 0.429105
Si Si6 0.714991 0.155342 0.261216
Si Si7 0.081484 0.573980 0.702826
O O1 0.052142 0.825047 0.130732
O O2 0.106406 0.753531 0.240738
O O3 0.106811 0.183345 0.173870
O O4 0.000000 0.000000 0.234641
O O5 0.281584 0.853747 0.181756
O O6 0.366922 0.012158 0.087398
O O7 0.322534 0.597254 0.070729
O O8 0.000000 0.500000 0.935333
O O9 0.925201 0.211904 0.000000
O O10 0.741890 0.702853 0.000000
O O11 0.500000 0.500000 0.421700
O O12 0.576419 0.731192 0.500000
O O13 0.586423 0.789775 0.364903
O O14 0.500000 0.000000 0.430679
O O15 0.745841 0.411746 0.280881
O O16 0.638239 0.133293 0.291781
O O17 0.000000 0.500000 0.712283
#
# Coordination Sequence:
#
# PCOD9429093 Si02
#       7
#     8   8   8   4   8   8   8
#     4  12  23  37  63  95 129 164 220 283 339 411
#     4  12  25  42  64  86 121 173 223 278 353 418
#     4  11  23  39  58  91 127 165 217 283 362 417
#     4  12  30  48  66  86 110 158 230 290 342 420
#     4   9  19  37  65 106 148 181 223 283 345 401
#     4  12  27  46  66  97 140 181 224 285 353 413
#     4  11  23  43  74 103 137 182 238 288 343 415
#
# _framework density 22.926960000000001
#
# number of rings (size 3 to 8) (size 9 to 14) (size 15 to 20)
#    0.000    0.769    3.846    3.692    3.231    4.000 
#    0.000    0.000    0.000    0.923    0.000    0.000 
#    0.000    0.000    0.000    0.000    0.000    0.000 
#
# Total GULP energy -290176.338591 kJ/mol
# GULP energy per Si atom -5580.314204 kJ/mol
# Density = 2.287478 g / cm^3
# Si number density = 22.926960 Si / 1000 Ang^3
#
#
#
# Elastic Constant Matrix: (Units=GPa)
#
#
# Indices 1 2 3 4 5 6 
#
# 1 68.2269 36.6460 10.8901 0.0000 0.0000 0.0000
# 2 36.6460 108.1356 21.3692 0.0000 0.0000 0.0000
# 3 10.8901 21.3692 145.5852 0.0000 0.0000 0.0000
# 4 0.0000 0.0000 0.0000 31.6188 0.0000 0.0000
# 5 0.0000 0.0000 0.0000 0.0000 2.9678 0.0000
# 6 0.0000 0.0000 0.0000 0.0000 0.0000 47.3231
#
#
#
# Elastic Compliance Matrix: (Units=1/GPa)
#
#
# Indices 1 2 3 4 5 6 
#
# 1 0.017949 -0.005991 -0.000463 0.000000 0.000000 0.000000
# 2 -0.005991 0.011524 -0.001243 0.000000 0.000000 0.000000
# 3 -0.000463 -0.001243 0.007086 0.000000 0.000000 0.000000
# 4 0.000000 0.000000 0.000000 0.031627 0.000000 0.000000
# 5 0.000000 0.000000 0.000000 0.000000 0.336954 0.000000
# 6 0.000000 0.000000 0.000000 0.000000 0.000000 0.021131
#
#
# Mechanical properties :
#
#
# Convention : Reuss Voigt Hill
#
# Bulk Modulus (GPa) = 47.25188 51.08424 49.16806
# Shear Modulus (GPa) = 11.14279 33.25142 22.19710
#
# Velocity S-wave (km/s) = 2.20696 3.81244 3.11491
# Velocity P-wave (km/s) = 5.21044 6.45827 5.86762
#
# Compressibility (1/GPa) = 0.02116318
#
# Stress axis : x y z
#
# Youngs Moduli (GPa) = 55.71377 86.77784 141.12384
#
# Poissons Ratio (x) = 0.51990 0.06537
# Poissons Ratio (y) = 0.33379 0.17546
# Poissons Ratio (z) = 0.02581 0.10789
#
# Static dielectric constant tensor:
#      x y z
#    x 2.052790 0.000000 0.000000 
#    y 0.000000 1.958520 0.000000 
#    z 0.000000 0.000000 1.857060 
# 
# From -- ./inp_files/23130.got.cif
#   From: 2010.05.17/outbox.cif.g08.bks.cpg/sg55_12_cif.got.tgz:23130.got - 2010.06.03 13:27:54.
