data_PCOD9429607
_publ_section_title
;
Structure prediction by ZEFSAII (Michael W. Deem and Ramdas Pophale) SiO2 
 PCOD9429607
Probable space group: P C C N
;
_chemical_formula_sum "Si O2"
_cell_formula_units_Z 48
_cell_length_a 12.060609
_cell_length_b 25.828689
_cell_length_c 8.019278
_cell_angle_alpha 90.000000
_cell_angle_beta 90.000000
_cell_angle_gamma 90.000000
_cell_volume 2498.083036
_symmetry_space_group_name_H-M "P C C N"
_symmetry_group_IT_number 56
_symmetry_cell_setting 'orthorhombic'
loop_
_space_group_symop_operation_xyz
x,y,z
1/2-x,1/2-y,z
1/2+x,-y,1/2-z
-x,1/2+y,1/2-z
-x,-y,-z
1/2+x,1/2+y,-z
1/2-x,y,1/2+z
x,1/2-y,1/2+z
loop_
_atom_site_type_symbol
_atom_site_label
_atom_site_fract_x
_atom_site_fract_y
_atom_site_fract_z
Si Si1 0.392367 0.527445 0.575754
Si Si2 0.107516 0.832235 0.237525
Si Si3 0.878628 0.265441 0.601552
Si Si4 0.158420 0.006036 0.954038
Si Si5 0.363850 0.633320 0.736782
Si Si6 0.485765 0.918065 0.552749
O O1 0.500000 0.500000 0.500000
O O2 0.374973 0.507720 0.765161
O O3 0.285658 0.506765 0.477359
O O4 0.387899 0.590780 0.592765
O O5 0.069450 0.791226 0.376167
O O6 0.230233 0.858303 0.254551
O O7 0.023643 0.878594 0.203458
O O8 0.111256 0.795879 0.071563
O O9 0.750000 0.250000 0.621576
O O10 0.905757 0.307329 0.746586
O O11 0.109205 0.062903 0.985932
O O12 0.089364 0.968965 0.079125
O O13 0.422391 0.608072 0.897903
#
# Coordination Sequence:
#
# PCOD9429607 Si02
#       6
#     8   8   8   8   8   8
#     4  11  24  38  59  83 117 156 196 244 300 352
#     4  10  17  32  50  80 115 154 186 233 296 353
#     4   9  17  28  46  75 112 147 185 230 285 357
#     4  10  22  38  56  84 113 151 204 240 285 367
#     4   9  18  32  51  77 110 155 189 231 292 353
#     4   9  19  34  55  76 116 157 187 235 290 346
#
# _framework density 19.214734
#
# number of rings (size 3 to 8) (size 9 to 14) (size 15 to 20)
#    0.000    2.333    1.667    1.500    7.000    0.000 
#    6.000    0.000    0.000    0.000    0.000    1.167 
#    0.000    0.000    0.000    0.000    0.000    0.000 
#
# Total GULP energy -267206.537015 kJ/mol
# GULP energy per Si atom -5566.802854 kJ/mol
# Density = 1.917100 g / cm^3
# Si number density = 19.214734 Si / 1000 Ang^3
#
#
#
# Elastic Constant Matrix: (Units=GPa)
#
#
# Indices 1 2 3 4 5 6 
#
# 1 62.1627 12.6892 20.8933 0.0000 0.0000 0.0000
# 2 12.6892 75.7528 23.3120 0.0000 0.0000 0.0000
# 3 20.8933 23.3120 78.9977 0.0000 0.0000 0.0000
# 4 0.0000 0.0000 0.0000 30.0411 0.0000 0.0000
# 5 0.0000 0.0000 0.0000 0.0000 20.9872 0.0000
# 6 0.0000 0.0000 0.0000 0.0000 0.0000 29.8826
#
#
#
# Elastic Compliance Matrix: (Units=1/GPa)
#
#
# Indices 1 2 3 4 5 6 
#
# 1 0.017851 -0.001691 -0.004222 0.000000 0.000000 0.000000
# 2 -0.001691 0.014680 -0.003885 0.000000 0.000000 0.000000
# 3 -0.004222 -0.003885 0.014922 0.000000 0.000000 0.000000
# 4 0.000000 0.000000 0.000000 0.033288 0.000000 0.000000
# 5 0.000000 0.000000 0.000000 0.000000 0.047648 0.000000
# 6 0.000000 0.000000 0.000000 0.000000 0.000000 0.033464
#
#
# Mechanical properties :
#
#
# Convention : Reuss Voigt Hill
#
# Bulk Modulus (GPa) = 35.89809 36.74469 36.32139
# Shear Modulus (GPa) = 26.21457 26.85009 26.53233
#
# Velocity S-wave (km/s) = 3.69764 3.74220 3.71999
# Velocity P-wave (km/s) = 6.07892 6.15116 6.11514
#
# Compressibility (1/GPa) = 0.02785663
#
# Stress axis : x y z
#
# Youngs Moduli (GPa) = 56.01897 68.12210 67.01662
#
# Poissons Ratio (x) = 0.11518 0.28296
# Poissons Ratio (y) = 0.09472 0.26034
# Poissons Ratio (z) = 0.23653 0.26463
#
# Static dielectric constant tensor:
#      x y z
#    x 1.649990 0.000000 0.000000 
#    y 0.000000 1.796500 0.000000 
#    z 0.000000 0.000000 1.814910 
# 
# From -- ./inp_files/2844.got.cif
#   From: 2010.05.17/outbox.cif.g08.bks.cpg/sg56_2_cif.got.tgz:2844.got - 2010.06.03 13:42:01.
