data_PCOD9429114
_publ_section_title
;
Structure prediction by ZEFSAII (Michael W. Deem and Ramdas Pophale) SiO2 
 PCOD9429114
Probable space group: P B A M
;
_chemical_formula_sum "Si O2"
_cell_formula_units_Z 26
_cell_length_a 7.581241
_cell_length_b 9.459351
_cell_length_c 13.865031
_cell_angle_alpha 90.000000
_cell_angle_beta 90.000000
_cell_angle_gamma 90.000000
_cell_volume 994.311559
_symmetry_space_group_name_H-M "P B A M"
_symmetry_group_IT_number 55
_symmetry_cell_setting 'orthorhombic'
loop_
_space_group_symop_operation_xyz
x,y,z
-x,-y,z
1/2+x,1/2-y,-z
1/2-x,1/2+y,-z
-x,-y,-z
x,y,-z
1/2-x,1/2+y,z
1/2+x,1/2-y,z
loop_
_atom_site_type_symbol
_atom_site_label
_atom_site_fract_x
_atom_site_fract_y
_atom_site_fract_z
Si Si1 0.500000 0.500000 0.000000
Si Si2 0.655776 0.117335 0.099776
Si Si3 0.248274 0.549807 0.387105
Si Si4 0.422056 0.786048 0.693946
O O1 0.653461 0.546151 0.082569
O O2 0.635507 0.208012 0.194961
O O3 0.500000 0.000000 0.103360
O O4 0.622926 0.206263 0.000000
O O5 0.219126 0.573981 0.500000
O O6 0.209175 0.388434 0.364963
O O7 0.419765 0.633284 0.353515
O O8 0.105306 0.633554 0.321730
#
# Coordination Sequence:
#
# PCOD9429114 Si02
#       4
#     2   8   8   8
#     4   8  18  32  68  98 134 172 236 264 356 410
#     4   9  18  39  66 100 138 177 225 293 341 415
#     4  11  23  42  67  98 137 179 229 287 344 411
#     4  11  23  43  66  98 136 181 230 283 351 410
#
# _framework density 26.148744000000001
#
# number of rings (size 3 to 8) (size 9 to 14) (size 15 to 20)
#    0.923    0.923    3.077    3.692    0.000    3.692 
#    0.000    6.154    0.000    0.000    0.000    0.000 
#    0.000    0.000    0.000    0.000    0.000    0.000 
#
# Total GULP energy -144945.310609 kJ/mol
# GULP energy per Si atom -5574.819639 kJ/mol
# Density = 2.608923 g / cm^3
# Si number density = 26.148744 Si / 1000 Ang^3
#
#
#
# Elastic Constant Matrix: (Units=GPa)
#
#
# Indices 1 2 3 4 5 6 
#
# 1 148.7957 11.3773 2.2673 0.0000 0.0000 0.0000
# 2 11.3773 122.1825 35.0306 0.0000 0.0000 0.0000
# 3 2.2673 35.0306 231.8102 0.0000 0.0000 0.0000
# 4 0.0000 0.0000 0.0000 15.5841 0.0000 0.0000
# 5 0.0000 0.0000 0.0000 0.0000 -3.2133 0.0000
# 6 0.0000 0.0000 0.0000 0.0000 0.0000 38.2141
#
#
#
# Elastic Compliance Matrix: (Units=1/GPa)
#
#
# Indices 1 2 3 4 5 6 
#
# 1 0.006769 -0.000639 0.000030 0.000000 0.000000 0.000000
# 2 -0.000639 0.008615 -0.001296 0.000000 0.000000 0.000000
# 3 0.000030 -0.001296 0.004509 0.000000 0.000000 0.000000
# 4 0.000000 0.000000 0.000000 0.064168 0.000000 0.000000
# 5 0.000000 0.000000 0.000000 0.000000 -0.311211 0.000000
# 6 0.000000 0.000000 0.000000 0.000000 0.000000 0.026168
#
#
# Mechanical properties :
#
#
# Convention : Reuss Voigt Hill
#
# Bulk Modulus (GPa) = 62.16913 66.68210 64.42562
# Shear Modulus (GPa) = -26.06744 40.39120 7.16188
#
# Velocity S-wave (km/s) = -3.16078 3.93449 1.65676
# Velocity P-wave (km/s) = 3.24131 6.79682 5.32460
#
# Compressibility (1/GPa) = 0.01608515
#
# Stress axis : x y z
#
# Youngs Moduli (GPa) = 147.73184 116.07035 221.75996
#
# Poissons Ratio (x) = 0.07417 -0.00673
# Poissons Ratio (y) = 0.09440 0.28733
# Poissons Ratio (z) = -0.00449 0.15039
#
# Static dielectric constant tensor:
#      x y z
#    x 2.217780 0.000000 0.000000 
#    y 0.000000 6.196310 0.000000 
#    z 0.000000 0.000000 1.985530 
# 
# From -- ./inp_files/16825.got.cif
#   From: 2010.05.17/outbox.cif.g08.bks.cpg/sg55_9_cif.got.tgz:16825.got - 2010.06.03 13:27:54.
