data_PCOD9429495
_publ_section_title
;
Structure prediction by ZEFSAII (Michael W. Deem and Ramdas Pophale) SiO2 
 PCOD9429495
Probable space group: P C C N
;
_chemical_formula_sum "Si O2"
_cell_formula_units_Z 60
_cell_length_a 25.271866
_cell_length_b 6.665417
_cell_length_c 14.129552
_cell_angle_alpha 90.000000
_cell_angle_beta 90.000000
_cell_angle_gamma 90.000000
_cell_volume 2380.088067
_symmetry_space_group_name_H-M "P C C N"
_symmetry_group_IT_number 56
_symmetry_cell_setting 'orthorhombic'
loop_
_space_group_symop_operation_xyz
x,y,z
1/2-x,1/2-y,z
1/2+x,-y,1/2-z
-x,1/2+y,1/2-z
-x,-y,-z
1/2+x,1/2+y,-z
1/2-x,y,1/2+z
x,1/2-y,1/2+z
loop_
_atom_site_type_symbol
_atom_site_label
_atom_site_fract_x
_atom_site_fract_y
_atom_site_fract_z
Si Si1 0.521374 0.845633 0.877030
Si Si2 0.608626 0.899333 0.737692
Si Si3 0.750000 0.250000 0.128353
Si Si4 0.713598 0.020499 0.805812
Si Si5 0.644065 0.440693 0.048688
Si Si6 0.425303 0.868991 0.742146
Si Si7 0.957149 0.268578 0.462654
Si Si8 0.176379 0.973704 0.151421
O O1 0.467779 0.914214 0.822877
O O2 0.561083 0.787272 0.791569
O O3 0.544610 0.037923 0.929779
O O4 0.506201 0.704615 0.965609
O O5 0.663528 0.879597 0.794700
O O6 0.627764 0.897698 0.628750
O O7 0.590071 0.133830 0.743458
O O8 0.757130 0.067569 0.204167
O O9 0.695621 0.299195 0.072023
O O10 0.764398 0.947529 0.859050
O O11 0.689944 0.230360 0.844933
O O12 0.593564 0.305091 0.027529
O O13 0.651121 0.539158 0.946766
O O14 0.453010 0.877564 0.638777
O O15 0.368200 0.979732 0.734241
#
# Coordination Sequence:
#
# PCOD9429495 Si02
#       8
#     8   8   4   8   8   8   8   8
#     4  10  18  30  45  61  87 123 154 188 217 263
#     4   9  17  27  42  61  90 123 144 183 220 254
#     4   8  14  20  40  62  86 126 142 162 210 280
#     4   8  14  24  35  59  87 118 149 160 211 268
#     4  10  15  25  40  64  93 121 149 169 216 272
#     4   9  16  29  44  61  90 121 145 188 221 253
#     4   9  19  29  45  65  84 125 158 177 220 269
#     4   8  14  22  38  58  85 121 142 164 210 275
#
# _framework density 25.209150000000001
#
# number of rings (size 3 to 8) (size 9 to 14) (size 15 to 20)
#    0.000    3.200    1.333    2.400    0.000    0.000 
#    0.000    2.667    0.000    0.000    0.000    0.000 
#    0.000    4.267   22.667    0.533    0.000    0.000 
#
# Total GULP energy -334116.718234 kJ/mol
# GULP energy per Si atom -5568.611971 kJ/mol
# Density = 2.515177 g / cm^3
# Si number density = 25.209150 Si / 1000 Ang^3
#
#
#
# Elastic Constant Matrix: (Units=GPa)
#
#
# Indices 1 2 3 4 5 6 
#
# 1 92.6992 2.6506 28.3829 0.0000 0.0000 0.0000
# 2 2.6506 49.2277 -5.2470 0.0000 0.0000 0.0000
# 3 28.3829 -5.2470 115.6377 0.0000 0.0000 0.0000
# 4 0.0000 0.0000 0.0000 23.2313 0.0000 0.0000
# 5 0.0000 0.0000 0.0000 0.0000 37.4736 0.0000
# 6 0.0000 0.0000 0.0000 0.0000 0.0000 35.1594
#
#
#
# Elastic Compliance Matrix: (Units=1/GPa)
#
#
# Indices 1 2 3 4 5 6 
#
# 1 0.011707 -0.000941 -0.002916 0.000000 0.000000 0.000000
# 2 -0.000941 0.020488 0.001161 0.000000 0.000000 0.000000
# 3 -0.002916 0.001161 0.009416 0.000000 0.000000 0.000000
# 4 0.000000 0.000000 0.000000 0.043045 0.000000 0.000000
# 5 0.000000 0.000000 0.000000 0.000000 0.026685 0.000000
# 6 0.000000 0.000000 0.000000 0.000000 0.000000 0.028442
#
#
# Mechanical properties :
#
#
# Convention : Reuss Voigt Hill
#
# Bulk Modulus (GPa) = 27.61053 34.34863 30.97958
# Shear Modulus (GPa) = 31.79635 34.62472 33.21054
#
# Velocity S-wave (km/s) = 3.55533 3.71009 3.63354
# Velocity P-wave (km/s) = 5.27544 5.65757 5.46984
#
# Compressibility (1/GPa) = 0.03621807
#
# Stress axis : x y z
#
# Youngs Moduli (GPa) = 85.41605 48.80874 106.20056
#
# Poissons Ratio (x) = 0.04594 0.30971
# Poissons Ratio (y) = 0.08039 -0.12326
# Poissons Ratio (z) = 0.24909 -0.05665
#
# Static dielectric constant tensor:
#      x y z
#    x 2.179310 0.000000 0.000000 
#    y 0.000000 2.270590 0.000000 
#    z 0.000000 0.000000 2.061350 
# 
# From -- ./inp_files/13310.got.cif
#   From: 2010.05.17/outbox.cif.g08.bks.cpg/sg56_7_cif.got.tgz:13310.got - 2010.06.03 13:42:01.
