data_PCOD9429930
_publ_section_title
;
Structure prediction by ZEFSAII (Michael W. Deem and Ramdas Pophale) SiO2 
 PCOD9429930
Probable space group: P C C N
;
_chemical_formula_sum "Si O2"
_cell_formula_units_Z 60
_cell_length_a 11.838428
_cell_length_b 8.054544
_cell_length_c 28.199867
_cell_angle_alpha 90.000000
_cell_angle_beta 90.000000
_cell_angle_gamma 90.000000
_cell_volume 2688.945844
_symmetry_space_group_name_H-M "P C C N"
_symmetry_group_IT_number 56
_symmetry_cell_setting 'orthorhombic'
loop_
_space_group_symop_operation_xyz
x,y,z
1/2-x,1/2-y,z
1/2+x,-y,1/2-z
-x,1/2+y,1/2-z
-x,-y,-z
1/2+x,1/2+y,-z
1/2-x,y,1/2+z
x,1/2-y,1/2+z
loop_
_atom_site_type_symbol
_atom_site_label
_atom_site_fract_x
_atom_site_fract_y
_atom_site_fract_z
Si Si1 0.155618 0.375729 0.846534
Si Si2 0.053604 0.333518 0.605813
Si Si3 0.433925 0.799539 0.640336
Si Si4 0.750000 0.250000 0.428357
Si Si5 0.798308 0.423100 0.579162
Si Si6 0.370396 0.044224 0.513830
Si Si7 0.379236 0.300369 0.697856
Si Si8 0.480434 0.886782 0.229407
O O1 0.250000 0.250000 0.827726
O O2 0.216692 0.504798 0.880579
O O3 0.085793 0.450608 0.802945
O O4 0.060958 0.260561 0.872434
O O5 0.091904 0.509388 0.629157
O O6 0.114095 0.317407 0.554639
O O7 0.083182 0.190830 0.642934
O O8 0.921179 0.368504 0.598281
O O9 0.348667 0.694915 0.607928
O O10 0.428469 0.757988 0.696100
O O11 0.806199 0.392758 0.460099
O O12 0.750000 0.250000 0.559762
O O13 0.810688 0.557120 0.536920
O O14 0.500000 0.000000 0.500000
O O15 0.250000 0.250000 0.699030
O O16 0.392767 0.465550 0.728968
O O17 0.467892 0.174959 0.722205
#
# Coordination Sequence:
#
# PCOD9429930 Si02
#       8
#     8   8   8   4   8   8   8   8
#     4  10  20  39  63  91 134 169 215 275 326 388
#     4  10  21  39  63  90 130 173 217 260 329 387
#     4   9  21  38  68  88 126 171 216 258 332 378
#     4  10  18  38  66  90 128 176 218 264 324 398
#     4  11  19  36  63  91 126 173 220 269 321 383
#     4   9  20  35  60  91 129 173 220 265 324 387
#     4  12  26  44  69  95 133 170 216 277 331 405
#     4  10  24  43  62  98 126 162 220 262 333 391
#
# _framework density 22.313579000000001
#
# number of rings (size 3 to 8) (size 9 to 14) (size 15 to 20)
#    0.800    1.067    2.000    2.000    3.733    1.067 
#    0.000    2.667    0.000    0.000    0.000    0.000 
#    0.000    0.000    0.000    0.000    0.000    0.000 
#
# Total GULP energy -334521.989311 kJ/mol
# GULP energy per Si atom -5575.366489 kJ/mol
# Density = 2.226279 g / cm^3
# Si number density = 22.313579 Si / 1000 Ang^3
#
#
#
# Elastic Constant Matrix: (Units=GPa)
#
#
# Indices 1 2 3 4 5 6 
#
# 1 76.3854 0.8213 2.0355 0.0000 0.0000 0.0000
# 2 0.8213 36.5469 -2.7776 0.0000 0.0000 0.0000
# 3 2.0355 -2.7776 84.9840 0.0000 0.0000 0.0000
# 4 0.0000 0.0000 0.0000 7.1637 0.0000 0.0000
# 5 0.0000 0.0000 0.0000 0.0000 15.9302 0.0000
# 6 0.0000 0.0000 0.0000 0.0000 0.0000 22.3245
#
#
#
# Elastic Compliance Matrix: (Units=1/GPa)
#
#
# Indices 1 2 3 4 5 6 
#
# 1 0.013104 -0.000319 -0.000324 0.000000 0.000000 0.000000
# 2 -0.000319 0.027438 0.000904 0.000000 0.000000 0.000000
# 3 -0.000324 0.000904 0.011804 0.000000 0.000000 0.000000
# 4 0.000000 0.000000 0.000000 0.139592 0.000000 0.000000
# 5 0.000000 0.000000 0.000000 0.000000 0.062774 0.000000
# 6 0.000000 0.000000 0.000000 0.000000 0.000000 0.044794
#
#
# Mechanical properties :
#
#
# Convention : Reuss Voigt Hill
#
# Bulk Modulus (GPa) = 18.91509 22.00830 20.46170
# Shear Modulus (GPa) = 15.79249 22.27283 19.03266
#
# Velocity S-wave (km/s) = 2.66325 3.16282 2.92372
# Velocity P-wave (km/s) = 4.23704 4.81897 4.53735
#
# Compressibility (1/GPa) = 0.05286783
#
# Stress axis : x y z
#
# Youngs Moduli (GPa) = 76.31504 36.44583 84.71523
#
# Poissons Ratio (x) = 0.01163 0.02747
# Poissons Ratio (y) = 0.02435 -0.07662
# Poissons Ratio (z) = 0.02475 -0.03296
#
# Static dielectric constant tensor:
#      x y z
#    x 1.832170 0.000000 0.000000 
#    y 0.000000 1.880920 0.000000 
#    z 0.000000 0.000000 1.851970 
# 
# From -- ./inp_files/23490.got.cif
#   From: 2010.05.17/outbox.cif.g08.bks.cpg/sg56_12_cif.got.tgz:23490.got - 2010.06.03 13:42:01.
