data_PCOD9429507
_publ_section_title
;
Structure prediction by ZEFSAII (Michael W. Deem and Ramdas Pophale) SiO2 
 PCOD9429507
Probable space group: P C C N
;
_chemical_formula_sum "Si O2"
_cell_formula_units_Z 64
_cell_length_a 13.291924
_cell_length_b 12.601678
_cell_length_c 14.884297
_cell_angle_alpha 90.000000
_cell_angle_beta 90.000000
_cell_angle_gamma 90.000000
_cell_volume 2493.127878
_symmetry_space_group_name_H-M "P C C N"
_symmetry_group_IT_number 56
_symmetry_cell_setting 'orthorhombic'
loop_
_space_group_symop_operation_xyz
x,y,z
1/2-x,1/2-y,z
1/2+x,-y,1/2-z
-x,1/2+y,1/2-z
-x,-y,-z
1/2+x,1/2+y,-z
1/2-x,y,1/2+z
x,1/2-y,1/2+z
loop_
_atom_site_type_symbol
_atom_site_label
_atom_site_fract_x
_atom_site_fract_y
_atom_site_fract_z
Si Si1 0.568332 0.628810 0.994976
Si Si2 0.282603 0.534925 0.029640
Si Si3 0.289252 0.862047 0.858491
Si Si4 0.123049 0.127621 0.501156
Si Si5 0.985325 0.488526 0.143245
Si Si6 0.965987 0.875420 0.799700
Si Si7 0.756583 0.521314 0.786514
Si Si8 0.636649 0.697133 0.189865
O O1 0.604100 0.505285 0.977983
O O2 0.616804 0.748925 0.980149
O O3 0.498533 0.639498 0.902158
O O4 0.578669 0.642365 0.105095
O O5 0.233712 0.420679 0.003401
O O6 0.242226 0.557070 0.128769
O O7 0.242529 0.620852 0.961383
O O8 0.250000 0.750000 0.826264
O O9 0.405321 0.893282 0.845040
O O10 0.237853 0.955457 0.803657
O O11 0.064871 0.057786 0.574637
O O12 0.073504 0.085100 0.408608
O O13 0.022844 0.541653 0.234892
O O14 0.853146 0.925835 0.802334
O O15 0.943793 0.771398 0.740842
O O16 0.828194 0.619424 0.769410
O O17 0.750000 0.750000 0.163573
#
# Coordination Sequence:
#
# PCOD9429507 Si02
#       8
#     8   8   8   8   8   8   8   8
#     4  11  18  28  53  83 110 133 166 217 278 315
#     4  10  19  32  53  84 107 130 176 222 273 316
#     4  10  20  35  54  74 102 141 183 225 256 310
#     4  10  18  31  55  78 106 142 170 219 266 326
#     4   9  19  35  51  74 108 142 183 213 262 321
#     4   9  18  30  47  76 109 137 168 213 263 323
#     4   9  18  31  49  77 106 135 165 221 276 311
#     4  10  16  26  45  77 111 130 160 211 269 318
#
# _framework density 25.670563000000001
#
# number of rings (size 3 to 8) (size 9 to 14) (size 15 to 20)
#    0.000    2.250    2.500    1.875    0.000    4.000 
#    0.000    1.250    0.000    8.250    0.000    0.000 
#    0.000    0.000    0.000    0.000    0.000    0.000 
#
# Total GULP energy -356355.461871 kJ/mol
# GULP energy per Si atom -5568.054092 kJ/mol
# Density = 2.561214 g / cm^3
# Si number density = 25.670563 Si / 1000 Ang^3
#
#
#
# Elastic Constant Matrix: (Units=GPa)
#
#
# Indices 1 2 3 4 5 6 
#
# 1 52.9498 0.2725 16.9466 0.0000 0.0000 0.0000
# 2 0.2725 65.6369 12.8546 0.0000 0.0000 0.0000
# 3 16.9466 12.8546 168.7467 0.0000 0.0000 0.0000
# 4 0.0000 0.0000 0.0000 23.1683 0.0000 0.0000
# 5 0.0000 0.0000 0.0000 0.0000 30.6078 0.0000
# 6 0.0000 0.0000 0.0000 0.0000 0.0000 21.3437
#
#
#
# Elastic Compliance Matrix: (Units=1/GPa)
#
#
# Indices 1 2 3 4 5 6 
#
# 1 0.019519 0.000307 -0.001984 0.000000 0.000000 0.000000
# 2 0.000307 0.015471 -0.001209 0.000000 0.000000 0.000000
# 3 -0.001984 -0.001209 0.006217 0.000000 0.000000 0.000000
# 4 0.000000 0.000000 0.000000 0.043162 0.000000 0.000000
# 5 0.000000 0.000000 0.000000 0.000000 0.032671 0.000000
# 6 0.000000 0.000000 0.000000 0.000000 0.000000 0.046852
#
#
# Mechanical properties :
#
#
# Convention : Reuss Voigt Hill
#
# Bulk Modulus (GPa) = 28.21973 38.60898 33.41436
# Shear Modulus (GPa) = 27.55177 32.17462 29.86320
#
# Velocity S-wave (km/s) = 3.27965 3.54413 3.41445
# Velocity P-wave (km/s) = 5.03571 5.64098 5.34692
#
# Compressibility (1/GPa) = 0.03543620
#
# Stress axis : x y z
#
# Youngs Moduli (GPa) = 51.23184 64.63745 160.83942
#
# Poissons Ratio (x) = -0.01987 0.31905
# Poissons Ratio (y) = -0.01575 0.19452
# Poissons Ratio (z) = 0.10163 0.07817
#
# Static dielectric constant tensor:
#      x y z
#    x 2.390280 0.000000 0.000000 
#    y 0.000000 1.959970 0.000000 
#    z 0.000000 0.000000 2.096980 
# 
# From -- ./inp_files/12862.got.cif
#   From: 2010.05.17/outbox.cif.g08.bks.cpg/sg56_7_cif.got.tgz:12862.got - 2010.06.03 13:42:01.
