data_PCOD9429579
_publ_section_title
;
Structure prediction by ZEFSAII (Michael W. Deem and Ramdas Pophale) SiO2 
 PCOD9429579
Probable space group: P C C N
;
_chemical_formula_sum "Si O2"
_cell_formula_units_Z 48
_cell_length_a 15.954114
_cell_length_b 9.489043
_cell_length_c 14.726005
_cell_angle_alpha 90.000000
_cell_angle_beta 90.000000
_cell_angle_gamma 90.000000
_cell_volume 2229.359203
_symmetry_space_group_name_H-M "P C C N"
_symmetry_group_IT_number 56
_symmetry_cell_setting 'orthorhombic'
loop_
_space_group_symop_operation_xyz
x,y,z
1/2-x,1/2-y,z
1/2+x,-y,1/2-z
-x,1/2+y,1/2-z
-x,-y,-z
1/2+x,1/2+y,-z
1/2-x,y,1/2+z
x,1/2-y,1/2+z
loop_
_atom_site_type_symbol
_atom_site_label
_atom_site_fract_x
_atom_site_fract_y
_atom_site_fract_z
Si Si1 0.661631 0.662990 0.535673
Si Si2 0.081784 0.081298 0.754801
Si Si3 0.751169 0.085565 0.745097
Si Si4 0.916080 0.927769 0.026498
Si Si5 0.253299 0.592166 0.977207
Si Si6 0.589001 0.594695 0.733556
O O1 0.750000 0.750000 0.550267
O O2 0.600301 0.772333 0.488196
O O3 0.683593 0.516682 0.488682
O O4 0.620293 0.623168 0.631048
O O5 0.086185 0.083782 0.864737
O O6 0.079103 0.246609 0.726424
O O7 0.167291 0.999846 0.727626
O O8 0.997706 0.992806 0.732605
O O9 0.750000 0.250000 0.773442
O O10 0.751738 0.089662 0.633558
O O11 0.834900 0.000101 0.773944
O O12 0.841031 0.026391 0.996513
O O13 0.000000 0.000000 0.000000
O O14 0.250000 0.750000 0.008829
#
# Coordination Sequence:
#
# PCOD9429579 Si02
#       6
#     8   8   8   8   8   8
#     4   8  15  29  49  68  88 121 157 194 235 274
#     4  10  19  29  47  73  95 124 156 192 241 286
#     4   9  16  28  46  69  92 118 154 198 239 277
#     4   9  17  30  47  66  92 122 155 190 228 277
#     4   8  14  26  47  68  84 110 156 200 229 263
#     4  10  17  28  45  68  96 119 151 196 238 283
#
# _framework density 21.530850999999998
#
# number of rings (size 3 to 8) (size 9 to 14) (size 15 to 20)
#    0.000    3.000    0.000    4.500    0.000    1.333 
#    0.000    0.833    0.000   14.000    0.000    0.000 
#    0.000    0.000    0.000    0.000    0.000    0.000 
#
# Total GULP energy -267623.165655 kJ/mol
# GULP energy per Si atom -5575.482618 kJ/mol
# Density = 2.148185 g / cm^3
# Si number density = 21.530851 Si / 1000 Ang^3
#
#
#
# Elastic Constant Matrix: (Units=GPa)
#
#
# Indices 1 2 3 4 5 6 
#
# 1 146.8337 117.1418 9.3870 0.0000 0.0000 0.0000
# 2 117.1418 263.8272 14.7822 0.0000 0.0000 0.0000
# 3 9.3870 14.7822 66.5916 0.0000 0.0000 0.0000
# 4 0.0000 0.0000 0.0000 -14.4194 0.0000 0.0000
# 5 0.0000 0.0000 0.0000 0.0000 26.8693 0.0000
# 6 0.0000 0.0000 0.0000 0.0000 0.0000 40.0269
#
#
#
# Elastic Compliance Matrix: (Units=1/GPa)
#
#
# Indices 1 2 3 4 5 6 
#
# 1 0.010560 -0.004663 -0.000453 0.000000 0.000000 0.000000
# 2 -0.004663 0.005897 -0.000652 0.000000 0.000000 0.000000
# 3 -0.000453 -0.000652 0.015226 0.000000 0.000000 0.000000
# 4 0.000000 0.000000 0.000000 -0.069351 0.000000 0.000000
# 5 0.000000 0.000000 0.000000 0.000000 0.037217 0.000000
# 6 0.000000 0.000000 0.000000 0.000000 0.000000 0.024983
#
#
# Mechanical properties :
#
#
# Convention : Reuss Voigt Hill
#
# Bulk Modulus (GPa) = 49.63804 84.43051 67.03428
# Shear Modulus (GPa) = 116.86731 32.89148 74.87939
#
# Velocity S-wave (km/s) = 7.37542 3.91275 5.90366
# Velocity P-wave (km/s) = 9.77924 7.72733 8.81321
#
# Compressibility (1/GPa) = 0.02014584
#
# Stress axis : x y z
#
# Youngs Moduli (GPa) = 94.70036 169.56703 65.67928
#
# Poissons Ratio (x) = 0.79072 0.02978
# Poissons Ratio (y) = 0.44160 0.04281
# Poissons Ratio (z) = 0.04293 0.11052
#
# Static dielectric constant tensor:
#      x y z
#    x 1.754990 0.000000 0.000000 
#    y 0.000000 1.834960 0.000000 
#    z 0.000000 0.000000 1.853930 
# 
# From -- ./inp_files/18064.got.cif
#   From: 2010.05.17/outbox.cif.g08.bks.cpg/sg56_10_cif.got.tgz:18064.got - 2010.06.03 13:42:01.
