data_PCOD9429693
_publ_section_title
;
Structure prediction by ZEFSAII (Michael W. Deem and Ramdas Pophale) SiO2 
 PCOD9429693
Probable space group: P C C N
;
_chemical_formula_sum "Si O2"
_cell_formula_units_Z 40
_cell_length_a 10.724113
_cell_length_b 15.624231
_cell_length_c 8.748327
_cell_angle_alpha 90.000000
_cell_angle_beta 90.000000
_cell_angle_gamma 90.000000
_cell_volume 1465.834843
_symmetry_space_group_name_H-M "P C C N"
_symmetry_group_IT_number 56
_symmetry_cell_setting 'orthorhombic'
loop_
_space_group_symop_operation_xyz
x,y,z
1/2-x,1/2-y,z
1/2+x,-y,1/2-z
-x,1/2+y,1/2-z
-x,-y,-z
1/2+x,1/2+y,-z
1/2-x,y,1/2+z
x,1/2-y,1/2+z
loop_
_atom_site_type_symbol
_atom_site_label
_atom_site_fract_x
_atom_site_fract_y
_atom_site_fract_z
Si Si1 0.692836 0.495157 0.524859
Si Si2 0.750000 0.250000 0.688325
Si Si3 0.476656 0.477274 0.742466
Si Si4 0.635384 0.641468 0.734325
Si Si5 0.750000 0.750000 0.502289
Si Si6 0.612829 0.356936 0.947832
O O1 0.577295 0.449607 0.609870
O O2 0.647802 0.515953 0.355252
O O3 0.713009 0.578374 0.625114
O O4 0.810866 0.436921 0.514893
O O5 0.690689 0.318833 0.803832
O O6 0.862289 0.285473 0.579389
O O7 0.523134 0.575701 0.775516
O O8 0.495276 0.406398 0.872365
O O9 0.634906 0.720658 0.613359
O O10 0.695023 0.680307 0.884571
#
# Coordination Sequence:
#
# PCOD9429693 Si02
#       6
#     8   4   8   8   4   8
#     4   9  19  36  58  79 108 149 188 227 273 332
#     4  10  22  32  58  88 114 146 190 232 298 330
#     4   9  19  36  58  79 108 149 188 227 273 332
#     4   9  18  31  51  76 110 138 178 219 269 329
#     4  10  18  30  50  86 108 138 176 222 282 334
#     4  11  19  38  59  83 114 152 184 241 283 338
#
# _framework density 27.288201999999998
#
# number of rings (size 3 to 8) (size 9 to 14) (size 15 to 20)
#    1.200    1.200    2.000    1.200    0.000    0.000 
#    0.000    9.000    0.000    0.000    0.000    5.600 
#    0.000    0.000    0.000    0.000    0.000    0.000 
#
# Total GULP energy -223233.167169 kJ/mol
# GULP energy per Si atom -5580.829179 kJ/mol
# Density = 2.722609 g / cm^3
# Si number density = 27.288202 Si / 1000 Ang^3
#
#
#
# Elastic Constant Matrix: (Units=GPa)
#
#
# Indices 1 2 3 4 5 6 
#
# 1 65.3005 34.5411 34.1326 0.0000 0.0000 0.0000
# 2 34.5411 133.1907 73.5887 0.0000 0.0000 0.0000
# 3 34.1326 73.5887 181.2545 0.0000 0.0000 0.0000
# 4 0.0000 0.0000 0.0000 67.0748 0.0000 0.0000
# 5 0.0000 0.0000 0.0000 0.0000 47.5842 0.0000
# 6 0.0000 0.0000 0.0000 0.0000 0.0000 35.1167
#
#
#
# Elastic Compliance Matrix: (Units=1/GPa)
#
#
# Indices 1 2 3 4 5 6 
#
# 1 0.018271 -0.003658 -0.001956 0.000000 0.000000 0.000000
# 2 -0.003658 0.010412 -0.003538 0.000000 0.000000 0.000000
# 3 -0.001956 -0.003538 0.007322 0.000000 0.000000 0.000000
# 4 0.000000 0.000000 0.000000 0.014909 0.000000 0.000000
# 5 0.000000 0.000000 0.000000 0.000000 0.021015 0.000000
# 6 0.000000 0.000000 0.000000 0.000000 0.000000 0.028476
#
#
# Mechanical properties :
#
#
# Convention : Reuss Voigt Hill
#
# Bulk Modulus (GPa) = 56.49401 73.80784 65.15092
# Shear Modulus (GPa) = 40.12572 45.78736 42.95654
#
# Velocity S-wave (km/s) = 3.83879 4.10068 3.97190
# Velocity P-wave (km/s) = 6.35579 7.03755 6.70534
#
# Compressibility (1/GPa) = 0.01770099
#
# Stress axis : x y z
#
# Youngs Moduli (GPa) = 54.73209 96.04740 136.57708
#
# Poissons Ratio (x) = 0.35132 0.26709
# Poissons Ratio (y) = 0.20020 0.48324
# Poissons Ratio (z) = 0.10703 0.33984
#
# Static dielectric constant tensor:
#      x y z
#    x 2.184390 0.000000 0.000000 
#    y 0.000000 2.267530 0.000000 
#    z 0.000000 0.000000 2.118860 
# 
# From -- ./inp_files/3301.got.cif
#   From: 2010.05.17/outbox.cif.g08.bks.cpg/sg56_2_cif.got.tgz:3301.got - 2010.06.03 13:42:01.
