data_PCOD9429823
_publ_section_title
;
Structure prediction by ZEFSAII (Michael W. Deem and Ramdas Pophale) SiO2 
 PCOD9429823
Probable space group: P C C N
;
_chemical_formula_sum "Si O2"
_cell_formula_units_Z 60
_cell_length_a 15.198278
_cell_length_b 8.647588
_cell_length_c 23.437994
_cell_angle_alpha 90.000000
_cell_angle_beta 90.000000
_cell_angle_gamma 90.000000
_cell_volume 3080.419139
_symmetry_space_group_name_H-M "P C C N"
_symmetry_group_IT_number 56
_symmetry_cell_setting 'orthorhombic'
loop_
_space_group_symop_operation_xyz
x,y,z
1/2-x,1/2-y,z
1/2+x,-y,1/2-z
-x,1/2+y,1/2-z
-x,-y,-z
1/2+x,1/2+y,-z
1/2-x,y,1/2+z
x,1/2-y,1/2+z
loop_
_atom_site_type_symbol
_atom_site_label
_atom_site_fract_x
_atom_site_fract_y
_atom_site_fract_z
Si Si1 0.938561 0.896466 0.291740
Si Si2 0.750000 0.250000 0.519007
Si Si3 0.518634 0.835720 0.920142
Si Si4 0.210655 0.913127 0.769296
Si Si5 0.345584 0.267893 0.383883
Si Si6 0.881235 0.418333 0.606126
Si Si7 0.366551 0.023805 0.987990
Si Si8 0.395926 0.415616 0.272651
O O1 0.950691 0.898700 0.359383
O O2 0.913675 0.726001 0.269699
O O3 0.863069 0.011886 0.270397
O O4 0.031279 0.951804 0.264883
O O5 0.815890 0.343505 0.560129
O O6 0.694585 0.385316 0.488301
O O7 0.472635 0.671760 0.904925
O O8 0.444002 0.936807 0.952537
O O9 0.598150 0.858309 0.964480
O O10 0.250000 0.750000 0.750584
O O11 0.163296 0.892183 0.831445
O O12 0.297467 0.019466 0.770015
O O13 0.250000 0.250000 0.355361
O O14 0.324914 0.374252 0.437967
O O15 0.405851 0.349068 0.336933
O O16 0.385707 0.102810 0.400165
#
# Coordination Sequence:
#
# PCOD9429823 Si02
#       8
#     8   4   8   8   8   8   8   8
#     4  12  24  40  63  94 130 169 210 260 328 396
#     4  10  18  34  66  88 114 164 214 270 312 380
#     4  10  23  41  59  90 124 171 205 266 325 389
#     4  12  23  40  63  94 130 169 214 265 323 392
#     4  12  20  36  62  96 121 158 218 277 313 371
#     4  11  20  35  64  93 118 159 216 269 321 366
#     4  10  21  40  63  86 126 160 221 265 322 380
#     4  12  23  40  64  96 128 169 212 269 320 387
#
# _framework density 19.477868000000001
#
# number of rings (size 3 to 8) (size 9 to 14) (size 15 to 20)
#    0.000    0.800    6.000    2.800    0.000    0.533 
#    1.200    1.333    0.000    0.000    0.000    0.000 
#    0.000    0.000    0.000    0.000    0.000    0.000 
#
# Total GULP energy -334671.330921 kJ/mol
# GULP energy per Si atom -5577.855515 kJ/mol
# Density = 1.943354 g / cm^3
# Si number density = 19.477868 Si / 1000 Ang^3
#
#
#
# Elastic Constant Matrix: (Units=GPa)
#
#
# Indices 1 2 3 4 5 6 
#
# 1 85.9637 40.9759 32.4977 0.0000 0.0000 0.0000
# 2 40.9759 96.8501 28.4697 0.0000 0.0000 0.0000
# 3 32.4977 28.4697 58.3511 0.0000 0.0000 0.0000
# 4 0.0000 0.0000 0.0000 19.6345 0.0000 0.0000
# 5 0.0000 0.0000 0.0000 0.0000 16.3086 0.0000
# 6 0.0000 0.0000 0.0000 0.0000 0.0000 27.8335
#
#
#
# Elastic Compliance Matrix: (Units=1/GPa)
#
#
# Indices 1 2 3 4 5 6 
#
# 1 0.016595 -0.005025 -0.006791 0.000000 0.000000 0.000000
# 2 -0.005025 0.013576 -0.003825 0.000000 0.000000 0.000000
# 3 -0.006791 -0.003825 0.022786 0.000000 0.000000 0.000000
# 4 0.000000 0.000000 0.000000 0.050931 0.000000 0.000000
# 5 0.000000 0.000000 0.000000 0.000000 0.061317 0.000000
# 6 0.000000 0.000000 0.000000 0.000000 0.000000 0.035928
#
#
# Mechanical properties :
#
#
# Convention : Reuss Voigt Hill
#
# Bulk Modulus (GPa) = 46.13559 49.45015 47.79287
# Shear Modulus (GPa) = 20.86471 22.03678 21.45074
#
# Velocity S-wave (km/s) = 3.27647 3.36724 3.32217
# Velocity P-wave (km/s) = 6.16857 6.36873 6.26945
#
# Compressibility (1/GPa) = 0.02167524
#
# Stress axis : x y z
#
# Youngs Moduli (GPa) = 60.25824 73.66135 43.88697
#
# Poissons Ratio (x) = 0.37015 0.29802
# Poissons Ratio (y) = 0.30280 0.16787
# Poissons Ratio (z) = 0.40920 0.28175
#
# Static dielectric constant tensor:
#      x y z
#    x 1.726690 0.000000 0.000000 
#    y 0.000000 1.723010 0.000000 
#    z 0.000000 0.000000 1.663850 
# 
# From -- ./inp_files/21139.got.cif
#   From: 2010.05.17/outbox.cif.g08.bks.cpg/sg56_11_cif.got.tgz:21139.got - 2010.06.03 13:42:01.
