data_PCOD9429802
_publ_section_title
;
Structure prediction by ZEFSAII (Michael W. Deem and Ramdas Pophale) SiO2 
 PCOD9429802
Probable space group: P C C N
;
_chemical_formula_sum "Si O2"
_cell_formula_units_Z 64
_cell_length_a 21.295548
_cell_length_b 8.857139
_cell_length_c 18.182348
_cell_angle_alpha 90.000000
_cell_angle_beta 90.000000
_cell_angle_gamma 90.000000
_cell_volume 3429.511364
_symmetry_space_group_name_H-M "P C C N"
_symmetry_group_IT_number 56
_symmetry_cell_setting 'orthorhombic'
loop_
_space_group_symop_operation_xyz
x,y,z
1/2-x,1/2-y,z
1/2+x,-y,1/2-z
-x,1/2+y,1/2-z
-x,-y,-z
1/2+x,1/2+y,-z
1/2-x,y,1/2+z
x,1/2-y,1/2+z
loop_
_atom_site_type_symbol
_atom_site_label
_atom_site_fract_x
_atom_site_fract_y
_atom_site_fract_z
Si Si1 0.671638 0.580093 0.027102
Si Si2 0.684394 0.799553 0.166706
Si Si3 0.996252 0.125005 0.655912
Si Si4 0.459787 0.279984 0.302341
Si Si5 0.001605 0.654006 0.549889
Si Si6 0.395330 0.785990 0.451782
Si Si7 0.694167 0.466254 0.547541
Si Si8 0.898547 0.676307 0.958778
O O1 0.681879 0.698136 0.092681
O O2 0.621784 0.460722 0.058078
O O3 0.738225 0.502781 0.014459
O O4 0.645262 0.673641 0.957641
O O5 0.750000 0.750000 0.205039
O O6 0.616581 0.777898 0.203765
O O7 0.690697 0.964924 0.130151
O O8 0.943064 0.206448 0.605243
O O9 0.007640 0.226149 0.727741
O O10 0.062299 0.128909 0.611811
O O11 0.977850 0.951999 0.674574
O O12 0.484647 0.162114 0.364766
O O13 0.951746 0.770278 0.515896
O O14 0.000000 0.500000 0.500000
O O15 0.070124 0.719508 0.530727
O O16 0.329267 0.702741 0.449205
O O17 0.642509 0.547583 0.496150
#
# Coordination Sequence:
#
# PCOD9429802 Si02
#       8
#     8   8   8   8   8   8   8   8
#     4  10  19  32  61  86 113 150 195 258 293 367
#     4   9  18  35  56  77 109 149 197 250 288 347
#     4  11  27  35  61  84 132 166 193 260 299 380
#     4  12  23  41  56  90 119 165 210 240 311 360
#     4  11  20  34  62  81 117 151 196 254 293 361
#     4  11  20  35  54  93 117 151 197 250 320 343
#     4  10  18  34  58  85 115 146 200 255 301 347
#     4  10  19  38  54  87 111 152 196 239 310 349
#
# _framework density 18.661550999999999
#
# number of rings (size 3 to 8) (size 9 to 14) (size 15 to 20)
#    0.000    1.500    5.000    2.250    5.250    2.000 
#    0.000    1.250    0.000    0.000    0.000    1.750 
#    0.000    0.000    0.000    0.000    0.000    0.000 
#
# Total GULP energy -356395.338773 kJ/mol
# GULP energy per Si atom -5568.677168 kJ/mol
# Density = 1.861908 g / cm^3
# Si number density = 18.661551 Si / 1000 Ang^3
#
#
#
# Elastic Constant Matrix: (Units=GPa)
#
#
# Indices 1 2 3 4 5 6 
#
# 1 87.7535 15.7645 7.1794 0.0000 0.0000 0.0000
# 2 15.7645 83.5048 9.8338 0.0000 0.0000 0.0000
# 3 7.1794 9.8338 44.8061 0.0000 0.0000 0.0000
# 4 0.0000 0.0000 0.0000 19.2061 0.0000 0.0000
# 5 0.0000 0.0000 0.0000 0.0000 14.4284 0.0000
# 6 0.0000 0.0000 0.0000 0.0000 0.0000 30.6400
#
#
#
# Elastic Compliance Matrix: (Units=1/GPa)
#
#
# Indices 1 2 3 4 5 6 
#
# 1 0.011887 -0.002073 -0.001450 0.000000 0.000000 0.000000
# 2 -0.002073 0.012655 -0.002445 0.000000 0.000000 0.000000
# 3 -0.001450 -0.002445 0.023087 0.000000 0.000000 0.000000
# 4 0.000000 0.000000 0.000000 0.052067 0.000000 0.000000
# 5 0.000000 0.000000 0.000000 0.000000 0.069308 0.000000
# 6 0.000000 0.000000 0.000000 0.000000 0.000000 0.032637
#
#
# Mechanical properties :
#
#
# Convention : Reuss Voigt Hill
#
# Bulk Modulus (GPa) = 28.01709 31.29108 29.65409
# Shear Modulus (GPa) = 22.17554 25.07404 23.62479
#
# Velocity S-wave (km/s) = 3.45091 3.66952 3.56189
# Velocity P-wave (km/s) = 5.56096 5.89558 5.73071
#
# Compressibility (1/GPa) = 0.03569250
#
# Stress axis : x y z
#
# Youngs Moduli (GPa) = 84.12831 79.02189 43.31389
#
# Poissons Ratio (x) = 0.16384 0.06279
# Poissons Ratio (y) = 0.17442 0.10591
# Poissons Ratio (z) = 0.12195 0.19322
#
# Static dielectric constant tensor:
#      x y z
#    x 1.713610 0.000000 0.000000 
#    y 0.000000 1.710030 0.000000 
#    z 0.000000 0.000000 1.624990 
# 
# From -- ./inp_files/16850.got.cif
#   From: 2010.05.17/outbox.cif.g08.bks.cpg/sg56_9_cif.got.tgz:16850.got - 2010.06.03 13:42:01.
