data_PCOD9429738
_publ_section_title
;
Structure prediction by ZEFSAII (Michael W. Deem and Ramdas Pophale) SiO2 
 PCOD9429738
Probable space group: P C C N
;
_chemical_formula_sum "Si O2"
_cell_formula_units_Z 32
_cell_length_a 4.924064
_cell_length_b 18.465702
_cell_length_c 13.487541
_cell_angle_alpha 90.000000
_cell_angle_beta 90.000000
_cell_angle_gamma 90.000000
_cell_volume 1226.372178
_symmetry_space_group_name_H-M "P C C N"
_symmetry_group_IT_number 56
_symmetry_cell_setting 'orthorhombic'
loop_
_space_group_symop_operation_xyz
x,y,z
1/2-x,1/2-y,z
1/2+x,-y,1/2-z
-x,1/2+y,1/2-z
-x,-y,-z
1/2+x,1/2+y,-z
1/2-x,y,1/2+z
x,1/2-y,1/2+z
loop_
_atom_site_type_symbol
_atom_site_label
_atom_site_fract_x
_atom_site_fract_y
_atom_site_fract_z
Si Si1 0.495857 0.202593 0.243428
Si Si2 0.346183 0.424836 0.026271
Si Si3 0.027443 0.043059 0.728502
Si Si4 0.871158 0.325297 0.016966
O O1 0.750000 0.250000 0.267195
O O2 0.507071 0.120542 0.280365
O O3 0.496379 0.196607 0.123126
O O4 0.250000 0.250000 0.279832
O O5 0.180180 0.445422 0.125249
O O6 0.599353 0.370929 0.039063
O O7 0.103840 0.378242 0.969276
O O8 0.500000 0.500000 0.000000
O O9 0.235307 0.991976 0.786463
O O10 0.750000 0.250000 0.973747
#
# Coordination Sequence:
#
# PCOD9429738 Si02
#       4
#     8   8   8   8
#     4  10  18  32  54  82 110 141 187 240 278 319
#     4  11  22  36  56  85 118 150 186 237 292 344
#     4  11  21  35  56  84 116 151 190 236 286 342
#     4  10  18  33  56  83 110 144 192 241 278 327
#
# _framework density 26.093218
#
# number of rings (size 3 to 8) (size 9 to 14) (size 15 to 20)
#    0.000    1.500    0.000   12.000    0.000    0.000 
#    0.000    0.000    0.000    7.500    0.000    1.750 
#    0.000    0.000    0.000    0.000    0.000    0.250 
#
# Total GULP energy -178905.608255 kJ/mol
# GULP energy per Si atom -5590.800258 kJ/mol
# Density = 2.603383 g / cm^3
# Si number density = 26.093218 Si / 1000 Ang^3
#
#
#
# Elastic Constant Matrix: (Units=GPa)
#
#
# Indices 1 2 3 4 5 6 
#
# 1 193.4651 97.3024 -12.2161 0.0000 0.0000 0.0000
# 2 97.3024 250.0318 9.7254 0.0000 0.0000 0.0000
# 3 -12.2161 9.7254 47.7452 0.0000 0.0000 0.0000
# 4 0.0000 0.0000 0.0000 12.4385 0.0000 0.0000
# 5 0.0000 0.0000 0.0000 0.0000 6.5618 0.0000
# 6 0.0000 0.0000 0.0000 0.0000 0.0000 88.9755
#
#
#
# Elastic Compliance Matrix: (Units=1/GPa)
#
#
# Indices 1 2 3 4 5 6 
#
# 1 0.006658 -0.002679 0.002249 0.000000 0.000000 0.000000
# 2 -0.002679 0.005109 -0.001726 0.000000 0.000000 0.000000
# 3 0.002249 -0.001726 0.021872 0.000000 0.000000 0.000000
# 4 0.000000 0.000000 0.000000 0.080395 0.000000 0.000000
# 5 0.000000 0.000000 0.000000 0.000000 0.152396 0.000000
# 6 0.000000 0.000000 0.000000 0.000000 0.000000 0.011239
#
#
# Mechanical properties :
#
#
# Convention : Reuss Voigt Hill
#
# Bulk Modulus (GPa) = 34.09733 75.65172 54.87453
# Shear Modulus (GPa) = 17.13760 48.02386 32.58073
#
# Velocity S-wave (km/s) = 2.56556 4.29473 3.53743
# Velocity P-wave (km/s) = 4.67675 7.32453 6.14495
#
# Compressibility (1/GPa) = 0.02932781
#
# Stress axis : x y z
#
# Youngs Moduli (GPa) = 150.19362 195.73268 45.72152
#
# Poissons Ratio (x) = 0.52428 -0.10283
# Poissons Ratio (y) = 0.40230 0.07892
# Poissons Ratio (z) = -0.33781 0.33784
#
# Static dielectric constant tensor:
#      x y z
#    x 1.943120 0.000000 0.000000 
#    y 0.000000 2.088300 0.000000 
#    z 0.000000 0.000000 2.208600 
# 
# From -- ./inp_files/13714.got.cif
#   From: 2010.05.17/outbox.cif.g08.bks.cpg/sg56_7_cif.got.tgz:13714.got - 2010.06.03 13:42:01.
