data_PCOD9429084
_publ_section_title
;
Structure prediction by ZEFSAII (Michael W. Deem and Ramdas Pophale) SiO2 
 PCOD9429084
Probable space group: P B A M
;
_chemical_formula_sum "Si O2"
_cell_formula_units_Z 58
_cell_length_a 16.055476
_cell_length_b 10.007601
_cell_length_c 17.346048
_cell_angle_alpha 90.000000
_cell_angle_beta 90.000000
_cell_angle_gamma 90.000000
_cell_volume 2787.107445
_symmetry_space_group_name_H-M "P B A M"
_symmetry_group_IT_number 55
_symmetry_cell_setting 'orthorhombic'
loop_
_space_group_symop_operation_xyz
x,y,z
-x,-y,z
1/2+x,1/2-y,-z
1/2-x,1/2+y,-z
-x,-y,-z
x,y,-z
1/2-x,1/2+y,z
1/2+x,1/2-y,z
loop_
_atom_site_type_symbol
_atom_site_label
_atom_site_fract_x
_atom_site_fract_y
_atom_site_fract_z
Si Si1 0.307051 0.978901 0.777750
Si Si2 0.813464 0.120160 0.586584
Si Si3 0.880631 0.607524 0.379448
Si Si4 0.074727 0.102075 0.644134
Si Si5 0.923658 0.604226 0.909375
Si Si6 0.484484 0.646564 0.814143
Si Si7 0.838807 0.225243 0.255790
Si Si8 0.500000 0.000000 0.500000
O O1 0.371570 0.932550 0.710289
O O2 0.346720 0.950617 0.860271
O O3 0.223703 0.894152 0.765987
O O4 0.296578 0.136097 0.766326
O O5 0.841203 0.147814 0.500000
O O6 0.714139 0.126870 0.592868
O O7 0.850030 0.216389 0.652100
O O8 0.843949 0.972873 0.612696
O O9 0.927834 0.749310 0.388762
O O10 0.928017 0.504802 0.432420
O O11 0.070155 0.119677 0.736785
O O12 0.000000 0.000000 0.623554
O O13 0.000000 0.500000 0.898755
O O14 0.946384 0.746640 0.871843
O O15 0.907108 0.615505 0.000000
O O16 0.500000 0.500000 0.849085
O O17 0.572344 0.705181 0.783775
#
# Coordination Sequence:
#
# PCOD9429084 Si02
#       8
#     8   8   8   8   8   8   8   2
#     4  11  26  45  74 100 141 188 235 289 360 444
#     4  11  25  45  65 100 144 185 240 306 361 421
#     4  11  27  45  67  97 142 184 246 299 368 427
#     4  11  24  46  70 101 135 191 238 293 359 439
#     4  11  24  45  75 108 143 181 229 295 360 431
#     4  11  22  43  72 104 141 182 240 284 343 446
#     4  11  25  44  69 103 134 194 238 287 357 426
#     4  12  28  48  62 100 132 188 246 324 346 428
#
# _framework density 20.810106000000001
#
# number of rings (size 3 to 8) (size 9 to 14) (size 15 to 20)
#    0.000    0.966    6.207    0.000   13.517    0.552 
#    3.724    1.379    0.000    0.000    0.000    0.000 
#    0.000    0.000    0.000    0.000    0.000    0.000 
#
# Total GULP energy -323879.178069 kJ/mol
# GULP energy per Si atom -5584.123760 kJ/mol
# Density = 2.076274 g / cm^3
# Si number density = 20.810106 Si / 1000 Ang^3
#
#
#
# Elastic Constant Matrix: (Units=GPa)
#
#
# Indices 1 2 3 4 5 6 
#
# 1 54.9402 20.0227 30.0232 0.0000 0.0000 0.0000
# 2 20.0227 115.0421 27.0377 0.0000 0.0000 0.0000
# 3 30.0232 27.0377 117.2654 0.0000 0.0000 0.0000
# 4 0.0000 0.0000 0.0000 -13.6920 0.0000 0.0000
# 5 0.0000 0.0000 0.0000 0.0000 21.7253 0.0000
# 6 0.0000 0.0000 0.0000 0.0000 0.0000 32.7233
#
#
#
# Elastic Compliance Matrix: (Units=1/GPa)
#
#
# Indices 1 2 3 4 5 6 
#
# 1 0.021893 -0.002636 -0.004998 0.000000 0.000000 0.000000
# 2 -0.002636 0.009508 -0.001517 0.000000 0.000000 0.000000
# 3 -0.004998 -0.001517 0.010157 0.000000 0.000000 0.000000
# 4 0.000000 0.000000 0.000000 -0.073035 0.000000 0.000000
# 5 0.000000 0.000000 0.000000 0.000000 0.046029 0.000000
# 6 0.000000 0.000000 0.000000 0.000000 0.000000 0.030559
#
#
# Mechanical properties :
#
#
# Convention : Reuss Voigt Hill
#
# Bulk Modulus (GPa) = 42.99858 49.04609 46.02233
# Shear Modulus (GPa) = 70.25893 22.16225 46.21059
#
# Velocity S-wave (km/s) = 5.81680 3.26694 4.71742
# Velocity P-wave (km/s) = 8.11300 6.15224 7.19968
#
# Compressibility (1/GPa) = 0.02325658
#
# Stress axis : x y z
#
# Youngs Moduli (GPa) = 45.67616 105.17615 98.45407
#
# Poissons Ratio (x) = 0.27724 0.49203
# Poissons Ratio (y) = 0.12040 0.14939
# Poissons Ratio (z) = 0.22827 0.15959
#
# Static dielectric constant tensor:
#      x y z
#    x 1.764450 0.000000 0.000000 
#    y 0.000000 1.779740 0.000000 
#    z 0.000000 0.000000 1.689470 
# 
# From -- ./inp_files/21820.got.cif
#   From: 2010.05.17/outbox.cif.g08.bks.cpg/sg55_11_cif.got.tgz:21820.got - 2010.06.03 13:27:54.
