data_PCOD9429730
_publ_section_title
;
Structure prediction by ZEFSAII (Michael W. Deem and Ramdas Pophale) SiO2 
 PCOD9429730
Probable space group: P C C N
;
_chemical_formula_sum "Si O2"
_cell_formula_units_Z 64
_cell_length_a 19.034618
_cell_length_b 19.883284
_cell_length_c 10.012581
_cell_angle_alpha 90.000000
_cell_angle_beta 90.000000
_cell_angle_gamma 90.000000
_cell_volume 3789.468695
_symmetry_space_group_name_H-M "P C C N"
_symmetry_group_IT_number 56
_symmetry_cell_setting 'orthorhombic'
loop_
_space_group_symop_operation_xyz
x,y,z
1/2-x,1/2-y,z
1/2+x,-y,1/2-z
-x,1/2+y,1/2-z
-x,-y,-z
1/2+x,1/2+y,-z
1/2-x,y,1/2+z
x,1/2-y,1/2+z
loop_
_atom_site_type_symbol
_atom_site_label
_atom_site_fract_x
_atom_site_fract_y
_atom_site_fract_z
Si Si1 0.478265 0.036414 0.365036
Si Si2 0.703408 0.669401 0.194392
Si Si3 0.297239 0.505499 0.512750
Si Si4 0.319627 0.492399 0.809287
Si Si5 0.520746 0.810302 0.944669
Si Si6 0.179817 0.155199 0.507400
Si Si7 0.948896 0.451616 0.086074
Si Si8 0.047951 0.305756 0.365451
O O1 0.403573 0.004300 0.321865
O O2 0.531569 0.032756 0.240318
O O3 0.468827 0.116085 0.391304
O O4 0.500000 0.000000 0.500000
O O5 0.693893 0.588113 0.192592
O O6 0.774741 0.682452 0.115235
O O7 0.704053 0.686070 0.351057
O O8 0.633011 0.698210 0.125615
O O9 0.295028 0.523292 0.668934
O O10 0.226974 0.521261 0.429833
O O11 0.306097 0.424629 0.510831
O O12 0.367950 0.534586 0.447208
O O13 0.469306 0.874315 0.947319
O O14 0.529367 0.791200 0.788980
O O15 0.596493 0.836365 0.996212
O O16 0.508687 0.745109 0.035887
O O17 0.000000 0.500000 0.000000
#
# Coordination Sequence:
#
# PCOD9429730 Si02
#       8
#     8   8   8   8   8   8   8   8
#     4  10  21  36  54  80 113 135 174 229 273 321
#     4   8  16  29  44  64  98 134 171 205 248 296
#     4  10  18  32  51  77 110 139 178 217 270 319
#     4   9  18  31  49  75 108 139 170 217 266 322
#     4  10  20  34  51  69 103 138 180 218 259 308
#     4   9  16  29  46  68  98 139 172 212 246 302
#     4  11  19  35  55  77 107 145 180 223 268 316
#     4   9  20  36  47  70 102 136 171 220 258 316
#
# _framework density 16.888911
#
# number of rings (size 3 to 8) (size 9 to 14) (size 15 to 20)
#    0.000    2.500    2.500    1.500    1.750    2.500 
#    2.250    2.500    0.000    0.000    0.000    0.875 
#    0.000    0.000    0.000    0.000    0.000    0.000 
#
# Total GULP energy -356677.759571 kJ/mol
# GULP energy per Si atom -5573.089993 kJ/mol
# Density = 1.685047 g / cm^3
# Si number density = 16.888911 Si / 1000 Ang^3
#
#
#
# Elastic Constant Matrix: (Units=GPa)
#
#
# Indices 1 2 3 4 5 6 
#
# 1 41.5184 11.4268 31.1105 0.0000 0.0000 0.0000
# 2 11.4268 48.1433 36.3264 0.0000 0.0000 0.0000
# 3 31.1105 36.3264 88.6571 0.0000 0.0000 0.0000
# 4 0.0000 0.0000 0.0000 17.1397 0.0000 0.0000
# 5 0.0000 0.0000 0.0000 0.0000 26.2375 0.0000
# 6 0.0000 0.0000 0.0000 0.0000 0.0000 24.0493
#
#
#
# Elastic Compliance Matrix: (Units=1/GPa)
#
#
# Indices 1 2 3 4 5 6 
#
# 1 0.032734 0.001300 -0.012019 0.000000 0.000000 0.000000
# 2 0.001300 0.030119 -0.012797 0.000000 0.000000 0.000000
# 3 -0.012019 -0.012797 0.020740 0.000000 0.000000 0.000000
# 4 0.000000 0.000000 0.000000 0.058344 0.000000 0.000000
# 5 0.000000 0.000000 0.000000 0.000000 0.038113 0.000000
# 6 0.000000 0.000000 0.000000 0.000000 0.000000 0.041581
#
#
# Mechanical properties :
#
#
# Convention : Reuss Voigt Hill
#
# Bulk Modulus (GPa) = 27.35195 37.33845 32.34520
# Shear Modulus (GPa) = 17.80295 20.11563 18.95929
#
# Velocity S-wave (km/s) = 3.25025 3.45491 3.35414
# Velocity P-wave (km/s) = 5.50598 6.17021 5.84753
#
# Compressibility (1/GPa) = 0.03656046
#
# Stress axis : x y z
#
# Youngs Moduli (GPa) = 30.54903 33.20188 48.21485
#
# Poissons Ratio (x) = -0.04315 0.57951
# Poissons Ratio (y) = -0.03970 0.61700
# Poissons Ratio (z) = 0.36718 0.42488
#
# Static dielectric constant tensor:
#      x y z
#    x 1.560850 0.000000 0.000000 
#    y 0.000000 1.592180 0.000000 
#    z 0.000000 0.000000 1.588990 
# 
# From -- ./inp_files/4233.got.cif
#   From: 2010.05.17/outbox.cif.g08.bks.cpg/sg56_3_cif.got.tgz:4233.got - 2010.06.03 13:42:01.
