data_PCOD9429763
_publ_section_title
;
Structure prediction by ZEFSAII (Michael W. Deem and Ramdas Pophale) SiO2 
 PCOD9429763
Probable space group: P C C N
;
_chemical_formula_sum "Si O2"
_cell_formula_units_Z 56
_cell_length_a 23.893845
_cell_length_b 17.027944
_cell_length_c 5.630639
_cell_angle_alpha 90.000000
_cell_angle_beta 90.000000
_cell_angle_gamma 90.000000
_cell_volume 2290.898983
_symmetry_space_group_name_H-M "P C C N"
_symmetry_group_IT_number 56
_symmetry_cell_setting 'orthorhombic'
loop_
_space_group_symop_operation_xyz
x,y,z
1/2-x,1/2-y,z
1/2+x,-y,1/2-z
-x,1/2+y,1/2-z
-x,-y,-z
1/2+x,1/2+y,-z
1/2-x,y,1/2+z
x,1/2-y,1/2+z
loop_
_atom_site_type_symbol
_atom_site_label
_atom_site_fract_x
_atom_site_fract_y
_atom_site_fract_z
Si Si1 0.865740 0.073286 0.857171
Si Si2 0.313714 0.719346 0.351922
Si Si3 0.174246 0.284988 0.158828
Si Si4 0.940620 0.539518 0.028228
Si Si5 0.425409 0.321291 0.139995
Si Si6 0.546498 0.204902 0.456628
Si Si7 0.648075 0.564223 0.144834
O O1 0.824274 0.128956 0.709708
O O2 0.902076 0.015587 0.693610
O O3 0.911781 0.130608 0.977794
O O4 0.831566 0.016886 0.035266
O O5 0.250000 0.750000 0.367597
O O6 0.336961 0.737345 0.614384
O O7 0.193970 0.242155 0.399890
O O8 0.107683 0.260693 0.172179
O O9 0.183296 0.378439 0.186023
O O10 0.946389 0.626348 0.138383
O O11 0.908479 0.542916 0.781895
O O12 0.000000 0.500000 0.000000
O O13 0.480683 0.316329 0.980067
O O14 0.373178 0.374866 0.053231
O O15 0.554546 0.239736 0.189658
#
# Coordination Sequence:
#
# PCOD9429763 Si02
#       7
#     8   8   8   8   8   8   8
#     4  11  25  39  58  88 123 159 210 275 335 409
#     4  10  23  46  75 100 125 163 211 270 349 419
#     4  10  18  33  52  71 100 149 212 252 288 348
#     4  11  22  35  55  78 119 165 215 268 331 373
#     4  10  21  35  51  74 104 162 221 262 298 361
#     4  12  26  37  54  78 107 155 211 273 319 372
#     4  10  21  35  52  77 111 160 200 265 317 365
#
# _framework density 24.444552999999999
#
# number of rings (size 3 to 8) (size 9 to 14) (size 15 to 20)
#    0.000    1.429    1.429    4.286    8.000    2.286 
#    0.000    0.000    0.000    0.000    0.000    0.000 
#    0.000    0.000    0.000  138.857    0.000    0.000 
#
# Total GULP energy -312543.367290 kJ/mol
# GULP energy per Si atom -5581.131559 kJ/mol
# Density = 2.438892 g / cm^3
# Si number density = 24.444553 Si / 1000 Ang^3
#
#
#
# Elastic Constant Matrix: (Units=GPa)
#
#
# Indices 1 2 3 4 5 6 
#
# 1 73.3434 17.5089 8.0318 0.0000 0.0000 0.0000
# 2 17.5089 111.5701 19.7934 0.0000 0.0000 0.0000
# 3 8.0318 19.7934 113.8295 0.0000 0.0000 0.0000
# 4 0.0000 0.0000 0.0000 41.7254 0.0000 0.0000
# 5 0.0000 0.0000 0.0000 0.0000 -362.2998 0.0000
# 6 0.0000 0.0000 0.0000 0.0000 0.0000 9.9979
#
#
#
# Elastic Compliance Matrix: (Units=1/GPa)
#
#
# Indices 1 2 3 4 5 6 
#
# 1 0.014209 -0.002117 -0.000634 0.000000 0.000000 0.000000
# 2 -0.002117 0.009564 -0.001514 0.000000 0.000000 0.000000
# 3 -0.000634 -0.001514 0.009093 0.000000 0.000000 0.000000
# 4 0.000000 0.000000 0.000000 0.023966 0.000000 0.000000
# 5 0.000000 0.000000 0.000000 0.000000 -0.002760 0.000000
# 6 0.000000 0.000000 0.000000 0.000000 0.000000 0.100021
#
#
# Mechanical properties :
#
#
# Convention : Reuss Voigt Hill
#
# Bulk Modulus (GPa) = 41.09235 43.26792 42.18014
# Shear Modulus (GPa) = 29.28497 -45.22138 -7.96820
#
# Velocity S-wave (km/s) = 3.46499 -4.30578 -1.80742
# Velocity P-wave (km/s) = 5.73194 2.64212 3.59683
#
# Compressibility (1/GPa) = 0.02433543
#
# Stress axis : x y z
#
# Youngs Moduli (GPa) = 70.37580 104.56109 109.97430
#
# Poissons Ratio (x) = 0.22139 0.06977
# Poissons Ratio (y) = 0.14901 0.16646
# Poissons Ratio (z) = 0.04465 0.15827
#
# Static dielectric constant tensor:
#      x y z
#    x 1.920690 0.000000 0.000000 
#    y 0.000000 2.028730 0.000000 
#    z 0.000000 0.000000 2.107300 
# 
# From -- ./inp_files/1343.got.cif
#   From: 2010.05.17/outbox.cif.g08.bks.cpg/sg56_1_cif.got.tgz:1343.got - 2010.06.03 13:42:01.
