data_PCOD9429367
_publ_section_title
;
Structure prediction by ZEFSAII (Michael W. Deem and Ramdas Pophale) SiO2 
 PCOD9429367
Probable space group: P B A M
;
_chemical_formula_sum "Si O2"
_cell_formula_units_Z 64
_cell_length_a 15.000000
_cell_length_b 24.000000
_cell_length_c 9.000000
_cell_angle_alpha 90.000000
_cell_angle_beta 90.000000
_cell_angle_gamma 90.000000
_cell_volume 3240.000000
_symmetry_space_group_name_H-M "P B A M"
_symmetry_group_IT_number 55
_symmetry_cell_setting 'orthorhombic'
loop_
_space_group_symop_operation_xyz
x,y,z
-x,-y,z
1/2+x,1/2-y,-z
1/2-x,1/2+y,-z
-x,-y,-z
x,y,-z
1/2-x,1/2+y,z
1/2+x,1/2-y,z
loop_
_atom_site_type_symbol
_atom_site_label
_atom_site_fract_x
_atom_site_fract_y
_atom_site_fract_z
Si Si1 0.927525 0.209904 0.169631
Si Si2 0.898361 0.863308 0.166759
Si Si3 0.268942 0.711916 0.326514
Si Si4 0.400731 0.523292 0.330380
Si Si5 0.579530 0.955294 0.321742
Si Si6 0.090021 0.667161 0.176772
Si Si7 0.273182 0.956871 0.321844
Si Si8 0.749360 0.667063 0.678100
O O1 0.959423 0.273093 0.212324
O O2 0.850079 0.183825 0.270490
O O3 0.005193 0.164825 0.166712
O O4 0.892463 0.215637 0.000000
O O5 0.847033 0.829985 0.292891
O O6 0.895555 0.927210 0.213371
O O7 0.860696 0.855561 0.000000
O O8 0.243655 0.713029 0.500000
O O9 0.187522 0.686745 0.232188
O O10 0.297653 0.774778 0.281519
O O11 0.500000 0.500000 0.328697
O O12 0.381467 0.543216 0.500000
O O13 0.328501 0.475556 0.298599
O O14 0.586232 0.946255 0.500000
O O15 0.568651 0.893310 0.250978
O O16 0.500000 0.000000 0.296132
O O17 0.665339 0.991568 0.268089
O O18 0.085228 0.658712 0.000000
O O19 0.290722 0.954636 0.500000
O O20 0.283484 0.893115 0.264090
O O21 0.750790 0.662039 0.500000
#
# Coordination Sequence:
#
# PCOD9429367 Si02
#       8
#     8   8   8   8   8   8   8   8
#     4   9  20  36  53  76 107 140 172 217 271 319
#     4  11  22  35  52  77 110 144 178 216 265 325
#     4  10  20  34  55  82 108 135 174 224 270 318
#     4  10  20  34  55  81 109 144 183 225 274 325
#     4  10  21  36  55  79 108 144 184 227 274 322
#     4  10  20  37  58  77 103 140 181 223 273 328
#     4   9  18  34  54  77 108 140 174 221 271 321
#     4   9  18  34  56  78 100 133 176 218 265 320
#
# _framework density 19.753086
#
# number of rings (size 3 to 8) (size 9 to 14) (size 15 to 20)
#    0.000    2.250    0.000    2.625    0.000    5.500 
#    0.000    2.500    0.000    0.000    0.000    0.000 
#    0.000    0.000    0.000    0.000    0.000    0.000 
#
# Total GULP energy -356296.660524 kJ/mol
# GULP energy per Si atom -5567.135321 kJ/mol
# Density = 1.970813 g / cm^3
# Si number density = 19.753086 Si / 1000 Ang^3
#
#
#
# Elastic Constant Matrix: (Units=GPa)
#
#
# Indices 1 2 3 4 5 6 
#
# 1 17.6036 -14.7103 -0.8453 0.0000 0.0000 0.0000
# 2 -14.7103 125.7992 21.7100 0.0000 0.0000 0.0000
# 3 -0.8453 21.7100 20.3802 0.0000 0.0000 0.0000
# 4 0.0000 0.0000 0.0000 25.8352 0.0000 0.0000
# 5 0.0000 0.0000 0.0000 0.0000 14.0129 0.0000
# 6 0.0000 0.0000 0.0000 0.0000 0.0000 20.6436
#
#
#
# Elastic Compliance Matrix: (Units=1/GPa)
#
#
# Indices 1 2 3 4 5 6 
#
# 1 0.063649 0.008561 -0.006480 0.000000 0.000000 0.000000
# 2 0.008561 0.010891 -0.011247 0.000000 0.000000 0.000000
# 3 -0.006480 -0.011247 0.060779 0.000000 0.000000 0.000000
# 4 0.000000 0.000000 0.000000 0.038707 0.000000 0.000000
# 5 0.000000 0.000000 0.000000 0.000000 0.071363 0.000000
# 6 0.000000 0.000000 0.000000 0.000000 0.000000 0.048441
#
#
# Mechanical properties :
#
#
# Convention : Reuss Voigt Hill
#
# Bulk Modulus (GPa) = 8.54782 19.56574 14.05678
# Shear Modulus (GPa) = 14.23864 22.60692 18.42278
#
# Velocity S-wave (km/s) = 2.68774 3.38668 3.05725
# Velocity P-wave (km/s) = 3.73747 5.02190 4.42652
#
# Compressibility (1/GPa) = 0.11698895
#
# Stress axis : x y z
#
# Youngs Moduli (GPa) = 15.71110 91.81740 16.45302
#
# Poissons Ratio (x) = -0.78605 0.10661
# Poissons Ratio (y) = -0.13450 0.18504
# Poissons Ratio (z) = 0.10180 1.03265
#
# Static dielectric constant tensor:
#      x y z
#    x 2.040620 0.000000 0.000000 
#    y 0.000000 1.721200 0.000000 
#    z 0.000000 0.000000 1.695510 
# 
# From -- ./inp_files/6553.got.cif
#   From: 2010.05.17/outbox.ucp.g08.bks.cvg/sg55_4_cif.got.tgz:6553.got - 2010.06.11 16:36:00.
