data_PCOD9429049
_publ_section_title
;
Structure prediction by ZEFSAII (Michael W. Deem and Ramdas Pophale) SiO2 
 PCOD9429049
Probable space group: P B A M
;
_chemical_formula_sum "Si O2"
_cell_formula_units_Z 48
_cell_length_a 9.716464
_cell_length_b 16.852372
_cell_length_c 13.961730
_cell_angle_alpha 90.000000
_cell_angle_beta 90.000000
_cell_angle_gamma 90.000000
_cell_volume 2286.169983
_symmetry_space_group_name_H-M "P B A M"
_symmetry_group_IT_number 55
_symmetry_cell_setting 'orthorhombic'
loop_
_space_group_symop_operation_xyz
x,y,z
-x,-y,z
1/2+x,1/2-y,-z
1/2-x,1/2+y,-z
-x,-y,-z
x,y,-z
1/2-x,1/2+y,z
1/2+x,1/2-y,z
loop_
_atom_site_type_symbol
_atom_site_label
_atom_site_fract_x
_atom_site_fract_y
_atom_site_fract_z
Si Si1 0.580799 0.837261 0.106997
Si Si2 0.532539 0.708043 0.612858
Si Si3 0.234105 0.909367 0.698592
Si Si4 0.754721 0.676907 0.106685
Si Si5 0.175149 0.069497 0.389628
Si Si6 0.454089 0.118253 0.308622
O O1 0.677403 0.760551 0.118247
O O2 0.419871 0.812303 0.110966
O O3 0.598728 0.892925 0.199343
O O4 0.605117 0.871068 0.000000
O O5 0.519566 0.725874 0.500000
O O6 0.674288 0.661843 0.633964
O O7 0.414538 0.645094 0.641179
O O8 0.524378 0.787872 0.673358
O O9 0.215499 0.881525 0.807617
O O10 0.396684 0.920098 0.680129
O O11 0.158107 0.989819 0.670745
O O12 0.721066 0.646716 0.000000
O O13 0.140458 0.052973 0.500000
O O14 0.334913 0.092385 0.379623
#
# Coordination Sequence:
#
# PCOD9429049 Si02
#       6
#     8   8   8   8   8   8
#     4   9  18  33  56  87 116 146 186 236 290 338
#     4  11  23  39  59  83 112 150 196 244 288 340
#     4  11  22  38  59  84 118 156 189 236 292 350
#     4   9  18  34  58  86 117 151 189 236 286 340
#     4  11  25  41  58  83 118 157 195 239 298 350
#     4  11  22  37  61  88 113 148 197 244 283 339
#
# _framework density 20.995815
#
# number of rings (size 3 to 8) (size 9 to 14) (size 15 to 20)
#    0.000    1.667    1.667    3.000    2.333    6.000 
#    0.000    0.833    0.000    7.000    0.000    0.000 
#    0.000    0.000    0.000    0.000    0.000    0.000 
#
# Total GULP energy -268235.452549 kJ/mol
# GULP energy per Si atom -5588.238595 kJ/mol
# Density = 2.094803 g / cm^3
# Si number density = 20.995815 Si / 1000 Ang^3
#
#
#
# Elastic Constant Matrix: (Units=GPa)
#
#
# Indices 1 2 3 4 5 6 
#
# 1 47.3570 3.6380 7.7343 0.0000 0.0000 0.0000
# 2 3.6380 35.6811 -1.7960 0.0000 0.0000 0.0000
# 3 7.7343 -1.7960 48.9941 0.0000 0.0000 0.0000
# 4 0.0000 0.0000 0.0000 25.3430 0.0000 0.0000
# 5 0.0000 0.0000 0.0000 0.0000 26.9980 0.0000
# 6 0.0000 0.0000 0.0000 0.0000 0.0000 28.7317
#
#
#
# Elastic Compliance Matrix: (Units=1/GPa)
#
#
# Indices 1 2 3 4 5 6 
#
# 1 0.021880 -0.002409 -0.003542 0.000000 0.000000 0.000000
# 2 -0.002409 0.028343 0.001419 0.000000 0.000000 0.000000
# 3 -0.003542 0.001419 0.021022 0.000000 0.000000 0.000000
# 4 0.000000 0.000000 0.000000 0.039459 0.000000 0.000000
# 5 0.000000 0.000000 0.000000 0.000000 0.037040 0.000000
# 6 0.000000 0.000000 0.000000 0.000000 0.000000 0.034805
#
#
# Mechanical properties :
#
#
# Convention : Reuss Voigt Hill
#
# Bulk Modulus (GPa) = 16.08224 16.79833 16.44028
# Shear Modulus (GPa) = 23.54725 24.37827 23.96276
#
# Velocity S-wave (km/s) = 3.35255 3.41119 3.38200
# Velocity P-wave (km/s) = 4.76051 4.85110 4.80602
#
# Compressibility (1/GPa) = 0.06218041
#
# Stress axis : x y z
#
# Youngs Moduli (GPa) = 45.70427 35.28198 47.56962
#
# Poissons Ratio (x) = 0.08500 0.16851
# Poissons Ratio (y) = 0.11011 -0.06752
# Poissons Ratio (z) = 0.16190 -0.05008
#
# Static dielectric constant tensor:
#      x y z
#    x 1.766140 0.000000 0.000000 
#    y 0.000000 1.738790 0.000000 
#    z 0.000000 0.000000 1.766780 
# 
# From -- ./inp_files/17341.got.cif
#   From: 2010.05.17/outbox.cif.g08.bks.cpg/sg55_9_cif.got.tgz:17341.got - 2010.06.03 13:27:54.
