data_PCOD9429514
_publ_section_title
;
Structure prediction by ZEFSAII (Michael W. Deem and Ramdas Pophale) SiO2 
 PCOD9429514
Probable space group: P C C N
;
_chemical_formula_sum "Si O2"
_cell_formula_units_Z 40
_cell_length_a 15.638575
_cell_length_b 33.597820
_cell_length_c 5.152941
_cell_angle_alpha 90.000000
_cell_angle_beta 90.000000
_cell_angle_gamma 90.000000
_cell_volume 2707.468710
_symmetry_space_group_name_H-M "P C C N"
_symmetry_group_IT_number 56
_symmetry_cell_setting 'orthorhombic'
loop_
_space_group_symop_operation_xyz
x,y,z
1/2-x,1/2-y,z
1/2+x,-y,1/2-z
-x,1/2+y,1/2-z
-x,-y,-z
1/2+x,1/2+y,-z
1/2-x,y,1/2+z
x,1/2-y,1/2+z
loop_
_atom_site_type_symbol
_atom_site_label
_atom_site_fract_x
_atom_site_fract_y
_atom_site_fract_z
Si Si1 0.425495 0.568302 0.346408
Si Si2 0.306589 0.006676 0.773690
Si Si3 0.478613 0.042844 0.628312
Si Si4 0.846703 0.267386 0.969148
Si Si5 0.192618 0.641141 0.976049
O O1 0.352465 0.536581 0.261201
O O2 0.490785 0.571691 0.103769
O O3 0.380665 0.609443 0.418956
O O4 0.470012 0.550764 0.605836
O O5 0.232908 0.010012 0.559152
O O6 0.120390 0.038943 0.207017
O O7 0.500000 0.000000 0.500000
O O8 0.750000 0.250000 0.932334
O O9 0.888485 0.241414 0.194026
O O10 0.839686 0.313406 0.039233
O O11 0.265736 0.635615 0.758579
#
# Coordination Sequence:
#
# PCOD9429514 Si02
#       5
#     8   8   8   8   8
#     4  11  21  32  44  66  90 116 145 189 241 262
#     4  11  19  31  48  65  80 107 153 190 220 263
#     4  10  20  35  47  59  88 119 140 180 241 291
#     4  10  16  29  42  59  84 120 154 187 208 256
#     4  12  20  29  45  65  90 118 159 201 216 245
#
# _framework density 14.773949
#
# number of rings (size 3 to 8) (size 9 to 14) (size 15 to 20)
#    0.000    1.200    4.000    8.400    0.000    0.000 
#    0.000    0.000    0.000    0.000    0.000    0.000 
#    0.000    0.000    0.000    0.000    0.000   70.000 
#
# Total GULP energy -222968.167263 kJ/mol
# GULP energy per Si atom -5574.204182 kJ/mol
# Density = 1.474032 g / cm^3
# Si number density = 14.773949 Si / 1000 Ang^3
#
#
#
# Elastic Constant Matrix: (Units=GPa)
#
#
# Indices 1 2 3 4 5 6 
#
# 1 37.7677 21.9576 3.0441 0.0000 0.0000 0.0000
# 2 21.9576 51.4289 -6.4657 0.0000 0.0000 0.0000
# 3 3.0441 -6.4657 73.7987 0.0000 0.0000 0.0000
# 4 0.0000 0.0000 0.0000 14.5091 0.0000 0.0000
# 5 0.0000 0.0000 0.0000 0.0000 58.5016 0.0000
# 6 0.0000 0.0000 0.0000 0.0000 0.0000 12.7415
#
#
#
# Elastic Compliance Matrix: (Units=1/GPa)
#
#
# Indices 1 2 3 4 5 6 
#
# 1 0.035802 -0.015644 -0.002847 0.000000 0.000000 0.000000
# 2 -0.015644 0.026496 0.002967 0.000000 0.000000 0.000000
# 3 -0.002847 0.002967 0.013928 0.000000 0.000000 0.000000
# 4 0.000000 0.000000 0.000000 0.068922 0.000000 0.000000
# 5 0.000000 0.000000 0.000000 0.000000 0.017094 0.000000
# 6 0.000000 0.000000 0.000000 0.000000 0.000000 0.078484
#
#
# Mechanical properties :
#
#
# Convention : Reuss Voigt Hill
#
# Bulk Modulus (GPa) = 22.13492 22.22970 22.18231
# Shear Modulus (GPa) = 17.43171 26.78107 22.10639
#
# Velocity S-wave (km/s) = 3.43869 4.26223 3.87241
# Velocity P-wave (km/s) = 5.54806 6.26908 5.91956
#
# Compressibility (1/GPa) = 0.04517749
#
# Stress axis : x y z
#
# Youngs Moduli (GPa) = 27.93126 37.74098 71.79920
#
# Poissons Ratio (x) = 0.59041 0.20444
# Poissons Ratio (y) = 0.43695 -0.21301
# Poissons Ratio (z) = 0.07953 -0.11197
#
# Static dielectric constant tensor:
#      x y z
#    x 1.369560 0.000000 0.000000 
#    y 0.000000 1.487120 0.000000 
#    z 0.000000 0.000000 1.563520 
# 
# From -- ./inp_files/328.got.cif
#   From: 2010.05.17/outbox.cif.g08.bks.cpg/sg56_1_cif.got.tgz:328.got - 2010.06.03 13:42:01.
