data_PCOD9429173
_publ_section_title
;
Structure prediction by ZEFSAII (Michael W. Deem and Ramdas Pophale) SiO2 
 PCOD9429173
Probable space group: P B A M
;
_chemical_formula_sum "Si O2"
_cell_formula_units_Z 34
_cell_length_a 17.083528
_cell_length_b 9.457015
_cell_length_c 9.866818
_cell_angle_alpha 90.000000
_cell_angle_beta 90.000000
_cell_angle_gamma 90.000000
_cell_volume 1594.075031
_symmetry_space_group_name_H-M "P B A M"
_symmetry_group_IT_number 55
_symmetry_cell_setting 'orthorhombic'
loop_
_space_group_symop_operation_xyz
x,y,z
-x,-y,z
1/2+x,1/2-y,-z
1/2-x,1/2+y,-z
-x,-y,-z
x,y,-z
1/2-x,1/2+y,z
1/2+x,1/2-y,z
loop_
_atom_site_type_symbol
_atom_site_label
_atom_site_fract_x
_atom_site_fract_y
_atom_site_fract_z
Si Si1 0.295978 0.529072 0.652460
Si Si2 0.854235 0.477772 0.159338
Si Si3 0.500000 0.500000 0.000000
Si Si4 0.577359 0.676777 0.758532
Si Si5 0.416938 0.785655 0.348049
O O1 0.262608 0.525759 0.500000
O O2 0.229021 0.521162 0.764532
O O3 0.355327 0.399321 0.672976
O O4 0.347497 0.671240 0.666407
O O5 0.891894 0.325130 0.184017
O O6 0.905946 0.596397 0.233947
O O7 0.847084 0.507167 0.000000
O O8 0.446738 0.424162 0.118444
O O9 0.499243 0.707748 0.673092
O O10 0.413607 0.846196 0.500000
#
# Coordination Sequence:
#
# PCOD9429173 Si02
#       5
#     8   8   2   8   8
#     4  11  25  46  70  99 136 181 231 283 344 416
#     4  12  28  42  66 103 140 178 226 286 350 410
#     4  12  24  44  72 108 132 176 228 298 334 408
#     4  12  25  45  74  99 138 180 235 281 347 408
#     4  11  25  45  70 100 136 182 233 287 346 415
#
# _framework density 21.328983999999998
#
# number of rings (size 3 to 8) (size 9 to 14) (size 15 to 20)
#    0.000    0.471    3.529    3.529    3.294   12.235 
#    0.000    0.000    0.000    0.000    0.000    0.000 
#    0.000    0.000    0.000    0.000    0.000    0.000 
#
# Total GULP energy -189884.671882 kJ/mol
# GULP energy per Si atom -5584.843291 kJ/mol
# Density = 2.128044 g / cm^3
# Si number density = 21.328984 Si / 1000 Ang^3
#
#
#
# Elastic Constant Matrix: (Units=GPa)
#
#
# Indices 1 2 3 4 5 6 
#
# 1 79.1466 -2.8684 23.6226 0.0000 0.0000 0.0000
# 2 -2.8684 36.6987 29.4165 0.0000 0.0000 0.0000
# 3 23.6226 29.4165 161.9859 0.0000 0.0000 0.0000
# 4 0.0000 0.0000 0.0000 50.3452 0.0000 0.0000
# 5 0.0000 0.0000 0.0000 0.0000 11.6808 0.0000
# 6 0.0000 0.0000 0.0000 0.0000 0.0000 20.7216
#
#
#
# Elastic Compliance Matrix: (Units=1/GPa)
#
#
# Indices 1 2 3 4 5 6 
#
# 1 0.013501 0.003082 -0.002529 0.000000 0.000000 0.000000
# 2 0.003082 0.032595 -0.006369 0.000000 0.000000 0.000000
# 3 -0.002529 -0.006369 0.007699 0.000000 0.000000 0.000000
# 4 0.000000 0.000000 0.000000 0.019863 0.000000 0.000000
# 5 0.000000 0.000000 0.000000 0.000000 0.085611 0.000000
# 6 0.000000 0.000000 0.000000 0.000000 0.000000 0.048259
#
#
# Mechanical properties :
#
#
# Convention : Reuss Voigt Hill
#
# Bulk Modulus (GPa) = 23.71675 42.01919 32.86797
# Shear Modulus (GPa) = 21.43970 31.72688 26.58329
#
# Velocity S-wave (km/s) = 3.17391 3.86100 3.53419
# Velocity P-wave (km/s) = 4.95735 6.29442 5.66546
#
# Compressibility (1/GPa) = 0.04216430
#
# Stress axis : x y z
#
# Youngs Moduli (GPa) = 74.06759 30.67978 129.89256
#
# Poissons Ratio (x) = -0.09456 0.32845
# Poissons Ratio (y) = -0.22828 0.82724
# Poissons Ratio (z) = 0.18729 0.19539
#
# Static dielectric constant tensor:
#      x y z
#    x 1.758700 0.000000 0.000000 
#    y 0.000000 1.770730 0.000000 
#    z 0.000000 0.000000 1.723910 
# 
# From -- ./inp_files/8387.got.cif
#   From: 2010.05.17/outbox.cif.g08.bks.cpg/sg55_5_cif.got.tgz:8387.got - 2010.06.03 13:27:54.
