data_PCOD9429329
_publ_section_title
;
Structure prediction by ZEFSAII (Michael W. Deem and Ramdas Pophale) SiO2 
 PCOD9429329
Probable space group: P B A M
;
_chemical_formula_sum "Si O2"
_cell_formula_units_Z 48
_cell_length_a 30.000000
_cell_length_b 9.000000
_cell_length_c 9.000000
_cell_angle_alpha 90.000000
_cell_angle_beta 90.000000
_cell_angle_gamma 90.000000
_cell_volume 2430.000000
_symmetry_space_group_name_H-M "P B A M"
_symmetry_group_IT_number 55
_symmetry_cell_setting 'orthorhombic'
loop_
_space_group_symop_operation_xyz
x,y,z
-x,-y,z
1/2+x,1/2-y,-z
1/2-x,1/2+y,-z
-x,-y,-z
x,y,-z
1/2-x,1/2+y,z
1/2+x,1/2-y,z
loop_
_atom_site_type_symbol
_atom_site_label
_atom_site_fract_x
_atom_site_fract_y
_atom_site_fract_z
Si Si1 0.953419 0.416856 0.834396
Si Si2 0.790489 0.471008 0.180340
Si Si3 0.298583 0.366183 0.179512
Si Si4 0.125215 0.047209 0.665971
Si Si5 0.379547 0.858085 0.820607
Si Si6 0.532137 0.617264 0.665576
O O1 0.917106 0.527501 0.768917
O O2 0.961858 0.270317 0.745253
O O3 0.000000 0.500000 0.844890
O O4 0.937317 0.376794 0.000000
O O5 0.744960 0.545177 0.230391
O O6 0.796744 0.303239 0.232430
O O7 0.831961 0.573353 0.218598
O O8 0.788918 0.465201 0.000000
O O9 0.340886 0.451365 0.238947
O O10 0.299151 0.365546 0.000000
O O11 0.142996 0.072183 0.500000
O O12 0.115498 0.201006 0.745576
O O13 0.079692 0.958144 0.655444
O O14 0.382756 0.843202 0.000000
O O15 0.500000 0.500000 0.744497
O O16 0.513531 0.645184 0.500000
#
# Coordination Sequence:
#
# PCOD9429329 Si02
#       6
#     8   8   8   8   8   8
#     4  10  21  36  57  87 115 138 174 226 277 320
#     4   9  18  33  57  84 106 138 184 223 260 321
#     4  10  19  35  58  81 107 140 179 223 270 319
#     4  11  23  37  54  80 110 141 182 226 268 316
#     4  10  20  36  57  81 110 144 181 220 268 325
#     4  10  22  39  57  78 108 148 188 220 259 321
#
# _framework density 19.753086
#
# number of rings (size 3 to 8) (size 9 to 14) (size 15 to 20)
#    0.000    2.000    0.000    3.500    0.000    6.667 
#    0.000    4.167    0.000    0.000    0.000    0.000 
#    0.000    0.000    0.000    0.000    0.000    0.000 
#
# Total GULP energy -267749.261934 kJ/mol
# GULP energy per Si atom -5578.109624 kJ/mol
# Density = 1.970813 g / cm^3
# Si number density = 19.753086 Si / 1000 Ang^3
#
#
#
# Elastic Constant Matrix: (Units=GPa)
#
#
# Indices 1 2 3 4 5 6 
#
# 1 63.5309 23.4542 15.2087 0.0000 0.0000 0.0000
# 2 23.4542 150.0795 57.7997 0.0000 0.0000 0.0000
# 3 15.2087 57.7997 25.1863 0.0000 0.0000 0.0000
# 4 0.0000 0.0000 0.0000 93.9770 0.0000 0.0000
# 5 0.0000 0.0000 0.0000 0.0000 5.8850 0.0000
# 6 0.0000 0.0000 0.0000 0.0000 0.0000 33.8323
#
#
#
# Elastic Compliance Matrix: (Units=1/GPa)
#
#
# Indices 1 2 3 4 5 6 
#
# 1 0.021354 0.014020 -0.045070 0.000000 0.000000 0.000000
# 2 0.014020 0.066559 -0.161212 0.000000 0.000000 0.000000
# 3 -0.045070 -0.161212 0.436883 0.000000 0.000000 0.000000
# 4 0.000000 0.000000 0.000000 0.010641 0.000000 0.000000
# 5 0.000000 0.000000 0.000000 0.000000 0.169922 0.000000
# 6 0.000000 0.000000 0.000000 0.000000 0.000000 0.029558
#
#
# Mechanical properties :
#
#
# Convention : Reuss Voigt Hill
#
# Bulk Modulus (GPa) = 7.12896 47.96912 27.54904
# Shear Modulus (GPa) = 4.28744 36.22780 20.25762
#
# Velocity S-wave (km/s) = 1.47487 4.28721 3.20588
# Velocity P-wave (km/s) = 2.55288 6.98884 5.26123
#
# Compressibility (1/GPa) = 0.14027301
#
# Stress axis : x y z
#
# Youngs Moduli (GPa) = 46.83053 15.02423 2.28894
#
# Poissons Ratio (x) = -0.21065 0.10316
# Poissons Ratio (y) = -0.65659 0.36901
# Poissons Ratio (z) = 2.11064 2.42209
#
# Static dielectric constant tensor:
#      x y z
#    x 1.684520 0.000000 0.000000 
#    y 0.000000 1.665100 0.000000 
#    z 0.000000 0.000000 1.756310 
# 
# From -- ./inp_files/2792.got.cif
#   From: 2010.05.17/outbox.ucp.g08.bks.cvg/sg55_2_cif.got.tgz:2792.got - 2010.06.11 16:36:00.
