data_PCOD9429085
_publ_section_title
;
Structure prediction by ZEFSAII (Michael W. Deem and Ramdas Pophale) SiO2 
 PCOD9429085
Probable space group: P B A M
;
_chemical_formula_sum "Si O2"
_cell_formula_units_Z 28
_cell_length_a 18.011004
_cell_length_b 7.988099
_cell_length_c 8.164660
_cell_angle_alpha 90.000000
_cell_angle_beta 90.000000
_cell_angle_gamma 90.000000
_cell_volume 1174.679705
_symmetry_space_group_name_H-M "P B A M"
_symmetry_group_IT_number 55
_symmetry_cell_setting 'orthorhombic'
loop_
_space_group_symop_operation_xyz
x,y,z
-x,-y,z
1/2+x,1/2-y,-z
1/2-x,1/2+y,-z
-x,-y,-z
x,y,-z
1/2-x,1/2+y,z
1/2+x,1/2-y,z
loop_
_atom_site_type_symbol
_atom_site_label
_atom_site_fract_x
_atom_site_fract_y
_atom_site_fract_z
Si Si1 0.198210 0.478024 0.191431
Si Si2 0.559628 0.865506 0.686735
Si Si3 0.351939 0.619980 0.308720
Si Si4 0.500000 0.500000 0.751494
O O1 0.136247 0.621719 0.215483
O O2 0.275240 0.525959 0.274949
O O3 0.164021 0.313437 0.273848
O O4 0.210488 0.447001 0.000000
O O5 0.576659 0.915386 0.500000
O O6 0.524602 0.681666 0.681791
O O7 0.500000 0.000000 0.753134
O O8 0.374278 0.594671 0.500000
O O9 0.417928 0.556458 0.191153
#
# Coordination Sequence:
#
# PCOD9429085 Si02
#       4
#     8   8   8   4
#     4  12  27  47  69 105 150 192 238 300 372 441
#     4  11  22  43  74 105 139 184 242 301 353 424
#     4  12  24  45  74 104 139 190 246 303 361 433
#     4  12  25  44  75 110 139 180 247 308 359 420
#
# _framework density 23.836283000000002
#
# number of rings (size 3 to 8) (size 9 to 14) (size 15 to 20)
#    0.000    0.286    2.857    7.714    0.000    0.571 
#    0.000    5.000    0.000    0.000    0.000    0.000 
#    0.000    0.000    0.000    0.000    0.000    0.000 
#
# Total GULP energy -156351.420166 kJ/mol
# GULP energy per Si atom -5583.979292 kJ/mol
# Density = 2.378203 g / cm^3
# Si number density = 23.836283 Si / 1000 Ang^3
#
#
#
# Elastic Constant Matrix: (Units=GPa)
#
#
# Indices 1 2 3 4 5 6 
#
# 1 188.0099 60.8608 22.5989 0.0000 0.0000 0.0000
# 2 60.8608 143.0314 15.6141 0.0000 0.0000 0.0000
# 3 22.5989 15.6141 86.1753 0.0000 0.0000 0.0000
# 4 0.0000 0.0000 0.0000 -60.3220 0.0000 0.0000
# 5 0.0000 0.0000 0.0000 0.0000 328.0854 0.0000
# 6 0.0000 0.0000 0.0000 0.0000 0.0000 57.4545
#
#
#
# Elastic Compliance Matrix: (Units=1/GPa)
#
#
# Indices 1 2 3 4 5 6 
#
# 1 0.006285 -0.002545 -0.001187 0.000000 0.000000 0.000000
# 2 -0.002545 0.008163 -0.000812 0.000000 0.000000 0.000000
# 3 -0.001187 -0.000812 0.012063 0.000000 0.000000 0.000000
# 4 0.000000 0.000000 0.000000 -0.016578 0.000000 0.000000
# 5 0.000000 0.000000 0.000000 0.000000 0.003048 0.000000
# 6 0.000000 0.000000 0.000000 0.000000 0.000000 0.017405
#
#
# Mechanical properties :
#
#
# Convention : Reuss Voigt Hill
#
# Bulk Modulus (GPa) = 57.39373 68.37379 62.88376
# Shear Modulus (GPa) = 110.42013 86.25311 98.33662
#
# Velocity S-wave (km/s) = 6.81359 6.02198 6.42997
# Velocity P-wave (km/s) = 9.27526 8.78062 9.03133
#
# Compressibility (1/GPa) = 0.01742351
#
# Stress axis : x y z
#
# Youngs Moduli (GPa) = 159.09965 122.50494 82.90050
#
# Poissons Ratio (x) = 0.31176 0.09842
# Poissons Ratio (y) = 0.40489 0.06729
# Poissons Ratio (z) = 0.18888 0.09943
#
# Static dielectric constant tensor:
#      x y z
#    x 1.885290 0.000000 0.000000 
#    y 0.000000 1.879660 0.000000 
#    z 0.000000 0.000000 1.864040 
# 
# From -- ./inp_files/7077.got.cif
#   From: 2010.05.17/outbox.cif.g08.bks.cpg/sg55_4_cif.got.tgz:7077.got - 2010.06.03 13:27:54.
