data_PCOD9429359
_publ_section_title
;
Structure prediction by ZEFSAII (Michael W. Deem and Ramdas Pophale) SiO2 
 PCOD9429359
Probable space group: P B A M
;
_chemical_formula_sum "Si O2"
_cell_formula_units_Z 64
_cell_length_a 18.000000
_cell_length_b 21.000000
_cell_length_c 9.000000
_cell_angle_alpha 90.000000
_cell_angle_beta 90.000000
_cell_angle_gamma 90.000000
_cell_volume 3402.000000
_symmetry_space_group_name_H-M "P B A M"
_symmetry_group_IT_number 55
_symmetry_cell_setting 'orthorhombic'
loop_
_space_group_symop_operation_xyz
x,y,z
-x,-y,z
1/2+x,1/2-y,-z
1/2-x,1/2+y,-z
-x,-y,-z
x,y,-z
1/2-x,1/2+y,z
1/2+x,1/2-y,z
loop_
_atom_site_type_symbol
_atom_site_label
_atom_site_fract_x
_atom_site_fract_y
_atom_site_fract_z
Si Si1 0.057604 0.445185 0.179039
Si Si2 0.963933 0.934232 0.318652
Si Si3 0.712551 0.074959 0.321573
Si Si4 0.777351 0.208165 0.321282
Si Si5 0.451206 0.309341 0.677980
Si Si6 0.295447 0.549397 0.678704
Si Si7 0.030098 0.679969 0.822263
Si Si8 0.702960 0.839641 0.822616
O O1 0.137422 0.451370 0.251814
O O2 0.000000 0.500000 0.223335
O O3 0.023110 0.377301 0.222510
O O4 0.064487 0.447597 0.000000
O O5 0.966119 0.934346 0.500000
O O6 0.878319 0.932532 0.274990
O O7 0.009902 0.873299 0.267988
O O8 0.000000 0.000000 0.268372
O O9 0.706214 0.076847 0.500000
O O10 0.730274 0.146875 0.271949
O O11 0.776738 0.023986 0.285639
O O12 0.770449 0.215165 0.500000
O O13 0.863558 0.191985 0.287343
O O14 0.761031 0.275386 0.244393
O O15 0.457654 0.306505 0.500000
O O16 0.487421 0.246657 0.746621
O O17 0.289651 0.555999 0.500000
O O18 0.239034 0.597718 0.754631
O O19 0.115357 0.662665 0.784102
O O20 0.026553 0.686663 0.000000
O O21 0.709718 0.839544 0.000000
#
# Coordination Sequence:
#
# PCOD9429359 Si02
#       8
#     8   8   8   8   8   8   8   8
#     4  10  21  37  55  74 100 136 175 215 259 305
#     4   9  17  31  53  78 102 131 168 206 246 297
#     4  10  21  35  53  78 106 136 171 213 260 308
#     4   9  18  34  54  77 106 136 169 212 257 301
#     4   9  17  31  54  79 101 131 169 206 246 296
#     4  10  20  34  53  78 107 136 168 211 259 303
#     4   9  19  35  53  73 100 134 169 208 254 301
#     4  10  20  35  55  77 102 136 175 210 251 307
#
# _framework density 18.812463000000001
#
# number of rings (size 3 to 8) (size 9 to 14) (size 15 to 20)
#    0.000    2.500    0.000    1.875    0.000    7.250 
#    0.000    4.375    0.000    3.000    0.000    0.000 
#    0.000    0.000    0.000    0.000    0.000    0.000 
#
# Total GULP energy -357066.511315 kJ/mol
# GULP energy per Si atom -5579.164239 kJ/mol
# Density = 1.876965 g / cm^3
# Si number density = 18.812463 Si / 1000 Ang^3
#
#
#
# Elastic Constant Matrix: (Units=GPa)
#
#
# Indices 1 2 3 4 5 6 
#
# 1 27.8713 7.5647 7.7673 0.0000 0.0000 0.0000
# 2 7.5647 78.3124 11.7515 0.0000 0.0000 0.0000
# 3 7.7673 11.7515 -2.4039 0.0000 0.0000 0.0000
# 4 0.0000 0.0000 0.0000 1.7419 0.0000 0.0000
# 5 0.0000 0.0000 0.0000 0.0000 18.2332 0.0000
# 6 0.0000 0.0000 0.0000 0.0000 0.0000 36.0439
#
#
#
# Elastic Compliance Matrix: (Units=1/GPa)
#
#
# Indices 1 2 3 4 5 6 
#
# 1 0.026528 -0.008898 0.042219 0.000000 0.000000 0.000000
# 2 -0.008898 0.010350 0.021848 0.000000 0.000000 0.000000
# 3 0.042219 0.021848 -0.172772 0.000000 0.000000 0.000000
# 4 0.000000 0.000000 0.000000 0.574087 0.000000 0.000000
# 5 0.000000 0.000000 0.000000 0.000000 0.054845 0.000000
# 6 0.000000 0.000000 0.000000 0.000000 0.000000 0.027744
#
#
# Mechanical properties :
#
#
# Convention : Reuss Voigt Hill
#
# Bulk Modulus (GPa) = -39.13110 17.54965 -10.79072
# Shear Modulus (GPa) = 12.44006 16.31688 14.37847
#
# Velocity S-wave (km/s) = 2.57430 2.94827 2.76761
# Velocity P-wave (km/s) = 3.46551 4.57588 2.11293
#
# Compressibility (1/GPa) = -0.02555512
#
# Stress axis : x y z
#
# Youngs Moduli (GPa) = 37.69538 96.61442 -5.78798
#
# Poissons Ratio (x) = 0.85967 0.24436
# Poissons Ratio (y) = 0.33541 0.12645
# Poissons Ratio (z) = -1.59146 -2.11081
#
# Static dielectric constant tensor:
#      x y z
#    x 1.640580 0.000000 0.000000 
#    y 0.000000 1.647180 0.000000 
#    z 0.000000 0.000000 1.628410 
# 
# From -- ./inp_files/7962.got.cif
#   From: 2010.05.17/outbox.ucp.g08.bks.cvg/sg55_4_cif.got.tgz:7962.got - 2010.06.11 16:36:00.
