data_PCOD9429068
_publ_section_title
;
Structure prediction by ZEFSAII (Michael W. Deem and Ramdas Pophale) SiO2 
 PCOD9429068
Probable space group: P B A M
;
_chemical_formula_sum "Si O2"
_cell_formula_units_Z 48
_cell_length_a 15.141111
_cell_length_b 9.008450
_cell_length_c 16.154975
_cell_angle_alpha 90.000000
_cell_angle_beta 90.000000
_cell_angle_gamma 90.000000
_cell_volume 2203.505333
_symmetry_space_group_name_H-M "P B A M"
_symmetry_group_IT_number 55
_symmetry_cell_setting 'orthorhombic'
loop_
_space_group_symop_operation_xyz
x,y,z
-x,-y,z
1/2+x,1/2-y,-z
1/2-x,1/2+y,-z
-x,-y,-z
x,y,-z
1/2-x,1/2+y,z
1/2+x,1/2-y,z
loop_
_atom_site_type_symbol
_atom_site_label
_atom_site_fract_x
_atom_site_fract_y
_atom_site_fract_z
Si Si1 0.518223 0.673199 0.826719
Si Si2 0.740556 0.513924 0.728025
Si Si3 0.184228 0.239791 0.834359
Si Si4 0.561717 0.788013 0.000000
Si Si5 0.577177 0.875829 0.322643
Si Si6 0.645621 0.106281 0.000000
Si Si7 0.906187 0.079335 0.406932
O O1 0.500000 0.500000 0.810005
O O2 0.421133 0.744301 0.826504
O O3 0.566802 0.770565 0.758280
O O4 0.566303 0.695108 0.915084
O O5 0.768979 0.673163 0.760894
O O6 0.714190 0.425849 0.812112
O O7 0.827890 0.450710 0.685180
O O8 0.661700 0.522010 0.662429
O O9 0.195550 0.321826 0.921642
O O10 0.458163 0.841782 0.000000
O O11 0.629443 0.927720 0.000000
O O12 0.577256 0.755020 0.395343
O O13 0.500000 0.000000 0.326088
O O14 0.874130 0.048211 0.500000
O O15 0.000000 0.000000 0.395255
#
# Coordination Sequence:
#
# PCOD9429068 Si02
#       7
#     8   8   8   4   8   4   8
#     4  11  22  39  67 101 145 191 248 294 353 422
#     4  12  24  44  70 103 139 186 235 287 359 428
#     4  11  23  41  66  99 141 190 236 294 353 414
#     4   9  19  36  62  99 138 188 241 297 345 403
#     4  12  24  42  74 107 138 186 238 292 352 430
#     4   9  20  38  62  95 140 184 240 297 348 407
#     4  11  27  51  75 102 138 179 229 300 372 441
#
# _framework density 21.783473000000001
#
# number of rings (size 3 to 8) (size 9 to 14) (size 15 to 20)
#    0.000    1.000    3.333    3.750    2.333    1.667 
#    0.000    0.833    0.000    0.000    0.000    0.583 
#    0.000    0.000    0.000    0.000    0.000    0.000 
#
# Total GULP energy -268131.570802 kJ/mol
# GULP energy per Si atom -5586.074392 kJ/mol
# Density = 2.173389 g / cm^3
# Si number density = 21.783473 Si / 1000 Ang^3
#
#
#
# Elastic Constant Matrix: (Units=GPa)
#
#
# Indices 1 2 3 4 5 6 
#
# 1 110.8873 39.8983 46.7498 0.0000 0.0000 0.0000
# 2 39.8983 94.3419 37.6604 0.0000 0.0000 0.0000
# 3 46.7498 37.6604 108.0580 0.0000 0.0000 0.0000
# 4 0.0000 0.0000 0.0000 23.5278 0.0000 0.0000
# 5 0.0000 0.0000 0.0000 0.0000-3742.9589 0.0000
# 6 0.0000 0.0000 0.0000 0.0000 0.0000 39.5269
#
#
#
# Elastic Compliance Matrix: (Units=1/GPa)
#
#
# Indices 1 2 3 4 5 6 
#
# 1 0.011933 -0.003468 -0.003954 0.000000 0.000000 0.000000
# 2 -0.003468 0.013321 -0.003142 0.000000 0.000000 0.000000
# 3 -0.003954 -0.003142 0.012060 0.000000 0.000000 0.000000
# 4 0.000000 0.000000 0.000000 0.042503 0.000000 0.000000
# 5 0.000000 0.000000 0.000000 0.000000 -0.000267 0.000000
# 6 0.000000 0.000000 0.000000 0.000000 0.000000 0.025299
#
#
# Mechanical properties :
#
#
# Convention : Reuss Voigt Hill
#
# Bulk Modulus (GPa) = 61.78434 62.43379 62.10906
# Shear Modulus (GPa) = 38.05974 -723.38227 -342.66126
#
# Velocity S-wave (km/s) = 4.18447 -18.24279 -12.55567
# Velocity P-wave (km/s) = 7.19520 20.37178 13.47662
#
# Compressibility (1/GPa) = 0.01618533
#
# Stress axis : x y z
#
# Youngs Moduli (GPa) = 83.80101 75.07058 82.91893
#
# Poissons Ratio (x) = 0.26036 0.32785
# Poissons Ratio (y) = 0.29064 0.26054
# Poissons Ratio (z) = 0.33134 0.23588
#
# Static dielectric constant tensor:
#      x y z
#    x 1.789340 0.000000 0.000000 
#    y 0.000000 1.830910 0.000000 
#    z 0.000000 0.000000 1.802270 
# 
# From -- ./inp_files/21522.got.cif
#   From: 2010.05.17/outbox.cif.g08.bks.cpg/sg55_11_cif.got.tgz:21522.got - 2010.06.03 13:27:54.
