data_PCOD9429571
_publ_section_title
;
Structure prediction by ZEFSAII (Michael W. Deem and Ramdas Pophale) SiO2 
 PCOD9429571
Probable space group: P C C N
;
_chemical_formula_sum "Si O2"
_cell_formula_units_Z 48
_cell_length_a 15.799277
_cell_length_b 8.621883
_cell_length_c 14.696262
_cell_angle_alpha 90.000000
_cell_angle_beta 90.000000
_cell_angle_gamma 90.000000
_cell_volume 2001.917723
_symmetry_space_group_name_H-M "P C C N"
_symmetry_group_IT_number 56
_symmetry_cell_setting 'orthorhombic'
loop_
_space_group_symop_operation_xyz
x,y,z
1/2-x,1/2-y,z
1/2+x,-y,1/2-z
-x,1/2+y,1/2-z
-x,-y,-z
1/2+x,1/2+y,-z
1/2-x,y,1/2+z
x,1/2-y,1/2+z
loop_
_atom_site_type_symbol
_atom_site_label
_atom_site_fract_x
_atom_site_fract_y
_atom_site_fract_z
Si Si1 0.750000 0.750000 0.878966
Si Si2 0.604451 0.526816 0.190409
Si Si3 0.211955 0.524465 0.731776
Si Si4 0.597163 0.833339 0.492122
Si Si5 0.250000 0.750000 0.066401
Si Si6 0.075587 0.697984 0.548138
Si Si7 0.452691 0.794214 0.760699
O O1 0.699655 0.645781 0.805701
O O2 0.828438 0.731483 0.949219
O O3 0.699468 0.478199 0.215988
O O4 0.611965 0.623982 0.098077
O O5 0.555058 0.363319 0.183265
O O6 0.543768 0.622463 0.259609
O O7 0.235392 0.610991 0.636889
O O8 0.129343 0.596111 0.778110
O O9 0.506200 0.752547 0.492874
O O10 0.584289 0.008878 0.451644
O O11 0.336112 0.763741 0.011828
O O12 0.063600 0.747804 0.653212
#
# Coordination Sequence:
#
# PCOD9429571 Si02
#       7
#     4   8   8   8   4   8   8
#     4  12  24  42  68  96 130 176 224 252 340 398
#     4  11  23  40  68  94 131 162 225 275 326 377
#     4  11  22  41  69  89 130 179 215 257 322 407
#     4  10  22  39  64  98 130 167 203 286 315 376
#     4  10  16  40  66  86 112 178 216 244 302 406
#     4   9  18  39  66  82 128 171 208 247 335 378
#     4  10  21  41  65  94 126 175 212 264 326 399
#
# _framework density 23.977011999999998
#
# number of rings (size 3 to 8) (size 9 to 14) (size 15 to 20)
#    0.000    1.667    6.667    0.000    2.333    0.667 
#    6.000    0.833    0.000    0.000    0.000    0.000 
#    0.000    0.000    0.000    0.000    0.000    0.000 
#
# Total GULP energy -267461.144892 kJ/mol
# GULP energy per Si atom -5572.107185 kJ/mol
# Density = 2.392244 g / cm^3
# Si number density = 23.977012 Si / 1000 Ang^3
#
#
#
# Elastic Constant Matrix: (Units=GPa)
#
#
# Indices 1 2 3 4 5 6 
#
# 1 136.9513 22.4580 21.3446 0.0000 0.0000 0.0000
# 2 22.4580 16.5539 -9.1311 0.0000 0.0000 0.0000
# 3 21.3446 -9.1311 39.6745 0.0000 0.0000 0.0000
# 4 0.0000 0.0000 0.0000 18.6384 0.0000 0.0000
# 5 0.0000 0.0000 0.0000 0.0000 26.6738 0.0000
# 6 0.0000 0.0000 0.0000 0.0000 0.0000 36.4307
#
#
#
# Elastic Compliance Matrix: (Units=1/GPa)
#
#
# Indices 1 2 3 4 5 6 
#
# 1 0.013581 -0.025720 -0.013226 0.000000 0.000000 0.000000
# 2 -0.025720 0.117902 0.040972 0.000000 0.000000 0.000000
# 3 -0.013226 0.040972 0.041750 0.000000 0.000000 0.000000
# 4 0.000000 0.000000 0.000000 0.053653 0.000000 0.000000
# 5 0.000000 0.000000 0.000000 0.000000 0.037490 0.000000
# 6 0.000000 0.000000 0.000000 0.000000 0.000000 0.027449
#
#
# Mechanical properties :
#
#
# Convention : Reuss Voigt Hill
#
# Bulk Modulus (GPa) = 5.64063 29.16922 17.40492
# Shear Modulus (GPa) = 14.41475 26.91581 20.66528
#
# Velocity S-wave (km/s) = 2.45458 3.35411 2.93896
# Velocity P-wave (km/s) = 3.22349 5.21459 4.33491
#
# Compressibility (1/GPa) = 0.17728531
#
# Stress axis : x y z
#
# Youngs Moduli (GPa) = 73.63301 8.48165 23.95201
#
# Poissons Ratio (x) = 0.21815 0.31678
# Poissons Ratio (y) = 1.89383 -0.98136
# Poissons Ratio (z) = 0.97386 -0.34751
#
# Static dielectric constant tensor:
#      x y z
#    x 1.981720 0.000000 0.000000 
#    y 0.000000 1.725370 0.000000 
#    z 0.000000 0.000000 1.952680 
# 
# From -- ./inp_files/16577.got.cif
#   From: 2010.05.17/outbox.cif.g08.bks.cpg/sg56_9_cif.got.tgz:16577.got - 2010.06.03 13:42:01.
