data_PCOD9429539
_publ_section_title
;
Structure prediction by ZEFSAII (Michael W. Deem and Ramdas Pophale) SiO2 
 PCOD9429539
Probable space group: P C C N
;
_chemical_formula_sum "Si O2"
_cell_formula_units_Z 40
_cell_length_a 11.796086
_cell_length_b 23.113486
_cell_length_c 5.531997
_cell_angle_alpha 90.000000
_cell_angle_beta 90.000000
_cell_angle_gamma 90.000000
_cell_volume 1508.291617
_symmetry_space_group_name_H-M "P C C N"
_symmetry_group_IT_number 56
_symmetry_cell_setting 'orthorhombic'
loop_
_space_group_symop_operation_xyz
x,y,z
1/2-x,1/2-y,z
1/2+x,-y,1/2-z
-x,1/2+y,1/2-z
-x,-y,-z
1/2+x,1/2+y,-z
1/2-x,y,1/2+z
x,1/2-y,1/2+z
loop_
_atom_site_type_symbol
_atom_site_label
_atom_site_fract_x
_atom_site_fract_y
_atom_site_fract_z
Si Si1 0.820546 0.087531 0.500000
Si Si2 0.300000 0.186023 0.999999
Si Si3 0.870440 0.958607 0.500000
Si Si4 0.434309 0.786331 0.000000
Si Si5 0.596590 0.950572 0.500000
O O1 0.750000 0.083362 0.250000
O O2 0.894139 0.027727 0.500000
O O3 0.871138 0.152052 0.500000
O O4 0.250000 0.250000 0.999999
O O5 0.250000 0.160032 0.249999
O O6 0.433056 0.197284 0.999999
O O7 0.731920 0.963554 0.500000
O O8 0.915632 0.925573 0.734853
O O9 0.915632 0.925573 0.265147
O O10 0.410583 0.750000 0.750001
O O11 0.500000 0.000000 0.500000
#
# Coordination Sequence:
#
# PCOD9429539 Si02
#       5
#     8   8   8   8   8
#     4  12  23  40  57  75 121 165 181 236 289 338
#     4  10  16  32  56  74 100 128 171 247 290 319
#     4  10  19  37  55  86 119 144 190 212 281 356
#     4  12  23  35  55  88 106 148 209 247 285 328
#     4  10  18  32  61  89 105 141 181 229 262 327
#
# _framework density 26.520068999999999
#
# number of rings (size 3 to 8) (size 9 to 14) (size 15 to 20)
#    0.000    1.200    8.000    1.800    0.000    2.400 
#    0.000    0.000    0.000    0.000   31.200    0.000 
#    0.000    0.000    0.000    0.000    0.000    0.000 
#
# Total GULP energy -223268.916265 kJ/mol
# GULP energy per Si atom -5581.722907 kJ/mol
# Density = 2.645971 g / cm^3
# Si number density = 26.520069 Si / 1000 Ang^3
#
#
#
# Elastic Constant Matrix: (Units=GPa)
#
#
# Indices 1 2 3 4 5 6 
#
# 1 41.1378 39.8336 40.5289 0.0000 0.0000 0.0000
# 2 39.8336 212.3878 63.8426 0.0000 0.0000 0.0000
# 3 40.5289 63.8426 325.8015 0.0000 0.0000 0.0000
# 4 0.0000 0.0000 0.0000 -28.3861 0.0000 0.0000
# 5 0.0000 0.0000 0.0000 0.0000 50.7397 0.0000
# 6 0.0000 0.0000 0.0000 0.0000 0.0000 59.3778
#
#
#
# Elastic Compliance Matrix: (Units=1/GPa)
#
#
# Indices 1 2 3 4 5 6 
#
# 1 0.032250 -0.005146 -0.003004 0.000000 0.000000 0.000000
# 2 -0.005146 0.005824 -0.000501 0.000000 0.000000 0.000000
# 3 -0.003004 -0.000501 0.003541 0.000000 0.000000 0.000000
# 4 0.000000 0.000000 0.000000 -0.035229 0.000000 0.000000
# 5 0.000000 0.000000 0.000000 0.000000 0.019708 0.000000
# 6 0.000000 0.000000 0.000000 0.000000 0.000000 0.016841
#
#
# Mechanical properties :
#
#
# Convention : Reuss Voigt Hill
#
# Bulk Modulus (GPa) = 41.12735 96.41522 68.77128
# Shear Modulus (GPa) = 73.16109 45.35442 59.25775
#
# Velocity S-wave (km/s) = 5.25804 4.13993 4.73212
# Velocity P-wave (km/s) = 7.23908 7.69978 7.47298
#
# Compressibility (1/GPa) = 0.02431472
#
# Stress axis : x y z
#
# Youngs Moduli (GPa) = 31.00756 171.70045 282.39129
#
# Poissons Ratio (x) = 0.88352 0.84816
# Poissons Ratio (y) = 0.15956 0.14152
# Poissons Ratio (z) = 0.09313 0.08605
#
# Static dielectric constant tensor:
#      x y z
#    x 2.151920 0.000000 0.000000 
#    y 0.000000 2.041420 0.000000 
#    z 0.000000 0.000000 2.135060 
# 
# From -- ./inp_files/295.got.cif
#   From: 2010.05.17/outbox.cif.g08.bks.cpg/sg56_1_cif.got.tgz:295.got - 2010.06.03 13:42:01.
