data_PCOD9429321
_publ_section_title
;
Structure prediction by ZEFSAII (Michael W. Deem and Ramdas Pophale) SiO2 
 PCOD9429321
Probable space group: P B A M
;
_chemical_formula_sum "Si O2"
_cell_formula_units_Z 48
_cell_length_a 24.000000
_cell_length_b 12.000000
_cell_length_c 9.000000
_cell_angle_alpha 90.000000
_cell_angle_beta 90.000000
_cell_angle_gamma 90.000000
_cell_volume 2592.000000
_symmetry_space_group_name_H-M "P B A M"
_symmetry_group_IT_number 55
_symmetry_cell_setting 'orthorhombic'
loop_
_space_group_symop_operation_xyz
x,y,z
-x,-y,z
1/2+x,1/2-y,-z
1/2-x,1/2+y,-z
-x,-y,-z
x,y,-z
1/2-x,1/2+y,z
1/2+x,1/2-y,z
loop_
_atom_site_type_symbol
_atom_site_label
_atom_site_fract_x
_atom_site_fract_y
_atom_site_fract_z
Si Si1 0.603094 0.239440 0.677276
Si Si2 0.988391 0.369013 0.331463
Si Si3 0.828120 0.125240 0.822134
Si Si4 0.631188 0.869181 0.822998
Si Si5 0.801598 0.592382 0.819713
Si Si6 0.566697 0.495282 0.676291
O O1 0.607774 0.215575 0.500000
O O2 0.545403 0.182449 0.733334
O O3 0.658645 0.190721 0.754796
O O4 0.590551 0.370152 0.695817
O O5 0.982361 0.323845 0.500000
O O6 0.929849 0.355159 0.248799
O O7 0.000000 0.500000 0.338906
O O8 0.833991 0.257337 0.794159
O O9 0.764401 0.091589 0.774663
O O10 0.884365 0.070296 0.751680
O O11 0.831136 0.105061 0.000000
O O12 0.665853 0.978550 0.774830
O O13 0.623201 0.879204 0.000000
O O14 0.801901 0.600538 0.000000
O O15 0.500000 0.500000 0.724824
O O16 0.565507 0.521804 0.500000
#
# Coordination Sequence:
#
# PCOD9429321 Si02
#       6
#     8   8   8   8   8   8
#     4  10  21  37  58  86 118 150 191 237 284 344
#     4  10  19  34  57  84 113 148 187 230 283 338
#     4  10  23  40  60  85 115 153 197 238 283 345
#     4  10  21  37  57  84 115 147 189 236 282 336
#     4  10  22  38  58  84 116 154 190 234 289 339
#     4  10  22  41  63  87 118 154 193 240 294 347
#
# _framework density 18.518519000000001
#
# number of rings (size 3 to 8) (size 9 to 14) (size 15 to 20)
#    0.000    2.000    1.667    1.000    2.333    4.667 
#    0.000    0.000    0.000    0.000    0.000    0.000 
#    0.000    0.000    0.000    0.000    0.000    0.000 
#
# Total GULP energy -267495.063834 kJ/mol
# GULP energy per Si atom -5572.813830 kJ/mol
# Density = 1.847637 g / cm^3
# Si number density = 18.518519 Si / 1000 Ang^3
#
#
#
# Elastic Constant Matrix: (Units=GPa)
#
#
# Indices 1 2 3 4 5 6 
#
# 1 192.1893 49.6340 41.4669 0.0000 0.0000 0.0000
# 2 49.6340 76.6706 24.6690 0.0000 0.0000 0.0000
# 3 41.4669 24.6690 27.4695 0.0000 0.0000 0.0000
# 4 0.0000 0.0000 0.0000 19.9129 0.0000 0.0000
# 5 0.0000 0.0000 0.0000 0.0000 39.4348 0.0000
# 6 0.0000 0.0000 0.0000 0.0000 0.0000 34.4027
#
#
#
# Elastic Compliance Matrix: (Units=1/GPa)
#
#
# Indices 1 2 3 4 5 6 
#
# 1 0.007888 -0.001793 -0.010297 0.000000 0.000000 0.000000
# 2 -0.001793 0.018751 -0.014132 0.000000 0.000000 0.000000
# 3 -0.010297 -0.014132 0.064639 0.000000 0.000000 0.000000
# 4 0.000000 0.000000 0.000000 0.050219 0.000000 0.000000
# 5 0.000000 0.000000 0.000000 0.000000 0.025358 0.000000
# 6 0.000000 0.000000 0.000000 0.000000 0.000000 0.029067
#
#
# Mechanical properties :
#
#
# Convention : Reuss Voigt Hill
#
# Bulk Modulus (GPa) = 25.75104 58.65215 42.20159
# Shear Modulus (GPa) = 19.13426 30.78737 24.96081
#
# Velocity S-wave (km/s) = 3.21791 4.08182 3.67534
# Velocity P-wave (km/s) = 5.26710 7.34547 6.39133
#
# Compressibility (1/GPa) = 0.03883339
#
# Stress axis : x y z
#
# Youngs Moduli (GPa) = 126.77445 53.33110 15.47052
#
# Poissons Ratio (x) = 0.09564 0.15930
# Poissons Ratio (y) = 0.22735 0.21863
# Poissons Ratio (z) = 1.30539 0.75367
#
# Static dielectric constant tensor:
#      x y z
#    x 1.626800 0.000000 0.000000 
#    y 0.000000 1.676060 0.000000 
#    z 0.000000 0.000000 1.652390 
# 
# From -- ./inp_files/9423.got.cif
#   From: 2010.05.17/outbox.ucp.g08.bks.cvg/sg55_5_cif.got.tgz:9423.got - 2010.06.11 16:36:00.
