data_PCOD9429402
_publ_section_title
;
Structure prediction by ZEFSAII (Michael W. Deem and Ramdas Pophale) SiO2 
 PCOD9429402
Probable space group: P B A M
;
_chemical_formula_sum "Si O2"
_cell_formula_units_Z 48
_cell_length_a 24.000000
_cell_length_b 12.000000
_cell_length_c 9.000000
_cell_angle_alpha 90.000000
_cell_angle_beta 90.000000
_cell_angle_gamma 90.000000
_cell_volume 2592.000000
_symmetry_space_group_name_H-M "P B A M"
_symmetry_group_IT_number 55
_symmetry_cell_setting 'orthorhombic'
loop_
_space_group_symop_operation_xyz
x,y,z
-x,-y,z
1/2+x,1/2-y,-z
1/2-x,1/2+y,-z
-x,-y,-z
x,y,-z
1/2-x,1/2+y,z
1/2+x,1/2-y,z
loop_
_atom_site_type_symbol
_atom_site_label
_atom_site_fract_x
_atom_site_fract_y
_atom_site_fract_z
Si Si1 0.028949 0.248901 0.678503
Si Si2 0.915249 0.288858 0.177266
Si Si3 0.673658 0.634390 0.321202
Si Si4 0.803696 0.667549 0.321846
Si Si5 0.094639 0.450655 0.822492
Si Si6 0.634607 0.391506 0.679558
O O1 0.026464 0.252782 0.500000
O O2 0.053179 0.365413 0.740714
O O3 0.073849 0.154469 0.723155
O O4 0.968564 0.231932 0.747098
O O5 0.860495 0.231156 0.241733
O O6 0.916440 0.420565 0.212913
O O7 0.917727 0.277555 0.000000
O O8 0.665616 0.642789 0.500000
O O9 0.739313 0.645078 0.292738
O O10 0.651354 0.513808 0.268471
O O11 0.813735 0.655129 0.500000
O O12 0.844335 0.584983 0.234298
O O13 0.822141 0.793308 0.280027
O O14 0.089555 0.435794 0.000000
O O15 0.635039 0.396726 0.500000
#
# Coordination Sequence:
#
# PCOD9429402 Si02
#       6
#     8   8   8   8   8   8
#     4  10  20  37  61  84 111 146 190 237 281 333
#     4  11  24  38  53  81 119 150 187 232 280 336
#     4  10  21  36  58  83 111 148 187 231 278 328
#     4   9  19  35  59  85 110 143 187 234 276 333
#     4  10  21  37  57  82 115 151 182 229 287 333
#     4   8  17  35  55  82 112 139 179 232 284 325
#
# _framework density 18.518519000000001
#
# number of rings (size 3 to 8) (size 9 to 14) (size 15 to 20)
#    0.000    2.333    0.000    3.000    2.333    6.000 
#    0.000    7.500    0.000    0.000    0.000    0.000 
#    0.000    0.000    0.000    0.000    0.000    0.000 
#
# Total GULP energy -267938.461212 kJ/mol
# GULP energy per Si atom -5582.051275 kJ/mol
# Density = 1.847637 g / cm^3
# Si number density = 18.518519 Si / 1000 Ang^3
#
#
#
# Elastic Constant Matrix: (Units=GPa)
#
#
# Indices 1 2 3 4 5 6 
#
# 1 68.0830 -13.0664 19.1897 0.0000 0.0000 0.0000
# 2 -13.0664 -5.4502 -2.3857 0.0000 0.0000 0.0000
# 3 19.1897 -2.3857 26.8624 0.0000 0.0000 0.0000
# 4 0.0000 0.0000 0.0000 21.6543 0.0000 0.0000
# 5 0.0000 0.0000 0.0000 0.0000 13.4724 0.0000
# 6 0.0000 0.0000 0.0000 0.0000 0.0000 7.0433
#
#
#
# Elastic Compliance Matrix: (Units=1/GPa)
#
#
# Indices 1 2 3 4 5 6 
#
# 1 0.012958 -0.026002 -0.011566 0.000000 0.000000 0.000000
# 2 -0.026002 -0.124436 0.007524 0.000000 0.000000 0.000000
# 3 -0.011566 0.007524 0.046157 0.000000 0.000000 0.000000
# 4 0.000000 0.000000 0.000000 0.046180 0.000000 0.000000
# 5 0.000000 0.000000 0.000000 0.000000 0.074226 0.000000
# 6 0.000000 0.000000 0.000000 0.000000 0.000000 0.141979
#
#
# Mechanical properties :
#
#
# Convention : Reuss Voigt Hill
#
# Bulk Modulus (GPa) = -7.97390 10.77450 1.40030
# Shear Modulus (GPa) = 23.21814 14.15117 18.68466
#
# Velocity S-wave (km/s) = 3.54472 2.76735 3.17988
# Velocity P-wave (km/s) = 3.52677 4.00522 3.77359
#
# Compressibility (1/GPa) = -0.12540911
#
# Stress axis : x y z
#
# Youngs Moduli (GPa) = 77.17505 -8.03627 21.66508
#
# Poissons Ratio (x) = -0.20896 0.25057
# Poissons Ratio (y) = 2.00672 -0.16301
# Poissons Ratio (z) = 0.89259 0.06046
#
# Static dielectric constant tensor:
#      x y z
#    x 1.638270 0.000000 0.000000 
#    y 0.000000 1.626590 0.000000 
#    z 0.000000 0.000000 1.616060 
# 
# From -- ./inp_files/4044.got.cif
#   From: 2010.05.17/outbox.ucp.g08.bks.cvg/sg55_3_cif.got.tgz:4044.got - 2010.06.11 16:36:00.
