data_PCOD9429339
_publ_section_title
;
Structure prediction by ZEFSAII (Michael W. Deem and Ramdas Pophale) SiO2 
 PCOD9429339
Probable space group: P B A M
;
_chemical_formula_sum "Si O2"
_cell_formula_units_Z 56
_cell_length_a 21.000000
_cell_length_b 15.000000
_cell_length_c 9.000000
_cell_angle_alpha 90.000000
_cell_angle_beta 90.000000
_cell_angle_gamma 90.000000
_cell_volume 2835.000000
_symmetry_space_group_name_H-M "P B A M"
_symmetry_group_IT_number 55
_symmetry_cell_setting 'orthorhombic'
loop_
_space_group_symop_operation_xyz
x,y,z
-x,-y,z
1/2+x,1/2-y,-z
1/2-x,1/2+y,-z
-x,-y,-z
x,y,-z
1/2-x,1/2+y,z
1/2+x,1/2-y,z
loop_
_atom_site_type_symbol
_atom_site_label
_atom_site_fract_x
_atom_site_fract_y
_atom_site_fract_z
Si Si1 0.808622 0.704781 0.820817
Si Si2 0.073077 0.606907 0.179127
Si Si3 0.425629 0.909437 0.820115
Si Si4 0.913780 0.210280 0.678030
Si Si5 0.670349 0.402646 0.176934
Si Si6 0.966623 0.903632 0.323664
Si Si7 0.202434 0.916667 0.322944
O O1 0.877871 0.667823 0.774443
O O2 0.800168 0.807591 0.781165
O O3 0.757808 0.642878 0.743436
O O4 0.804062 0.696882 0.000000
O O5 0.097385 0.508705 0.225116
O O6 0.102312 0.695360 0.248670
O O7 0.998390 0.605896 0.225050
O O8 0.077128 0.612754 0.000000
O O9 0.427130 0.911081 0.000000
O O10 0.913265 0.220049 0.500000
O O11 0.863236 0.133767 0.717036
O O12 0.983061 0.172455 0.721407
O O13 0.597326 0.400427 0.230198
O O14 0.703170 0.485754 0.254168
O O15 0.673326 0.412331 0.000000
O O16 0.952222 0.894227 0.500000
O O17 0.000000 0.000000 0.306070
O O18 0.205938 0.921890 0.500000
#
# Coordination Sequence:
#
# PCOD9429339 Si02
#       7
#     8   8   8   8   8   8   8
#     4  10  22  40  60  84 115 150 194 246 294 341
#     4   9  17  32  58  85 110 145 183 224 279 344
#     4   8  16  34  57  82 113 145 180 227 284 338
#     4  10  21  36  54  80 115 150 184 234 288 335
#     4  11  23  39  62  91 119 148 191 249 302 353
#     4  10  19  36  59  83 117 157 190 233 294 354
#     4  11  24  42  59  79 114 157 198 235 281 349
#
# _framework density 19.753086
#
# number of rings (size 3 to 8) (size 9 to 14) (size 15 to 20)
#    0.000    2.143    1.429    2.571    0.000    5.429 
#    0.000    7.143    0.000    0.000    0.000    0.000 
#    0.000    0.000    0.000    0.000    0.000    0.000 
#
# Total GULP energy -312640.772530 kJ/mol
# GULP energy per Si atom -5582.870938 kJ/mol
# Density = 1.970813 g / cm^3
# Si number density = 19.753086 Si / 1000 Ang^3
#
#
#
# Elastic Constant Matrix: (Units=GPa)
#
#
# Indices 1 2 3 4 5 6 
#
# 1 45.9898 34.2946 18.4704 0.0000 0.0000 0.0000
# 2 34.2946 162.8958 45.7666 0.0000 0.0000 0.0000
# 3 18.4704 45.7666 13.8716 0.0000 0.0000 0.0000
# 4 0.0000 0.0000 0.0000 -250.5376 0.0000 0.0000
# 5 0.0000 0.0000 0.0000 0.0000 22.4792 0.0000
# 6 0.0000 0.0000 0.0000 0.0000 0.0000 21.2175
#
#
#
# Elastic Compliance Matrix: (Units=1/GPa)
#
#
# Indices 1 2 3 4 5 6 
#
# 1 -0.026129 -0.058513 0.227842 0.000000 0.000000 0.000000
# 2 -0.058513 -0.046986 0.232932 0.000000 0.000000 0.000000
# 3 0.227842 0.232932 -0.999797 0.000000 0.000000 0.000000
# 4 0.000000 0.000000 0.000000 -0.003991 0.000000 0.000000
# 5 0.000000 0.000000 0.000000 0.000000 0.044486 0.000000
# 6 0.000000 0.000000 0.000000 0.000000 0.000000 0.047131
#
#
# Mechanical properties :
#
#
# Convention : Reuss Voigt Hill
#
# Bulk Modulus (GPa) = -3.72591 46.64673 21.46041
# Shear Modulus (GPa) = -2.66060 -33.08648 -17.87354
#
# Velocity S-wave (km/s) = -1.16183 -4.09712 -3.01133
# Velocity P-wave (km/s) = 1.92098 1.13328 1.09678
#
# Compressibility (1/GPa) = -0.26839050
#
# Stress axis : x y z
#
# Youngs Moduli (GPa) = -38.27144 -21.28292 -1.00020
#
# Poissons Ratio (x) = -1.24532 0.22789
# Poissons Ratio (y) = -2.23936 0.23298
# Poissons Ratio (z) = 8.71984 4.95747
#
# Static dielectric constant tensor:
#      x y z
#    x 1.710450 0.000000 0.000000 
#    y 0.000000 1.699430 0.000000 
#    z 0.000000 0.000000 1.654640 
# 
# From -- ./inp_files/8667.got.cif
#   From: 2010.05.17/outbox.ucp.g08.bks.cvg/sg55_5_cif.got.tgz:8667.got - 2010.06.11 16:36:00.
