data_PCOD9429646
_publ_section_title
;
Structure prediction by ZEFSAII (Michael W. Deem and Ramdas Pophale) SiO2 
 PCOD9429646
Probable space group: P C C N
;
_chemical_formula_sum "Si O2"
_cell_formula_units_Z 56
_cell_length_a 14.214619
_cell_length_b 20.911371
_cell_length_c 8.347829
_cell_angle_alpha 90.000000
_cell_angle_beta 90.000000
_cell_angle_gamma 90.000000
_cell_volume 2481.368559
_symmetry_space_group_name_H-M "P C C N"
_symmetry_group_IT_number 56
_symmetry_cell_setting 'orthorhombic'
loop_
_space_group_symop_operation_xyz
x,y,z
1/2-x,1/2-y,z
1/2+x,-y,1/2-z
-x,1/2+y,1/2-z
-x,-y,-z
1/2+x,1/2+y,-z
1/2-x,y,1/2+z
x,1/2-y,1/2+z
loop_
_atom_site_type_symbol
_atom_site_label
_atom_site_fract_x
_atom_site_fract_y
_atom_site_fract_z
Si Si1 0.032658 0.184771 0.200130
Si Si2 0.100091 0.461385 0.182413
Si Si3 0.113694 0.990816 0.010174
Si Si4 0.183987 0.691078 0.320021
Si Si5 0.158790 0.855808 0.153821
Si Si6 0.958165 0.676263 0.689451
Si Si7 0.592537 0.548581 0.673190
O O1 0.921362 0.188307 0.241013
O O2 0.074253 0.253855 0.250912
O O3 0.068062 0.123209 0.298304
O O4 0.043902 0.174710 0.006597
O O5 0.151068 0.492080 0.335484
O O6 0.088089 0.387149 0.236294
O O7 0.000708 0.501956 0.173348
O O8 0.137432 0.462539 0.000993
O O9 0.146596 0.030775 0.163862
O O10 0.130188 0.918833 0.059370
O O11 0.000000 0.000000 0.000000
O O12 0.250000 0.750000 0.276045
O O13 0.249167 0.633664 0.258042
O O14 0.177198 0.692039 0.509344
O O15 0.067087 0.831975 0.246376
#
# Coordination Sequence:
#
# PCOD9429646 Si02
#       7
#     8   8   8   8   8   8   8
#     4  11  22  32  50  73 109 146 184 227 261 313
#     4  10  18  32  54  74  94 128 180 221 275 322
#     4  10  17  37  53  71  98 125 185 227 276 315
#     4  11  22  34  47  67 106 149 192 220 255 303
#     4  11  22  35  49  70 101 147 186 233 257 306
#     4  11  19  33  49  72 104 141 185 221 264 303
#     4  10  19  32  53  78  93 133 180 220 280 321
#
# _framework density 22.568190000000001
#
# number of rings (size 3 to 8) (size 9 to 14) (size 15 to 20)
#    0.000    1.429    5.714    3.857    2.000    1.143 
#    2.571    0.000    0.000    0.000    0.000    0.000 
#    0.000    0.000    0.000   10.286    0.857    0.286 
#
# Total GULP energy -312263.473690 kJ/mol
# GULP energy per Si atom -5576.133459 kJ/mol
# Density = 2.251682 g / cm^3
# Si number density = 22.568190 Si / 1000 Ang^3
#
#
#
# Elastic Constant Matrix: (Units=GPa)
#
#
# Indices 1 2 3 4 5 6 
#
# 1 11.9089 -0.8966 12.2808 0.0000 0.0000 0.0000
# 2 -0.8966 130.0061 35.1142 0.0000 0.0000 0.0000
# 3 12.2808 35.1142 137.7709 0.0000 0.0000 0.0000
# 4 0.0000 0.0000 0.0000 41.8019 0.0000 0.0000
# 5 0.0000 0.0000 0.0000 0.0000 18.2757 0.0000
# 6 0.0000 0.0000 0.0000 0.0000 0.0000 9.1284
#
#
#
# Elastic Compliance Matrix: (Units=1/GPa)
#
#
# Indices 1 2 3 4 5 6 
#
# 1 0.093631 0.003114 -0.009140 0.000000 0.000000 0.000000
# 2 0.003114 0.008364 -0.002409 0.000000 0.000000 0.000000
# 3 -0.009140 -0.002409 0.008687 0.000000 0.000000 0.000000
# 4 0.000000 0.000000 0.000000 0.023922 0.000000 0.000000
# 5 0.000000 0.000000 0.000000 0.000000 0.054717 0.000000
# 6 0.000000 0.000000 0.000000 0.000000 0.000000 0.109548
#
#
# Mechanical properties :
#
#
# Convention : Reuss Voigt Hill
#
# Bulk Modulus (GPa) = 10.65960 41.40918 26.03439
# Shear Modulus (GPa) = 14.40880 29.38704 21.89792
#
# Velocity S-wave (km/s) = 2.52951 3.61244 3.11834
# Velocity P-wave (km/s) = 3.64208 5.98230 4.95241
#
# Compressibility (1/GPa) = 0.09381212
#
# Stress axis : x y z
#
# Youngs Moduli (GPa) = 10.68027 119.55713 115.11121
#
# Poissons Ratio (x) = -0.37235 1.05211
# Poissons Ratio (y) = -0.03326 0.27735
# Poissons Ratio (z) = 0.09762 0.28806
#
# Static dielectric constant tensor:
#      x y z
#    x 2.332950 0.000000 0.000000 
#    y 0.000000 1.992180 0.000000 
#    z 0.000000 0.000000 1.872660 
# 
# From -- ./inp_files/3593.got.cif
#   From: 2010.05.17/outbox.cif.g08.bks.cpg/sg56_2_cif.got.tgz:3593.got - 2010.06.03 13:42:01.
