data_PCOD9429642
_publ_section_title
;
Structure prediction by ZEFSAII (Michael W. Deem and Ramdas Pophale) SiO2 
 PCOD9429642
Probable space group: P C C N
;
_chemical_formula_sum "Si O2"
_cell_formula_units_Z 48
_cell_length_a 14.317215
_cell_length_b 9.751435
_cell_length_c 16.669752
_cell_angle_alpha 90.000000
_cell_angle_beta 90.000000
_cell_angle_gamma 90.000000
_cell_volume 2327.320611
_symmetry_space_group_name_H-M "P C C N"
_symmetry_group_IT_number 56
_symmetry_cell_setting 'orthorhombic'
loop_
_space_group_symop_operation_xyz
x,y,z
1/2-x,1/2-y,z
1/2+x,-y,1/2-z
-x,1/2+y,1/2-z
-x,-y,-z
1/2+x,1/2+y,-z
1/2-x,y,1/2+z
x,1/2-y,1/2+z
loop_
_atom_site_type_symbol
_atom_site_label
_atom_site_fract_x
_atom_site_fract_y
_atom_site_fract_z
Si Si1 0.571361 0.326256 0.689380
Si Si2 0.358581 0.700808 0.486309
Si Si3 0.250000 0.250000 0.192023
Si Si4 0.750000 0.250000 0.795591
Si Si5 0.078801 0.536543 0.563898
Si Si6 0.929212 0.599393 0.263927
Si Si7 0.785207 0.509604 0.912776
O O1 0.588919 0.286900 0.597400
O O2 0.665584 0.296569 0.739039
O O3 0.494498 0.230625 0.730257
O O4 0.549621 0.487512 0.696693
O O5 0.250000 0.750000 0.475903
O O6 0.353684 0.546814 0.519744
O O7 0.403869 0.801883 0.551709
O O8 0.323041 0.344481 0.239136
O O9 0.191715 0.353708 0.135342
O O10 0.774602 0.381816 0.850627
O O11 0.056074 0.485127 0.652840
O O12 0.181572 0.470812 0.549221
O O13 0.000000 0.500000 0.500000
#
# Coordination Sequence:
#
# PCOD9429642 Si02
#       7
#     8   8   4   4   8   8   8
#     4  12  24  39  62 100 125 168 204 266 318 376
#     4  10  19  36  65  93 119 155 217 256 302 370
#     4  10  22  44  62  84 126 176 206 256 314 376
#     4  12  20  38  66  88 124 168 210 244 322 382
#     4  10  17  36  62  90 117 161 203 254 304 370
#     4  11  25  41  62  92 133 165 214 251 325 379
#     4  10  20  39  65  86 117 171 211 245 310 382
#
# _framework density 20.624576000000001
#
# number of rings (size 3 to 8) (size 9 to 14) (size 15 to 20)
#    0.000    1.333    8.333    0.000    2.333    0.000 
#    0.000    5.000    0.000    0.000    0.000    0.000 
#    0.000    0.000    0.000    0.000    0.000    0.000 
#
# Total GULP energy -267914.437923 kJ/mol
# GULP energy per Si atom -5581.550790 kJ/mol
# Density = 2.057763 g / cm^3
# Si number density = 20.624576 Si / 1000 Ang^3
#
#
#
# Elastic Constant Matrix: (Units=GPa)
#
#
# Indices 1 2 3 4 5 6 
#
# 1 36.3761 15.1513 -2.4967 0.0000 0.0000 0.0000
# 2 15.1513 114.3519 9.8764 0.0000 0.0000 0.0000
# 3 -2.4967 9.8764 36.1736 0.0000 0.0000 0.0000
# 4 0.0000 0.0000 0.0000 28.6540 0.0000 0.0000
# 5 0.0000 0.0000 0.0000 0.0000 14.2867 0.0000
# 6 0.0000 0.0000 0.0000 0.0000 0.0000 32.4024
#
#
#
# Elastic Compliance Matrix: (Units=1/GPa)
#
#
# Indices 1 2 3 4 5 6 
#
# 1 0.029448 -0.004176 0.003173 0.000000 0.000000 0.000000
# 2 -0.004176 0.009548 -0.002895 0.000000 0.000000 0.000000
# 3 0.003173 -0.002895 0.028654 0.000000 0.000000 0.000000
# 4 0.000000 0.000000 0.000000 0.034899 0.000000 0.000000
# 5 0.000000 0.000000 0.000000 0.000000 0.069995 0.000000
# 6 0.000000 0.000000 0.000000 0.000000 0.000000 0.030862
#
#
# Mechanical properties :
#
#
# Convention : Reuss Voigt Hill
#
# Bulk Modulus (GPa) = 16.70755 25.77372 21.24064
# Shear Modulus (GPa) = 21.63065 26.02668 23.82867
#
# Velocity S-wave (km/s) = 3.24200 3.55621 3.40274
# Velocity P-wave (km/s) = 4.70452 5.42088 5.07535
#
# Compressibility (1/GPa) = 0.05985316
#
# Stress axis : x y z
#
# Youngs Moduli (GPa) = 33.95862 104.73109 34.89929
#
# Poissons Ratio (x) = 0.43733 -0.11072
# Poissons Ratio (y) = 0.14180 0.10104
# Poissons Ratio (z) = -0.10774 0.30321
#
# Static dielectric constant tensor:
#      x y z
#    x 1.763250 0.000000 0.000000 
#    y 0.000000 1.754650 0.000000 
#    z 0.000000 0.000000 1.731310 
# 
# From -- ./inp_files/19003.got.cif
#   From: 2010.05.17/outbox.cif.g08.bks.cpg/sg56_10_cif.got.tgz:19003.got - 2010.06.03 13:42:01.
