data_PCOD9429292
_publ_section_title
;
Structure prediction by ZEFSAII (Michael W. Deem and Ramdas Pophale) SiO2 
 PCOD9429292
Probable space group: P B A M
;
_chemical_formula_sum "Si O2"
_cell_formula_units_Z 64
_cell_length_a 15.000000
_cell_length_b 24.000000
_cell_length_c 9.000000
_cell_angle_alpha 90.000000
_cell_angle_beta 90.000000
_cell_angle_gamma 90.000000
_cell_volume 3240.000000
_symmetry_space_group_name_H-M "P B A M"
_symmetry_group_IT_number 55
_symmetry_cell_setting 'orthorhombic'
loop_
_space_group_symop_operation_xyz
x,y,z
-x,-y,z
1/2+x,1/2-y,-z
1/2-x,1/2+y,-z
-x,-y,-z
x,y,-z
1/2-x,1/2+y,z
1/2+x,1/2-y,z
loop_
_atom_site_type_symbol
_atom_site_label
_atom_site_fract_x
_atom_site_fract_y
_atom_site_fract_z
Si Si1 0.011385 0.327010 0.322046
Si Si2 0.823221 0.289010 0.324534
Si Si3 0.062087 0.946156 0.820197
Si Si4 0.248765 0.586486 0.667960
Si Si5 0.955643 0.559777 0.178976
Si Si6 0.262533 0.973598 0.822868
Si Si7 0.149184 0.249707 0.823077
Si Si8 0.938320 0.858567 0.672726
O O1 0.018101 0.327726 0.500000
O O2 0.997561 0.389110 0.260757
O O3 0.098981 0.302211 0.246447
O O4 0.926868 0.287593 0.283094
O O5 0.812866 0.276129 0.500000
O O6 0.796359 0.353972 0.305639
O O7 0.751225 0.254766 0.232018
O O8 0.164418 0.955163 0.769349
O O9 0.019245 0.891365 0.747520
O O10 0.060611 0.941122 0.000000
O O11 0.000000 0.000000 0.783339
O O12 0.226668 0.568547 0.500000
O O13 0.224708 0.538040 0.779795
O O14 0.354099 0.599269 0.676242
O O15 0.851594 0.558050 0.227253
O O16 0.000000 0.500000 0.211894
O O17 0.960200 0.567652 0.000000
O O18 0.260432 0.968760 0.000000
O O19 0.096577 0.195818 0.758644
O O20 0.145386 0.250317 0.000000
O O21 0.955625 0.844331 0.500000
#
# Coordination Sequence:
#
# PCOD9429292 Si02
#       8
#     8   8   8   8   8   8   8   8
#     4  11  23  42  67  92 123 160 203 254 306 367
#     4   9  20  39  62  89 117 151 195 246 300 353
#     4  10  19  32  51  79 117 158 201 247 301 364
#     4   9  17  30  52  81 112 145 190 241 286 345
#     4  10  22  40  61  88 122 158 201 253 307 365
#     4  10  20  33  51  79 116 156 194 240 297 355
#     4  11  23  40  64  91 120 154 198 249 303 362
#     4  10  20  35  55  81 115 155 201 249 297 349
#
# _framework density 19.753086
#
# number of rings (size 3 to 8) (size 9 to 14) (size 15 to 20)
#    0.000    2.000    1.250    3.375    0.000    4.500 
#    2.250    0.000    0.000    0.000    0.000    0.000 
#    0.000    0.000    0.000    0.000    0.000    0.000 
#
# Total GULP energy -357336.602141 kJ/mol
# GULP energy per Si atom -5583.384408 kJ/mol
# Density = 1.970813 g / cm^3
# Si number density = 19.753086 Si / 1000 Ang^3
#
#
#
# Elastic Constant Matrix: (Units=GPa)
#
#
# Indices 1 2 3 4 5 6 
#
# 1 113.0356 19.4747 43.1182 0.0000 0.0000 0.0000
# 2 19.4747 50.1420 31.8243 0.0000 0.0000 0.0000
# 3 43.1182 31.8243 58.4460 0.0000 0.0000 0.0000
# 4 0.0000 0.0000 0.0000 -42.0374 0.0000 0.0000
# 5 0.0000 0.0000 0.0000 0.0000 18.8862 0.0000
# 6 0.0000 0.0000 0.0000 0.0000 0.0000 28.0297
#
#
#
# Elastic Compliance Matrix: (Units=1/GPa)
#
#
# Indices 1 2 3 4 5 6 
#
# 1 0.012386 0.001511 -0.009960 0.000000 0.000000 0.000000
# 2 0.001511 0.030660 -0.017809 0.000000 0.000000 0.000000
# 3 -0.009960 -0.017809 0.034155 0.000000 0.000000 0.000000
# 4 0.000000 0.000000 0.000000 -0.023788 0.000000 0.000000
# 5 0.000000 0.000000 0.000000 0.000000 0.052949 0.000000
# 6 0.000000 0.000000 0.000000 0.000000 0.000000 0.035676
#
#
# Mechanical properties :
#
#
# Convention : Reuss Voigt Hill
#
# Bulk Modulus (GPa) = 40.51243 45.60645 43.05944
# Shear Modulus (GPa) = 24.65693 9.45613 17.05653
#
# Velocity S-wave (km/s) = 3.53690 2.19033 2.94170
# Velocity P-wave (km/s) = 6.10193 5.43462 5.77792
#
# Compressibility (1/GPa) = 0.02468378
#
# Stress axis : x y z
#
# Youngs Moduli (GPa) = 80.73697 32.61618 29.27801
#
# Poissons Ratio (x) = -0.04929 0.29162
# Poissons Ratio (y) = -0.12201 0.52142
# Poissons Ratio (z) = 0.80418 0.58087
#
# Static dielectric constant tensor:
#      x y z
#    x 1.733440 0.000000 0.000000 
#    y 0.000000 1.683470 0.000000 
#    z 0.000000 0.000000 1.654500 
# 
# From -- ./inp_files/6547.got.cif
#   From: 2010.05.17/outbox.ucp.g08.bks.cvg/sg55_4_cif.got.tgz:6547.got - 2010.06.11 16:36:00.
