data_PCOD9429433
_publ_section_title
;
Structure prediction by ZEFSAII (Michael W. Deem and Ramdas Pophale) SiO2 
 PCOD9429433
Probable space group: P B A M
;
_chemical_formula_sum "Si O2"
_cell_formula_units_Z 64
_cell_length_a 9.000000
_cell_length_b 15.000000
_cell_length_c 24.000000
_cell_angle_alpha 90.000000
_cell_angle_beta 90.000000
_cell_angle_gamma 90.000000
_cell_volume 3240.000000
_symmetry_space_group_name_H-M "P B A M"
_symmetry_group_IT_number 55
_symmetry_cell_setting 'orthorhombic'
loop_
_space_group_symop_operation_xyz
x,y,z
-x,-y,z
1/2+x,1/2-y,-z
1/2-x,1/2+y,-z
-x,-y,-z
x,y,-z
1/2-x,1/2+y,z
1/2+x,1/2-y,z
loop_
_atom_site_type_symbol
_atom_site_label
_atom_site_fract_x
_atom_site_fract_y
_atom_site_fract_z
Si Si1 0.068157 0.598309 0.435959
Si Si2 0.672301 0.644346 0.062188
Si Si3 0.164015 0.608727 0.177491
Si Si4 0.315816 0.659567 0.062224
Si Si5 0.925668 0.903605 0.435754
Si Si6 0.041379 0.253051 0.349415
Si Si7 0.315790 0.905142 0.822065
Si Si8 0.293177 0.260601 0.735178
O O1 0.031849 0.628073 0.500000
O O2 0.006652 0.664133 0.388351
O O3 0.000000 0.500000 0.428882
O O4 0.246663 0.591490 0.432220
O O5 0.494458 0.656273 0.067624
O O6 0.754322 0.739698 0.061900
O O7 0.734916 0.598433 0.117762
O O8 0.698932 0.603943 0.000000
O O9 0.241225 0.618014 0.117060
O O10 0.182331 0.507359 0.196902
O O11 0.227746 0.676129 0.223679
O O12 0.987131 0.625934 0.170724
O O13 0.278985 0.622293 0.000000
O O14 0.963222 0.876908 0.500000
O O15 0.974572 0.832433 0.389492
O O16 0.000000 0.000000 0.426336
O O17 0.204978 0.262651 0.323548
O O18 0.956636 0.244291 0.290490
O O19 0.239519 0.843792 0.775458
#
# Coordination Sequence:
#
# PCOD9429433 Si02
#       8
#     8   8   8   8   8   8   8   8
#     4  10  23  43  69 101 135 172 213 263 323 380
#     4  10  21  38  64  95 126 163 208 262 324 385
#     4  11  25  44  65  92 128 167 215 265 326 384
#     4  10  21  38  64  95 127 163 207 263 323 386
#     4  10  23  43  68 102 137 169 213 266 320 379
#     4  12  25  44  68  94 130 175 218 266 313 383
#     4  11  25  44  66  91 126 171 212 268 324 383
#     4  12  26  44  64  92 128 172 222 265 315 373
#
# _framework density 19.753086
#
# number of rings (size 3 to 8) (size 9 to 14) (size 15 to 20)
#    0.000    1.250    3.750    1.125    3.500    4.500 
#    0.000    2.500    0.000    0.000    0.000    0.000 
#    0.000    0.000    0.000    0.000    0.000    0.000 
#
# Total GULP energy -357221.975827 kJ/mol
# GULP energy per Si atom -5581.593372 kJ/mol
# Density = 1.970813 g / cm^3
# Si number density = 19.753086 Si / 1000 Ang^3
#
#
#
# Elastic Constant Matrix: (Units=GPa)
#
#
# Indices 1 2 3 4 5 6 
#
# 1 43.7253 15.8220 21.7101 0.0000 0.0000 0.0000
# 2 15.8220 91.6163 62.2659 0.0000 0.0000 0.0000
# 3 21.7101 62.2659 141.0129 0.0000 0.0000 0.0000
# 4 0.0000 0.0000 0.0000 3.8596 0.0000 0.0000
# 5 0.0000 0.0000 0.0000 0.0000 44.9943 0.0000
# 6 0.0000 0.0000 0.0000 0.0000 0.0000 24.3615
#
#
#
# Elastic Compliance Matrix: (Units=1/GPa)
#
#
# Indices 1 2 3 4 5 6 
#
# 1 0.025141 -0.002445 -0.002791 0.000000 0.000000 0.000000
# 2 -0.002445 0.015833 -0.006615 0.000000 0.000000 0.000000
# 3 -0.002791 -0.006615 0.010442 0.000000 0.000000 0.000000
# 4 0.000000 0.000000 0.000000 0.259091 0.000000 0.000000
# 5 0.000000 0.000000 0.000000 0.000000 0.022225 0.000000
# 6 0.000000 0.000000 0.000000 0.000000 0.000000 0.041048
#
#
# Mechanical properties :
#
#
# Convention : Reuss Voigt Hill
#
# Bulk Modulus (GPa) = 36.08262 52.88341 44.48302
# Shear Modulus (GPa) = 12.29348 26.41351 19.35349
#
# Velocity S-wave (km/s) = 2.49742 3.66072 3.13352
# Velocity P-wave (km/s) = 5.15971 6.68567 5.97163
#
# Compressibility (1/GPa) = 0.02771417
#
# Stress axis : x y z
#
# Youngs Moduli (GPa) = 39.77644 63.15917 95.76598
#
# Poissons Ratio (x) = 0.15441 0.26729
# Poissons Ratio (y) = 0.09725 0.63348
# Poissons Ratio (z) = 0.11102 0.41779
#
# Static dielectric constant tensor:
#      x y z
#    x 1.693270 0.000000 0.000000 
#    y 0.000000 1.684330 0.000000 
#    z 0.000000 0.000000 1.665280 
# 
# From -- ./inp_files/23483.got.cif
#   From: 2010.05.17/outbox.ucp.g08.bks.cvg/sg55_12_cif.got.tgz:23483.got - 2010.06.11 16:36:00.
