data_PCOD9429964
_publ_section_title
;
Structure prediction by ZEFSAII (Michael W. Deem and Ramdas Pophale) SiO2 
 PCOD9429964
Probable space group: P C C N
;
_chemical_formula_sum "Si O2"
_cell_formula_units_Z 64
_cell_length_a 18.637570
_cell_length_b 13.398739
_cell_length_c 12.662765
_cell_angle_alpha 90.000000
_cell_angle_beta 90.000000
_cell_angle_gamma 90.000000
_cell_volume 3162.144866
_symmetry_space_group_name_H-M "P C C N"
_symmetry_group_IT_number 56
_symmetry_cell_setting 'orthorhombic'
loop_
_space_group_symop_operation_xyz
x,y,z
1/2-x,1/2-y,z
1/2+x,-y,1/2-z
-x,1/2+y,1/2-z
-x,-y,-z
1/2+x,1/2+y,-z
1/2-x,y,1/2+z
x,1/2-y,1/2+z
loop_
_atom_site_type_symbol
_atom_site_label
_atom_site_fract_x
_atom_site_fract_y
_atom_site_fract_z
Si Si1 0.827805 0.964065 0.572041
Si Si2 0.514022 0.333618 0.048293
Si Si3 0.429966 0.213844 0.885464
Si Si4 0.404973 0.497652 0.066320
Si Si5 0.073729 0.714763 0.239542
Si Si6 0.681979 0.396715 0.765816
Si Si7 0.332831 0.542029 0.667067
Si Si8 0.827453 0.600575 0.633076
O O1 0.895367 0.894983 0.602898
O O2 0.755342 0.901917 0.597848
O O3 0.823497 0.060860 0.647524
O O4 0.828587 0.997843 0.450255
O O5 0.459033 0.411406 0.101157
O O6 0.570232 0.299248 0.134569
O O7 0.469295 0.246031 0.994382
O O8 0.551489 0.401669 0.959249
O O9 0.492422 0.231346 0.799574
O O10 0.366099 0.292843 0.865187
O O11 0.348078 0.518021 0.156188
O O12 0.369272 0.462854 0.956798
O O13 0.131044 0.801866 0.218902
O O14 0.099605 0.613965 0.182883
O O15 0.764283 0.389139 0.801361
O O16 0.334070 0.454801 0.754741
#
# Coordination Sequence:
#
# PCOD9429964 Si02
#       8
#     8   8   8   8   8   8   8   8
#     4  11  25  44  66  98 134 167 218 274 325 377
#     4  10  22  38  64  94 124 168 214 264 313 392
#     4  11  25  41  66  99 129 171 212 264 330 391
#     4  10  18  42  67  88 122 172 217 257 319 380
#     4  12  25  41  63  98 132 170 220 264 327 388
#     4  11  24  43  66  92 129 177 213 270 321 384
#     4  11  25  44  66  95 131 172 218 275 325 378
#     4  10  22  45  69  92 128 170 221 262 321 391
#
# _framework density 20.239426999999999
#
# number of rings (size 3 to 8) (size 9 to 14) (size 15 to 20)
#    0.000    1.250    3.750    1.500    3.500    1.500 
#    0.000    2.500    0.000    0.000    0.000    0.000 
#    0.000    0.000    0.000    0.000    0.000    0.000 
#
# Total GULP energy -357410.327567 kJ/mol
# GULP energy per Si atom -5584.536368 kJ/mol
# Density = 2.019336 g / cm^3
# Si number density = 20.239427 Si / 1000 Ang^3
#
#
#
# Elastic Constant Matrix: (Units=GPa)
#
#
# Indices 1 2 3 4 5 6 
#
# 1 63.9825 20.3043 3.5137 0.0000 0.0000 0.0000
# 2 20.3043 50.4701 23.9206 0.0000 0.0000 0.0000
# 3 3.5137 23.9206 97.9132 0.0000 0.0000 0.0000
# 4 0.0000 0.0000 0.0000 9.1873 0.0000 0.0000
# 5 0.0000 0.0000 0.0000 0.0000 31.2404 0.0000
# 6 0.0000 0.0000 0.0000 0.0000 0.0000 15.9053
#
#
#
# Elastic Compliance Matrix: (Units=1/GPa)
#
#
# Indices 1 2 3 4 5 6 
#
# 1 0.018056 -0.007868 0.001274 0.000000 0.000000 0.000000
# 2 -0.007868 0.025837 -0.006030 0.000000 0.000000 0.000000
# 3 0.001274 -0.006030 0.011640 0.000000 0.000000 0.000000
# 4 0.000000 0.000000 0.000000 0.108846 0.000000 0.000000
# 5 0.000000 0.000000 0.000000 0.000000 0.032010 0.000000
# 6 0.000000 0.000000 0.000000 0.000000 0.000000 0.062872
#
#
# Mechanical properties :
#
#
# Convention : Reuss Voigt Hill
#
# Bulk Modulus (GPa) = 33.01796 34.20477 33.61136
# Shear Modulus (GPa) = 16.97195 22.24175 19.60685
#
# Velocity S-wave (km/s) = 2.89893 3.31861 3.11584
# Velocity P-wave (km/s) = 5.24920 5.62325 5.43945
#
# Compressibility (1/GPa) = 0.03028655
#
# Stress axis : x y z
#
# Youngs Moduli (GPa) = 55.38282 38.70439 85.90709
#
# Poissons Ratio (x) = 0.30453 -0.10947
# Poissons Ratio (y) = 0.43575 0.51799
# Poissons Ratio (z) = -0.07057 0.23338
#
# Static dielectric constant tensor:
#      x y z
#    x 1.743940 0.000000 0.000000 
#    y 0.000000 1.713310 0.000000 
#    z 0.000000 0.000000 1.702690 
# 
# From -- ./inp_files/8416.got.cif
#   From: 2010.05.17/outbox.cif.g08.bks.cpg/sg56_5_cif.got.tgz:8416.got - 2010.06.03 13:42:01.
