data_PCOD9429223
_publ_section_title
;
Structure prediction by ZEFSAII (Michael W. Deem and Ramdas Pophale) SiO2 
 PCOD9429223
Probable space group: P B A M
;
_chemical_formula_sum "Si O2"
_cell_formula_units_Z 48
_cell_length_a 6.919023
_cell_length_b 23.505387
_cell_length_c 14.079869
_cell_angle_alpha 90.000000
_cell_angle_beta 90.000000
_cell_angle_gamma 90.000000
_cell_volume 2289.869826
_symmetry_space_group_name_H-M "P B A M"
_symmetry_group_IT_number 55
_symmetry_cell_setting 'orthorhombic'
loop_
_space_group_symop_operation_xyz
x,y,z
-x,-y,z
1/2+x,1/2-y,-z
1/2-x,1/2+y,-z
-x,-y,-z
x,y,-z
1/2-x,1/2+y,z
1/2+x,1/2-y,z
loop_
_atom_site_type_symbol
_atom_site_label
_atom_site_fract_x
_atom_site_fract_y
_atom_site_fract_z
Si Si1 0.147368 0.112346 0.245667
Si Si2 0.444408 0.702011 0.106531
Si Si3 0.197154 0.421372 0.250451
Si Si4 0.270841 0.517410 0.390224
Si Si5 0.110528 0.333877 0.893357
Si Si6 0.225284 0.016383 0.896722
O O1 0.157092 0.175377 0.200008
O O2 0.244677 0.077783 0.333668
O O3 0.219160 0.074889 0.157631
O O4 0.917691 0.100705 0.262247
O O5 0.467103 0.769716 0.114489
O O6 0.656292 0.673851 0.103534
O O7 0.358587 0.691319 0.000000
O O8 0.165743 0.462902 0.340827
O O9 0.077780 0.369384 0.204134
O O10 0.185940 0.466596 0.164945
O O11 0.500000 0.500000 0.384027
O O12 0.220374 0.523545 0.500000
O O13 0.059734 0.356693 0.000000
O O14 0.306259 0.021307 0.000000
O O15 0.000000 0.000000 0.902763
#
# Coordination Sequence:
#
# PCOD9429223 Si02
#       6
#     8   8   8   8   8   8
#     4   8  13  20  31  49  72  95 119 149 185 222
#     4   9  16  25  37  54  77 104 130 153 178 212
#     4   8  13  20  31  49  72  95 119 149 185 222
#     4   8  13  21  34  53  75  96 118 150 194 234
#     4   9  16  25  37  54  77 104 130 153 178 212
#     4   8  11  15  26  45  67  87 108 141 184 222
#
# _framework density 20.961888999999999
#
# number of rings (size 3 to 8) (size 9 to 14) (size 15 to 20)
#    0.000    3.667    0.000    3.000    0.000    4.000 
#    0.000    0.000    0.000    1.000    0.000    4.667 
#    0.000   24.000    0.000    0.000    0.000    0.000 
#
# Total GULP energy -267269.707523 kJ/mol
# GULP energy per Si atom -5568.118907 kJ/mol
# Density = 2.091418 g / cm^3
# Si number density = 20.961889 Si / 1000 Ang^3
#
#
#
# Elastic Constant Matrix: (Units=GPa)
#
#
# Indices 1 2 3 4 5 6 
#
# 1 76.5962 11.4939 7.2258 0.0000 0.0000 0.0000
# 2 11.4939 84.4871 59.2879 0.0000 0.0000 0.0000
# 3 7.2258 59.2879 168.2774 0.0000 0.0000 0.0000
# 4 0.0000 0.0000 0.0000 20.5401 0.0000 0.0000
# 5 0.0000 0.0000 0.0000 0.0000 7.0864 0.0000
# 6 0.0000 0.0000 0.0000 0.0000 0.0000 24.7192
#
#
#
# Elastic Compliance Matrix: (Units=1/GPa)
#
#
# Indices 1 2 3 4 5 6 
#
# 1 0.013329 -0.001875 0.000088 0.000000 0.000000 0.000000
# 2 -0.001875 0.015987 -0.005552 0.000000 0.000000 0.000000
# 3 0.000088 -0.005552 0.007895 0.000000 0.000000 0.000000
# 4 0.000000 0.000000 0.000000 0.048685 0.000000 0.000000
# 5 0.000000 0.000000 0.000000 0.000000 0.141116 0.000000
# 6 0.000000 0.000000 0.000000 0.000000 0.000000 0.040454
#
#
# Mechanical properties :
#
#
# Convention : Reuss Voigt Hill
#
# Bulk Modulus (GPa) = 44.37993 53.93065 49.15529
# Shear Modulus (GPa) = 17.26188 27.22601 22.24394
#
# Velocity S-wave (km/s) = 2.87276 3.60784 3.26108
# Velocity P-wave (km/s) = 5.67639 6.56804 6.13843
#
# Compressibility (1/GPa) = 0.02253271
#
# Stress axis : x y z
#
# Youngs Moduli (GPa) = 75.02695 62.54909 126.66342
#
# Poissons Ratio (x) = 0.11730 -0.01119
# Poissons Ratio (y) = 0.14070 0.70326
# Poissons Ratio (z) = -0.00663 0.34729
#
# Static dielectric constant tensor:
#      x y z
#    x 2.001450 0.000000 0.000000 
#    y 0.000000 1.955410 0.000000 
#    z 0.000000 0.000000 1.736510 
# 
# From -- ./inp_files/17504.got.cif
#   From: 2010.05.17/outbox.cif.g08.bks.cpg/sg55_9_cif.got.tgz:17504.got - 2010.06.03 13:27:54.
