data_PCOD9429660
_publ_section_title
;
Structure prediction by ZEFSAII (Michael W. Deem and Ramdas Pophale) SiO2 
 PCOD9429660
Probable space group: P C C N
;
_chemical_formula_sum "Si O2"
_cell_formula_units_Z 64
_cell_length_a 28.045927
_cell_length_b 28.974959
_cell_length_c 5.520855
_cell_angle_alpha 90.000000
_cell_angle_beta 90.000000
_cell_angle_gamma 90.000000
_cell_volume 4486.410107
_symmetry_space_group_name_H-M "P C C N"
_symmetry_group_IT_number 56
_symmetry_cell_setting 'orthorhombic'
loop_
_space_group_symop_operation_xyz
x,y,z
1/2-x,1/2-y,z
1/2+x,-y,1/2-z
-x,1/2+y,1/2-z
-x,-y,-z
1/2+x,1/2+y,-z
1/2-x,y,1/2+z
x,1/2-y,1/2+z
loop_
_atom_site_type_symbol
_atom_site_label
_atom_site_fract_x
_atom_site_fract_y
_atom_site_fract_z
Si Si1 0.383690 0.777564 0.749999
Si Si2 0.761348 0.088008 0.250000
Si Si3 0.131551 0.917994 0.750000
Si Si4 0.224064 0.688540 0.750000
Si Si5 0.479670 0.021157 0.750000
Si Si6 0.899014 0.044856 0.750000
Si Si7 0.042829 0.859709 0.250000
Si Si8 0.024710 0.621906 0.250000
O O1 0.393878 0.750000 0.499999
O O2 0.328362 0.791314 0.750000
O O3 0.413092 0.824957 0.750000
O O4 0.750000 0.062581 0.500000
O O5 0.816442 0.105170 0.250000
O O6 0.726829 0.132655 0.250000
O O7 0.128387 0.946831 0.500952
O O8 0.082905 0.887413 0.750000
O O9 0.128387 0.946831 0.999049
O O10 0.250000 0.701461 0.500001
O O11 0.496233 0.073915 0.750000
O O12 0.500000 0.000000 0.500000
O O13 0.425176 0.004197 0.750000
O O14 0.500000 0.000000 0.000000
O O15 0.938614 0.086766 0.750000
O O16 0.014917 0.852952 0.498936
O O17 0.014917 0.852952 0.001065
#
# Coordination Sequence:
#
# PCOD9429660 Si02
#       8
#     8   8   8   8   8   8   8   8
#     4  12  26  40  51  60  77  99 136 188 227 273
#     4  10  21  31  45  62  75  97 129 178 209 249
#     4  10  18  28  42  62  79 103 133 144 203 230
#     4  10  23  35  50  60  70  94 117 177 229 273
#     4  12  16  30  40  74  96 104 124 136 192 220
#     4  10  19  28  48  64  85 108 118 156 174 269
#     4  10  20  32  48  62  76 105 133 151 204 247
#     4  10  19  28  50  66  87 108 118 156 174 269
#
# _framework density 14.265302
#
# number of rings (size 3 to 8) (size 9 to 14) (size 15 to 20)
#    0.000    1.500    5.000    2.250   14.000    1.500 
#    0.000    0.000    0.000    0.000    0.000    0.000 
#    0.000    0.000    0.000    0.000    0.000    0.000 
#
# Total GULP energy -356546.841176 kJ/mol
# GULP energy per Si atom -5571.044393 kJ/mol
# Density = 1.423283 g / cm^3
# Si number density = 14.265302 Si / 1000 Ang^3
#
#
#
# Elastic Constant Matrix: (Units=GPa)
#
#
# Indices 1 2 3 4 5 6 
#
# 1 18.3330 15.4134 11.9482 0.0000 0.0000 0.0000
# 2 15.4134 30.5082 17.5363 0.0000 0.0000 0.0000
# 3 11.9482 17.5363 165.4910 0.0000 0.0000 0.0000
# 4 0.0000 0.0000 0.0000 23.7597 0.0000 0.0000
# 5 0.0000 0.0000 0.0000 0.0000 18.0220 0.0000
# 6 0.0000 0.0000 0.0000 0.0000 0.0000 18.3774
#
#
#
# Elastic Compliance Matrix: (Units=1/GPa)
#
#
# Indices 1 2 3 4 5 6 
#
# 1 0.095380 -0.047099 -0.001895 0.000000 0.000000 0.000000
# 2 -0.047099 0.058161 -0.002763 0.000000 0.000000 0.000000
# 3 -0.001895 -0.002763 0.006472 0.000000 0.000000 0.000000
# 4 0.000000 0.000000 0.000000 0.042088 0.000000 0.000000
# 5 0.000000 0.000000 0.000000 0.000000 0.055488 0.000000
# 6 0.000000 0.000000 0.000000 0.000000 0.000000 0.054415
#
#
# Mechanical properties :
#
#
# Convention : Reuss Voigt Hill
#
# Bulk Modulus (GPa) = 17.69910 33.79200 25.74555
# Shear Modulus (GPa) = 11.51142 23.32741 17.41941
#
# Velocity S-wave (km/s) = 2.84377 4.04822 3.49822
# Velocity P-wave (km/s) = 4.81838 6.75207 5.86546
#
# Compressibility (1/GPa) = 0.05650004
#
# Stress axis : x y z
#
# Youngs Moduli (GPa) = 10.48439 17.19352 154.50649
#
# Poissons Ratio (x) = 0.80979 0.29286
# Poissons Ratio (y) = 0.49380 0.42685
# Poissons Ratio (z) = 0.01987 0.04750
#
# Static dielectric constant tensor:
#      x y z
#    x 1.473500 0.000000 0.000000 
#    y 0.000000 1.469440 0.000000 
#    z 0.000000 0.000000 1.601600 
# 
# From -- ./inp_files/1294.got.cif
#   From: 2010.05.17/outbox.cif.g08.bks.cpg/sg56_1_cif.got.tgz:1294.got - 2010.06.03 13:42:01.
