data_PCOD9429195
_publ_section_title
;
Structure prediction by ZEFSAII (Michael W. Deem and Ramdas Pophale) SiO2 
 PCOD9429195
Probable space group: P B A M
;
_chemical_formula_sum "Si O2"
_cell_formula_units_Z 48
_cell_length_a 14.364782
_cell_length_b 9.162724
_cell_length_c 16.319693
_cell_angle_alpha 90.000000
_cell_angle_beta 90.000000
_cell_angle_gamma 90.000000
_cell_volume 2148.006688
_symmetry_space_group_name_H-M "P B A M"
_symmetry_group_IT_number 55
_symmetry_cell_setting 'orthorhombic'
loop_
_space_group_symop_operation_xyz
x,y,z
-x,-y,z
1/2+x,1/2-y,-z
1/2-x,1/2+y,-z
-x,-y,-z
x,y,-z
1/2-x,1/2+y,z
1/2+x,1/2-y,z
loop_
_atom_site_type_symbol
_atom_site_label
_atom_site_fract_x
_atom_site_fract_y
_atom_site_fract_z
Si Si1 0.096087 0.906536 0.500000
Si Si2 0.748795 0.842348 0.259832
Si Si3 0.351218 0.453756 0.000000
Si Si4 0.745151 0.087334 0.371460
Si Si5 0.895161 0.448028 0.500000
Si Si6 0.431110 0.609600 0.160004
Si Si7 0.561789 0.877186 0.832888
Si Si8 0.150862 0.600323 0.000000
O O1 0.160463 0.942341 0.421389
O O2 0.095943 0.728425 0.500000
O O3 0.000000 0.000000 0.500000
O O4 0.761536 0.755946 0.345474
O O5 0.839123 0.829566 0.203826
O O6 0.649754 0.814222 0.217226
O O7 0.746233 0.011900 0.283587
O O8 0.400223 0.517676 0.919152
O O9 0.344848 0.278035 0.000000
O O10 0.250215 0.525565 0.000000
O O11 0.660966 0.019187 0.423608
O O12 0.000000 0.500000 0.500000
O O13 0.500000 0.500000 0.209984
O O14 0.493893 0.748180 0.141347
O O15 0.601608 0.945494 0.916205
O O16 0.500000 0.000000 0.787464
#
# Coordination Sequence:
#
# PCOD9429195 Si02
#       8
#     4   8   4   8   4   8   8   4
#     4  11  26  48  79 111 139 191 245 285 354 432
#     4  12  26  46  71 108 148 191 237 302 368 438
#     4  12  26  45  74 100 137 192 248 313 364 433
#     4  11  26  48  73 104 151 182 234 297 357 426
#     4  11  26  48  77 109 143 191 239 289 354 434
#     4  12  25  46  73  99 145 191 247 306 369 431
#     4  12  27  45  70 106 143 193 249 302 370 436
#     4  12  26  46  72 100 141 191 254 304 372 425
#
# _framework density 22.346298999999998
#
# number of rings (size 3 to 8) (size 9 to 14) (size 15 to 20)
#    0.000    0.333    5.000    3.000    4.667    4.000 
#    0.000    0.000    0.000    0.000    0.000    0.000 
#    0.000    0.000    0.000    0.000    0.000    0.000 
#
# Total GULP energy -268205.838614 kJ/mol
# GULP energy per Si atom -5587.621638 kJ/mol
# Density = 2.229544 g / cm^3
# Si number density = 22.346299 Si / 1000 Ang^3
#
#
#
# Elastic Constant Matrix: (Units=GPa)
#
#
# Indices 1 2 3 4 5 6 
#
# 1 203.7824 57.5734 51.8936 0.0000 0.0000 0.0000
# 2 57.5734 92.1658 11.5153 0.0000 0.0000 0.0000
# 3 51.8936 11.5153 65.5635 0.0000 0.0000 0.0000
# 4 0.0000 0.0000 0.0000 47.5397 0.0000 0.0000
# 5 0.0000 0.0000 0.0000 0.0000 -9.0779 0.0000
# 6 0.0000 0.0000 0.0000 0.0000 0.0000 45.0628
#
#
#
# Elastic Compliance Matrix: (Units=1/GPa)
#
#
# Indices 1 2 3 4 5 6 
#
# 1 0.007318 -0.003934 -0.005101 0.000000 0.000000 0.000000
# 2 -0.003934 0.013208 0.000794 0.000000 0.000000 0.000000
# 3 -0.005101 0.000794 0.019150 0.000000 0.000000 0.000000
# 4 0.000000 0.000000 0.000000 0.021035 0.000000 0.000000
# 5 0.000000 0.000000 0.000000 0.000000 -0.110157 0.000000
# 6 0.000000 0.000000 0.000000 0.000000 0.000000 0.022191
#
#
# Mechanical properties :
#
#
# Convention : Reuss Voigt Hill
#
# Bulk Modulus (GPa) = 43.11429 67.05294 55.08362
# Shear Modulus (GPa) = -1643.91410 32.74021 -805.58694
#
# Velocity S-wave (km/s) = -27.15236 3.83185 -19.00747
# Velocity P-wave (km/s) = 31.04296 7.04620 21.37775
#
# Compressibility (1/GPa) = 0.02319417
#
# Stress axis : x y z
#
# Youngs Moduli (GPa) = 136.65798 75.71086 52.21832
#
# Poissons Ratio (x) = 0.29783 0.26636
# Poissons Ratio (y) = 0.53758 -0.04145
# Poissons Ratio (z) = 0.69708 -0.06009
#
# Static dielectric constant tensor:
#      x y z
#    x 1.822960 0.000000 0.000000 
#    y 0.000000 1.803610 0.000000 
#    z 0.000000 0.000000 1.889840 
# 
# From -- ./inp_files/21566.got.cif
#   From: 2010.05.17/outbox.cif.g08.bks.cpg/sg55_11_cif.got.tgz:21566.got - 2010.06.03 13:27:54.
