data_PCOD9429155
_publ_section_title
;
Structure prediction by ZEFSAII (Michael W. Deem and Ramdas Pophale) SiO2 
 PCOD9429155
Probable space group: P B A M
;
_chemical_formula_sum "Si O2"
_cell_formula_units_Z 40
_cell_length_a 9.001352
_cell_length_b 9.960217
_cell_length_c 20.522449
_cell_angle_alpha 90.000000
_cell_angle_beta 90.000000
_cell_angle_gamma 90.000000
_cell_volume 1839.948768
_symmetry_space_group_name_H-M "P B A M"
_symmetry_group_IT_number 55
_symmetry_cell_setting 'orthorhombic'
loop_
_space_group_symop_operation_xyz
x,y,z
-x,-y,z
1/2+x,1/2-y,-z
1/2-x,1/2+y,-z
-x,-y,-z
x,y,-z
1/2-x,1/2+y,z
1/2+x,1/2-y,z
loop_
_atom_site_type_symbol
_atom_site_label
_atom_site_fract_x
_atom_site_fract_y
_atom_site_fract_z
Si Si1 0.322451 0.200239 0.659209
Si Si2 0.675141 0.531500 0.735400
Si Si3 0.938244 0.648333 0.925945
Si Si4 0.554147 0.344864 0.425324
Si Si5 0.387735 0.387936 0.881773
O O1 0.279154 0.335316 0.697302
O O2 0.222933 0.160197 0.597436
O O3 0.475809 0.244011 0.625593
O O4 0.287350 0.083443 0.711196
O O5 0.500000 0.500000 0.720018
O O6 0.670530 0.558098 0.812348
O O7 0.760852 0.644337 0.920895
O O8 0.000000 0.500000 0.913717
O O9 0.013085 0.754141 0.877365
O O10 0.980496 0.687370 0.000000
O O11 0.500000 0.500000 0.420624
O O12 0.533052 0.302865 0.500000
O O13 0.500000 0.500000 0.909693
#
# Coordination Sequence:
#
# PCOD9429155 Si02
#       5
#     8   8   8   8   8
#     4  12  21  47  66  97 134 183 224 285 349 414
#     4  11  26  44  67 100 141 178 227 285 352 416
#     4  11  25  45  72 105 142 187 238 290 352 423
#     4  11  24  44  67  99 140 178 230 292 352 417
#     4  11  26  45  69 106 142 186 235 294 355 422
#
# _framework density 21.739737000000002
#
# number of rings (size 3 to 8) (size 9 to 14) (size 15 to 20)
#    0.000    0.800    4.000    2.400    8.400    4.000 
#    0.000    1.000    0.000    0.000    0.000    0.000 
#    0.000    0.000    0.000    0.000    0.000    0.000 
#
# Total GULP energy -223315.245742 kJ/mol
# GULP energy per Si atom -5582.881144 kJ/mol
# Density = 2.169026 g / cm^3
# Si number density = 21.739737 Si / 1000 Ang^3
#
#
#
# Elastic Constant Matrix: (Units=GPa)
#
#
# Indices 1 2 3 4 5 6 
#
# 1 68.8257 10.9967 14.5199 0.0000 0.0000 0.0000
# 2 10.9967 95.1934 39.6865 0.0000 0.0000 0.0000
# 3 14.5199 39.6865 87.6796 0.0000 0.0000 0.0000
# 4 0.0000 0.0000 0.0000 -129.2384 0.0000 0.0000
# 5 0.0000 0.0000 0.0000 0.0000 19.6332 0.0000
# 6 0.0000 0.0000 0.0000 0.0000 0.0000 35.7113
#
#
#
# Elastic Compliance Matrix: (Units=1/GPa)
#
#
# Indices 1 2 3 4 5 6 
#
# 1 0.015113 -0.000866 -0.002111 0.000000 0.000000 0.000000
# 2 -0.000866 0.012998 -0.005740 0.000000 0.000000 0.000000
# 3 -0.002111 -0.005740 0.014353 0.000000 0.000000 0.000000
# 4 0.000000 0.000000 0.000000 -0.007738 0.000000 0.000000
# 5 0.000000 0.000000 0.000000 0.000000 0.050934 0.000000
# 6 0.000000 0.000000 0.000000 0.000000 0.000000 0.028002
#
#
# Mechanical properties :
#
#
# Convention : Reuss Voigt Hill
#
# Bulk Modulus (GPa) = 39.95098 42.45610 41.20354
# Shear Modulus (GPa) = 35.85787 -2.34575 16.75606
#
# Velocity S-wave (km/s) = 4.06571 -1.03988 2.77926
# Velocity P-wave (km/s) = 6.36056 4.25792 5.41233
#
# Compressibility (1/GPa) = 0.02503068
#
# Stress axis : x y z
#
# Youngs Moduli (GPa) = 66.16771 76.93533 69.67295
#
# Poissons Ratio (x) = 0.06661 0.14707
# Poissons Ratio (y) = 0.05729 0.39991
# Poissons Ratio (z) = 0.13967 0.44160
#
# Static dielectric constant tensor:
#      x y z
#    x 3.687940 0.000000 0.000000 
#    y 0.000000 1.693540 0.000000 
#    z 0.000000 0.000000 1.801760 
# 
# From -- ./inp_files/23406.got.cif
#   From: 2010.05.17/outbox.cif.g08.bks.cpg/sg55_12_cif.got.tgz:23406.got - 2010.06.03 13:27:54.
