data_PCOD9429620
_publ_section_title
;
Structure prediction by ZEFSAII (Michael W. Deem and Ramdas Pophale) SiO2 
 PCOD9429620
Probable space group: P C C N
;
_chemical_formula_sum "Si O2"
_cell_formula_units_Z 56
_cell_length_a 19.249291
_cell_length_b 8.526982
_cell_length_c 18.211268
_cell_angle_alpha 90.000000
_cell_angle_beta 90.000000
_cell_angle_gamma 90.000000
_cell_volume 2989.167624
_symmetry_space_group_name_H-M "P C C N"
_symmetry_group_IT_number 56
_symmetry_cell_setting 'orthorhombic'
loop_
_space_group_symop_operation_xyz
x,y,z
1/2-x,1/2-y,z
1/2+x,-y,1/2-z
-x,1/2+y,1/2-z
-x,-y,-z
1/2+x,1/2+y,-z
1/2-x,y,1/2+z
x,1/2-y,1/2+z
loop_
_atom_site_type_symbol
_atom_site_label
_atom_site_fract_x
_atom_site_fract_y
_atom_site_fract_z
Si Si1 0.328129 0.688090 0.942894
Si Si2 0.325151 0.181538 0.695996
Si Si3 0.444964 0.421157 0.694230
Si Si4 0.563016 0.327900 0.186629
Si Si5 0.322804 0.674735 0.213500
Si Si6 0.221918 0.090841 0.042366
Si Si7 0.853460 0.116111 0.418050
O O1 0.250000 0.750000 0.919691
O O2 0.385694 0.647543 0.882134
O O3 0.312585 0.529669 0.987565
O O4 0.359640 0.818989 0.999139
O O5 0.250000 0.250000 0.712615
O O6 0.381968 0.307301 0.718176
O O7 0.327405 0.149689 0.608120
O O8 0.328195 0.008336 0.728269
O O9 0.465959 0.523676 0.766315
O O10 0.504743 0.301359 0.669481
O O11 0.414963 0.527927 0.626674
O O12 0.615002 0.254100 0.245025
O O13 0.250000 0.750000 0.237163
O O14 0.332772 0.730794 0.129542
O O15 0.250000 0.250000 0.005513
O O16 0.287339 0.001173 0.080253
#
# Coordination Sequence:
#
# PCOD9429620 Si02
#       7
#     8   8   8   8   8   8   8
#     4  10  21  39  62  94 126 153 188 253 316 356
#     4  11  18  32  63  90 108 148 207 254 282 348
#     4  11  23  41  60  84 120 166 210 243 293 364
#     4  11  25  41  58  83 126 163 200 256 308 353
#     4  11  18  34  60  88 114 157 205 246 297 365
#     4  10  17  33  61  93 116 147 189 253 293 350
#     4  10  18  34  64  89 116 153 200 247 296 359
#
# _framework density 18.734314000000001
#
# number of rings (size 3 to 8) (size 9 to 14) (size 15 to 20)
#    0.000    1.429    5.714    2.571    0.000    0.571 
#    0.000    8.571    0.000    0.000    0.000    0.000 
#    0.000    0.000    0.000    0.000    0.000    0.000 
#
# Total GULP energy -311956.518913 kJ/mol
# GULP energy per Si atom -5570.652123 kJ/mol
# Density = 1.869167 g / cm^3
# Si number density = 18.734314 Si / 1000 Ang^3
#
#
#
# Elastic Constant Matrix: (Units=GPa)
#
#
# Indices 1 2 3 4 5 6 
#
# 1 66.1739 4.1301 18.1842 0.0000 0.0000 0.0000
# 2 4.1301 82.3688 15.7683 0.0000 0.0000 0.0000
# 3 18.1842 15.7683 65.3620 0.0000 0.0000 0.0000
# 4 0.0000 0.0000 0.0000 18.4834 0.0000 0.0000
# 5 0.0000 0.0000 0.0000 0.0000 13.1058 0.0000
# 6 0.0000 0.0000 0.0000 0.0000 0.0000 41.0285
#
#
#
# Elastic Compliance Matrix: (Units=1/GPa)
#
#
# Indices 1 2 3 4 5 6 
#
# 1 0.016363 0.000053 -0.004565 0.000000 0.000000 0.000000
# 2 0.000053 0.012729 -0.003086 0.000000 0.000000 0.000000
# 3 -0.004565 -0.003086 0.017314 0.000000 0.000000 0.000000
# 4 0.000000 0.000000 0.000000 0.054103 0.000000 0.000000
# 5 0.000000 0.000000 0.000000 0.000000 0.076302 0.000000
# 6 0.000000 0.000000 0.000000 0.000000 0.000000 0.024373
#
#
# Mechanical properties :
#
#
# Convention : Reuss Voigt Hill
#
# Bulk Modulus (GPa) = 32.04029 32.22997 32.13513
# Shear Modulus (GPa) = 22.04765 26.24500 24.14632
#
# Velocity S-wave (km/s) = 3.43426 3.74693 3.59400
# Velocity P-wave (km/s) = 5.73281 5.99669 5.86624
#
# Compressibility (1/GPa) = 0.03121070
#
# Stress axis : x y z
#
# Youngs Moduli (GPa) = 61.11408 78.56367 57.75719
#
# Poissons Ratio (x) = -0.00420 0.26367
# Poissons Ratio (y) = -0.00327 0.17821
# Poissons Ratio (z) = 0.27900 0.24241
#
# Static dielectric constant tensor:
#      x y z
#    x 1.640110 0.000000 0.000000 
#    y 0.000000 1.644300 0.000000 
#    z 0.000000 0.000000 1.690970 
# 
# From -- ./inp_files/16831.got.cif
#   From: 2010.05.17/outbox.cif.g08.bks.cpg/sg56_9_cif.got.tgz:16831.got - 2010.06.03 13:42:01.
