data_PCOD9429350
_publ_section_title
;
Structure prediction by ZEFSAII (Michael W. Deem and Ramdas Pophale) SiO2 
 PCOD9429350
Probable space group: P B A M
;
_chemical_formula_sum "Si O2"
_cell_formula_units_Z 48
_cell_length_a 30.000000
_cell_length_b 9.000000
_cell_length_c 9.000000
_cell_angle_alpha 90.000000
_cell_angle_beta 90.000000
_cell_angle_gamma 90.000000
_cell_volume 2430.000000
_symmetry_space_group_name_H-M "P B A M"
_symmetry_group_IT_number 55
_symmetry_cell_setting 'orthorhombic'
loop_
_space_group_symop_operation_xyz
x,y,z
-x,-y,z
1/2+x,1/2-y,-z
1/2-x,1/2+y,-z
-x,-y,-z
x,y,-z
1/2-x,1/2+y,z
1/2+x,1/2-y,z
loop_
_atom_site_type_symbol
_atom_site_label
_atom_site_fract_x
_atom_site_fract_y
_atom_site_fract_z
Si Si1 0.780018 0.100488 0.819386
Si Si2 0.123802 0.006526 0.171615
Si Si3 0.943897 0.735100 0.173058
Si Si4 0.301758 0.078354 0.679693
Si Si5 0.592222 0.956180 0.325899
Si Si6 0.456521 0.310383 0.177008
O O1 0.825444 0.009626 0.773451
O O2 0.789948 0.265318 0.758308
O O3 0.734891 0.035964 0.745851
O O4 0.775177 0.098451 0.000000
O O5 0.083093 0.913180 0.243774
O O6 0.100767 0.165814 0.169828
O O7 0.127881 0.954443 0.000000
O O8 0.931630 0.610799 0.291003
O O9 0.990795 0.815347 0.216548
O O10 0.950618 0.683723 0.000000
O O11 0.297001 0.087068 0.500000
O O12 0.354440 0.043373 0.709855
O O13 0.588163 0.915770 0.500000
O O14 0.563940 0.847343 0.220737
O O15 0.456949 0.339408 0.000000
#
# Coordination Sequence:
#
# PCOD9429350 Si02
#       6
#     8   8   8   8   8   8
#     4  11  23  41  67  95 119 154 204 257 301 355
#     4   9  19  37  61  91 121 149 191 247 301 352
#     4  10  21  36  60  91 121 157 199 247 300 353
#     4  11  25  44  63  88 124 164 199 246 312 372
#     4  11  24  40  58  84 122 164 200 242 296 353
#     4  10  19  37  63  88 118 157 200 248 301 353
#
# _framework density 19.753086
#
# number of rings (size 3 to 8) (size 9 to 14) (size 15 to 20)
#    0.000    1.667    1.667    2.500    2.333    6.667 
#    0.000    1.667    0.000    2.000    0.000    0.000 
#    0.000    0.000    0.000    0.000    0.000    0.000 
#
# Total GULP energy -267318.971237 kJ/mol
# GULP energy per Si atom -5569.145234 kJ/mol
# Density = 1.970813 g / cm^3
# Si number density = 19.753086 Si / 1000 Ang^3
#
#
#
# Elastic Constant Matrix: (Units=GPa)
#
#
# Indices 1 2 3 4 5 6 
#
# 1 85.9151 -9.7757 11.5671 0.0000 0.0000 0.0000
# 2 -9.7757 7.9698 -5.6572 0.0000 0.0000 0.0000
# 3 11.5671 -5.6572 34.1493 0.0000 0.0000 0.0000
# 4 0.0000 0.0000 0.0000 11.1824 0.0000 0.0000
# 5 0.0000 0.0000 0.0000 0.0000 31.7164 0.0000
# 6 0.0000 0.0000 0.0000 0.0000 0.0000 38.8981
#
#
#
# Elastic Compliance Matrix: (Units=1/GPa)
#
#
# Indices 1 2 3 4 5 6 
#
# 1 0.013659 0.015265 -0.002098 0.000000 0.000000 0.000000
# 2 0.015265 0.159253 0.021211 0.000000 0.000000 0.000000
# 3 -0.002098 0.021211 0.033508 0.000000 0.000000 0.000000
# 4 0.000000 0.000000 0.000000 0.089426 0.000000 0.000000
# 5 0.000000 0.000000 0.000000 0.000000 0.031529 0.000000
# 6 0.000000 0.000000 0.000000 0.000000 0.000000 0.025708
#
#
# Mechanical properties :
#
#
# Convention : Reuss Voigt Hill
#
# Bulk Modulus (GPa) = 3.63404 13.36695 8.50050
# Shear Modulus (GPa) = 13.29604 25.15271 19.22437
#
# Velocity S-wave (km/s) = 2.59725 3.57228 3.12305
# Velocity P-wave (km/s) = 3.29212 4.87818 4.16141
#
# Compressibility (1/GPa) = 0.27517560
#
# Stress axis : x y z
#
# Youngs Moduli (GPa) = 73.21355 6.27932 29.84392
#
# Poissons Ratio (x) = -0.09585 0.06261
# Poissons Ratio (y) = -1.11757 -0.63303
# Poissons Ratio (z) = 0.15358 -0.13319
#
# Static dielectric constant tensor:
#      x y z
#    x 1.688640 0.000000 0.000000 
#    y 0.000000 1.842170 0.000000 
#    z 0.000000 0.000000 1.684850 
# 
# From -- ./inp_files/2852.got.cif
#   From: 2010.05.17/outbox.ucp.g08.bks.cvg/sg55_2_cif.got.tgz:2852.got - 2010.06.11 16:36:00.
