data_PCOD9429192
_publ_section_title
;
Structure prediction by ZEFSAII (Michael W. Deem and Ramdas Pophale) SiO2 
 PCOD9429192
Probable space group: P B A M
;
_chemical_formula_sum "Si O2"
_cell_formula_units_Z 40
_cell_length_a 20.169904
_cell_length_b 8.820462
_cell_length_c 11.115629
_cell_angle_alpha 90.000000
_cell_angle_beta 90.000000
_cell_angle_gamma 90.000000
_cell_volume 1977.557899
_symmetry_space_group_name_H-M "P B A M"
_symmetry_group_IT_number 55
_symmetry_cell_setting 'orthorhombic'
loop_
_space_group_symop_operation_xyz
x,y,z
-x,-y,z
1/2+x,1/2-y,-z
1/2-x,1/2+y,-z
-x,-y,-z
x,y,-z
1/2-x,1/2+y,z
1/2+x,1/2-y,z
loop_
_atom_site_type_symbol
_atom_site_label
_atom_site_fract_x
_atom_site_fract_y
_atom_site_fract_z
Si Si1 0.211933 0.249801 0.500000
Si Si2 0.311021 0.596489 0.752772
Si Si3 0.691514 0.080327 0.862146
Si Si4 0.431154 0.410121 0.859030
Si Si5 0.346893 0.089637 0.500000
Si Si6 0.929742 0.419236 0.255480
O O1 0.185950 0.166227 0.380400
O O2 0.189678 0.424936 0.500000
O O3 0.291053 0.220536 0.500000
O O4 0.306827 0.740722 0.840660
O O5 0.245313 0.497534 0.775083
O O6 0.373938 0.496189 0.786512
O O7 0.619423 0.018816 0.826789
O O8 0.707459 0.043407 0.000000
O O9 0.500000 0.500000 0.848676
O O10 0.438934 0.242355 0.807306
O O11 0.412417 0.403940 0.000000
O O12 0.392292 0.099920 0.617790
O O13 0.000000 0.500000 0.271680
#
# Coordination Sequence:
#
# PCOD9429192 Si02
#       6
#     4   8   8   8   4   8
#     4  12  24  46  74 100 135 182 227 290 338 408
#     4  12  24  44  69 102 140 177 237 287 349 411
#     4  12  24  41  69 102 140 183 229 288 347 411
#     4  11  26  47  71 102 141 185 233 286 349 422
#     4  12  27  48  70 105 139 179 237 287 349 410
#     4  12  26  46  70 100 141 185 232 289 346 414
#
# _framework density 20.226966999999998
#
# number of rings (size 3 to 8) (size 9 to 14) (size 15 to 20)
#    0.000    0.200    4.000    5.100    2.800    3.200 
#    0.000    1.000    0.000    0.000    0.000    0.000 
#    0.000    0.000    0.000    0.000    0.000    0.000 
#
# Total GULP energy -224069.417095 kJ/mol
# GULP energy per Si atom -5601.735427 kJ/mol
# Density = 2.018093 g / cm^3
# Si number density = 20.226967 Si / 1000 Ang^3
#
#
#
# Elastic Constant Matrix: (Units=GPa)
#
#
# Indices 1 2 3 4 5 6 
#
# 1 110.8791 35.7454 20.5566 0.0000 0.0000 0.0000
# 2 35.7454 76.1335 -8.4349 0.0000 0.0000 0.0000
# 3 20.5566 -8.4349 96.1650 0.0000 0.0000 0.0000
# 4 0.0000 0.0000 0.0000 -1.9921 0.0000 0.0000
# 5 0.0000 0.0000 0.0000 0.0000 51.7622 0.0000
# 6 0.0000 0.0000 0.0000 0.0000 0.0000 41.7281
#
#
#
# Elastic Compliance Matrix: (Units=1/GPa)
#
#
# Indices 1 2 3 4 5 6 
#
# 1 0.011392 -0.005673 -0.002933 0.000000 0.000000 0.000000
# 2 -0.005673 0.016089 0.002624 0.000000 0.000000 0.000000
# 3 -0.002933 0.002624 0.011256 0.000000 0.000000 0.000000
# 4 0.000000 0.000000 0.000000 -0.501977 0.000000 0.000000
# 5 0.000000 0.000000 0.000000 0.000000 0.019319 0.000000
# 6 0.000000 0.000000 0.000000 0.000000 0.000000 0.023965
#
#
# Mechanical properties :
#
#
# Convention : Reuss Voigt Hill
#
# Bulk Modulus (GPa) = 37.35182 42.10132 39.72657
# Shear Modulus (GPa) = -12.52917 33.98700 10.72891
#
# Velocity S-wave (km/s) = -2.49153 4.10357 2.30560
# Velocity P-wave (km/s) = 3.19835 6.58119 5.17404
#
# Compressibility (1/GPa) = 0.02677246
#
# Stress axis : x y z
#
# Youngs Moduli (GPa) = 87.78450 62.15334 88.84257
#
# Poissons Ratio (x) = 0.35262 0.26055
# Poissons Ratio (y) = 0.49803 -0.23312
# Poissons Ratio (z) = 0.25745 -0.16309
#
# Static dielectric constant tensor:
#      x y z
#    x 1.680990 0.000000 0.000000 
#    y 0.000000 1.678490 0.000000 
#    z 0.000000 0.000000 1.709130 
# 
# From -- ./inp_files/14681.got.cif
#   From: 2010.05.17/outbox.cif.g08.bks.cpg/sg55_8_cif.got.tgz:14681.got - 2010.06.03 13:27:54.
