data_PCOD9429567
_publ_section_title
;
Structure prediction by ZEFSAII (Michael W. Deem and Ramdas Pophale) SiO2 
 PCOD9429567
Probable space group: P C C N
;
_chemical_formula_sum "Si O2"
_cell_formula_units_Z 56
_cell_length_a 17.186575
_cell_length_b 12.758190
_cell_length_c 13.242372
_cell_angle_alpha 90.000000
_cell_angle_beta 90.000000
_cell_angle_gamma 90.000000
_cell_volume 2903.649470
_symmetry_space_group_name_H-M "P C C N"
_symmetry_group_IT_number 56
_symmetry_cell_setting 'orthorhombic'
loop_
_space_group_symop_operation_xyz
x,y,z
1/2-x,1/2-y,z
1/2+x,-y,1/2-z
-x,1/2+y,1/2-z
-x,-y,-z
1/2+x,1/2+y,-z
1/2-x,y,1/2+z
x,1/2-y,1/2+z
loop_
_atom_site_type_symbol
_atom_site_label
_atom_site_fract_x
_atom_site_fract_y
_atom_site_fract_z
Si Si1 0.249519 0.555872 0.921661
Si Si2 0.682252 0.970293 0.387430
Si Si3 0.965848 0.616802 0.498347
Si Si4 0.779311 0.859470 0.222283
Si Si5 0.611945 0.124884 0.220479
Si Si6 0.905182 0.347311 0.653802
Si Si7 0.446094 0.417994 0.775387
O O1 0.270208 0.450027 0.860577
O O2 0.170271 0.598152 0.872004
O O3 0.322663 0.632150 0.900517
O O4 0.255888 0.525240 0.038364
O O5 0.642729 0.060772 0.318109
O O6 0.618218 0.904183 0.449533
O O7 0.723808 0.891081 0.313109
O O8 0.961489 0.641275 0.616927
O O9 0.000000 0.500000 0.500000
O O10 0.026315 0.678367 0.427191
O O11 0.750000 0.750000 0.179906
O O12 0.867468 0.864081 0.261931
O O13 0.607869 0.250625 0.228764
O O14 0.522668 0.089876 0.208330
O O15 0.928957 0.458614 0.703646
#
# Coordination Sequence:
#
# PCOD9429567 Si02
#       7
#     8   8   8   8   8   8   8
#     4  10  21  41  59  87 125 156 209 252 305 371
#     4  11  20  40  62  87 121 166 204 249 311 372
#     4  10  16  36  64  81 112 158 204 247 293 372
#     4  10  23  37  61  91 121 161 205 258 304 370
#     4  11  22  34  65  93 118 161 200 262 307 356
#     4  10  19  36  59  87 118 151 207 250 296 368
#     4  10  20  40  59  87 123 153 205 256 308 365
#
# _framework density 19.286075
#
# number of rings (size 3 to 8) (size 9 to 14) (size 15 to 20)
#    0.000    1.714    7.143    0.429    2.000    0.571 
#    0.000   15.000    0.000    0.000    0.000    0.000 
#    0.000    0.000    0.000    0.000    0.000    0.000 
#
# Total GULP energy -312017.173678 kJ/mol
# GULP energy per Si atom -5571.735244 kJ/mol
# Density = 1.924218 g / cm^3
# Si number density = 19.286075 Si / 1000 Ang^3
#
#
#
# Elastic Constant Matrix: (Units=GPa)
#
#
# Indices 1 2 3 4 5 6 
#
# 1 110.7731 30.7784 23.6702 0.0000 0.0000 0.0000
# 2 30.7784 59.4075 6.3550 0.0000 0.0000 0.0000
# 3 23.6702 6.3550 24.5790 0.0000 0.0000 0.0000
# 4 0.0000 0.0000 0.0000 6.0450 0.0000 0.0000
# 5 0.0000 0.0000 0.0000 0.0000 29.4634 0.0000
# 6 0.0000 0.0000 0.0000 0.0000 0.0000 14.0921
#
#
#
# Elastic Compliance Matrix: (Units=1/GPa)
#
#
# Indices 1 2 3 4 5 6 
#
# 1 0.012911 -0.005512 -0.011009 0.000000 0.000000 0.000000
# 2 -0.005512 0.019664 0.000223 0.000000 0.000000 0.000000
# 3 -0.011009 0.000223 0.051229 0.000000 0.000000 0.000000
# 4 0.000000 0.000000 0.000000 0.165425 0.000000 0.000000
# 5 0.000000 0.000000 0.000000 0.000000 0.033940 0.000000
# 6 0.000000 0.000000 0.000000 0.000000 0.000000 0.070962
#
#
# Mechanical properties :
#
#
# Convention : Reuss Voigt Hill
#
# Bulk Modulus (GPa) = 19.52705 35.15186 27.33946
# Shear Modulus (GPa) = 12.38246 18.85048 15.61647
#
# Velocity S-wave (km/s) = 2.53660 3.12975 2.84866
# Velocity P-wave (km/s) = 4.32736 5.59702 5.00263
#
# Compressibility (1/GPa) = 0.05121101
#
# Stress axis : x y z
#
# Youngs Moduli (GPa) = 77.45190 50.85315 19.52009
#
# Poissons Ratio (x) = 0.28028 0.21489
# Poissons Ratio (y) = 0.42688 -0.00436
# Poissons Ratio (z) = 0.85266 -0.01136
#
# Static dielectric constant tensor:
#      x y z
#    x 1.641000 0.000000 0.000000 
#    y 0.000000 1.680320 0.000000 
#    z 0.000000 0.000000 1.709910 
# 
# From -- ./inp_files/12363.got.cif
#   From: 2010.05.17/outbox.cif.g08.bks.cpg/sg56_7_cif.got.tgz:12363.got - 2010.06.03 13:42:01.
