data_PCOD9429111
_publ_section_title
;
Structure prediction by ZEFSAII (Michael W. Deem and Ramdas Pophale) SiO2 
 PCOD9429111
Probable space group: P B A M
;
_chemical_formula_sum "Si O2"
_cell_formula_units_Z 32
_cell_length_a 8.708537
_cell_length_b 14.177005
_cell_length_c 11.595425
_cell_angle_alpha 90.000000
_cell_angle_beta 90.000000
_cell_angle_gamma 90.000000
_cell_volume 1431.582448
_symmetry_space_group_name_H-M "P B A M"
_symmetry_group_IT_number 55
_symmetry_cell_setting 'orthorhombic'
loop_
_space_group_symop_operation_xyz
x,y,z
-x,-y,z
1/2+x,1/2-y,-z
1/2-x,1/2+y,-z
-x,-y,-z
x,y,-z
1/2-x,1/2+y,z
1/2+x,1/2-y,z
loop_
_atom_site_type_symbol
_atom_site_label
_atom_site_fract_x
_atom_site_fract_y
_atom_site_fract_z
Si Si1 0.166369 0.480104 0.246857
Si Si2 0.740213 0.466466 0.000000
Si Si3 0.348283 0.633354 0.636869
Si Si4 0.544643 0.662574 0.000000
Si Si5 0.345557 0.292918 0.755683
O O1 0.169818 0.526398 0.119375
O O2 0.300317 0.530375 0.319147
O O3 0.209959 0.370715 0.238907
O O4 0.000000 0.500000 0.299256
O O5 0.638160 0.563114 0.000000
O O6 0.629844 0.375159 0.000000
O O7 0.341900 0.640001 0.500000
O O8 0.513332 0.665031 0.683172
O O9 0.222780 0.701358 0.696259
O O10 0.589548 0.717913 0.885083
#
# Coordination Sequence:
#
# PCOD9429111 Si02
#       5
#     8   4   8   4   8
#     4  11  23  41  68  99 132 173 219 273 338 398
#     4   9  17  37  65  98 131 161 208 269 335 399
#     4  12  26  43  65  93 132 180 226 274 324 392
#     4   9  18  37  67  96 127 168 208 268 338 395
#     4  11  24  43  66  97 131 171 222 278 337 395
#
# _framework density 22.352886000000002
#
# number of rings (size 3 to 8) (size 9 to 14) (size 15 to 20)
#    0.000    1.250    2.500    3.375    0.000    5.500 
#    0.000    2.500    0.000    0.000    0.000    0.000 
#    0.000    0.000    0.000    0.000    0.000    0.000 
#
# Total GULP energy -179162.201354 kJ/mol
# GULP energy per Si atom -5598.818792 kJ/mol
# Density = 2.230201 g / cm^3
# Si number density = 22.352886 Si / 1000 Ang^3
#
#
#
# Elastic Constant Matrix: (Units=GPa)
#
#
# Indices 1 2 3 4 5 6 
#
# 1 75.2829 1.8070 4.9544 0.0000 0.0000 0.0000
# 2 1.8070 51.9264 28.2197 0.0000 0.0000 0.0000
# 3 4.9544 28.2197 159.7525 0.0000 0.0000 0.0000
# 4 0.0000 0.0000 0.0000 -59.2317 0.0000 0.0000
# 5 0.0000 0.0000 0.0000 0.0000 12.9883 0.0000
# 6 0.0000 0.0000 0.0000 0.0000 0.0000 31.9364
#
#
#
# Elastic Compliance Matrix: (Units=1/GPa)
#
#
# Indices 1 2 3 4 5 6 
#
# 1 0.013314 -0.000264 -0.000366 0.000000 0.000000 0.000000
# 2 -0.000264 0.021308 -0.003756 0.000000 0.000000 0.000000
# 3 -0.000366 -0.003756 0.006934 0.000000 0.000000 0.000000
# 4 0.000000 0.000000 0.000000 -0.016883 0.000000 0.000000
# 5 0.000000 0.000000 0.000000 0.000000 0.076992 0.000000
# 6 0.000000 0.000000 0.000000 0.000000 0.000000 0.031312
#
#
# Mechanical properties :
#
#
# Convention : Reuss Voigt Hill
#
# Bulk Modulus (GPa) = 30.50282 39.65821 35.08051
# Shear Modulus (GPa) = 32.74848 13.93731 23.34289
#
# Velocity S-wave (km/s) = 3.83177 2.49973 3.23505
# Velocity P-wave (km/s) = 5.76648 5.10998 5.44813
#
# Compressibility (1/GPa) = 0.03278385
#
# Stress axis : x y z
#
# Youngs Moduli (GPa) = 75.11078 46.92992 144.20654
#
# Poissons Ratio (x) = 0.01240 0.05281
# Poissons Ratio (y) = 0.01985 0.54162
# Poissons Ratio (z) = 0.02751 0.17626
#
# Static dielectric constant tensor:
#      x y z
#    x 1.815360 0.000000 0.000000 
#    y 0.000000 1.803380 0.000000 
#    z 0.000000 0.000000 1.776450 
# 
# From -- ./inp_files/11626.got.cif
#   From: 2010.05.17/outbox.cif.g08.bks.cpg/sg55_6_cif.got.tgz:11626.got - 2010.06.03 13:27:54.
