data_PCOD9429100
_publ_section_title
;
Structure prediction by ZEFSAII (Michael W. Deem and Ramdas Pophale) SiO2 
 PCOD9429100
Probable space group: P B A M
;
_chemical_formula_sum "Si O2"
_cell_formula_units_Z 48
_cell_length_a 8.664930
_cell_length_b 11.079144
_cell_length_c 23.039060
_cell_angle_alpha 90.000000
_cell_angle_beta 90.000000
_cell_angle_gamma 90.000000
_cell_volume 2211.749926
_symmetry_space_group_name_H-M "P B A M"
_symmetry_group_IT_number 55
_symmetry_cell_setting 'orthorhombic'
loop_
_space_group_symop_operation_xyz
x,y,z
-x,-y,z
1/2+x,1/2-y,-z
1/2-x,1/2+y,-z
-x,-y,-z
x,y,-z
1/2-x,1/2+y,z
1/2+x,1/2-y,z
loop_
_atom_site_type_symbol
_atom_site_label
_atom_site_fract_x
_atom_site_fract_y
_atom_site_fract_z
Si Si1 0.336511 0.877726 0.431015
Si Si2 0.190370 0.937547 0.837418
Si Si3 0.147510 0.587414 0.064522
Si Si4 0.014150 0.264637 0.158341
Si Si5 0.314945 0.134153 0.613828
Si Si6 0.143683 0.583247 0.740443
O O1 0.354893 0.890236 0.500000
O O2 0.252220 0.752624 0.416492
O O3 0.503766 0.867411 0.401356
O O4 0.258320 0.001801 0.407763
O O5 0.317932 0.826006 0.842086
O O6 0.023254 0.875760 0.835721
O O7 0.233762 0.019823 0.892964
O O8 0.239062 0.003453 0.778075
O O9 0.073222 0.698265 0.099144
O O10 0.000000 0.500000 0.059674
O O11 0.206509 0.614927 0.000000
O O12 0.929581 0.325735 0.213140
O O13 0.288586 0.141985 0.682953
O O14 0.000000 0.500000 0.721159
#
# Coordination Sequence:
#
# PCOD9429100 Si02
#       6
#     8   8   8   8   8   8
#     4  11  23  42  64  92 122 159 199 246 299 356
#     4   9  18  32  52  76 104 141 178 236 281 337
#     4   8  15  30  48  70 100 142 185 218 271 346
#     4   9  18  30  53  73 104 138 180 230 281 330
#     4  11  23  39  66  89 122 162 201 246 299 359
#     4   9  18  35  54  78 108 144 189 228 282 348
#
# _framework density 21.702271
#
# number of rings (size 3 to 8) (size 9 to 14) (size 15 to 20)
#    0.000    2.500    1.667    4.000    2.333    1.333 
#    0.000    5.000    3.667    1.000    0.000    0.000 
#    0.000    0.000    0.000    0.000    0.000    0.000 
#
# Total GULP energy -267946.597433 kJ/mol
# GULP energy per Si atom -5582.220780 kJ/mol
# Density = 2.165288 g / cm^3
# Si number density = 21.702271 Si / 1000 Ang^3
#
#
#
# Elastic Constant Matrix: (Units=GPa)
#
#
# Indices 1 2 3 4 5 6 
#
# 1 58.1303 20.7085 25.3310 0.0000 0.0000 0.0000
# 2 20.7085 91.3471 9.8844 0.0000 0.0000 0.0000
# 3 25.3310 9.8844 131.7442 0.0000 0.0000 0.0000
# 4 0.0000 0.0000 0.0000 2.0389 0.0000 0.0000
# 5 0.0000 0.0000 0.0000 0.0000 18.9097 0.0000
# 6 0.0000 0.0000 0.0000 0.0000 0.0000 38.2304
#
#
#
# Elastic Compliance Matrix: (Units=1/GPa)
#
#
# Indices 1 2 3 4 5 6 
#
# 1 0.020261 -0.004206 -0.003580 0.000000 0.000000 0.000000
# 2 -0.004206 0.011910 -0.000085 0.000000 0.000000 0.000000
# 3 -0.003580 -0.000085 0.008285 0.000000 0.000000 0.000000
# 4 0.000000 0.000000 0.000000 0.490470 0.000000 0.000000
# 5 0.000000 0.000000 0.000000 0.000000 0.052883 0.000000
# 6 0.000000 0.000000 0.000000 0.000000 0.000000 0.026157
#
#
# Mechanical properties :
#
#
# Convention : Reuss Voigt Hill
#
# Bulk Modulus (GPa) = 40.46205 43.67437 42.06821
# Shear Modulus (GPa) = 7.88710 26.85564 17.37137
#
# Velocity S-wave (km/s) = 1.90843 3.52157 2.83227
# Velocity P-wave (km/s) = 4.85188 6.05832 5.48835
#
# Compressibility (1/GPa) = 0.02471452
#
# Stress axis : x y z
#
# Youngs Moduli (GPa) = 49.35565 83.96372 120.69714
#
# Poissons Ratio (x) = 0.35314 0.43211
# Poissons Ratio (y) = 0.20758 0.01025
# Poissons Ratio (z) = 0.17670 0.00713
#
# Static dielectric constant tensor:
#      x y z
#    x 1.864530 0.000000 0.000000 
#    y 0.000000 1.836520 0.000000 
#    z 0.000000 0.000000 1.756780 
# 
# From -- ./inp_files/23438.got.cif
#   From: 2010.05.17/outbox.cif.g08.bks.cpg/sg55_12_cif.got.tgz:23438.got - 2010.06.03 13:27:54.
