data_PCOD9429088
_publ_section_title
;
Structure prediction by ZEFSAII (Michael W. Deem and Ramdas Pophale) SiO2 
 PCOD9429088
Probable space group: P B A M
;
_chemical_formula_sum "Si O2"
_cell_formula_units_Z 56
_cell_length_a 13.097352
_cell_length_b 22.949628
_cell_length_c 9.901012
_cell_angle_alpha 90.000000
_cell_angle_beta 90.000000
_cell_angle_gamma 90.000000
_cell_volume 2976.039813
_symmetry_space_group_name_H-M "P B A M"
_symmetry_group_IT_number 55
_symmetry_cell_setting 'orthorhombic'
loop_
_space_group_symop_operation_xyz
x,y,z
-x,-y,z
1/2+x,1/2-y,-z
1/2-x,1/2+y,-z
-x,-y,-z
x,y,-z
1/2-x,1/2+y,z
1/2+x,1/2-y,z
loop_
_atom_site_type_symbol
_atom_site_label
_atom_site_fract_x
_atom_site_fract_y
_atom_site_fract_z
Si Si1 0.699259 0.470632 0.153629
Si Si2 0.813194 0.246172 0.658123
Si Si3 0.183983 0.366795 0.653811
Si Si4 0.394177 0.441764 0.652862
Si Si5 0.211684 0.165758 0.161257
Si Si6 0.410575 0.956970 0.156692
Si Si7 0.519567 0.327916 0.341899
O O1 0.621363 0.504174 0.249719
O O2 0.719366 0.403439 0.186567
O O3 0.806055 0.505690 0.159964
O O4 0.661315 0.473214 0.000000
O O5 0.802180 0.263071 0.500000
O O6 0.725703 0.197464 0.687643
O O7 0.799146 0.298638 0.761510
O O8 0.922372 0.214523 0.671714
O O9 0.144388 0.365933 0.500000
O O10 0.287473 0.405608 0.654667
O O11 0.107555 0.399294 0.754640
O O12 0.408751 0.461675 0.500000
O O13 0.478357 0.393289 0.685874
O O14 0.107995 0.185272 0.236534
O O15 0.210989 0.175637 0.000000
O O16 0.500000 0.000000 0.205334
O O17 0.431839 0.941794 0.000000
O O18 0.552696 0.325385 0.500000
#
# Coordination Sequence:
#
# PCOD9429088 Si02
#       7
#     8   8   8   8   8   8   8
#     4   9  19  34  49  72 109 144 171 213 269 319
#     4   9  19  38  59  76 102 139 180 228 273 318
#     4   8  15  30  52  75  98 126 166 218 265 306
#     4   8  15  30  54  79 100 129 169 213 261 314
#     4  11  23  36  52  78 113 147 179 222 272 324
#     4   9  17  31  51  74 103 140 177 213 260 319
#     4   9  19  37  59  80 104 138 181 227 273 323
#
# _framework density 18.816952000000001
#
# number of rings (size 3 to 8) (size 9 to 14) (size 15 to 20)
#    0.000    3.000    0.000    2.143    0.000    3.714 
#    2.571    5.714    0.000    0.000    0.000    0.000 
#    0.000    0.000    0.000    0.000    0.000    0.000 
#
# Total GULP energy -312270.754605 kJ/mol
# GULP energy per Si atom -5576.263475 kJ/mol
# Density = 1.877412 g / cm^3
# Si number density = 18.816952 Si / 1000 Ang^3
#
#
#
# Elastic Constant Matrix: (Units=GPa)
#
#
# Indices 1 2 3 4 5 6 
#
# 1 14.2162 2.0514 9.4254 0.0000 0.0000 0.0000
# 2 2.0514 87.8623 59.7892 0.0000 0.0000 0.0000
# 3 9.4254 59.7892 61.3981 0.0000 0.0000 0.0000
# 4 0.0000 0.0000 0.0000 38.4821 0.0000 0.0000
# 5 0.0000 0.0000 0.0000 0.0000 14.2131 0.0000
# 6 0.0000 0.0000 0.0000 0.0000 0.0000 26.2204
#
#
#
# Elastic Compliance Matrix: (Units=1/GPa)
#
#
# Indices 1 2 3 4 5 6 
#
# 1 0.090453 0.021750 -0.035065 0.000000 0.000000 0.000000
# 2 0.021750 0.038968 -0.041286 0.000000 0.000000 0.000000
# 3 -0.035065 -0.041286 0.061874 0.000000 0.000000 0.000000
# 4 0.000000 0.000000 0.000000 0.025986 0.000000 0.000000
# 5 0.000000 0.000000 0.000000 0.000000 0.070358 0.000000
# 6 0.000000 0.000000 0.000000 0.000000 0.000000 0.038138
#
#
# Mechanical properties :
#
#
# Convention : Reuss Voigt Hill
#
# Bulk Modulus (GPa) = 12.18148 34.00093 23.09121
# Shear Modulus (GPa) = 10.81445 21.93049 16.37247
#
# Velocity S-wave (km/s) = 2.39993 3.41759 2.95293
# Velocity P-wave (km/s) = 3.76394 5.80360 4.89127
#
# Compressibility (1/GPa) = 0.08209181
#
# Stress axis : x y z
#
# Youngs Moduli (GPa) = 11.05552 25.66193 16.16182
#
# Poissons Ratio (x) = -0.55814 0.56672
# Poissons Ratio (y) = -0.24045 0.66726
# Poissons Ratio (z) = 0.38767 1.05948
#
# Static dielectric constant tensor:
#      x y z
#    x 1.664020 0.000000 0.000000 
#    y 0.000000 1.662170 0.000000 
#    z 0.000000 0.000000 1.635340 
# 
# From -- ./inp_files/5989.got.cif
#   From: 2010.05.17/outbox.cif.g08.bks.cpg/sg55_3_cif.got.tgz:5989.got - 2010.06.03 13:27:54.
