data_PCOD9429968
_publ_section_title
;
Structure prediction by ZEFSAII (Michael W. Deem and Ramdas Pophale) SiO2 
 PCOD9429968
Probable space group: P C C N
;
_chemical_formula_sum "Si O2"
_cell_formula_units_Z 44
_cell_length_a 27.262519
_cell_length_b 9.280223
_cell_length_c 8.664228
_cell_angle_alpha 90.000000
_cell_angle_beta 90.000000
_cell_angle_gamma 90.000000
_cell_volume 2192.069229
_symmetry_space_group_name_H-M "P C C N"
_symmetry_group_IT_number 56
_symmetry_cell_setting 'orthorhombic'
loop_
_space_group_symop_operation_xyz
x,y,z
1/2-x,1/2-y,z
1/2+x,-y,1/2-z
-x,1/2+y,1/2-z
-x,-y,-z
1/2+x,1/2+y,-z
1/2-x,y,1/2+z
x,1/2-y,1/2+z
loop_
_atom_site_type_symbol
_atom_site_label
_atom_site_fract_x
_atom_site_fract_y
_atom_site_fract_z
Si Si1 0.312631 0.387904 0.725530
Si Si2 0.250000 0.250000 0.963703
Si Si3 0.469147 0.106429 0.655853
Si Si4 0.106893 0.911774 0.625738
Si Si5 0.556397 0.322198 0.683962
Si Si6 0.416246 0.337812 0.839626
O O1 0.269294 0.377796 0.851484
O O2 0.292593 0.303895 0.577553
O O3 0.337799 0.534400 0.661678
O O4 0.358250 0.313377 0.815028
O O5 0.517946 0.200856 0.623801
O O6 0.444235 0.194917 0.793746
O O7 0.433804 0.112953 0.507025
O O8 0.471549 0.943131 0.715559
O O9 0.094482 0.763171 0.709363
O O10 0.086754 0.894588 0.454157
O O11 0.075924 0.037631 0.711385
#
# Coordination Sequence:
#
# PCOD9429968 Si02
#       6
#     8   4   8   8   8   8
#     4   9  22  39  67 104 121 163 203 265 331 386
#     4  10  18  42  74  98 130 146 210 270 324 408
#     4  12  24  39  63  90 132 176 229 258 311 357
#     4  10  24  42  61  94 128 166 220 258 330 367
#     4  12  25  42  62  91 133 182 217 273 296 381
#     4  10  22  40  62  96 125 167 218 268 310 383
#
# _framework density 20.07236
#
# number of rings (size 3 to 8) (size 9 to 14) (size 15 to 20)
#    1.091    0.364    0.000    5.455    2.545    4.364 
#    0.000    1.818    0.000    3.273    0.000    0.000 
#    0.000    0.000    0.000    0.000    0.000    0.000 
#
# Total GULP energy -245150.494497 kJ/mol
# GULP energy per Si atom -5571.602148 kJ/mol
# Density = 2.002667 g / cm^3
# Si number density = 20.072360 Si / 1000 Ang^3
#
#
#
# Elastic Constant Matrix: (Units=GPa)
#
#
# Indices 1 2 3 4 5 6 
#
# 1 79.5246 27.3591 41.8582 0.0000 0.0000 0.0000
# 2 27.3591 106.5466 42.0531 0.0000 0.0000 0.0000
# 3 41.8582 42.0531 127.7647 0.0000 0.0000 0.0000
# 4 0.0000 0.0000 0.0000 36.2290 0.0000 0.0000
# 5 0.0000 0.0000 0.0000 0.0000 27.8845 0.0000
# 6 0.0000 0.0000 0.0000 0.0000 0.0000 32.1674
#
#
#
# Elastic Compliance Matrix: (Units=1/GPa)
#
#
# Indices 1 2 3 4 5 6 
#
# 1 0.015669 -0.002296 -0.004378 0.000000 0.000000 0.000000
# 2 -0.002296 0.011123 -0.002909 0.000000 0.000000 0.000000
# 3 -0.004378 -0.002909 0.010219 0.000000 0.000000 0.000000
# 4 0.000000 0.000000 0.000000 0.027602 0.000000 0.000000
# 5 0.000000 0.000000 0.000000 0.000000 0.035862 0.000000
# 6 0.000000 0.000000 0.000000 0.000000 0.000000 0.031087
#
#
# Mechanical properties :
#
#
# Convention : Reuss Voigt Hill
#
# Bulk Modulus (GPa) = 56.03581 59.59740 57.81661
# Shear Modulus (GPa) = 31.91302 32.76056 32.33679
#
# Velocity S-wave (km/s) = 3.99168 4.04434 4.01809
# Velocity P-wave (km/s) = 7.01585 7.18085 7.09883
#
# Compressibility (1/GPa) = 0.01784573
#
# Stress axis : x y z
#
# Youngs Moduli (GPa) = 63.82130 89.90214 97.86023
#
# Poissons Ratio (x) = 0.20637 0.42841
# Poissons Ratio (y) = 0.14650 0.28468
# Poissons Ratio (z) = 0.27940 0.26153
#
# Static dielectric constant tensor:
#      x y z
#    x 1.767690 0.000000 0.000000 
#    y 0.000000 1.728730 0.000000 
#    z 0.000000 0.000000 1.697870 
# 
# From -- ./inp_files/5105.got.cif
#   From: 2010.05.17/outbox.cif.g08.bks.cpg/sg56_3_cif.got.tgz:5105.got - 2010.06.03 13:42:01.
