data_PCOD9429557
_publ_section_title
;
Structure prediction by ZEFSAII (Michael W. Deem and Ramdas Pophale) SiO2 
 PCOD9429557
Probable space group: P C C N
;
_chemical_formula_sum "Si O2"
_cell_formula_units_Z 40
_cell_length_a 12.024364
_cell_length_b 28.837420
_cell_length_c 5.517019
_cell_angle_alpha 90.000000
_cell_angle_beta 90.000000
_cell_angle_gamma 90.000000
_cell_volume 1913.035358
_symmetry_space_group_name_H-M "P C C N"
_symmetry_group_IT_number 56
_symmetry_cell_setting 'orthorhombic'
loop_
_space_group_symop_operation_xyz
x,y,z
1/2-x,1/2-y,z
1/2+x,-y,1/2-z
-x,1/2+y,1/2-z
-x,-y,-z
1/2+x,1/2+y,-z
1/2-x,y,1/2+z
x,1/2-y,1/2+z
loop_
_atom_site_type_symbol
_atom_site_label
_atom_site_fract_x
_atom_site_fract_y
_atom_site_fract_z
Si Si1 0.121609 0.268818 0.946714
Si Si2 0.012787 0.050535 0.618259
Si Si3 0.770156 0.405152 0.129441
Si Si4 0.320316 0.124896 0.920231
Si Si5 0.813253 0.506619 0.593224
O O1 0.250000 0.250000 0.951235
O O2 0.071249 0.248258 0.700238
O O3 0.126328 0.324081 0.934170
O O4 0.088789 0.085250 0.464470
O O5 0.076588 0.036702 0.866098
O O6 0.893368 0.073625 0.642400
O O7 0.000000 0.000000 0.500000
O O8 0.744004 0.379429 0.376799
O O9 0.687560 0.450429 0.113504
O O10 0.239415 0.122064 0.157749
O O11 0.758854 0.517751 0.335276
#
# Coordination Sequence:
#
# PCOD9429557 Si02
#       5
#     8   8   8   8   8
#     4  10  16  34  61  83 119 154 171 232 307 358
#     4  12  24  38  56  79 114 156 203 244 279 344
#     4  10  22  37  53  69  95 143 191 234 284 314
#     4  12  24  38  58  92 120 157 200 233 294 364
#     4  10  20  36  52  70  97 141 188 229 281 319
#
# _framework density 20.909179999999999
#
# number of rings (size 3 to 8) (size 9 to 14) (size 15 to 20)
#    0.000    1.200    8.000    1.200    0.000    6.400 
#    0.000    0.000    0.000    0.000    0.000    0.000 
#    0.000    4.800    0.000    0.000    0.000    0.000 
#
# Total GULP energy -223303.298973 kJ/mol
# GULP energy per Si atom -5582.582474 kJ/mol
# Density = 2.086159 g / cm^3
# Si number density = 20.909180 Si / 1000 Ang^3
#
#
#
# Elastic Constant Matrix: (Units=GPa)
#
#
# Indices 1 2 3 4 5 6 
#
# 1 51.8101 -3.3177 29.1352 0.0000 0.0000 0.0000
# 2 -3.3177 89.1996 -1.1026 0.0000 0.0000 0.0000
# 3 29.1352 -1.1026 180.1650 0.0000 0.0000 0.0000
# 4 0.0000 0.0000 0.0000 18.6885 0.0000 0.0000
# 5 0.0000 0.0000 0.0000 0.0000 20.3975 0.0000
# 6 0.0000 0.0000 0.0000 0.0000 0.0000 12.5275
#
#
#
# Elastic Compliance Matrix: (Units=1/GPa)
#
#
# Indices 1 2 3 4 5 6 
#
# 1 0.021282 0.000749 -0.003437 0.000000 0.000000 0.000000
# 2 0.000749 0.011238 -0.000052 0.000000 0.000000 0.000000
# 3 -0.003437 -0.000052 0.006106 0.000000 0.000000 0.000000
# 4 0.000000 0.000000 0.000000 0.053509 0.000000 0.000000
# 5 0.000000 0.000000 0.000000 0.000000 0.049026 0.000000
# 6 0.000000 0.000000 0.000000 0.000000 0.000000 0.079824
#
#
# Mechanical properties :
#
#
# Convention : Reuss Voigt Hill
#
# Bulk Modulus (GPa) = 30.17006 41.17826 35.67416
# Shear Modulus (GPa) = 21.05143 30.08671 25.56907
#
# Velocity S-wave (km/s) = 3.17646 3.79743 3.50074
# Velocity P-wave (km/s) = 5.28333 6.24211 5.78263
#
# Compressibility (1/GPa) = 0.03314544
#
# Stress axis : x y z
#
# Youngs Moduli (GPa) = 46.98800 88.98361 163.77446
#
# Poissons Ratio (x) = -0.06666 0.56289
# Poissons Ratio (y) = -0.03520 0.00858
# Poissons Ratio (z) = 0.16150 0.00466
#
# Static dielectric constant tensor:
#      x y z
#    x 1.836140 0.000000 0.000000 
#    y 0.000000 1.717200 0.000000 
#    z 0.000000 0.000000 1.868880 
# 
# From -- ./inp_files/298.got.cif
#   From: 2010.05.17/outbox.cif.g08.bks.cpg/sg56_1_cif.got.tgz:298.got - 2010.06.03 13:42:01.
