data_PCOD9429494
_publ_section_title
;
Structure prediction by ZEFSAII (Michael W. Deem and Ramdas Pophale) SiO2 
 PCOD9429494
Probable space group: P C C N
;
_chemical_formula_sum "Si O2"
_cell_formula_units_Z 48
_cell_length_a 9.540355
_cell_length_b 15.621556
_cell_length_c 16.406331
_cell_angle_alpha 90.000000
_cell_angle_beta 90.000000
_cell_angle_gamma 90.000000
_cell_volume 2445.120656
_symmetry_space_group_name_H-M "P C C N"
_symmetry_group_IT_number 56
_symmetry_cell_setting 'orthorhombic'
loop_
_space_group_symop_operation_xyz
x,y,z
1/2-x,1/2-y,z
1/2+x,-y,1/2-z
-x,1/2+y,1/2-z
-x,-y,-z
1/2+x,1/2+y,-z
1/2-x,y,1/2+z
x,1/2-y,1/2+z
loop_
_atom_site_type_symbol
_atom_site_label
_atom_site_fract_x
_atom_site_fract_y
_atom_site_fract_z
Si Si1 0.033534 0.086889 0.749266
Si Si2 0.043200 0.228046 0.305823
Si Si3 0.388381 0.584444 0.073946
Si Si4 0.307081 0.074209 0.492006
Si Si5 0.250000 0.250000 0.455536
Si Si6 0.250000 0.750000 0.620251
Si Si7 0.321426 0.043715 0.812881
O O1 0.061517 0.190058 0.745535
O O2 0.182382 0.039168 0.757106
O O3 0.951837 0.078510 0.835744
O O4 0.928741 0.035283 0.690978
O O5 0.121066 0.254895 0.390979
O O6 0.104971 0.134138 0.287977
O O7 0.879419 0.220834 0.324220
O O8 0.525000 0.586521 0.016487
O O9 0.301795 0.670798 0.067593
O O10 0.292353 0.503677 0.052999
O O11 0.242889 0.166181 0.510238
O O12 0.240006 0.052100 0.404271
#
# Coordination Sequence:
#
# PCOD9429494 Si02
#       7
#     8   8   8   8   4   4   8
#     4  10  19  34  56  81 106 143 183 224 275 319
#     4  10  18  34  54  76 106 143 184 216 259 330
#     4   9  18  33  56  79 106 140 180 228 271 320
#     4   9  17  34  58  76 105 144 182 220 276 320
#     4  10  14  34  56  76  94 148 184 208 256 336
#     4  10  18  30  56  84 100 134 190 222 258 324
#     4  10  20  33  57  81 108 143 183 226 266 324
#
# _framework density 19.630934
#
# number of rings (size 3 to 8) (size 9 to 14) (size 15 to 20)
#    0.000    2.333    6.667    0.000    4.667    0.000 
#    0.000    3.333   14.667    0.000    0.000    0.000 
#    0.000    0.000    0.000    0.000    0.000    0.000 
#
# Total GULP energy -267241.502659 kJ/mol
# GULP energy per Si atom -5567.531305 kJ/mol
# Density = 1.958625 g / cm^3
# Si number density = 19.630934 Si / 1000 Ang^3
#
#
#
# Elastic Constant Matrix: (Units=GPa)
#
#
# Indices 1 2 3 4 5 6 
#
# 1 106.1842 37.0568 8.4304 0.0000 0.0000 0.0000
# 2 37.0568 132.0052 21.4470 0.0000 0.0000 0.0000
# 3 8.4304 21.4470 7.5506 0.0000 0.0000 0.0000
# 4 0.0000 0.0000 0.0000 11.4571 0.0000 0.0000
# 5 0.0000 0.0000 0.0000 0.0000 6.9980 0.0000
# 6 0.0000 0.0000 0.0000 0.0000 0.0000 39.3965
#
#
#
# Elastic Compliance Matrix: (Units=1/GPa)
#
#
# Indices 1 2 3 4 5 6 
#
# 1 0.010598 -0.001955 -0.006281 0.000000 0.000000 0.000000
# 2 -0.001955 0.014428 -0.038799 0.000000 0.000000 0.000000
# 3 -0.006281 -0.038799 0.249659 0.000000 0.000000 0.000000
# 4 0.000000 0.000000 0.000000 0.087282 0.000000 0.000000
# 5 0.000000 0.000000 0.000000 0.000000 0.142899 0.000000
# 6 0.000000 0.000000 0.000000 0.000000 0.000000 0.025383
#
#
# Mechanical properties :
#
#
# Convention : Reuss Voigt Hill
#
# Bulk Modulus (GPa) = 5.53663 42.17871 23.85767
# Shear Modulus (GPa) = 7.30435 23.49069 15.39752
#
# Velocity S-wave (km/s) = 1.93104 3.46297 2.80366
# Velocity P-wave (km/s) = 2.79256 6.12552 4.76027
#
# Compressibility (1/GPa) = 0.18061521
#
# Stress axis : x y z
#
# Youngs Moduli (GPa) = 94.35341 69.31020 4.00547
#
# Poissons Ratio (x) = 0.13548 0.02516
# Poissons Ratio (y) = 0.18443 0.15541
# Poissons Ratio (z) = 0.59265 2.68916
#
# Static dielectric constant tensor:
#      x y z
#    x 1.726850 0.000000 0.000000 
#    y 0.000000 1.274720 0.000000 
#    z 0.000000 0.000000 1.681790 
# 
# From -- ./inp_files/18102.got.cif
#   From: 2010.05.17/outbox.cif.g08.bks.cpg/sg56_10_cif.got.tgz:18102.got - 2010.06.03 13:42:01.
