data_PCOD9429863
_publ_section_title
;
Structure prediction by ZEFSAII (Michael W. Deem and Ramdas Pophale) SiO2 
 PCOD9429863
Probable space group: P C C N
;
_chemical_formula_sum "Si O2"
_cell_formula_units_Z 60
_cell_length_a 14.176945
_cell_length_b 11.744477
_cell_length_c 16.492205
_cell_angle_alpha 90.000000
_cell_angle_beta 90.000000
_cell_angle_gamma 90.000000
_cell_volume 2745.965400
_symmetry_space_group_name_H-M "P C C N"
_symmetry_group_IT_number 56
_symmetry_cell_setting 'orthorhombic'
loop_
_space_group_symop_operation_xyz
x,y,z
1/2-x,1/2-y,z
1/2+x,-y,1/2-z
-x,1/2+y,1/2-z
-x,-y,-z
1/2+x,1/2+y,-z
1/2-x,y,1/2+z
x,1/2-y,1/2+z
loop_
_atom_site_type_symbol
_atom_site_label
_atom_site_fract_x
_atom_site_fract_y
_atom_site_fract_z
Si Si1 0.250000 0.750000 0.604054
Si Si2 0.923449 0.154872 0.478124
Si Si3 0.516696 0.554393 0.798183
Si Si4 0.706962 0.012456 0.342151
Si Si5 0.548663 0.711497 0.383463
Si Si6 0.397822 0.167597 0.862539
Si Si7 0.184648 0.080772 0.515245
Si Si8 0.143874 0.396179 0.269200
O O1 0.158995 0.759491 0.546951
O O2 0.246223 0.863759 0.656745
O O3 0.957760 0.167162 0.569721
O O4 0.013481 0.182479 0.422912
O O5 0.886592 0.025667 0.468148
O O6 0.597634 0.467429 0.825484
O O7 0.531231 0.660918 0.857092
O O8 0.553616 0.597559 0.710571
O O9 0.412498 0.503855 0.804099
O O10 0.726206 0.956890 0.430922
O O11 0.758416 0.932734 0.274689
O O12 0.638859 0.690429 0.441328
O O13 0.574791 0.640581 0.304342
O O14 0.357914 0.286313 0.827235
O O15 0.319508 0.104411 0.919183
#
# Coordination Sequence:
#
# PCOD9429863 Si02
#       8
#     4   8   8   8   8   8   8   8
#     4  10  20  36  62  82 110 154 196 238 288 350
#     4  10  18  36  60  86 111 148 197 241 286 347
#     4  11  21  36  58  86 117 149 187 241 294 337
#     4  10  22  40  59  84 117 154 196 242 291 348
#     4   9  19  34  57  81 112 146 184 236 289 339
#     4  10  19  34  60  84 111 151 195 236 284 348
#     4   9  18  36  60  81 108 149 194 235 283 347
#     4  10  21  37  57  86 119 153 191 237 294 352
#
# _framework density 21.850238999999998
#
# number of rings (size 3 to 8) (size 9 to 14) (size 15 to 20)
#    0.000    2.133    0.000    5.600    0.000    5.867 
#    0.000   15.333    0.000    2.400    0.000    0.000 
#    0.000    0.000    0.000    0.000    0.000    0.000 
#
# Total GULP energy -334772.678520 kJ/mol
# GULP energy per Si atom -5579.544642 kJ/mol
# Density = 2.180051 g / cm^3
# Si number density = 21.850239 Si / 1000 Ang^3
#
#
#
# Elastic Constant Matrix: (Units=GPa)
#
#
# Indices 1 2 3 4 5 6 
#
# 1 63.6451 -9.0076 10.8474 0.0000 0.0000 0.0000
# 2 -9.0076 74.4892 22.5163 0.0000 0.0000 0.0000
# 3 10.8474 22.5163 74.8162 0.0000 0.0000 0.0000
# 4 0.0000 0.0000 0.0000 23.1775 0.0000 0.0000
# 5 0.0000 0.0000 0.0000 0.0000 16.2484 0.0000
# 6 0.0000 0.0000 0.0000 0.0000 0.0000 28.0251
#
#
#
# Elastic Compliance Matrix: (Units=1/GPa)
#
#
# Indices 1 2 3 4 5 6 
#
# 1 0.016709 0.003028 -0.003334 0.000000 0.000000 0.000000
# 2 0.003028 0.015317 -0.005049 0.000000 0.000000 0.000000
# 3 -0.003334 -0.005049 0.015369 0.000000 0.000000 0.000000
# 4 0.000000 0.000000 0.000000 0.043145 0.000000 0.000000
# 5 0.000000 0.000000 0.000000 0.000000 0.061545 0.000000
# 6 0.000000 0.000000 0.000000 0.000000 0.000000 0.035682
#
#
# Mechanical properties :
#
#
# Convention : Reuss Voigt Hill
#
# Bulk Modulus (GPa) = 27.25832 29.07362 28.16597
# Shear Modulus (GPa) = 23.72987 26.06315 24.89651
#
# Velocity S-wave (km/s) = 3.29906 3.45745 3.37919
# Velocity P-wave (km/s) = 5.19749 5.41049 5.30506
#
# Compressibility (1/GPa) = 0.03668605
#
# Stress axis : x y z
#
# Youngs Moduli (GPa) = 59.84814 65.28644 65.06630
#
# Poissons Ratio (x) = -0.19771 0.21693
# Poissons Ratio (y) = -0.18124 0.32851
# Poissons Ratio (z) = 0.19953 0.32962
#
# Static dielectric constant tensor:
#      x y z
#    x 1.867280 0.000000 0.000000 
#    y 0.000000 1.863010 0.000000 
#    z 0.000000 0.000000 1.849540 
# 
# From -- ./inp_files/16319.got.cif
#   From: 2010.05.17/outbox.cif.g08.bks.cpg/sg56_9_cif.got.tgz:16319.got - 2010.06.03 13:42:01.
