data_PCOD9429877
_publ_section_title
;
Structure prediction by ZEFSAII (Michael W. Deem and Ramdas Pophale) SiO2 
 PCOD9429877
Probable space group: P C C N
;
_chemical_formula_sum "Si O2"
_cell_formula_units_Z 40
_cell_length_a 9.132923
_cell_length_b 8.311309
_cell_length_c 22.930610
_cell_angle_alpha 90.000000
_cell_angle_beta 90.000000
_cell_angle_gamma 90.000000
_cell_volume 1740.583383
_symmetry_space_group_name_H-M "P C C N"
_symmetry_group_IT_number 56
_symmetry_cell_setting 'orthorhombic'
loop_
_space_group_symop_operation_xyz
x,y,z
1/2-x,1/2-y,z
1/2+x,-y,1/2-z
-x,1/2+y,1/2-z
-x,-y,-z
1/2+x,1/2+y,-z
1/2-x,y,1/2+z
x,1/2-y,1/2+z
loop_
_atom_site_type_symbol
_atom_site_label
_atom_site_fract_x
_atom_site_fract_y
_atom_site_fract_z
Si Si1 0.057224 0.909702 0.315786
Si Si2 0.750000 0.750000 0.522357
Si Si3 0.884808 0.466525 0.711074
Si Si4 0.250000 0.750000 0.030891
Si Si5 0.503348 0.941685 0.592917
Si Si6 0.504593 0.318405 0.556877
O O1 0.078390 0.721213 0.299870
O O2 0.213187 0.989875 0.301437
O O3 0.022149 0.919319 0.384283
O O4 0.932580 0.982191 0.275101
O O5 0.641025 0.856179 0.561562
O O6 0.642825 0.656332 0.478581
O O7 0.974963 0.564560 0.662290
O O8 0.355791 0.640548 0.070119
O O9 0.360293 0.837225 0.986396
O O10 0.504702 0.129007 0.574751
#
# Coordination Sequence:
#
# PCOD9429877 Si02
#       6
#     8   4   8   4   8   8
#     4  10  23  43  68  90 123 165 208 261 314 376
#     4  10  20  36  62  90 122 166 208 252 306 370
#     4  10  23  44  65  92 124 163 210 260 317 372
#     4  10  18  36  64  90 126 166 204 256 306 366
#     4  10  22  40  61  90 129 164 209 261 311 374
#     4  10  21  41  62  90 127 168 208 254 316 376
#
# _framework density 22.980801
#
# number of rings (size 3 to 8) (size 9 to 14) (size 15 to 20)
#    0.000    2.000    0.000    4.800    0.000    7.200 
#    0.000   29.000    0.000    4.800    0.000    0.000 
#    0.000    0.000    0.000    0.000    0.000    0.000 
#
# Total GULP energy -224041.047893 kJ/mol
# GULP energy per Si atom -5601.026197 kJ/mol
# Density = 2.292850 g / cm^3
# Si number density = 22.980801 Si / 1000 Ang^3
#
#
#
# Elastic Constant Matrix: (Units=GPa)
#
#
# Indices 1 2 3 4 5 6 
#
# 1 144.4704 39.6358 66.0398 0.0000 0.0000 0.0000
# 2 39.6358 54.0180 41.0132 0.0000 0.0000 0.0000
# 3 66.0398 41.0132 135.2809 0.0000 0.0000 0.0000
# 4 0.0000 0.0000 0.0000 38.4084 0.0000 0.0000
# 5 0.0000 0.0000 0.0000 0.0000 23.2337 0.0000
# 6 0.0000 0.0000 0.0000 0.0000 0.0000 22.1624
#
#
#
# Elastic Compliance Matrix: (Units=1/GPa)
#
#
# Indices 1 2 3 4 5 6 
#
# 1 0.009711 -0.004580 -0.003352 0.000000 0.000000 0.000000
# 2 -0.004580 0.026208 -0.005710 0.000000 0.000000 0.000000
# 3 -0.003352 -0.005710 0.010759 0.000000 0.000000 0.000000
# 4 0.000000 0.000000 0.000000 0.026036 0.000000 0.000000
# 5 0.000000 0.000000 0.000000 0.000000 0.043041 0.000000
# 6 0.000000 0.000000 0.000000 0.000000 0.000000 0.045121
#
#
# Mechanical properties :
#
#
# Convention : Reuss Voigt Hill
#
# Bulk Modulus (GPa) = 51.56064 69.68299 60.62181
# Shear Modulus (GPa) = 25.69046 29.23294 27.46170
#
# Velocity S-wave (km/s) = 3.34714 3.57046 3.46060
# Velocity P-wave (km/s) = 6.11743 6.88373 6.51186
#
# Compressibility (1/GPa) = 0.01939464
#
# Stress axis : x y z
#
# Youngs Moduli (GPa) = 102.98008 38.15599 92.94340
#
# Poissons Ratio (x) = 0.17477 0.31153
# Poissons Ratio (y) = 0.47168 0.53067
# Poissons Ratio (z) = 0.34517 0.21785
#
# Static dielectric constant tensor:
#      x y z
#    x 1.839710 0.000000 0.000000 
#    y 0.000000 1.903880 0.000000 
#    z 0.000000 0.000000 1.820950 
# 
# From -- ./inp_files/20384.got.cif
#   From: 2010.05.17/outbox.cif.g08.bks.cpg/sg56_11_cif.got.tgz:20384.got - 2010.06.03 13:42:01.
