data_PCOD9429091
_publ_section_title
;
Structure prediction by ZEFSAII (Michael W. Deem and Ramdas Pophale) SiO2 
 PCOD9429091
Probable space group: P B A M
;
_chemical_formula_sum "Si O2"
_cell_formula_units_Z 32
_cell_length_a 28.524585
_cell_length_b 4.884758
_cell_length_c 10.337032
_cell_angle_alpha 90.000000
_cell_angle_beta 90.000000
_cell_angle_gamma 90.000000
_cell_volume 1440.317536
_symmetry_space_group_name_H-M "P B A M"
_symmetry_group_IT_number 55
_symmetry_cell_setting 'orthorhombic'
loop_
_space_group_symop_operation_xyz
x,y,z
-x,-y,z
1/2+x,1/2-y,-z
1/2-x,1/2+y,-z
-x,-y,-z
x,y,-z
1/2-x,1/2+y,z
1/2+x,1/2-y,z
loop_
_atom_site_type_symbol
_atom_site_label
_atom_site_fract_x
_atom_site_fract_y
_atom_site_fract_z
Si Si1 0.500000 0.500000 0.713531
Si Si2 0.280935 0.879682 0.000000
Si Si3 0.941270 0.723647 0.500000
Si Si4 0.850480 0.432351 0.777420
Si Si5 0.627506 0.740190 0.500000
Si Si6 0.090877 0.067359 0.855079
O O1 0.475320 0.717555 0.620306
O O2 0.456119 0.425631 0.802410
O O3 0.309378 0.951778 0.868845
O O4 0.265454 0.566025 0.000000
O O5 0.896854 0.939703 0.500000
O O6 0.918865 0.428017 0.500000
O O7 0.844243 0.322457 0.630137
O O8 0.870800 0.169065 0.849778
O O9 0.888919 0.675898 0.775497
O O10 0.083368 0.168646 0.000000
#
# Coordination Sequence:
#
# PCOD9429091 Si02
#       6
#     4   4   4   8   4   8
#     4  11  23  38  58  96 135 187 232 272 300 360
#     4  12  26  48  76 101 124 161 212 272 342 420
#     4  11  24  36  62  87 139 184 233 261 310 366
#     4  12  24  44  70  98 131 170 215 270 338 391
#     4  12  22  45  64  97 131 182 215 271 322 385
#     4  12  23  41  62  94 138 179 225 275 311 376
#
# _framework density 22.217323
#
# number of rings (size 3 to 8) (size 9 to 14) (size 15 to 20)
#    0.000    0.250    7.500    1.875    0.000    5.000 
#    0.000    3.750    0.000    0.000    0.000    0.000 
#    0.000    0.000    0.000    0.000    0.000    0.000 
#
# Total GULP energy -178779.952205 kJ/mol
# GULP energy per Si atom -5586.873506 kJ/mol
# Density = 2.216676 g / cm^3
# Si number density = 22.217323 Si / 1000 Ang^3
#
#
#
# Elastic Constant Matrix: (Units=GPa)
#
#
# Indices 1 2 3 4 5 6 
#
# 1 68.3190 0.5400 34.3315 0.0000 0.0000 0.0000
# 2 0.5400 69.5092 -7.2908 0.0000 0.0000 0.0000
# 3 34.3315 -7.2908 150.4707 0.0000 0.0000 0.0000
# 4 0.0000 0.0000 0.0000 66.5287 0.0000 0.0000
# 5 0.0000 0.0000 0.0000 0.0000 -33.7290 0.0000
# 6 0.0000 0.0000 0.0000 0.0000 0.0000 37.3964
#
#
#
# Elastic Compliance Matrix: (Units=1/GPa)
#
#
# Indices 1 2 3 4 5 6 
#
# 1 0.016552 -0.000527 -0.003802 0.000000 0.000000 0.000000
# 2 -0.000527 0.014477 0.000822 0.000000 0.000000 0.000000
# 3 -0.003802 0.000822 0.007553 0.000000 0.000000 0.000000
# 4 0.000000 0.000000 0.000000 0.015031 0.000000 0.000000
# 5 0.000000 0.000000 0.000000 0.000000 -0.029648 0.000000
# 6 0.000000 0.000000 0.000000 0.000000 0.000000 0.026741
#
#
# Mechanical properties :
#
#
# Convention : Reuss Voigt Hill
#
# Bulk Modulus (GPa) = 31.67902 38.16226 34.92064
# Shear Modulus (GPa) = 73.26751 31.42044 52.34398
#
# Velocity S-wave (km/s) = 5.74885 3.76471 4.85913
# Velocity P-wave (km/s) = 7.63906 6.00928 6.87265
#
# Compressibility (1/GPa) = 0.03156664
#
# Stress axis : x y z
#
# Youngs Moduli (GPa) = 60.41572 69.07570 132.39574
#
# Poissons Ratio (x) = 0.03643 0.50338
# Poissons Ratio (y) = 0.03186 -0.10880
# Poissons Ratio (z) = 0.22970 -0.05676
#
# Static dielectric constant tensor:
#      x y z
#    x 1.826990 0.000000 0.000000 
#    y 0.000000 1.786700 0.000000 
#    z 0.000000 0.000000 1.916490 
# 
# From -- ./inp_files/11304.got.cif
#   From: 2010.05.17/outbox.cif.g08.bks.cpg/sg55_6_cif.got.tgz:11304.got - 2010.06.03 13:27:54.
