data_PCOD9429762
_publ_section_title
;
Structure prediction by ZEFSAII (Michael W. Deem and Ramdas Pophale) SiO2 
 PCOD9429762
Probable space group: P C C N
;
_chemical_formula_sum "Si O2"
_cell_formula_units_Z 40
_cell_length_a 4.902135
_cell_length_b 11.338770
_cell_length_c 32.489391
_cell_angle_alpha 90.000000
_cell_angle_beta 90.000000
_cell_angle_gamma 90.000000
_cell_volume 1805.896199
_symmetry_space_group_name_H-M "P C C N"
_symmetry_group_IT_number 56
_symmetry_cell_setting 'orthorhombic'
loop_
_space_group_symop_operation_xyz
x,y,z
1/2-x,1/2-y,z
1/2+x,-y,1/2-z
-x,1/2+y,1/2-z
-x,-y,-z
1/2+x,1/2+y,-z
1/2-x,y,1/2+z
x,1/2-y,1/2+z
loop_
_atom_site_type_symbol
_atom_site_label
_atom_site_fract_x
_atom_site_fract_y
_atom_site_fract_z
Si Si1 0.298032 0.119401 0.534548
Si Si2 0.873809 0.983058 0.138360
Si Si3 0.801000 0.533697 0.053831
Si Si4 0.347813 0.988563 0.776972
Si Si5 0.100317 0.129904 0.653784
O O1 0.250000 0.250000 0.550678
O O2 0.602129 0.075639 0.542498
O O3 0.103110 0.020293 0.554567
O O4 0.228363 0.115766 0.486014
O O5 0.806974 0.913392 0.096855
O O6 0.682058 0.099600 0.131334
O O7 0.180984 0.025933 0.145000
O O8 0.757619 0.939895 0.182529
O O9 0.580831 0.045038 0.748770
O O10 0.502914 0.879243 0.798713
O O11 0.250000 0.250000 0.645175
#
# Coordination Sequence:
#
# PCOD9429762 Si02
#       5
#     8   8   8   8   8
#     4  10  21  36  56  79 111 149 180 225 275 327
#     4  10  20  31  52  76 107 139 169 221 262 325
#     4  10  21  36  53  84 112 142 187 224 272 329
#     4  10  18  33  51  73 100 143 170 201 263 321
#     4  10  20  31  49  79 104 131 171 220 271 308
#
# _framework density 22.149668999999999
#
# number of rings (size 3 to 8) (size 9 to 14) (size 15 to 20)
#    1.200    0.800    2.000    2.400    0.000    4.800 
#    0.000    0.000    0.000    1.200    5.200    0.000 
#    0.000    0.000    0.000    0.000    0.000    0.000 
#
# Total GULP energy -222726.621779 kJ/mol
# GULP energy per Si atom -5568.165544 kJ/mol
# Density = 2.209926 g / cm^3
# Si number density = 22.149669 Si / 1000 Ang^3
#
#
#
# Elastic Constant Matrix: (Units=GPa)
#
#
# Indices 1 2 3 4 5 6 
#
# 1 109.6311 0.0923 24.3271 0.0000 0.0000 0.0000
# 2 0.0923 21.7460 -4.7560 0.0000 0.0000 0.0000
# 3 24.3271 -4.7560 173.1449 0.0000 0.0000 0.0000
# 4 0.0000 0.0000 0.0000 -3.5505 0.0000 0.0000
# 5 0.0000 0.0000 0.0000 0.0000 48.1503 0.0000
# 6 0.0000 0.0000 0.0000 0.0000 0.0000 9.9935
#
#
#
# Elastic Compliance Matrix: (Units=1/GPa)
#
#
# Indices 1 2 3 4 5 6 
#
# 1 0.009417 -0.000331 -0.001332 0.000000 0.000000 0.000000
# 2 -0.000331 0.046275 0.001318 0.000000 0.000000 0.000000
# 3 -0.001332 0.001318 0.005999 0.000000 0.000000 0.000000
# 4 0.000000 0.000000 0.000000 -0.281652 0.000000 0.000000
# 5 0.000000 0.000000 0.000000 0.000000 0.020768 0.000000
# 6 0.000000 0.000000 0.000000 0.000000 0.000000 0.100065
#
#
# Mechanical properties :
#
#
# Convention : Reuss Voigt Hill
#
# Bulk Modulus (GPa) = 16.39359 38.20542 27.29951
# Shear Modulus (GPa) = -64.01894 29.90924 -17.05485
#
# Velocity S-wave (km/s) = -5.38197 3.67866 -2.77787
# Velocity P-wave (km/s) = 5.58601 5.94387 1.43633
#
# Compressibility (1/GPa) = 0.06099945
#
# Stress axis : x y z
#
# Youngs Moduli (GPa) = 106.18631 21.60990 166.69756
#
# Poissons Ratio (x) = 0.00716 0.22208
# Poissons Ratio (y) = 0.03519 -0.21965
# Poissons Ratio (z) = 0.14147 -0.02847
#
# Static dielectric constant tensor:
#      x y z
#    x 1.771480 0.000000 0.000000 
#    y 0.000000 1.863980 0.000000 
#    z 0.000000 0.000000 1.976130 
# 
# From -- ./inp_files/22787.got.cif
#   From: 2010.05.17/outbox.cif.g08.bks.cpg/sg56_12_cif.got.tgz:22787.got - 2010.06.03 13:42:01.
