data_PCOD9429083
_publ_section_title
;
Structure prediction by ZEFSAII (Michael W. Deem and Ramdas Pophale) SiO2 
 PCOD9429083
Probable space group: P B A M
;
_chemical_formula_sum "Si O2"
_cell_formula_units_Z 40
_cell_length_a 9.496087
_cell_length_b 8.536635
_cell_length_c 21.336248
_cell_angle_alpha 90.000000
_cell_angle_beta 90.000000
_cell_angle_gamma 90.000000
_cell_volume 1729.615021
_symmetry_space_group_name_H-M "P B A M"
_symmetry_group_IT_number 55
_symmetry_cell_setting 'orthorhombic'
loop_
_space_group_symop_operation_xyz
x,y,z
-x,-y,z
1/2+x,1/2-y,-z
1/2-x,1/2+y,-z
-x,-y,-z
x,y,-z
1/2-x,1/2+y,z
1/2+x,1/2-y,z
loop_
_atom_site_type_symbol
_atom_site_label
_atom_site_fract_x
_atom_site_fract_y
_atom_site_fract_z
Si Si1 0.343183 0.571793 0.732134
Si Si2 0.164059 0.356977 0.348401
Si Si3 0.291755 0.562922 0.123073
Si Si4 0.049092 0.759382 0.073710
Si Si5 0.058928 0.820417 0.573780
O O1 0.500000 0.500000 0.723013
O O2 0.352439 0.752159 0.714134
O O3 0.226255 0.512706 0.682795
O O4 0.297776 0.537559 0.802692
O O5 0.286032 0.315925 0.398007
O O6 0.027128 0.311057 0.388031
O O7 0.139739 0.615787 0.099688
O O8 0.354880 0.413411 0.087227
O O9 0.403339 0.702254 0.108157
O O10 0.024139 0.743083 0.000000
O O11 0.055904 0.787688 0.500000
O O12 0.000000 0.000000 0.582346
#
# Coordination Sequence:
#
# PCOD9429083 Si02
#       5
#     8   8   8   8   8
#     4  12  24  44  66  94 139 169 220 270 327 392
#     4  12  22  45  67  97 132 179 213 273 329 383
#     4  11  24  42  65  97 130 175 217 268 328 390
#     4  11  22  42  68  96 133 171 217 271 330 388
#     4  11  24  45  68  98 136 172 218 272 327 389
#
# _framework density 23.126532999999998
#
# number of rings (size 3 to 8) (size 9 to 14) (size 15 to 20)
#    0.000    0.600    6.000    4.200    0.000    1.600 
#    0.000    5.000    0.000    0.000    0.000    0.000 
#    0.000    0.000    0.000    0.000    0.000    0.000 
#
# Total GULP energy -223594.058685 kJ/mol
# GULP energy per Si atom -5589.851467 kJ/mol
# Density = 2.307390 g / cm^3
# Si number density = 23.126533 Si / 1000 Ang^3
#
#
#
# Elastic Constant Matrix: (Units=GPa)
#
#
# Indices 1 2 3 4 5 6 
#
# 1 96.3492 12.8489 23.7293 0.0000 0.0000 0.0000
# 2 12.8489 31.4644 4.2120 0.0000 0.0000 0.0000
# 3 23.7293 4.2120 158.5083 0.0000 0.0000 0.0000
# 4 0.0000 0.0000 0.0000 19.1784 0.0000 0.0000
# 5 0.0000 0.0000 0.0000 0.0000 -3.6050 0.0000
# 6 0.0000 0.0000 0.0000 0.0000 0.0000 31.5835
#
#
#
# Elastic Compliance Matrix: (Units=1/GPa)
#
#
# Indices 1 2 3 4 5 6 
#
# 1 0.011359 -0.004427 -0.001583 0.000000 0.000000 0.000000
# 2 -0.004427 0.033621 -0.000231 0.000000 0.000000 0.000000
# 3 -0.001583 -0.000231 0.006552 0.000000 0.000000 0.000000
# 4 0.000000 0.000000 0.000000 0.052142 0.000000 0.000000
# 5 0.000000 0.000000 0.000000 0.000000 -0.277391 0.000000
# 6 0.000000 0.000000 0.000000 0.000000 0.000000 0.031662
#
#
# Mechanical properties :
#
#
# Convention : Reuss Voigt Hill
#
# Bulk Modulus (GPa) = 25.60759 40.87803 33.24281
# Shear Modulus (GPa) = -42.89715 25.80015 -8.54850
#
# Velocity S-wave (km/s) = -4.31151 3.34370 -1.92469
# Velocity P-wave (km/s) = 3.69982 5.71150 3.07673
#
# Compressibility (1/GPa) = 0.03905092
#
# Stress axis : x y z
#
# Youngs Moduli (GPa) = 88.03520 29.74373 152.62725
#
# Poissons Ratio (x) = 0.13167 0.24159
# Poissons Ratio (y) = 0.38971 0.03521
# Poissons Ratio (z) = 0.13935 0.00686
#
# Static dielectric constant tensor:
#      x y z
#    x 2.423040 0.000000 0.000000 
#    y 0.000000 1.861850 0.000000 
#    z 0.000000 0.000000 1.773700 
# 
# From -- ./inp_files/23415.got.cif
#   From: 2010.05.17/outbox.cif.g08.bks.cpg/sg55_12_cif.got.tgz:23415.got - 2010.06.03 13:27:54.
