data_PCOD9429754
_publ_section_title
;
Structure prediction by ZEFSAII (Michael W. Deem and Ramdas Pophale) SiO2 
 PCOD9429754
Probable space group: P C C N
;
_chemical_formula_sum "Si O2"
_cell_formula_units_Z 60
_cell_length_a 7.872707
_cell_length_b 26.612648
_cell_length_c 11.248387
_cell_angle_alpha 90.000000
_cell_angle_beta 90.000000
_cell_angle_gamma 90.000000
_cell_volume 2356.689832
_symmetry_space_group_name_H-M "P C C N"
_symmetry_group_IT_number 56
_symmetry_cell_setting 'orthorhombic'
loop_
_space_group_symop_operation_xyz
x,y,z
1/2-x,1/2-y,z
1/2+x,-y,1/2-z
-x,1/2+y,1/2-z
-x,-y,-z
1/2+x,1/2+y,-z
1/2-x,y,1/2+z
x,1/2-y,1/2+z
loop_
_atom_site_type_symbol
_atom_site_label
_atom_site_fract_x
_atom_site_fract_y
_atom_site_fract_z
Si Si1 0.068751 0.822232 0.700549
Si Si2 0.522897 0.152081 0.323697
Si Si3 0.034242 0.663149 0.942146
Si Si4 0.273000 0.937639 0.921007
Si Si5 0.442374 0.372415 0.061531
Si Si6 0.524475 0.039958 0.281554
Si Si7 0.250000 0.750000 0.346442
Si Si8 0.253613 0.030650 0.583116
O O1 0.268847 0.840963 0.682738
O O2 0.973565 0.823037 0.574470
O O3 0.100621 0.767762 0.758282
O O4 0.970863 0.851486 0.805144
O O5 0.455352 0.167386 0.191513
O O6 0.454627 0.168355 0.454137
O O7 0.468314 0.093257 0.331326
O O8 0.089177 0.604941 0.954022
O O9 0.191324 0.702645 0.923961
O O10 0.298527 0.945604 0.782034
O O11 0.105313 0.908423 0.953629
O O12 0.291610 0.992068 0.978862
O O13 0.285835 0.411054 0.056488
O O14 0.392117 0.026473 0.180683
O O15 0.572820 0.994283 0.365210
#
# Coordination Sequence:
#
# PCOD9429754 Si02
#       8
#     8   8   8   8   8   8   4   8
#     4  11  19  36  61  91 126 163 204 268 324 387
#     4  10  19  38  57  77 119 163 201 251 317 371
#     4  10  20  34  61  88 127 165 204 264 328 386
#     4  11  21  41  59  82 125 171 214 268 321 375
#     4  12  22  37  60  86 123 170 213 263 318 377
#     4  11  23  39  56  87 121 166 224 269 316 376
#     4  10  18  32  58  98 126 158 208 258 342 396
#     4  12  26  36  60  85 123 175 226 270 318 381
#
# _framework density 25.459439
#
# number of rings (size 3 to 8) (size 9 to 14) (size 15 to 20)
#    0.000    1.067    6.667    2.000    3.733    1.067 
#    0.000    0.000    0.000    0.000    0.000    8.400 
#    0.000   38.400    0.000    0.000    0.000    0.000 
#
# Total GULP energy -334533.464760 kJ/mol
# GULP energy per Si atom -5575.557746 kJ/mol
# Density = 2.540149 g / cm^3
# Si number density = 25.459439 Si / 1000 Ang^3
#
#
#
# Elastic Constant Matrix: (Units=GPa)
#
#
# Indices 1 2 3 4 5 6 
#
# 1 68.8265 15.4323 14.7311 0.0000 0.0000 0.0000
# 2 15.4323 86.6094 39.5489 0.0000 0.0000 0.0000
# 3 14.7311 39.5489 203.0538 0.0000 0.0000 0.0000
# 4 0.0000 0.0000 0.0000 29.5140 0.0000 0.0000
# 5 0.0000 0.0000 0.0000 0.0000 14.3174 0.0000
# 6 0.0000 0.0000 0.0000 0.0000 0.0000 15.6005
#
#
#
# Elastic Compliance Matrix: (Units=1/GPa)
#
#
# Indices 1 2 3 4 5 6 
#
# 1 0.015207 -0.002421 -0.000632 0.000000 0.000000 0.000000
# 2 -0.002421 0.013059 -0.002368 0.000000 0.000000 0.000000
# 3 -0.000632 -0.002368 0.005432 0.000000 0.000000 0.000000
# 4 0.000000 0.000000 0.000000 0.033882 0.000000 0.000000
# 5 0.000000 0.000000 0.000000 0.000000 0.069845 0.000000
# 6 0.000000 0.000000 0.000000 0.000000 0.000000 0.064100
#
#
# Mechanical properties :
#
#
# Convention : Reuss Voigt Hill
#
# Bulk Modulus (GPa) = 43.75129 55.32382 49.53755
# Shear Modulus (GPa) = 22.72873 31.13821 26.93347
#
# Velocity S-wave (km/s) = 2.99112 3.50101 3.25606
# Velocity P-wave (km/s) = 5.39917 6.17415 5.79962
#
# Compressibility (1/GPa) = 0.02285647
#
# Stress axis : x y z
#
# Youngs Moduli (GPa) = 65.75755 76.57706 184.10080
#
# Poissons Ratio (x) = 0.18541 0.11629
# Poissons Ratio (y) = 0.15922 0.43591
# Poissons Ratio (z) = 0.04154 0.18132
#
# Static dielectric constant tensor:
#      x y z
#    x 2.095600 0.000000 0.000000 
#    y 0.000000 2.054510 0.000000 
#    z 0.000000 0.000000 2.158930 
# 
# From -- ./inp_files/6559.got.cif
#   From: 2010.05.17/outbox.cif.g08.bks.cpg/sg56_4_cif.got.tgz:6559.got - 2010.06.03 13:42:01.
