data_PCOD9429710
_publ_section_title
;
Structure prediction by ZEFSAII (Michael W. Deem and Ramdas Pophale) SiO2 
 PCOD9429710
Probable space group: P C C N
;
_chemical_formula_sum "Si O2"
_cell_formula_units_Z 64
_cell_length_a 11.952904
_cell_length_b 11.556378
_cell_length_c 20.421835
_cell_angle_alpha 90.000000
_cell_angle_beta 90.000000
_cell_angle_gamma 90.000000
_cell_volume 2820.914565
_symmetry_space_group_name_H-M "P C C N"
_symmetry_group_IT_number 56
_symmetry_cell_setting 'orthorhombic'
loop_
_space_group_symop_operation_xyz
x,y,z
1/2-x,1/2-y,z
1/2+x,-y,1/2-z
-x,1/2+y,1/2-z
-x,-y,-z
1/2+x,1/2+y,-z
1/2-x,y,1/2+z
x,1/2-y,1/2+z
loop_
_atom_site_type_symbol
_atom_site_label
_atom_site_fract_x
_atom_site_fract_y
_atom_site_fract_z
Si Si1 0.196098 0.035295 0.499633
Si Si2 0.348818 0.655450 0.974782
Si Si3 0.743445 0.882425 0.640755
Si Si4 0.882833 0.131983 0.305492
Si Si5 0.561796 0.446719 0.161247
Si Si6 0.991048 0.153783 0.545082
Si Si7 0.617239 0.111077 0.318073
Si Si8 0.444161 0.944117 0.826880
O O1 0.296766 0.947489 0.518638
O O2 0.095662 0.946518 0.478330
O O3 0.244331 0.104412 0.437569
O O4 0.121568 0.123406 0.541210
O O5 0.250000 0.750000 0.968577
O O6 0.381105 0.605543 0.903552
O O7 0.457097 0.730531 0.993990
O O8 0.750000 0.750000 0.660201
O O9 0.839724 0.969503 0.664829
O O10 0.630587 0.934251 0.669294
O O11 0.918844 0.124714 0.228292
O O12 0.751322 0.108170 0.312470
O O13 0.908294 0.256195 0.338715
O O14 0.951097 0.028570 0.338112
O O15 0.437206 0.496617 0.149748
O O16 0.955074 0.158095 0.620997
O O17 0.567628 0.103746 0.244986
#
# Coordination Sequence:
#
# PCOD9429710 Si02
#       8
#     8   8   8   8   8   8   8   8
#     4   8  17  30  51  82 104 131 177 234 268 330
#     4   9  17  29  56  84 105 142 185 222 280 328
#     4  10  18  31  53  76 106 135 180 224 278 324
#     4  10  20  32  52  73 113 147 178 223 275 319
#     4  10  19  31  51  80 109 139 184 229 258 331
#     4   9  16  31  55  76 108 134 182 229 275 321
#     4  10  20  33  51  76 112 146 183 221 273 320
#     4  10  19  32  52  82 104 145 183 225 270 327
#
# _framework density 22.687677000000001
#
# number of rings (size 3 to 8) (size 9 to 14) (size 15 to 20)
#    0.000    2.500    1.250    2.250    1.750    0.000 
#    0.000    0.000   24.750    1.500    0.000    0.000 
#    0.000    0.000    0.000    0.000    0.000    0.000 
#
# Total GULP energy -356500.621755 kJ/mol
# GULP energy per Si atom -5570.322215 kJ/mol
# Density = 2.263604 g / cm^3
# Si number density = 22.687677 Si / 1000 Ang^3
#
#
#
# Elastic Constant Matrix: (Units=GPa)
#
#
# Indices 1 2 3 4 5 6 
#
# 1 82.6054 28.6364 12.3250 0.0000 0.0000 0.0000
# 2 28.6364 58.6258 -4.2872 0.0000 0.0000 0.0000
# 3 12.3250 -4.2872 32.1149 0.0000 0.0000 0.0000
# 4 0.0000 0.0000 0.0000 -9.1795 0.0000 0.0000
# 5 0.0000 0.0000 0.0000 0.0000 8.2424 0.0000
# 6 0.0000 0.0000 0.0000 0.0000 0.0000 29.1339
#
#
#
# Elastic Compliance Matrix: (Units=1/GPa)
#
#
# Indices 1 2 3 4 5 6 
#
# 1 0.016108 -0.008402 -0.007304 0.000000 0.000000 0.000000
# 2 -0.008402 0.021608 0.006109 0.000000 0.000000 0.000000
# 3 -0.007304 0.006109 0.034757 0.000000 0.000000 0.000000
# 4 0.000000 0.000000 0.000000 -0.108938 0.000000 0.000000
# 5 0.000000 0.000000 0.000000 0.000000 0.121323 0.000000
# 6 0.000000 0.000000 0.000000 0.000000 0.000000 0.034324
#
#
# Mechanical properties :
#
#
# Convention : Reuss Voigt Hill
#
# Bulk Modulus (GPa) = 18.76886 27.41050 23.08968
# Shear Modulus (GPa) = 32.02325 14.75082 23.38704
#
# Velocity S-wave (km/s) = 3.76105 2.55261 3.21413
# Velocity P-wave (km/s) = 5.21069 4.56022 4.89627
#
# Compressibility (1/GPa) = 0.05327975
#
# Stress axis : x y z
#
# Youngs Moduli (GPa) = 62.07979 46.27846 28.77139
#
# Poissons Ratio (x) = 0.38885 0.21014
# Poissons Ratio (y) = 0.52162 -0.17577
# Poissons Ratio (z) = 0.45341 -0.28273
#
# Static dielectric constant tensor:
#      x y z
#    x 2.029750 0.000000 0.000000 
#    y 0.000000 1.897100 0.000000 
#    z 0.000000 0.000000 1.878060 
# 
# From -- ./inp_files/22359.got.cif
#   From: 2010.05.17/outbox.cif.g08.bks.cpg/sg56_12_cif.got.tgz:22359.got - 2010.06.03 13:42:01.
