data_PCOD9429619
_publ_section_title
;
Structure prediction by ZEFSAII (Michael W. Deem and Ramdas Pophale) SiO2 
 PCOD9429619
Probable space group: P C C N
;
_chemical_formula_sum "Si O2"
_cell_formula_units_Z 64
_cell_length_a 12.577885
_cell_length_b 9.843871
_cell_length_c 21.032005
_cell_angle_alpha 90.000000
_cell_angle_beta 90.000000
_cell_angle_gamma 90.000000
_cell_volume 2604.079327
_symmetry_space_group_name_H-M "P C C N"
_symmetry_group_IT_number 56
_symmetry_cell_setting 'orthorhombic'
loop_
_space_group_symop_operation_xyz
x,y,z
1/2-x,1/2-y,z
1/2+x,-y,1/2-z
-x,1/2+y,1/2-z
-x,-y,-z
1/2+x,1/2+y,-z
1/2-x,y,1/2+z
x,1/2-y,1/2+z
loop_
_atom_site_type_symbol
_atom_site_label
_atom_site_fract_x
_atom_site_fract_y
_atom_site_fract_z
Si Si1 0.620449 0.973378 0.743896
Si Si2 0.058805 0.401654 0.116230
Si Si3 0.117130 0.452610 0.446775
Si Si4 0.995765 0.180736 0.399379
Si Si5 0.636991 0.266672 0.687457
Si Si6 0.713866 0.604997 0.648180
Si Si7 0.099305 0.612056 0.685171
Si Si8 0.598352 0.893536 0.417529
O O1 0.614129 0.952488 0.818715
O O2 0.728050 0.914307 0.714653
O O3 0.523143 0.895156 0.709665
O O4 0.600882 0.125848 0.718845
O O5 0.046480 0.537085 0.073063
O O6 0.948223 0.335493 0.142168
O O7 0.113709 0.267588 0.087952
O O8 0.054848 0.305313 0.436437
O O9 0.217467 0.482051 0.401713
O O10 0.153386 0.451529 0.519493
O O11 0.025556 0.562687 0.430785
O O12 0.087803 0.116529 0.353362
O O13 0.902891 0.259793 0.362206
O O14 0.750000 0.250000 0.655162
O O15 0.659476 0.359261 0.749860
O O16 0.750000 0.750000 0.623386
O O17 0.127217 0.477821 0.645698
#
# Coordination Sequence:
#
# PCOD9429619 Si02
#       8
#     8   8   8   8   8   8   8   8
#     4  11  19  34  54  86 117 147 193 231 279 356
#     4  11  22  33  58  86 120 149 193 237 287 348
#     4   9  19  35  60  80 105 145 198 237 291 342
#     4  10  19  35  58  85 110 150 185 248 285 330
#     4  11  22  35  55  82 124 157 190 234 284 350
#     4  10  17  33  58  84 112 146 193 241 285 329
#     4  10  19  37  56  78 114 155 192 224 290 353
#     4  10  19  37  58  81 108 151 192 238 284 350
#
# _framework density 24.576824999999999
#
# number of rings (size 3 to 8) (size 9 to 14) (size 15 to 20)
#    0.000    1.750    6.250    0.750    0.000    0.500 
#    2.250    0.000    8.250    0.000    0.000    0.000 
#    0.000    0.000    0.000    0.000    0.000    0.000 
#
# Total GULP energy -357070.708998 kJ/mol
# GULP energy per Si atom -5579.229828 kJ/mol
# Density = 2.452089 g / cm^3
# Si number density = 24.576825 Si / 1000 Ang^3
#
#
#
# Elastic Constant Matrix: (Units=GPa)
#
#
# Indices 1 2 3 4 5 6 
#
# 1 50.9822 1.6140 -3.9870 0.0000 0.0000 0.0000
# 2 1.6140 149.1305 -0.7068 0.0000 0.0000 0.0000
# 3 -3.9870 -0.7068 50.7427 0.0000 0.0000 0.0000
# 4 0.0000 0.0000 0.0000 22.2126 0.0000 0.0000
# 5 0.0000 0.0000 0.0000 0.0000 -6.2440 0.0000
# 6 0.0000 0.0000 0.0000 0.0000 0.0000 17.2005
#
#
#
# Elastic Compliance Matrix: (Units=1/GPa)
#
#
# Indices 1 2 3 4 5 6 
#
# 1 0.019742 -0.000206 0.001548 0.000000 0.000000 0.000000
# 2 -0.000206 0.006708 0.000077 0.000000 0.000000 0.000000
# 3 0.001548 0.000077 0.019830 0.000000 0.000000 0.000000
# 4 0.000000 0.000000 0.000000 0.045020 0.000000 0.000000
# 5 0.000000 0.000000 0.000000 0.000000 -0.160153 0.000000
# 6 0.000000 0.000000 0.000000 0.000000 0.000000 0.058138
#
#
# Mechanical properties :
#
#
# Convention : Reuss Voigt Hill
#
# Bulk Modulus (GPa) = 20.35877 27.18843 23.77360
# Shear Modulus (GPa) = 1773.55270 23.56283 898.55777
#
# Velocity S-wave (km/s) = 26.89243 3.09971 19.14172
# Velocity P-wave (km/s) = 31.18609 4.88852 22.32118
#
# Compressibility (1/GPa) = 0.04911889
#
# Stress axis : x y z
#
# Youngs Moduli (GPa) = 50.65263 149.07276 50.42866
#
# Poissons Ratio (x) = 0.03076 -0.07808
# Poissons Ratio (y) = 0.01045 -0.00389
# Poissons Ratio (z) = -0.07843 -0.01151
#
# Static dielectric constant tensor:
#      x y z
#    x 2.833140 0.000000 0.000000 
#    y 0.000000 2.083580 0.000000 
#    z 0.000000 0.000000 1.944370 
# 
# From -- ./inp_files/21159.got.cif
#   From: 2010.05.17/outbox.cif.g08.bks.cpg/sg56_11_cif.got.tgz:21159.got - 2010.06.03 13:42:01.
