data_PCOD9429229
_publ_section_title
;
Structure prediction by ZEFSAII (Michael W. Deem and Ramdas Pophale) SiO2 
 PCOD9429229
Probable space group: P B A M
;
_chemical_formula_sum "Si O2"
_cell_formula_units_Z 40
_cell_length_a 6.946066
_cell_length_b 16.224042
_cell_length_c 14.230471
_cell_angle_alpha 90.000000
_cell_angle_beta 90.000000
_cell_angle_gamma 90.000000
_cell_volume 1603.678261
_symmetry_space_group_name_H-M "P B A M"
_symmetry_group_IT_number 55
_symmetry_cell_setting 'orthorhombic'
loop_
_space_group_symop_operation_xyz
x,y,z
-x,-y,z
1/2+x,1/2-y,-z
1/2-x,1/2+y,-z
-x,-y,-z
x,y,-z
1/2-x,1/2+y,z
1/2+x,1/2-y,z
loop_
_atom_site_type_symbol
_atom_site_label
_atom_site_fract_x
_atom_site_fract_y
_atom_site_fract_z
Si Si1 0.781422 0.933067 0.000000
Si Si2 0.353770 0.880001 0.000000
Si Si3 0.666011 0.373072 0.399016
Si Si4 0.894895 0.681349 0.196328
Si Si5 0.162304 0.127519 0.196493
Si Si6 0.610369 0.178424 0.398962
O O1 0.886016 0.915113 0.098140
O O2 0.587773 0.877232 0.000000
O O3 0.710102 0.026085 0.000000
O O4 0.293925 0.840654 0.901341
O O5 0.616186 0.411456 0.500000
O O6 0.615233 0.411256 0.298088
O O7 0.591027 0.277975 0.399144
O O8 0.897817 0.360357 0.399111
O O9 0.917394 0.779558 0.195873
O O10 0.801633 0.657730 0.297057
O O11 0.104286 0.638587 0.196569
O O12 0.701600 0.156041 0.500000
#
# Coordination Sequence:
#
# PCOD9429229 Si02
#       6
#     4   4   8   8   8   8
#     4   9  17  28  41  57  78 105 134 160 190 231
#     4   9  17  28  41  57  78 105 134 160 190 231
#     4   8  13  21  34  54  78  99 120 150 188 226
#     4   9  16  26  42  61  79 101 129 161 193 226
#     4   9  16  26  42  61  79 101 129 161 193 226
#     4   8  13  21  34  54  78  99 120 150 188 226
#
# _framework density 24.942661000000001
#
# number of rings (size 3 to 8) (size 9 to 14) (size 15 to 20)
#    0.000    3.400    0.000    0.600    0.000    0.000 
#    0.000    0.000    0.000    3.600    0.000    8.400 
#    0.000    0.000    0.000   64.800    0.000   30.400 
#
# Total GULP energy -223093.270305 kJ/mol
# GULP energy per Si atom -5577.331758 kJ/mol
# Density = 2.488589 g / cm^3
# Si number density = 24.942661 Si / 1000 Ang^3
#
#
#
# Elastic Constant Matrix: (Units=GPa)
#
#
# Indices 1 2 3 4 5 6 
#
# 1 86.1682 -1.4730 24.5439 0.0000 0.0000 0.0000
# 2 -1.4730 13.5905 55.5612 0.0000 0.0000 0.0000
# 3 24.5439 55.5612 382.1357 0.0000 0.0000 0.0000
# 4 0.0000 0.0000 0.0000 -29.0471 0.0000 0.0000
# 5 0.0000 0.0000 0.0000 0.0000 24.0630 0.0000
# 6 0.0000 0.0000 0.0000 0.0000 0.0000 18.5052
#
#
#
# Elastic Compliance Matrix: (Units=1/GPa)
#
#
# Indices 1 2 3 4 5 6 
#
# 1 0.012503 0.011436 -0.002466 0.000000 0.000000 0.000000
# 2 0.011436 0.191878 -0.028633 0.000000 0.000000 0.000000
# 3 -0.002466 -0.028633 0.006938 0.000000 0.000000 0.000000
# 4 0.000000 0.000000 0.000000 -0.034427 0.000000 0.000000
# 5 0.000000 0.000000 0.000000 0.000000 0.041558 0.000000
# 6 0.000000 0.000000 0.000000 0.000000 0.000000 0.054039
#
#
# Mechanical properties :
#
#
# Convention : Reuss Voigt Hill
#
# Bulk Modulus (GPa) = 5.81417 71.01762 38.41590
# Shear Modulus (GPa) = 13.54477 29.58838 21.56658
#
# Velocity S-wave (km/s) = 2.33284 3.44794 2.94368
# Velocity P-wave (km/s) = 3.09714 6.66223 5.19507
#
# Compressibility (1/GPa) = 0.17199364
#
# Stress axis : x y z
#
# Youngs Moduli (GPa) = 79.98059 5.21164 144.12612
#
# Poissons Ratio (x) = -0.05960 0.35538
# Poissons Ratio (y) = -0.91464 4.12675
# Poissons Ratio (z) = 0.19721 0.14922
#
# Static dielectric constant tensor:
#      x y z
#    x 1.997430 0.000000 0.000000 
#    y 0.000000 1.861480 0.000000 
#    z 0.000000 0.000000 2.050800 
# 
# From -- ./inp_files/17113.got.cif
#   From: 2010.05.17/outbox.cif.g08.bks.cpg/sg55_9_cif.got.tgz:17113.got - 2010.06.03 13:27:54.
