data_PCOD9429245
_publ_section_title
;
Structure prediction by ZEFSAII (Michael W. Deem and Ramdas Pophale) SiO2 
 PCOD9429245
Probable space group: P B A M
;
_chemical_formula_sum "Si O2"
_cell_formula_units_Z 48
_cell_length_a 26.231966
_cell_length_b 6.842234
_cell_length_c 12.133794
_cell_angle_alpha 90.000000
_cell_angle_beta 90.000000
_cell_angle_gamma 90.000000
_cell_volume 2177.837045
_symmetry_space_group_name_H-M "P B A M"
_symmetry_group_IT_number 55
_symmetry_cell_setting 'orthorhombic'
loop_
_space_group_symop_operation_xyz
x,y,z
-x,-y,z
1/2+x,1/2-y,-z
1/2-x,1/2+y,-z
-x,-y,-z
x,y,-z
1/2-x,1/2+y,z
1/2+x,1/2-y,z
loop_
_atom_site_type_symbol
_atom_site_label
_atom_site_fract_x
_atom_site_fract_y
_atom_site_fract_z
Si Si1 0.676006 0.414653 0.626166
Si Si2 0.792767 0.464568 0.626433
Si Si3 0.113071 0.636466 0.737664
Si Si4 0.539218 0.289003 0.500000
Si Si5 0.430560 0.168213 0.500000
Si Si6 0.082894 0.180346 0.739725
Si Si7 0.015176 0.730996 0.128300
O O1 0.660979 0.472766 0.500000
O O2 0.732941 0.488331 0.649570
O O3 0.683119 0.179905 0.619220
O O4 0.635352 0.442724 0.725088
O O5 0.795667 0.382631 0.500000
O O6 0.825327 0.357758 0.722339
O O7 0.098387 0.688739 0.612826
O O8 0.099844 0.406406 0.758232
O O9 0.070590 0.745637 0.812491
O O10 0.478797 0.308264 0.500000
O O11 0.561554 0.348248 0.383516
O O12 0.550809 0.055573 0.500000
O O13 0.034008 0.159092 0.819133
O O14 0.000000 0.500000 0.138470
O O15 0.020165 0.777410 0.000000
#
# Coordination Sequence:
#
# PCOD9429245 Si02
#       7
#     8   8   8   4   4   8   8
#     4   9  16  25  38  58  83 109 135 162 194 234
#     4   9  16  25  38  58  83 109 135 162 194 234
#     4   9  14  21  34  52  77 103 128 159 196 239
#     4   9  12  16  29  50  73  97 121 152 197 240
#     4   9  12  16  29  50  73  97 121 152 197 240
#     4   9  14  21  34  52  77 103 128 159 196 239
#     4   9  16  23  33  53  80 106 128 158 204 246
#
# _framework density 22.040216000000001
#
# number of rings (size 3 to 8) (size 9 to 14) (size 15 to 20)
#    0.000    3.000    3.333    0.000    0.000    0.000 
#    0.000    0.000    0.000    1.000    0.000    1.167 
#    0.000    8.000    0.000    0.000    0.000    0.000 
#
# Total GULP energy -267587.294424 kJ/mol
# GULP energy per Si atom -5574.735301 kJ/mol
# Density = 2.199005 g / cm^3
# Si number density = 22.040216 Si / 1000 Ang^3
#
#
#
# Elastic Constant Matrix: (Units=GPa)
#
#
# Indices 1 2 3 4 5 6 
#
# 1 175.8622 24.1323 81.7874 0.0000 0.0000 0.0000
# 2 24.1323 71.1106 5.4162 0.0000 0.0000 0.0000
# 3 81.7874 5.4162 107.5447 0.0000 0.0000 0.0000
# 4 0.0000 0.0000 0.0000 10.6669 0.0000 0.0000
# 5 0.0000 0.0000 0.0000 0.0000 12.4560 0.0000
# 6 0.0000 0.0000 0.0000 0.0000 0.0000 39.9852
#
#
#
# Elastic Compliance Matrix: (Units=1/GPa)
#
#
# Indices 1 2 3 4 5 6 
#
# 1 0.009258 -0.002616 -0.006909 0.000000 0.000000 0.000000
# 2 -0.002616 0.014856 0.001241 0.000000 0.000000 0.000000
# 3 -0.006909 0.001241 0.014490 0.000000 0.000000 0.000000
# 4 0.000000 0.000000 0.000000 0.093748 0.000000 0.000000
# 5 0.000000 0.000000 0.000000 0.000000 0.080283 0.000000
# 6 0.000000 0.000000 0.000000 0.000000 0.000000 0.025009
#
#
# Mechanical properties :
#
#
# Convention : Reuss Voigt Hill
#
# Bulk Modulus (GPa) = 45.37868 64.13213 54.75540
# Shear Modulus (GPa) = 19.11623 28.83373 23.97498
#
# Velocity S-wave (km/s) = 2.94825 3.62087 3.30173
# Velocity P-wave (km/s) = 5.67656 6.82949 6.27954
#
# Compressibility (1/GPa) = 0.02203678
#
# Stress axis : x y z
#
# Youngs Moduli (GPa) = 108.00899 67.31400 69.01088
#
# Poissons Ratio (x) = 0.17608 0.47682
# Poissons Ratio (y) = 0.28252 -0.08565
# Poissons Ratio (z) = 0.74627 -0.08354
#
# Static dielectric constant tensor:
#      x y z
#    x 1.934380 0.000000 0.000000 
#    y 0.000000 2.032180 0.000000 
#    z 0.000000 0.000000 1.708680 
# 
# From -- ./inp_files/15691.got.cif
#   From: 2010.05.17/outbox.cif.g08.bks.cpg/sg55_8_cif.got.tgz:15691.got - 2010.06.03 13:27:54.
