data_PCOD9429922
_publ_section_title
;
Structure prediction by ZEFSAII (Michael W. Deem and Ramdas Pophale) SiO2 
 PCOD9429922
Probable space group: P C C N
;
_chemical_formula_sum "Si O2"
_cell_formula_units_Z 40
_cell_length_a 11.786880
_cell_length_b 8.016453
_cell_length_c 19.792881
_cell_angle_alpha 90.000000
_cell_angle_beta 90.000000
_cell_angle_gamma 90.000000
_cell_volume 1870.208930
_symmetry_space_group_name_H-M "P C C N"
_symmetry_group_IT_number 56
_symmetry_cell_setting 'orthorhombic'
loop_
_space_group_symop_operation_xyz
x,y,z
1/2-x,1/2-y,z
1/2+x,-y,1/2-z
-x,1/2+y,1/2-z
-x,-y,-z
1/2+x,1/2+y,-z
1/2-x,y,1/2+z
x,1/2-y,1/2+z
loop_
_atom_site_type_symbol
_atom_site_label
_atom_site_fract_x
_atom_site_fract_y
_atom_site_fract_z
Si Si1 0.750000 0.250000 0.992364
Si Si2 0.855616 0.528620 0.577260
Si Si3 0.530820 0.932219 0.204490
Si Si4 0.505235 0.163817 0.950898
Si Si5 0.117432 0.797113 0.814398
Si Si6 0.250000 0.250000 0.305886
O O1 0.733313 0.421242 0.034564
O O2 0.632802 0.231755 0.953985
O O3 0.926477 0.384033 0.616292
O O4 0.794785 0.610123 0.641963
O O5 0.920906 0.675868 0.537723
O O6 0.517208 0.879744 0.126881
O O7 0.420843 0.905831 0.250463
O O8 0.641977 0.830559 0.231271
O O9 0.558128 0.124476 0.201218
O O10 0.500000 0.000000 0.000000
O O11 0.250000 0.750000 0.820220
#
# Coordination Sequence:
#
# PCOD9429922 Si02
#       6
#     4   8   8   8   8   4
#     4  12  22  40  66  94 134 184 226 290 346 414
#     4  11  21  42  68  97 132 185 234 273 357 427
#     4  11  24  41  66 102 134 175 232 282 350 412
#     4  11  25  42  66 101 139 178 231 290 348 428
#     4  12  24  44  73  97 137 184 229 292 353 428
#     4  10  18  38  64  94 128 176 218 276 334 426
#
# _framework density 21.387985
#
# number of rings (size 3 to 8) (size 9 to 14) (size 15 to 20)
#    0.000    0.800    3.000    6.600    1.400    0.000 
#    0.000    0.000    0.000    0.000    0.000    0.000 
#    0.000    0.000    0.000    0.000    0.000    0.000 
#
# Total GULP energy -223115.191605 kJ/mol
# GULP energy per Si atom -5577.879790 kJ/mol
# Density = 2.133931 g / cm^3
# Si number density = 21.387985 Si / 1000 Ang^3
#
#
#
# Elastic Constant Matrix: (Units=GPa)
#
#
# Indices 1 2 3 4 5 6 
#
# 1 90.9203 38.7738 26.4287 0.0000 0.0000 0.0000
# 2 38.7738 131.1899 22.2780 0.0000 0.0000 0.0000
# 3 26.4287 22.2780 55.1224 0.0000 0.0000 0.0000
# 4 0.0000 0.0000 0.0000 38.2841 0.0000 0.0000
# 5 0.0000 0.0000 0.0000 0.0000 -79.7627 0.0000
# 6 0.0000 0.0000 0.0000 0.0000 0.0000 36.7913
#
#
#
# Elastic Compliance Matrix: (Units=1/GPa)
#
#
# Indices 1 2 3 4 5 6 
#
# 1 0.013929 -0.003203 -0.005384 0.000000 0.000000 0.000000
# 2 -0.003203 0.008921 -0.002070 0.000000 0.000000 0.000000
# 3 -0.005384 -0.002070 0.021559 0.000000 0.000000 0.000000
# 4 0.000000 0.000000 0.000000 0.026121 0.000000 0.000000
# 5 0.000000 0.000000 0.000000 0.000000 -0.012537 0.000000
# 6 0.000000 0.000000 0.000000 0.000000 0.000000 0.027180
#
#
# Mechanical properties :
#
#
# Convention : Reuss Voigt Hill
#
# Bulk Modulus (GPa) = 43.29700 50.24373 46.77036
# Shear Modulus (GPa) = 43.78855 11.71268 27.75061
#
# Velocity S-wave (km/s) = 4.52967 2.34269 3.60597
# Velocity P-wave (km/s) = 6.90252 5.55519 6.26518
#
# Compressibility (1/GPa) = 0.02309629
#
# Stress axis : x y z
#
# Youngs Moduli (GPa) = 71.79009 112.10056 46.38344
#
# Poissons Ratio (x) = 0.35901 0.24974
# Poissons Ratio (y) = 0.22992 0.09600
# Poissons Ratio (z) = 0.38653 0.23202
#
# Static dielectric constant tensor:
#      x y z
#    x 1.796830 0.000000 0.000000 
#    y 0.000000 1.968480 0.000000 
#    z 0.000000 0.000000 1.796440 
# 
# From -- ./inp_files/18618.got.cif
#   From: 2010.05.17/outbox.cif.g08.bks.cpg/sg56_10_cif.got.tgz:18618.got - 2010.06.03 13:42:01.
