data_PCOD9429948
_publ_section_title
;
Structure prediction by ZEFSAII (Michael W. Deem and Ramdas Pophale) SiO2 
 PCOD9429948
Probable space group: P C C N
;
_chemical_formula_sum "Si O2"
_cell_formula_units_Z 48
_cell_length_a 7.673055
_cell_length_b 18.540603
_cell_length_c 13.268974
_cell_angle_alpha 90.000000
_cell_angle_beta 90.000000
_cell_angle_gamma 90.000000
_cell_volume 1887.684931
_symmetry_space_group_name_H-M "P C C N"
_symmetry_group_IT_number 56
_symmetry_cell_setting 'orthorhombic'
loop_
_space_group_symop_operation_xyz
x,y,z
1/2-x,1/2-y,z
1/2+x,-y,1/2-z
-x,1/2+y,1/2-z
-x,-y,-z
1/2+x,1/2+y,-z
1/2-x,y,1/2+z
x,1/2-y,1/2+z
loop_
_atom_site_type_symbol
_atom_site_label
_atom_site_fract_x
_atom_site_fract_y
_atom_site_fract_z
Si Si1 0.408167 0.166470 0.303143
Si Si2 0.476437 0.356944 0.258786
Si Si3 0.533786 0.873929 0.011694
Si Si4 0.253525 0.520106 0.487557
Si Si5 0.463756 0.508025 0.168358
Si Si6 0.250000 0.250000 0.988773
Si Si7 0.750000 0.250000 0.225940
O O1 0.219940 0.173988 0.247683
O O2 0.455406 0.082279 0.295328
O O3 0.358012 0.195511 0.415498
O O4 0.585933 0.206957 0.274586
O O5 0.521683 0.346818 0.377303
O O6 0.453427 0.442570 0.244493
O O7 0.623889 0.317761 0.191272
O O8 0.617794 0.804837 0.957966
O O9 0.665537 0.940873 0.026096
O O10 0.377965 0.914470 0.957739
O O11 0.210682 0.525823 0.606297
O O12 0.087504 0.524432 0.417900
#
# Coordination Sequence:
#
# PCOD9429948 Si02
#       7
#     8   8   8   8   8   4   4
#     4  11  22  40  65  98 130 167 230 273 321 393
#     4  11  24  42  66 102 126 173 225 277 323 391
#     4  10  20  40  66  91 126 172 217 271 323 387
#     4  10  22  40  63  95 133 167 208 273 332 397
#     4  11  24  41  65  99 135 169 215 274 335 393
#     4  10  18  40  60  92 126 170 226 266 312 386
#     4  12  22  40  68  98 132 172 222 286 328 382
#
# _framework density 25.427973999999999
#
# number of rings (size 3 to 8) (size 9 to 14) (size 15 to 20)
#    0.000    1.333    6.667    1.000    4.667    0.000 
#    3.000    1.667    0.000    0.000    0.000    0.000 
#    0.000    0.000    0.000    0.000    0.000    0.000 
#
# Total GULP energy -267744.731401 kJ/mol
# GULP energy per Si atom -5578.015238 kJ/mol
# Density = 2.537010 g / cm^3
# Si number density = 25.427974 Si / 1000 Ang^3
#
#
#
# Elastic Constant Matrix: (Units=GPa)
#
#
# Indices 1 2 3 4 5 6 
#
# 1 143.7830 69.9813 18.5048 0.0000 0.0000 0.0000
# 2 69.9813 192.7948 2.6379 0.0000 0.0000 0.0000
# 3 18.5048 2.6379 25.0248 0.0000 0.0000 0.0000
# 4 0.0000 0.0000 0.0000 22.7396 0.0000 0.0000
# 5 0.0000 0.0000 0.0000 0.0000 5.5464 0.0000
# 6 0.0000 0.0000 0.0000 0.0000 0.0000 63.9990
#
#
#
# Elastic Compliance Matrix: (Units=1/GPa)
#
#
# Indices 1 2 3 4 5 6 
#
# 1 0.009429 -0.003332 -0.006621 0.000000 0.000000 0.000000
# 2 -0.003332 0.006372 0.001792 0.000000 0.000000 0.000000
# 3 -0.006621 0.001792 0.044667 0.000000 0.000000 0.000000
# 4 0.000000 0.000000 0.000000 0.043976 0.000000 0.000000
# 5 0.000000 0.000000 0.000000 0.000000 0.180297 0.000000
# 6 0.000000 0.000000 0.000000 0.000000 0.000000 0.015625
#
#
# Mechanical properties :
#
#
# Convention : Reuss Voigt Hill
#
# Bulk Modulus (GPa) = 22.65186 60.42782 41.53984
# Shear Modulus (GPa) = 15.08739 36.48892 25.78815
#
# Velocity S-wave (km/s) = 2.43850 3.79224 3.18805
# Velocity P-wave (km/s) = 4.10560 6.55673 5.47022
#
# Compressibility (1/GPa) = 0.04414649
#
# Stress axis : x y z
#
# Youngs Moduli (GPa) = 106.05921 156.94263 22.38773
#
# Poissons Ratio (x) = 0.52291 0.14823
# Poissons Ratio (y) = 0.35338 -0.04012
# Poissons Ratio (z) = 0.70221 -0.28126
#
# Static dielectric constant tensor:
#      x y z
#    x 2.053930 0.000000 0.000000 
#    y 0.000000 2.031590 0.000000 
#    z 0.000000 0.000000 2.089050 
# 
# From -- ./inp_files/15002.got.cif
#   From: 2010.05.17/outbox.cif.g08.bks.cpg/sg56_8_cif.got.tgz:15002.got - 2010.06.03 13:42:01.
