data_PCOD9429095
_publ_section_title
;
Structure prediction by ZEFSAII (Michael W. Deem and Ramdas Pophale) SiO2 
 PCOD9429095
Probable space group: P B A M
;
_chemical_formula_sum "Si O2"
_cell_formula_units_Z 44
_cell_length_a 7.663374
_cell_length_b 19.829785
_cell_length_c 14.135797
_cell_angle_alpha 90.000000
_cell_angle_beta 90.000000
_cell_angle_gamma 90.000000
_cell_volume 2148.118951
_symmetry_space_group_name_H-M "P B A M"
_symmetry_group_IT_number 55
_symmetry_cell_setting 'orthorhombic'
loop_
_space_group_symop_operation_xyz
x,y,z
-x,-y,z
1/2+x,1/2-y,-z
1/2-x,1/2+y,-z
-x,-y,-z
x,y,-z
1/2-x,1/2+y,z
1/2+x,1/2-y,z
loop_
_atom_site_type_symbol
_atom_site_label
_atom_site_fract_x
_atom_site_fract_y
_atom_site_fract_z
Si Si1 0.000000 0.000000 0.251447
Si Si2 0.152841 0.085541 0.604443
Si Si3 0.601046 0.890337 0.892357
Si Si4 0.564375 0.820646 0.693988
Si Si5 0.229797 0.961901 0.104706
Si Si6 0.183707 0.820339 0.611959
O O1 0.912117 0.054301 0.182983
O O2 0.149838 0.028058 0.317913
O O3 0.173069 0.057475 0.500000
O O4 0.304796 0.137146 0.628106
O O5 0.965356 0.122529 0.611913
O O6 0.613732 0.840805 0.802304
O O7 0.403489 0.918435 0.888097
O O8 0.715110 0.959170 0.883983
O O9 0.630757 0.863438 0.000000
O O10 0.365506 0.837255 0.663957
O O11 0.600824 0.743303 0.666837
O O12 0.157574 0.952267 0.000000
O O13 0.217899 0.804042 0.500000
#
# Coordination Sequence:
#
# PCOD9429095 Si02
#       6
#     4   8   8   8   8   8
#     4  12  20  36  58  90 120 154 190 246 302 352
#     4  11  24  39  57  88 124 155 195 245 294 351
#     4   9  19  37  58  83 115 152 192 240 295 349
#     4  12  21  39  63  84 115 153 199 245 292 342
#     4   9  18  34  58  85 114 150 196 240 283 352
#     4  11  23  39  62  87 112 154 206 241 284 354
#
# _framework density 20.483036999999999
#
# number of rings (size 3 to 8) (size 9 to 14) (size 15 to 20)
#    0.000    1.455    3.636    4.364    0.000    0.000 
#    0.000    0.909    0.000    6.545    0.000    0.000 
#    0.000    0.000    0.000    0.000    0.000    0.000 
#
# Total GULP energy -245566.207850 kJ/mol
# GULP energy per Si atom -5581.050178 kJ/mol
# Density = 2.043642 g / cm^3
# Si number density = 20.483037 Si / 1000 Ang^3
#
#
#
# Elastic Constant Matrix: (Units=GPa)
#
#
# Indices 1 2 3 4 5 6 
#
# 1 78.6325 -15.6096 5.5601 0.0000 0.0000 0.0000
# 2 -15.6096 24.4202 19.7663 0.0000 0.0000 0.0000
# 3 5.5601 19.7663 171.1670 0.0000 0.0000 0.0000
# 4 0.0000 0.0000 0.0000 18.0699 0.0000 0.0000
# 5 0.0000 0.0000 0.0000 0.0000 29.2340 0.0000
# 6 0.0000 0.0000 0.0000 0.0000 0.0000 19.0035
#
#
#
# Elastic Compliance Matrix: (Units=1/GPa)
#
#
# Indices 1 2 3 4 5 6 
#
# 1 0.015033 0.011036 -0.001763 0.000000 0.000000 0.000000
# 2 0.011036 0.053274 -0.006511 0.000000 0.000000 0.000000
# 3 -0.001763 -0.006511 0.006651 0.000000 0.000000 0.000000
# 4 0.000000 0.000000 0.000000 0.055341 0.000000 0.000000
# 5 0.000000 0.000000 0.000000 0.000000 0.034207 0.000000
# 6 0.000000 0.000000 0.000000 0.000000 0.000000 0.052622
#
#
# Mechanical properties :
#
#
# Convention : Reuss Voigt Hill
#
# Bulk Modulus (GPa) = 12.42494 32.62814 22.52654
# Shear Modulus (GPa) = 20.97052 30.89499 25.93276
#
# Velocity S-wave (km/s) = 3.20316 3.88792 3.56203
# Velocity P-wave (km/s) = 4.44516 6.00987 5.28573
#
# Compressibility (1/GPa) = 0.08048330
#
# Stress axis : x y z
#
# Youngs Moduli (GPa) = 66.52114 18.77095 150.34564
#
# Poissons Ratio (x) = -0.20716 0.26502
# Poissons Ratio (y) = -0.73412 0.97883
# Poissons Ratio (z) = 0.11726 0.12221
#
# Static dielectric constant tensor:
#      x y z
#    x 1.731290 0.000000 0.000000 
#    y 0.000000 1.737740 0.000000 
#    z 0.000000 0.000000 1.767050 
# 
# From -- ./inp_files/12159.got.cif
#   From: 2010.05.17/outbox.cif.g08.bks.cpg/sg55_7_cif.got.tgz:12159.got - 2010.06.03 13:27:54.
