data_PCOD9429324
_publ_section_title
;
Structure prediction by ZEFSAII (Michael W. Deem and Ramdas Pophale) SiO2 
 PCOD9429324
Probable space group: P B A M
;
_chemical_formula_sum "Si O2"
_cell_formula_units_Z 56
_cell_length_a 21.000000
_cell_length_b 15.000000
_cell_length_c 9.000000
_cell_angle_alpha 90.000000
_cell_angle_beta 90.000000
_cell_angle_gamma 90.000000
_cell_volume 2835.000000
_symmetry_space_group_name_H-M "P B A M"
_symmetry_group_IT_number 55
_symmetry_cell_setting 'orthorhombic'
loop_
_space_group_symop_operation_xyz
x,y,z
-x,-y,z
1/2+x,1/2-y,-z
1/2-x,1/2+y,-z
-x,-y,-z
x,y,-z
1/2-x,1/2+y,z
1/2+x,1/2-y,z
loop_
_atom_site_type_symbol
_atom_site_label
_atom_site_fract_x
_atom_site_fract_y
_atom_site_fract_z
Si Si1 0.188289 0.529053 0.329608
Si Si2 0.181640 0.004439 0.178972
Si Si3 0.905596 0.341472 0.179178
Si Si4 0.454758 0.578137 0.819715
Si Si5 0.540203 0.223809 0.178535
Si Si6 0.826698 0.684661 0.668984
Si Si7 0.684224 0.691665 0.319749
O O1 0.189748 0.561903 0.500000
O O2 0.254860 0.546996 0.247318
O O3 0.130240 0.572323 0.241329
O O4 0.181327 0.422440 0.332802
O O5 0.174107 0.906081 0.249511
O O6 0.118556 0.059798 0.217568
O O7 0.186840 0.997600 0.000000
O O8 0.866525 0.259490 0.251244
O O9 0.980128 0.336834 0.222611
O O10 0.901515 0.336523 0.000000
O O11 0.500000 0.500000 0.762510
O O12 0.476330 0.675592 0.772441
O O13 0.458371 0.576367 0.000000
O O14 0.610268 0.204024 0.238637
O O15 0.543545 0.221503 0.000000
O O16 0.836768 0.715739 0.500000
O O17 0.757321 0.719400 0.720078
O O18 0.680681 0.687491 0.500000
#
# Coordination Sequence:
#
# PCOD9429324 Si02
#       7
#     8   8   8   8   8   8   8
#     4  10  22  40  59  82 116 154 195 244 300 354
#     4  10  19  34  59  88 115 149 196 243 289 349
#     4  11  23  38  59  87 116 151 199 245 295 351
#     4   9  18  34  56  83 118 153 187 232 291 347
#     4  10  22  38  58  86 117 152 193 245 298 350
#     4   9  21  40  59  82 113 153 194 237 294 356
#     4  10  21  38  59  85 119 157 194 238 296 351
#
# _framework density 19.753086
#
# number of rings (size 3 to 8) (size 9 to 14) (size 15 to 20)
#    0.000    2.143    0.000    3.429    2.000    7.429 
#    0.000    3.571    0.000    3.000    0.000    0.000 
#    0.000    0.000    0.000    0.000    0.000    0.000 
#
# Total GULP energy -312621.582960 kJ/mol
# GULP energy per Si atom -5582.528267 kJ/mol
# Density = 1.970813 g / cm^3
# Si number density = 19.753086 Si / 1000 Ang^3
#
#
#
# Elastic Constant Matrix: (Units=GPa)
#
#
# Indices 1 2 3 4 5 6 
#
# 1 92.2231 -4.2092 27.0548 0.0000 0.0000 0.0000
# 2 -4.2092 16.7926 0.3833 0.0000 0.0000 0.0000
# 3 27.0548 0.3833 62.5107 0.0000 0.0000 0.0000
# 4 0.0000 0.0000 0.0000 16.5634 0.0000 0.0000
# 5 0.0000 0.0000 0.0000 0.0000 17.6290 0.0000
# 6 0.0000 0.0000 0.0000 0.0000 0.0000 33.6985
#
#
#
# Elastic Compliance Matrix: (Units=1/GPa)
#
#
# Indices 1 2 3 4 5 6 
#
# 1 0.012599 0.003283 -0.005473 0.000000 0.000000 0.000000
# 2 0.003283 0.060414 -0.001791 0.000000 0.000000 0.000000
# 3 -0.005473 -0.001791 0.018377 0.000000 0.000000 0.000000
# 4 0.000000 0.000000 0.000000 0.060374 0.000000 0.000000
# 5 0.000000 0.000000 0.000000 0.000000 0.056725 0.000000
# 6 0.000000 0.000000 0.000000 0.000000 0.000000 0.029675
#
#
# Mechanical properties :
#
#
# Convention : Reuss Voigt Hill
#
# Bulk Modulus (GPa) = 11.98651 24.22044 18.10348
# Shear Modulus (GPa) = 18.25252 23.46468 20.85860
#
# Velocity S-wave (km/s) = 3.04309 3.45033 3.25309
# Velocity P-wave (km/s) = 4.29285 5.30672 4.82648
#
# Compressibility (1/GPa) = 0.08342710
#
# Stress axis : x y z
#
# Youngs Moduli (GPa) = 79.37373 16.55246 54.41615
#
# Poissons Ratio (x) = -0.05434 0.29781
# Poissons Ratio (y) = -0.26057 0.09747
# Poissons Ratio (z) = 0.43440 0.02965
#
# Static dielectric constant tensor:
#      x y z
#    x 1.684930 0.000000 0.000000 
#    y 0.000000 1.714470 0.000000 
#    z 0.000000 0.000000 1.668760 
# 
# From -- ./inp_files/5998.got.cif
#   From: 2010.05.17/outbox.ucp.g08.bks.cvg/sg55_3_cif.got.tgz:5998.got - 2010.06.11 16:36:00.
