data_PCOD9429450
_publ_section_title
;
Structure prediction by ZEFSAII (Michael W. Deem and Ramdas Pophale) SiO2 
 PCOD9429450
Probable space group: P B A M
;
_chemical_formula_sum "Si O2"
_cell_formula_units_Z 48
_cell_length_a 9.000000
_cell_length_b 18.000000
_cell_length_c 15.000000
_cell_angle_alpha 90.000000
_cell_angle_beta 90.000000
_cell_angle_gamma 90.000000
_cell_volume 2430.000000
_symmetry_space_group_name_H-M "P B A M"
_symmetry_group_IT_number 55
_symmetry_cell_setting 'orthorhombic'
loop_
_space_group_symop_operation_xyz
x,y,z
-x,-y,z
1/2+x,1/2-y,-z
1/2-x,1/2+y,-z
-x,-y,-z
x,y,-z
1/2-x,1/2+y,z
1/2+x,1/2-y,z
loop_
_atom_site_type_symbol
_atom_site_label
_atom_site_fract_x
_atom_site_fract_y
_atom_site_fract_z
Si Si1 0.325106 0.502711 0.741284
Si Si2 0.587469 0.224082 0.606029
Si Si3 0.234714 0.827314 0.220253
Si Si4 0.138604 0.555564 0.896787
Si Si5 0.272523 0.132621 0.394965
Si Si6 0.981785 0.277079 0.107135
O O1 0.500000 0.500000 0.721318
O O2 0.283109 0.416033 0.762880
O O3 0.277540 0.541083 0.833571
O O4 0.246448 0.558285 0.666898
O O5 0.620817 0.208140 0.500000
O O6 0.700942 0.195558 0.682112
O O7 0.626144 0.313171 0.614528
O O8 0.424546 0.183677 0.622754
O O9 0.092458 0.783873 0.175281
O O10 0.359638 0.800833 0.148763
O O11 0.101883 0.643117 0.889589
O O12 0.000000 0.500000 0.870356
O O13 0.168869 0.538118 0.000000
O O14 0.282051 0.111908 0.500000
O O15 0.988258 0.255397 0.000000
#
# Coordination Sequence:
#
# PCOD9429450 Si02
#       6
#     8   8   8   8   8   8
#     4  12  28  43  64 102 142 188 229 289 357 416
#     4  10  22  42  74 106 138 182 233 287 347 418
#     4  12  25  43  69  98 142 185 234 290 349 421
#     4  10  21  43  69  94 130 177 229 286 349 415
#     4  10  24  46  72 105 141 181 232 286 349 422
#     4  11  25  44  70 101 135 182 237 293 352 418
#
# _framework density 19.753086
#
# number of rings (size 3 to 8) (size 9 to 14) (size 15 to 20)
#    0.000    1.167    1.667    3.500    7.000    2.000 
#    0.000    1.667    0.000    0.000    0.000    0.000 
#    0.000    0.000    0.000    0.000    0.000    0.000 
#
# Total GULP energy -267282.545831 kJ/mol
# GULP energy per Si atom -5568.386371 kJ/mol
# Density = 1.970813 g / cm^3
# Si number density = 19.753086 Si / 1000 Ang^3
#
#
#
# Elastic Constant Matrix: (Units=GPa)
#
#
# Indices 1 2 3 4 5 6 
#
# 1 76.7231 36.6710 36.9408 0.0000 0.0000 0.0000
# 2 36.6710 130.2147 52.3046 0.0000 0.0000 0.0000
# 3 36.9408 52.3046 114.0283 0.0000 0.0000 0.0000
# 4 0.0000 0.0000 0.0000 38.8939 0.0000 0.0000
# 5 0.0000 0.0000 0.0000 0.0000 29.9082 0.0000
# 6 0.0000 0.0000 0.0000 0.0000 0.0000 35.0570
#
#
#
# Elastic Compliance Matrix: (Units=1/GPa)
#
#
# Indices 1 2 3 4 5 6 
#
# 1 0.016369 -0.003040 -0.003908 0.000000 0.000000 0.000000
# 2 -0.003040 0.009979 -0.003592 0.000000 0.000000 0.000000
# 3 -0.003908 -0.003592 0.011684 0.000000 0.000000 0.000000
# 4 0.000000 0.000000 0.000000 0.025711 0.000000 0.000000
# 5 0.000000 0.000000 0.000000 0.000000 0.033436 0.000000
# 6 0.000000 0.000000 0.000000 0.000000 0.000000 0.028525
#
#
# Mechanical properties :
#
#
# Convention : Reuss Voigt Hill
#
# Bulk Modulus (GPa) = 58.99787 63.64431 61.32109
# Shear Modulus (GPa) = 32.80108 33.77514 33.28811
#
# Velocity S-wave (km/s) = 4.07941 4.13954 4.10959
# Velocity P-wave (km/s) = 7.21951 7.42547 7.32321
#
# Compressibility (1/GPa) = 0.01694976
#
# Stress axis : x y z
#
# Youngs Moduli (GPa) = 61.09240 100.21349 85.58864
#
# Poissons Ratio (x) = 0.30463 0.33452
# Poissons Ratio (y) = 0.18571 0.30747
# Poissons Ratio (z) = 0.23878 0.36001
#
# Static dielectric constant tensor:
#      x y z
#    x 1.763880 0.000000 0.000000 
#    y 0.000000 1.728510 0.000000 
#    z 0.000000 0.000000 1.702180 
# 
# From -- ./inp_files/17337.got.cif
#   From: 2010.05.17/outbox.ucp.g08.bks.cvg/sg55_9_cif.got.tgz:17337.got - 2010.06.11 16:36:00.
