data_PCOD9429739
_publ_section_title
;
Structure prediction by ZEFSAII (Michael W. Deem and Ramdas Pophale) SiO2 
 PCOD9429739
Probable space group: P C C N
;
_chemical_formula_sum "Si O2"
_cell_formula_units_Z 52
_cell_length_a 7.356839
_cell_length_b 15.867519
_cell_length_c 18.985642
_cell_angle_alpha 90.000000
_cell_angle_beta 90.000000
_cell_angle_gamma 90.000000
_cell_volume 2216.284792
_symmetry_space_group_name_H-M "P C C N"
_symmetry_group_IT_number 56
_symmetry_cell_setting 'orthorhombic'
loop_
_space_group_symop_operation_xyz
x,y,z
1/2-x,1/2-y,z
1/2+x,-y,1/2-z
-x,1/2+y,1/2-z
-x,-y,-z
1/2+x,1/2+y,-z
1/2-x,y,1/2+z
x,1/2-y,1/2+z
loop_
_atom_site_type_symbol
_atom_site_label
_atom_site_fract_x
_atom_site_fract_y
_atom_site_fract_z
Si Si1 0.618742 0.097216 0.099948
Si Si2 0.004888 0.678769 0.436033
Si Si3 0.299500 0.423805 0.883519
Si Si4 0.852900 0.926520 0.278118
Si Si5 0.000000 0.500000 0.000000
Si Si6 0.329945 0.995047 0.592872
Si Si7 0.250000 0.250000 0.445838
Si Si8 0.750000 0.750000 0.824491
O O1 0.541726 0.090120 0.179023
O O2 0.784670 0.156861 0.081214
O O3 0.671681 0.996197 0.081377
O O4 0.460009 0.094411 0.043005
O O5 0.912932 0.586544 0.426771
O O6 0.921237 0.722192 0.505318
O O7 0.925699 0.738684 0.374151
O O8 0.336942 0.450586 0.802840
O O9 0.499632 0.433492 0.914702
O O10 0.219373 0.332488 0.897312
O O11 0.761301 0.834859 0.281158
O O12 0.746262 0.991643 0.327948
O O13 0.830355 0.459146 0.953594
#
# Coordination Sequence:
#
# PCOD9429739 Si02
#       8
#     8   8   8   8   4   8   4   4
#     4  10  21  36  60  84 114 154 204 255 289 356
#     4   9  19  37  57  83 110 152 201 241 298 349
#     4  11  21  36  56  86 119 156 196 243 306 361
#     4  10  20  36  58  85 116 156 198 243 299 362
#     4  10  18  32  54  84 108 140 196 250 292 324
#     4   9  19  35  58  80 112 155 201 245 286 357
#     4  11  21  32  58  88 123 157 190 250 312 357
#     4   9  19  36  58  82 113 149 194 244 292 355
#
# _framework density 23.462689999999998
#
# number of rings (size 3 to 8) (size 9 to 14) (size 15 to 20)
#    0.000    2.154    0.000    3.231    0.000    4.308 
#    0.000    0.000    0.000   26.769    0.000    0.000 
#    0.000    0.000    0.000    0.000    0.000    0.000 
#
# Total GULP energy -289584.775849 kJ/mol
# GULP energy per Si atom -5568.937997 kJ/mol
# Density = 2.340929 g / cm^3
# Si number density = 23.462690 Si / 1000 Ang^3
#
#
#
# Elastic Constant Matrix: (Units=GPa)
#
#
# Indices 1 2 3 4 5 6 
#
# 1 123.1294 19.7065 35.3919 0.0000 0.0000 0.0000
# 2 19.7065 102.4769 20.4070 0.0000 0.0000 0.0000
# 3 35.3919 20.4070 133.1642 0.0000 0.0000 0.0000
# 4 0.0000 0.0000 0.0000 23.0870 0.0000 0.0000
# 5 0.0000 0.0000 0.0000 0.0000 21.1009 0.0000
# 6 0.0000 0.0000 0.0000 0.0000 0.0000 33.5053
#
#
#
# Elastic Compliance Matrix: (Units=1/GPa)
#
#
# Indices 1 2 3 4 5 6 
#
# 1 0.008955 -0.001287 -0.002183 0.000000 0.000000 0.000000
# 2 -0.001287 0.010251 -0.001229 0.000000 0.000000 0.000000
# 3 -0.002183 -0.001229 0.008278 0.000000 0.000000 0.000000
# 4 0.000000 0.000000 0.000000 0.043314 0.000000 0.000000
# 5 0.000000 0.000000 0.000000 0.000000 0.047391 0.000000
# 6 0.000000 0.000000 0.000000 0.000000 0.000000 0.029846
#
#
# Mechanical properties :
#
#
# Convention : Reuss Voigt Hill
#
# Bulk Modulus (GPa) = 55.29199 56.64236 55.96718
# Shear Modulus (GPa) = 30.58823 34.42298 32.50561
#
# Velocity S-wave (km/s) = 3.61459 3.83448 3.72616
# Velocity P-wave (km/s) = 6.40605 6.61802 6.51290
#
# Compressibility (1/GPa) = 0.01808580
#
# Stress axis : x y z
#
# Youngs Moduli (GPa) = 111.66976 97.55583 120.80299
#
# Poissons Ratio (x) = 0.12559 0.26368
# Poissons Ratio (y) = 0.14376 0.14843
# Poissons Ratio (z) = 0.24375 0.11987
#
# Static dielectric constant tensor:
#      x y z
#    x 2.264790 0.000000 0.000000 
#    y 0.000000 2.001640 0.000000 
#    z 0.000000 0.000000 2.196900 
# 
# From -- ./inp_files/18186.got.cif
#   From: 2010.05.17/outbox.cif.g08.bks.cpg/sg56_10_cif.got.tgz:18186.got - 2010.06.03 13:42:01.
