data_PCOD9429153
_publ_section_title
;
Structure prediction by ZEFSAII (Michael W. Deem and Ramdas Pophale) SiO2 
 PCOD9429153
Probable space group: P B A M
;
_chemical_formula_sum "Si O2"
_cell_formula_units_Z 22
_cell_length_a 10.623492
_cell_length_b 4.746683
_cell_length_c 17.241323
_cell_angle_alpha 90.000000
_cell_angle_beta 90.000000
_cell_angle_gamma 90.000000
_cell_volume 869.416969
_symmetry_space_group_name_H-M "P B A M"
_symmetry_group_IT_number 55
_symmetry_cell_setting 'orthorhombic'
loop_
_space_group_symop_operation_xyz
x,y,z
-x,-y,z
1/2+x,1/2-y,-z
1/2-x,1/2+y,-z
-x,-y,-z
x,y,-z
1/2-x,1/2+y,z
1/2+x,1/2-y,z
loop_
_atom_site_type_symbol
_atom_site_label
_atom_site_fract_x
_atom_site_fract_y
_atom_site_fract_z
Si Si1 0.837575 0.149352 0.878892
Si Si2 0.000000 0.500000 0.368643
Si Si3 0.500000 0.500000 0.737088
Si Si4 0.500000 0.000000 0.000000
Si Si5 0.171952 0.758199 0.500000
O O1 0.712888 0.336169 0.893677
O O2 0.894767 0.137990 0.792831
O O3 0.940284 0.287871 0.933466
O O4 0.099258 0.654670 0.424212
O O5 0.945503 0.748031 0.314903
O O6 0.304257 0.590044 0.500000
#
# Coordination Sequence:
#
# PCOD9429153 Si02
#       5
#     8   4   4   2   4
#     4  12  27  46  73 106 141 190 241 294 365 431
#     4  11  25  44  69 103 144 188 238 299 361 430
#     4  12  26  46  70 106 150 186 238 304 364 436
#     4  12  26  50  74 102 144 184 240 302 350 426
#     4  11  24  43  70 102 138 189 244 292 356 429
#
# _framework density 25.304311999999999
#
# number of rings (size 3 to 8) (size 9 to 14) (size 15 to 20)
#    0.000    0.364    0.000    8.727    0.000   16.727 
#    0.000    0.000    0.000    0.000    0.000    0.000 
#    0.000    0.000    0.000    0.000    0.000    0.000 
#
# Total GULP energy -122809.710018 kJ/mol
# GULP energy per Si atom -5582.259546 kJ/mol
# Density = 2.524672 g / cm^3
# Si number density = 25.304312 Si / 1000 Ang^3
#
#
#
# Elastic Constant Matrix: (Units=GPa)
#
#
# Indices 1 2 3 4 5 6 
#
# 1 92.4702 29.5641 33.6524 0.0000 0.0000 0.0000
# 2 29.5641 128.6069 57.9639 0.0000 0.0000 0.0000
# 3 33.6524 57.9639 157.2162 0.0000 0.0000 0.0000
# 4 0.0000 0.0000 0.0000 56.8699 0.0000 0.0000
# 5 0.0000 0.0000 0.0000 0.0000 25.8136 0.0000
# 6 0.0000 0.0000 0.0000 0.0000 0.0000 63.2795
#
#
#
# Elastic Compliance Matrix: (Units=1/GPa)
#
#
# Indices 1 2 3 4 5 6 
#
# 1 0.012118 -0.001939 -0.001879 0.000000 0.000000 0.000000
# 2 -0.001939 0.009635 -0.003137 0.000000 0.000000 0.000000
# 3 -0.001879 -0.003137 0.007920 0.000000 0.000000 0.000000
# 4 0.000000 0.000000 0.000000 0.017584 0.000000 0.000000
# 5 0.000000 0.000000 0.000000 0.000000 0.038739 0.000000
# 6 0.000000 0.000000 0.000000 0.000000 0.000000 0.015803
#
#
# Mechanical properties :
#
#
# Convention : Reuss Voigt Hill
#
# Bulk Modulus (GPa) = 63.44214 68.96159 66.20186
# Shear Modulus (GPa) = 41.33463 46.33346 43.83405
#
# Velocity S-wave (km/s) = 4.04604 4.28372 4.16658
# Velocity P-wave (km/s) = 6.85226 7.19577 7.02611
#
# Compressibility (1/GPa) = 0.01576239
#
# Stress axis : x y z
#
# Youngs Moduli (GPa) = 82.52188 103.78402 126.26834
#
# Poissons Ratio (x) = 0.20121 0.23727
# Poissons Ratio (y) = 0.15999 0.39616
# Poissons Ratio (z) = 0.15507 0.32562
#
# Static dielectric constant tensor:
#      x y z
#    x 2.101650 0.000000 0.000000 
#    y 0.000000 1.935510 0.000000 
#    z 0.000000 0.000000 1.949520 
# 
# From -- ./inp_files/17980.got.cif
#   From: 2010.05.17/outbox.cif.g08.bks.cpg/sg55_9_cif.got.tgz:17980.got - 2010.06.03 13:27:54.
