data_PCOD9429002
_publ_section_title
;
Structure prediction by ZEFSAII (Michael W. Deem and Ramdas Pophale) SiO2 
 PCOD9429002
Probable space group: P B A M
;
_chemical_formula_sum "Si O2"
_cell_formula_units_Z 56
_cell_length_a 19.640416
_cell_length_b 8.621987
_cell_length_c 15.134557
_cell_angle_alpha 90.000000
_cell_angle_beta 90.000000
_cell_angle_gamma 90.000000
_cell_volume 2562.876975
_symmetry_space_group_name_H-M "P B A M"
_symmetry_group_IT_number 55
_symmetry_cell_setting 'orthorhombic'
loop_
_space_group_symop_operation_xyz
x,y,z
-x,-y,z
1/2+x,1/2-y,-z
1/2-x,1/2+y,-z
-x,-y,-z
x,y,-z
1/2-x,1/2+y,z
1/2+x,1/2-y,z
loop_
_atom_site_type_symbol
_atom_site_label
_atom_site_fract_x
_atom_site_fract_y
_atom_site_fract_z
Si Si1 0.079145 0.620780 0.603551
Si Si2 0.690381 0.378984 0.310909
Si Si3 0.587810 0.145393 0.253580
Si Si4 0.156788 0.833629 0.902701
Si Si5 0.789978 0.192758 0.403533
Si Si6 0.965992 0.168672 0.237814
Si Si7 0.786755 0.469406 0.160027
O O1 0.057001 0.616203 0.500000
O O2 0.072241 0.464327 0.661683
O O3 0.159105 0.662788 0.600996
O O4 0.050055 0.761683 0.664131
O O5 0.619514 0.310246 0.281544
O O6 0.716291 0.261383 0.385510
O O7 0.689957 0.556453 0.338244
O O8 0.749228 0.370959 0.237093
O O9 0.519013 0.197294 0.204099
O O10 0.649707 0.065338 0.200132
O O11 0.099478 0.841852 0.826369
O O12 0.181335 0.656452 0.903880
O O13 0.224671 0.932231 0.879990
O O14 0.131177 0.880791 0.000000
O O15 0.794995 0.122019 0.500000
O O16 0.000000 0.000000 0.240335
#
# Coordination Sequence:
#
# PCOD9429002 Si02
#       7
#     8   8   8   8   8   8   8
#     4  11  24  44  68 100 142 190 245 297 352 422
#     4  12  20  38  63  96 136 189 234 293 357 417
#     4  12  24  41  72 101 140 192 244 292 365 426
#     4  12  27  48  76 110 144 183 235 295 364 437
#     4  11  21  34  56  95 139 181 238 302 355 413
#     4  12  27  48  72 104 148 196 237 293 362 430
#     4  12  22  44  74 105 137 182 236 297 355 430
#
# _framework density 21.850446000000002
#
# number of rings (size 3 to 8) (size 9 to 14) (size 15 to 20)
#    0.000    0.286    5.714    3.857    0.000    4.000 
#    0.000    2.143    0.000    0.000    0.000    0.000 
#    0.000    0.000    0.000    0.000    0.000    0.000 
#
# Total GULP energy -312668.866487 kJ/mol
# GULP energy per Si atom -5583.372616 kJ/mol
# Density = 2.180071 g / cm^3
# Si number density = 21.850446 Si / 1000 Ang^3
#
#
#
# Elastic Constant Matrix: (Units=GPa)
#
#
# Indices 1 2 3 4 5 6 
#
# 1 114.2889 46.5627 50.7543 0.0000 0.0000 0.0000
# 2 46.5627 113.9092 45.8455 0.0000 0.0000 0.0000
# 3 50.7543 45.8455 125.9622 0.0000 0.0000 0.0000
# 4 0.0000 0.0000 0.0000 14.4385 0.0000 0.0000
# 5 0.0000 0.0000 0.0000 0.0000 11.4943 0.0000
# 6 0.0000 0.0000 0.0000 0.0000 0.0000 46.6452
#
#
#
# Elastic Compliance Matrix: (Units=1/GPa)
#
#
# Indices 1 2 3 4 5 6 
#
# 1 0.011666 -0.003370 -0.003474 0.000000 0.000000 0.000000
# 2 -0.003370 0.011259 -0.002740 0.000000 0.000000 0.000000
# 3 -0.003474 -0.002740 0.010336 0.000000 0.000000 0.000000
# 4 0.000000 0.000000 0.000000 0.069259 0.000000 0.000000
# 5 0.000000 0.000000 0.000000 0.000000 0.087000 0.000000
# 6 0.000000 0.000000 0.000000 0.000000 0.000000 0.021438
#
#
# Mechanical properties :
#
#
# Convention : Reuss Voigt Hill
#
# Bulk Modulus (GPa) = 70.95945 71.16503 71.06224
# Shear Modulus (GPa) = 21.29253 28.58212 24.93733
#
# Velocity S-wave (km/s) = 3.12503 3.62066 3.38194
# Velocity P-wave (km/s) = 6.75031 7.07946 6.91684
#
# Compressibility (1/GPa) = 0.01409256
#
# Stress axis : x y z
#
# Youngs Moduli (GPa) = 85.72247 88.81460 96.75115
#
# Poissons Ratio (x) = 0.29934 0.33609
# Poissons Ratio (y) = 0.28892 0.26509
# Poissons Ratio (z) = 0.29778 0.24335
#
# Static dielectric constant tensor:
#      x y z
#    x 1.865020 0.000000 0.000000 
#    y 0.000000 1.783080 0.000000 
#    z 0.000000 0.000000 1.812510 
# 
# From -- ./inp_files/19735.got.cif
#   From: 2010.05.17/outbox.cif.g08.bks.cpg/sg55_10_cif.got.tgz:19735.got - 2010.06.03 13:27:54.
