data_PCOD9429387
_publ_section_title
;
Structure prediction by ZEFSAII (Michael W. Deem and Ramdas Pophale) SiO2 
 PCOD9429387
Probable space group: P B A M
;
_chemical_formula_sum "Si O2"
_cell_formula_units_Z 64
_cell_length_a 30.000000
_cell_length_b 12.000000
_cell_length_c 9.000000
_cell_angle_alpha 90.000000
_cell_angle_beta 90.000000
_cell_angle_gamma 90.000000
_cell_volume 3240.000000
_symmetry_space_group_name_H-M "P B A M"
_symmetry_group_IT_number 55
_symmetry_cell_setting 'orthorhombic'
loop_
_space_group_symop_operation_xyz
x,y,z
-x,-y,z
1/2+x,1/2-y,-z
1/2-x,1/2+y,-z
-x,-y,-z
x,y,-z
1/2-x,1/2+y,z
1/2+x,1/2-y,z
loop_
_atom_site_type_symbol
_atom_site_label
_atom_site_fract_x
_atom_site_fract_y
_atom_site_fract_z
Si Si1 0.546715 0.943635 0.321609
Si Si2 0.280825 0.876979 0.669310
Si Si3 0.678561 0.363646 0.344626
Si Si4 0.087521 0.190821 0.771157
Si Si5 0.515083 0.699487 0.323903
Si Si6 0.372293 0.930071 0.833046
Si Si7 0.911573 0.065047 0.834404
Si Si8 0.188046 0.927830 0.173756
O O1 0.549464 0.957503 0.500000
O O2 0.540749 0.813821 0.286460
O O3 0.500000 0.000000 0.272924
O O4 0.590313 0.998445 0.251493
O O5 0.279910 0.919710 0.500000
O O6 0.292712 0.746652 0.663611
O O7 0.323774 0.928365 0.754650
O O8 0.232550 0.887377 0.744952
O O9 0.688410 0.424723 0.500000
O O10 0.626728 0.329832 0.347715
O O11 0.688178 0.439876 0.204487
O O12 0.106833 0.304618 0.840413
O O13 0.036207 0.208398 0.727209
O O14 0.088020 0.069129 0.845782
O O15 0.513671 0.687039 0.500000
O O16 0.545516 0.602425 0.257173
O O17 0.366731 0.971794 0.000000
O O18 0.862646 0.102286 0.773403
O O19 0.915739 0.112025 0.000000
O O20 0.190436 0.901888 0.000000
#
# Coordination Sequence:
#
# PCOD9429387 Si02
#       8
#     8   8   8   8   8   8   8   8
#     4  10  21  40  60  81 117 160 197 242 294 342
#     4  10  21  38  62  88 114 147 191 240 292 349
#     4   9  19  35  59  87 113 146 190 242 291 345
#     4  10  20  36  60  89 118 153 193 242 291 347
#     4  11  23  38  59  86 116 158 203 242 287 343
#     4  11  22  37  61  92 119 150 196 244 291 351
#     4  10  23  40  57  83 121 158 192 238 297 351
#     4  10  21  39  60  83 116 155 191 237 295 350
#
# _framework density 19.753086
#
# number of rings (size 3 to 8) (size 9 to 14) (size 15 to 20)
#    0.000    1.875    1.250    2.250    0.000   10.250 
#    2.250    0.000    0.000    0.000    0.000    0.000 
#    0.000    0.000    0.000    0.000    0.000    0.000 
#
# Total GULP energy -356288.566689 kJ/mol
# GULP energy per Si atom -5567.008855 kJ/mol
# Density = 1.970813 g / cm^3
# Si number density = 19.753086 Si / 1000 Ang^3
#
#
#
# Elastic Constant Matrix: (Units=GPa)
#
#
# Indices 1 2 3 4 5 6 
#
# 1 144.2428 32.7760 37.9310 0.0000 0.0000 0.0000
# 2 32.7760 25.6047 30.8794 0.0000 0.0000 0.0000
# 3 37.9310 30.8794 52.5987 0.0000 0.0000 0.0000
# 4 0.0000 0.0000 0.0000 -2.7720 0.0000 0.0000
# 5 0.0000 0.0000 0.0000 0.0000 8.0726 0.0000
# 6 0.0000 0.0000 0.0000 0.0000 0.0000 33.9797
#
#
#
# Elastic Compliance Matrix: (Units=1/GPa)
#
#
# Indices 1 2 3 4 5 6 
#
# 1 0.009792 -0.013763 0.001018 0.000000 0.000000 0.000000
# 2 -0.013763 0.153103 -0.079958 0.000000 0.000000 0.000000
# 3 0.001018 -0.079958 0.065219 0.000000 0.000000 0.000000
# 4 0.000000 0.000000 0.000000 -0.360749 0.000000 0.000000
# 5 0.000000 0.000000 0.000000 0.000000 0.123875 0.000000
# 6 0.000000 0.000000 0.000000 0.000000 0.000000 0.029429
#
#
# Mechanical properties :
#
#
# Convention : Reuss Voigt Hill
#
# Bulk Modulus (GPa) = 23.41433 47.29101 35.35267
# Shear Modulus (GPa) = 22.69505 15.91337 19.30421
#
# Velocity S-wave (km/s) = 3.39327 2.84141 3.12953
# Velocity P-wave (km/s) = 5.21840 5.89558 5.56729
#
# Compressibility (1/GPa) = 0.04270888
#
# Stress axis : x y z
#
# Youngs Moduli (GPa) = 102.12077 6.53154 15.33297
#
# Poissons Ratio (x) = 0.08989 -0.01561
# Poissons Ratio (y) = 1.40550 1.22600
# Poissons Ratio (z) = -0.10400 0.52225
#
# Static dielectric constant tensor:
#      x y z
#    x 1.670800 0.000000 0.000000 
#    y 0.000000 1.709700 0.000000 
#    z 0.000000 0.000000 1.708530 
# 
# From -- ./inp_files/10770.got.cif
#   From: 2010.05.17/outbox.ucp.g08.bks.cvg/sg55_6_cif.got.tgz:10770.got - 2010.06.11 16:36:00.
