data_PCOD9429949
_publ_section_title
;
Structure prediction by ZEFSAII (Michael W. Deem and Ramdas Pophale) SiO2 
 PCOD9429949
Probable space group: P C C N
;
_chemical_formula_sum "Si O2"
_cell_formula_units_Z 52
_cell_length_a 11.553964
_cell_length_b 8.491573
_cell_length_c 30.420261
_cell_angle_alpha 90.000000
_cell_angle_beta 90.000000
_cell_angle_gamma 90.000000
_cell_volume 2984.572227
_symmetry_space_group_name_H-M "P C C N"
_symmetry_group_IT_number 56
_symmetry_cell_setting 'orthorhombic'
loop_
_space_group_symop_operation_xyz
x,y,z
1/2-x,1/2-y,z
1/2+x,-y,1/2-z
-x,1/2+y,1/2-z
-x,-y,-z
1/2+x,1/2+y,-z
1/2-x,y,1/2+z
x,1/2-y,1/2+z
loop_
_atom_site_type_symbol
_atom_site_label
_atom_site_fract_x
_atom_site_fract_y
_atom_site_fract_z
Si Si1 0.424922 0.055720 0.140340
Si Si2 0.379734 0.804912 0.381583
Si Si3 0.956075 0.534410 0.451410
Si Si4 0.989377 0.502515 0.691032
Si Si5 0.618015 0.703454 0.267977
Si Si6 0.884775 0.208147 0.879905
Si Si7 0.750000 0.750000 0.920851
O O1 0.538868 0.158137 0.131246
O O2 0.389425 0.082976 0.190875
O O3 0.323158 0.131880 0.110353
O O4 0.445421 0.875017 0.128553
O O5 0.250000 0.750000 0.389137
O O6 0.441145 0.884820 0.423401
O O7 0.392813 0.927092 0.341093
O O8 0.920619 0.376646 0.425005
O O9 0.844281 0.649939 0.448081
O O10 0.000000 0.500000 0.500000
O O11 0.050002 0.359124 0.716487
O O12 0.080721 0.586901 0.658632
O O13 0.938209 0.624677 0.725523
O O14 0.750000 0.750000 0.259892
O O15 0.750000 0.250000 0.879354
#
# Coordination Sequence:
#
# PCOD9429949 Si02
#       7
#     8   8   8   8   8   8   4
#     4  10  19  36  63  85 113 158 202 233 297 351
#     4   9  21  41  58  77 121 162 189 237 303 350
#     4  10  22  40  62  92 119 147 198 248 293 362
#     4  10  23  35  53  86 115 153 202 242 295 349
#     4  11  21  36  56  83 119 153 200 254 285 339
#     4  11  20  37  62  87 114 154 200 245 302 358
#     4  10  18  40  62  86 118 156 186 246 296 348
#
# _framework density 17.422933
#
# number of rings (size 3 to 8) (size 9 to 14) (size 15 to 20)
#    0.000    1.846    2.308    2.769    0.000    4.308 
#    2.769    4.615    0.000    0.000    0.000    0.000 
#    0.000    0.000    0.000    0.000    0.000    0.000 
#
# Total GULP energy -290308.786231 kJ/mol
# GULP energy per Si atom -5582.861274 kJ/mol
# Density = 1.738328 g / cm^3
# Si number density = 17.422933 Si / 1000 Ang^3
#
#
#
# Elastic Constant Matrix: (Units=GPa)
#
#
# Indices 1 2 3 4 5 6 
#
# 1 121.3681 37.3187 63.1254 0.0000 0.0000 0.0000
# 2 37.3187 114.4308 62.9983 0.0000 0.0000 0.0000
# 3 63.1254 62.9983 145.4647 0.0000 0.0000 0.0000
# 4 0.0000 0.0000 0.0000 18.6192 0.0000 0.0000
# 5 0.0000 0.0000 0.0000 0.0000 8.1975 0.0000
# 6 0.0000 0.0000 0.0000 0.0000 0.0000 23.5397
#
#
#
# Elastic Compliance Matrix: (Units=1/GPa)
#
#
# Indices 1 2 3 4 5 6 
#
# 1 0.010772 -0.001234 -0.004140 0.000000 0.000000 0.000000
# 2 -0.001234 0.011616 -0.004495 0.000000 0.000000 0.000000
# 3 -0.004140 -0.004495 0.010618 0.000000 0.000000 0.000000
# 4 0.000000 0.000000 0.000000 0.053708 0.000000 0.000000
# 5 0.000000 0.000000 0.000000 0.000000 0.121988 0.000000
# 6 0.000000 0.000000 0.000000 0.000000 0.000000 0.042481
#
#
# Mechanical properties :
#
#
# Convention : Reuss Voigt Hill
#
# Bulk Modulus (GPa) = 75.37161 78.68316 77.02739
# Shear Modulus (GPa) = 18.15899 24.59269 21.37584
#
# Velocity S-wave (km/s) = 3.23189 3.76109 3.50648
# Velocity P-wave (km/s) = 7.56840 8.00748 7.79104
#
# Compressibility (1/GPa) = 0.01326759
#
# Stress axis : x y z
#
# Youngs Moduli (GPa) = 92.83140 86.08736 94.17834
#
# Poissons Ratio (x) = 0.10620 0.38994
# Poissons Ratio (y) = 0.11452 0.42337
# Poissons Ratio (z) = 0.38436 0.38700
#
# Static dielectric constant tensor:
#      x y z
#    x 1.574700 0.000000 0.000000 
#    y 0.000000 1.602910 0.000000 
#    z 0.000000 0.000000 1.570880 
# 
# From -- ./inp_files/22288.got.cif
#   From: 2010.05.17/outbox.cif.g08.bks.cpg/sg56_12_cif.got.tgz:22288.got - 2010.06.03 13:42:01.
