data_PCOD9429423
_publ_section_title
;
Structure prediction by ZEFSAII (Michael W. Deem and Ramdas Pophale) SiO2 
 PCOD9429423
Probable space group: P B A M
;
_chemical_formula_sum "Si O2"
_cell_formula_units_Z 56
_cell_length_a 21.000000
_cell_length_b 15.000000
_cell_length_c 9.000000
_cell_angle_alpha 90.000000
_cell_angle_beta 90.000000
_cell_angle_gamma 90.000000
_cell_volume 2835.000000
_symmetry_space_group_name_H-M "P B A M"
_symmetry_group_IT_number 55
_symmetry_cell_setting 'orthorhombic'
loop_
_space_group_symop_operation_xyz
x,y,z
-x,-y,z
1/2+x,1/2-y,-z
1/2-x,1/2+y,-z
-x,-y,-z
x,y,-z
1/2-x,1/2+y,z
1/2+x,1/2-y,z
loop_
_atom_site_type_symbol
_atom_site_label
_atom_site_fract_x
_atom_site_fract_y
_atom_site_fract_z
Si Si1 0.939105 0.557749 0.680962
Si Si2 0.695890 0.982303 0.324679
Si Si3 0.512732 0.249320 0.678946
Si Si4 0.626826 0.708765 0.671197
Si Si5 0.759044 0.299523 0.177149
Si Si6 0.165278 0.984077 0.667144
Si Si7 0.123163 0.154689 0.174407
O O1 0.938216 0.555605 0.500000
O O2 0.870252 0.523116 0.730910
O O3 0.953434 0.658187 0.725986
O O4 0.000000 0.500000 0.728670
O O5 0.687231 0.962431 0.500000
O O6 0.714609 0.892889 0.239894
O O7 0.760105 0.040862 0.313005
O O8 0.510915 0.254258 0.500000
O O9 0.439351 0.251317 0.728510
O O10 0.558220 0.324971 0.741642
O O11 0.636445 0.738775 0.500000
O O12 0.688960 0.731680 0.763768
O O13 0.621990 0.602461 0.670434
O O14 0.685432 0.288777 0.227217
O O15 0.757979 0.301288 0.000000
O O16 0.161175 0.024502 0.500000
O O17 0.144401 0.054545 0.788523
O O18 0.114435 0.168770 0.000000
#
# Coordination Sequence:
#
# PCOD9429423 Si02
#       7
#     8   8   8   8   8   8   8
#     4   9  17  30  52  81 111 140 176 222 276 333
#     4   9  17  32  54  78 103 138 182 228 273 324
#     4  10  21  36  57  84 113 147 184 230 284 333
#     4  10  21  36  57  85 112 142 185 233 281 332
#     4  10  21  36  55  80 111 148 184 225 277 332
#     4   9  19  35  56  81 106 138 185 235 278 325
#     4  10  22  39  56  79 112 149 189 230 277 334
#
# _framework density 19.753086
#
# number of rings (size 3 to 8) (size 9 to 14) (size 15 to 20)
#    0.000    2.429    0.000    1.714    2.000    5.714 
#    0.000    3.571    0.000    1.714    0.000    0.000 
#    0.000    0.000    0.000    0.000    0.000    0.000 
#
# Total GULP energy -312037.109950 kJ/mol
# GULP energy per Si atom -5572.091249 kJ/mol
# Density = 1.970813 g / cm^3
# Si number density = 19.753086 Si / 1000 Ang^3
#
#
#
# Elastic Constant Matrix: (Units=GPa)
#
#
# Indices 1 2 3 4 5 6 
#
# 1 -9.5157 4.8191 12.3751 0.0000 0.0000 0.0000
# 2 4.8191 31.5571 2.8503 0.0000 0.0000 0.0000
# 3 12.3751 2.8503 14.2098 0.0000 0.0000 0.0000
# 4 0.0000 0.0000 0.0000 -24.0218 0.0000 0.0000
# 5 0.0000 0.0000 0.0000 0.0000 12.8659 0.0000
# 6 0.0000 0.0000 0.0000 0.0000 0.0000 30.0383
#
#
#
# Elastic Compliance Matrix: (Units=1/GPa)
#
#
# Indices 1 2 3 4 5 6 
#
# 1 -0.048854 0.003684 0.041807 0.000000 0.000000 0.000000
# 2 0.003684 0.031995 -0.009627 0.000000 0.000000 0.000000
# 3 0.041807 -0.009627 0.035896 0.000000 0.000000 0.000000
# 4 0.000000 0.000000 0.000000 -0.041629 0.000000 0.000000
# 5 0.000000 0.000000 0.000000 0.000000 0.077725 0.000000
# 6 0.000000 0.000000 0.000000 0.000000 0.000000 0.033291
#
#
# Mechanical properties :
#
#
# Convention : Reuss Voigt Hill
#
# Bulk Modulus (GPa) = 11.01718 8.48224 9.74971
# Shear Modulus (GPa) = 106.49515 4.85692 55.67604
#
# Velocity S-wave (km/s) = 7.35052 1.56976 5.31481
# Velocity P-wave (km/s) = 8.81078 2.75481 6.52759
#
# Compressibility (1/GPa) = 0.09076729
#
# Stress axis : x y z
#
# Youngs Moduli (GPa) = -20.46925 31.25443 27.85827
#
# Poissons Ratio (x) = -0.11515 -1.16467
# Poissons Ratio (y) = 0.07542 0.26818
# Poissons Ratio (z) = 0.85576 0.30087
#
# Static dielectric constant tensor:
#      x y z
#    x 1.710960 0.000000 0.000000 
#    y 0.000000 1.747740 0.000000 
#    z 0.000000 0.000000 1.674570 
# 
# From -- ./inp_files/6140.got.cif
#   From: 2010.05.17/outbox.ucp.g08.bks.cvg/sg55_4_cif.got.tgz:6140.got - 2010.06.11 16:36:00.
