data_PCOD9429605
_publ_section_title
;
Structure prediction by ZEFSAII (Michael W. Deem and Ramdas Pophale) SiO2 
 PCOD9429605
Probable space group: P C C N
;
_chemical_formula_sum "Si O2"
_cell_formula_units_Z 56
_cell_length_a 19.717823
_cell_length_b 8.962938
_cell_length_c 18.856374
_cell_angle_alpha 90.000000
_cell_angle_beta 90.000000
_cell_angle_gamma 90.000000
_cell_volume 3332.479907
_symmetry_space_group_name_H-M "P C C N"
_symmetry_group_IT_number 56
_symmetry_cell_setting 'orthorhombic'
loop_
_space_group_symop_operation_xyz
x,y,z
1/2-x,1/2-y,z
1/2+x,-y,1/2-z
-x,1/2+y,1/2-z
-x,-y,-z
1/2+x,1/2+y,-z
1/2-x,y,1/2+z
x,1/2-y,1/2+z
loop_
_atom_site_type_symbol
_atom_site_label
_atom_site_fract_x
_atom_site_fract_y
_atom_site_fract_z
Si Si1 0.416382 0.350753 0.450224
Si Si2 0.680058 0.683797 0.954077
Si Si3 0.773126 0.096452 0.765303
Si Si4 0.649593 0.891772 0.820135
Si Si5 0.673478 0.686449 0.689240
Si Si6 0.426238 0.904191 0.069227
Si Si7 0.317050 0.840463 0.582172
O O1 0.386639 0.221720 0.500901
O O2 0.371369 0.333676 0.380248
O O3 0.495444 0.357092 0.430944
O O4 0.407971 0.496486 0.500144
O O5 0.750000 0.750000 0.986403
O O6 0.672779 0.770412 0.878943
O O7 0.686156 0.507851 0.945632
O O8 0.750000 0.250000 0.728018
O O9 0.815846 0.148694 0.832732
O O10 0.709827 0.004938 0.798662
O O11 0.814288 0.978093 0.720362
O O12 0.638438 0.795118 0.748314
O O13 0.594555 0.994281 0.861923
O O14 0.750000 0.750000 0.676222
O O15 0.381461 0.756821 0.063420
O O16 0.250000 0.750000 0.560276
#
# Coordination Sequence:
#
# PCOD9429605 Si02
#       7
#     8   8   8   8   8   8   8
#     4  10  23  39  54  77 121 156 181 230 289 333
#     4  11  18  33  58  84 106 147 192 229 271 344
#     4  10  17  31  57  87 106 134 179 245 276 319
#     4  10  17  33  57  80 106 141 190 227 278 331
#     4  10  20  36  56  83 112 146 183 235 290 333
#     4  10  21  39  57  78 115 155 190 227 276 340
#     4  11  18  31  60  87 101 135 195 242 265 321
#
# _framework density 16.804302
#
# number of rings (size 3 to 8) (size 9 to 14) (size 15 to 20)
#    0.000    1.714    5.714    1.714    0.000    0.571 
#    2.571    5.000    0.000    0.000    0.000    0.000 
#    0.000    0.000    0.000    0.000    0.000    0.000 
#
# Total GULP energy -311846.155248 kJ/mol
# GULP energy per Si atom -5568.681344 kJ/mol
# Density = 1.676605 g / cm^3
# Si number density = 16.804302 Si / 1000 Ang^3
#
#
#
# Elastic Constant Matrix: (Units=GPa)
#
#
# Indices 1 2 3 4 5 6 
#
# 1 70.8037 49.2160 44.1711 0.0000 0.0000 0.0000
# 2 49.2160 145.9953 35.9417 0.0000 0.0000 0.0000
# 3 44.1711 35.9417 81.7424 0.0000 0.0000 0.0000
# 4 0.0000 0.0000 0.0000 9.2775 0.0000 0.0000
# 5 0.0000 0.0000 0.0000 0.0000 24.1992 0.0000
# 6 0.0000 0.0000 0.0000 0.0000 0.0000 24.9675
#
#
#
# Elastic Compliance Matrix: (Units=1/GPa)
#
#
# Indices 1 2 3 4 5 6 
#
# 1 0.024927 -0.005705 -0.010962 0.000000 0.000000 0.000000
# 2 -0.005705 0.008986 -0.000869 0.000000 0.000000 0.000000
# 3 -0.010962 -0.000869 0.018539 0.000000 0.000000 0.000000
# 4 0.000000 0.000000 0.000000 0.107788 0.000000 0.000000
# 5 0.000000 0.000000 0.000000 0.000000 0.041324 0.000000
# 6 0.000000 0.000000 0.000000 0.000000 0.000000 0.040052
#
#
# Mechanical properties :
#
#
# Convention : Reuss Voigt Hill
#
# Bulk Modulus (GPa) = 57.52847 61.91098 59.71973
# Shear Modulus (GPa) = 17.70036 22.96967 20.33501
#
# Velocity S-wave (km/s) = 3.24901 3.70116 3.48243
# Velocity P-wave (km/s) = 6.95582 7.42880 7.19620
#
# Compressibility (1/GPa) = 0.01738270
#
# Stress axis : x y z
#
# Youngs Moduli (GPa) = 40.11664 111.27868 53.94066
#
# Poissons Ratio (x) = 0.63480 0.59128
# Poissons Ratio (y) = 0.22885 0.04686
# Poissons Ratio (z) = 0.43975 0.09667
#
# Static dielectric constant tensor:
#      x y z
#    x 1.563850 0.000000 0.000000 
#    y 0.000000 1.588030 0.000000 
#    z 0.000000 0.000000 1.582670 
# 
# From -- ./inp_files/19497.got.cif
#   From: 2010.05.17/outbox.cif.g08.bks.cpg/sg56_10_cif.got.tgz:19497.got - 2010.06.03 13:42:01.
