data_PCOD9429869
_publ_section_title
;
Structure prediction by ZEFSAII (Michael W. Deem and Ramdas Pophale) SiO2 
 PCOD9429869
Probable space group: P C C N
;
_chemical_formula_sum "Si O2"
_cell_formula_units_Z 48
_cell_length_a 19.595769
_cell_length_b 5.436529
_cell_length_c 17.610543
_cell_angle_alpha 90.000000
_cell_angle_beta 90.000000
_cell_angle_gamma 90.000000
_cell_volume 1876.103387
_symmetry_space_group_name_H-M "P C C N"
_symmetry_group_IT_number 56
_symmetry_cell_setting 'orthorhombic'
loop_
_space_group_symop_operation_xyz
x,y,z
1/2-x,1/2-y,z
1/2+x,-y,1/2-z
-x,1/2+y,1/2-z
-x,-y,-z
1/2+x,1/2+y,-z
1/2-x,y,1/2+z
x,1/2-y,1/2+z
loop_
_atom_site_type_symbol
_atom_site_label
_atom_site_fract_x
_atom_site_fract_y
_atom_site_fract_z
Si Si1 0.599413 0.827583 0.460775
Si Si2 0.149949 0.121342 0.729148
Si Si3 0.750000 0.750000 0.511308
Si Si4 0.574206 0.575882 0.133849
Si Si5 0.662818 0.121214 0.355526
Si Si6 0.750000 0.250000 0.002014
Si Si7 0.492139 0.080372 0.144926
O O1 0.678810 0.734595 0.462863
O O2 0.584723 0.927277 0.543282
O O3 0.548430 0.614633 0.434861
O O4 0.591250 0.025562 0.392016
O O5 0.144441 0.113502 0.819380
O O6 0.179657 0.376356 0.694616
O O7 0.069597 0.103214 0.704664
O O8 0.175255 0.865623 0.692587
O O9 0.745958 0.491334 0.551600
O O10 0.543207 0.309848 0.154435
O O11 0.531392 0.824486 0.149597
O O12 0.693387 0.190436 0.438480
#
# Coordination Sequence:
#
# PCOD9429869 Si02
#       7
#     8   8   4   8   8   4   8
#     4  10  23  41  63  91 120 156 206 249 299 353
#     4  11  22  39  58  87 125 159 194 242 305 357
#     4  10  22  38  62  88 118 152 194 256 302 348
#     4  12  24  38  61  91 126 159 194 248 305 359
#     4  10  21  38  61  85 117 157 202 250 288 356
#     4  10  18  36  62  88 108 154 214 250 288 340
#     4  11  22  38  61  88 121 160 202 244 289 357
#
# _framework density 25.584944
#
# number of rings (size 3 to 8) (size 9 to 14) (size 15 to 20)
#    0.000    1.333    0.000    8.000    0.000    6.667 
#    0.000    1.667    0.000    1.000    0.000    0.000 
#    0.000    0.000    0.000    0.000    0.000    0.000 
#
# Total GULP energy -267324.525710 kJ/mol
# GULP energy per Si atom -5569.260952 kJ/mol
# Density = 2.552671 g / cm^3
# Si number density = 25.584944 Si / 1000 Ang^3
#
#
#
# Elastic Constant Matrix: (Units=GPa)
#
#
# Indices 1 2 3 4 5 6 
#
# 1 56.6447 48.6455 6.2091 0.0000 0.0000 0.0000
# 2 48.6455 256.9281 33.8311 0.0000 0.0000 0.0000
# 3 6.2091 33.8311 76.2617 0.0000 0.0000 0.0000
# 4 0.0000 0.0000 0.0000 16.7411 0.0000 0.0000
# 5 0.0000 0.0000 0.0000 0.0000 12.2124 0.0000
# 6 0.0000 0.0000 0.0000 0.0000 0.0000 31.2376
#
#
#
# Elastic Compliance Matrix: (Units=1/GPa)
#
#
# Indices 1 2 3 4 5 6 
#
# 1 0.021082 -0.003999 0.000058 0.000000 0.000000 0.000000
# 2 -0.003999 0.004892 -0.001845 0.000000 0.000000 0.000000
# 3 0.000058 -0.001845 0.013926 0.000000 0.000000 0.000000
# 4 0.000000 0.000000 0.000000 0.059733 0.000000 0.000000
# 5 0.000000 0.000000 0.000000 0.000000 0.081884 0.000000
# 6 0.000000 0.000000 0.000000 0.000000 0.000000 0.032013
#
#
# Mechanical properties :
#
#
# Convention : Reuss Voigt Hill
#
# Bulk Modulus (GPa) = 35.30053 63.02290 49.16171
# Shear Modulus (GPa) = 21.31785 32.11482 26.71633
#
# Velocity S-wave (km/s) = 2.88968 3.54676 3.23495
# Velocity P-wave (km/s) = 4.99610 6.43886 5.76281
#
# Compressibility (1/GPa) = 0.02832819
#
# Stress axis : x y z
#
# Youngs Moduli (GPa) = 47.43389 204.40634 71.80620
#
# Poissons Ratio (x) = 0.81745 -0.00414
# Poissons Ratio (y) = 0.18970 0.13246
# Poissons Ratio (z) = -0.00273 0.37706
#
# Static dielectric constant tensor:
#      x y z
#    x 2.483440 0.000000 0.000000 
#    y 0.000000 6.790300 0.000000 
#    z 0.000000 0.000000 2.075640 
# 
# From -- ./inp_files/16949.got.cif
#   From: 2010.05.17/outbox.cif.g08.bks.cpg/sg56_9_cif.got.tgz:16949.got - 2010.06.03 13:42:01.
