data_PCOD9429845
_publ_section_title
;
Structure prediction by ZEFSAII (Michael W. Deem and Ramdas Pophale) SiO2 
 PCOD9429845
Probable space group: P C C N
;
_chemical_formula_sum "Si O2"
_cell_formula_units_Z 64
_cell_length_a 14.005630
_cell_length_b 12.081412
_cell_length_c 18.793466
_cell_angle_alpha 90.000000
_cell_angle_beta 90.000000
_cell_angle_gamma 90.000000
_cell_volume 3180.000780
_symmetry_space_group_name_H-M "P C C N"
_symmetry_group_IT_number 56
_symmetry_cell_setting 'orthorhombic'
loop_
_space_group_symop_operation_xyz
x,y,z
1/2-x,1/2-y,z
1/2+x,-y,1/2-z
-x,1/2+y,1/2-z
-x,-y,-z
1/2+x,1/2+y,-z
1/2-x,y,1/2+z
x,1/2-y,1/2+z
loop_
_atom_site_type_symbol
_atom_site_label
_atom_site_fract_x
_atom_site_fract_y
_atom_site_fract_z
Si Si1 0.579974 0.926441 0.207926
Si Si2 0.826536 0.350587 0.582759
Si Si3 0.470608 0.742473 0.140861
Si Si4 0.532667 0.639001 0.276047
Si Si5 0.700674 0.980485 0.709281
Si Si6 0.290698 0.637169 0.661946
Si Si7 0.464406 0.337555 0.137676
Si Si8 0.381913 0.951783 0.567987
O O1 0.555141 0.830074 0.151814
O O2 0.537680 0.902805 0.287003
O O3 0.525976 0.039635 0.188656
O O4 0.692900 0.934650 0.217066
O O5 0.750000 0.250000 0.576952
O O6 0.797842 0.444194 0.639603
O O7 0.847746 0.414374 0.509261
O O8 0.929702 0.310255 0.610722
O O9 0.458307 0.699870 0.222642
O O10 0.380263 0.817733 0.117358
O O11 0.466425 0.633121 0.092599
O O12 0.616315 0.607611 0.219819
O O13 0.576388 0.719572 0.336017
O O14 0.677302 0.058621 0.775978
O O15 0.250000 0.750000 0.694344
O O16 0.207656 0.577372 0.618616
O O17 0.414553 0.422238 0.082637
#
# Coordination Sequence:
#
# PCOD9429845 Si02
#       8
#     8   8   8   8   8   8   8   8
#     4  11  20  37  61  96 128 165 221 283 345 390
#     4  12  24  40  66 101 136 177 230 286 338 408
#     4  10  19  34  58  85 129 162 213 269 327 398
#     4  11  21  37  61  97 129 165 222 284 339 391
#     4  12  21  37  63  94 133 167 223 290 341 392
#     4  10  18  35  62  91 118 163 220 277 328 387
#     4  11  22  40  63  95 134 172 221 278 341 406
#     4  11  22  41  65  96 132 179 224 272 342 419
#
# _framework density 20.125779999999999
#
# number of rings (size 3 to 8) (size 9 to 14) (size 15 to 20)
#    0.000    1.000    5.000    4.125    0.000    3.000 
#    0.000    0.000    2.750    2.250    0.000    0.000 
#    0.000    0.000    0.000    0.000    0.000    0.000 
#
# Total GULP energy -356597.635677 kJ/mol
# GULP energy per Si atom -5571.838057 kJ/mol
# Density = 2.007997 g / cm^3
# Si number density = 20.125780 Si / 1000 Ang^3
#
#
#
# Elastic Constant Matrix: (Units=GPa)
#
#
# Indices 1 2 3 4 5 6 
#
# 1 101.3336 27.5245 18.5099 0.0000 0.0000 0.0000
# 2 27.5245 55.0524 24.3055 0.0000 0.0000 0.0000
# 3 18.5099 24.3055 82.4910 0.0000 0.0000 0.0000
# 4 0.0000 0.0000 0.0000 32.2381 0.0000 0.0000
# 5 0.0000 0.0000 0.0000 0.0000 21.7600 0.0000
# 6 0.0000 0.0000 0.0000 0.0000 0.0000 30.3192
#
#
#
# Elastic Compliance Matrix: (Units=1/GPa)
#
#
# Indices 1 2 3 4 5 6 
#
# 1 0.011493 -0.005297 -0.001018 0.000000 0.000000 0.000000
# 2 -0.005297 0.023322 -0.005683 0.000000 0.000000 0.000000
# 3 -0.001018 -0.005683 0.014026 0.000000 0.000000 0.000000
# 4 0.000000 0.000000 0.000000 0.031019 0.000000 0.000000
# 5 0.000000 0.000000 0.000000 0.000000 0.045956 0.000000
# 6 0.000000 0.000000 0.000000 0.000000 0.000000 0.032982
#
#
# Mechanical properties :
#
#
# Convention : Reuss Voigt Hill
#
# Bulk Modulus (GPa) = 40.25070 42.17299 41.21185
# Shear Modulus (GPa) = 26.16770 28.09927 27.13349
#
# Velocity S-wave (km/s) = 3.60975 3.74061 3.67576
# Velocity P-wave (km/s) = 6.11692 6.29733 6.20778
#
# Compressibility (1/GPa) = 0.02484429
#
# Stress axis : x y z
#
# Youngs Moduli (GPa) = 87.00883 42.87848 71.29861
#
# Poissons Ratio (x) = 0.22711 0.07260
# Poissons Ratio (y) = 0.46085 0.40520
# Poissons Ratio (z) = 0.08860 0.24368
#
# Static dielectric constant tensor:
#      x y z
#    x 1.813300 0.000000 0.000000 
#    y 0.000000 1.194750 0.000000 
#    z 0.000000 0.000000 1.701370 
# 
# From -- ./inp_files/16344.got.cif
#   From: 2010.05.17/outbox.cif.g08.bks.cpg/sg56_9_cif.got.tgz:16344.got - 2010.06.03 13:42:01.
