data_PCOD9429588
_publ_section_title
;
Structure prediction by ZEFSAII (Michael W. Deem and Ramdas Pophale) SiO2 
 PCOD9429588
Probable space group: P C C N
;
_chemical_formula_sum "Si O2"
_cell_formula_units_Z 40
_cell_length_a 5.183522
_cell_length_b 19.293798
_cell_length_c 19.129458
_cell_angle_alpha 90.000000
_cell_angle_beta 90.000000
_cell_angle_gamma 90.000000
_cell_volume 1913.133774
_symmetry_space_group_name_H-M "P C C N"
_symmetry_group_IT_number 56
_symmetry_cell_setting 'orthorhombic'
loop_
_space_group_symop_operation_xyz
x,y,z
1/2-x,1/2-y,z
1/2+x,-y,1/2-z
-x,1/2+y,1/2-z
-x,-y,-z
1/2+x,1/2+y,-z
1/2-x,y,1/2+z
x,1/2-y,1/2+z
loop_
_atom_site_type_symbol
_atom_site_label
_atom_site_fract_x
_atom_site_fract_y
_atom_site_fract_z
Si Si1 0.262227 0.669227 0.679397
Si Si2 0.512301 0.466834 0.780755
Si Si3 0.536362 0.577625 0.468515
Si Si4 0.262565 0.169340 0.407883
Si Si5 0.969690 0.037279 0.075788
O O1 0.250000 0.750000 0.702266
O O2 0.142315 0.609132 0.727767
O O3 0.557084 0.656265 0.655346
O O4 0.061855 0.661014 0.613899
O O5 0.249653 0.482632 0.739740
O O6 0.433182 0.483527 0.861503
O O7 0.500000 0.500000 0.500000
O O8 0.646286 0.625327 0.529206
O O9 0.759379 0.573890 0.411688
O O10 0.261987 0.590955 0.433820
O O11 0.250000 0.250000 0.426190
O O12 0.000000 0.000000 0.000000
#
# Coordination Sequence:
#
# PCOD9429588 Si02
#       5
#     8   8   8   8   8
#     4  10  20  36  57  83 117 158 200 248 303 357
#     4  12  24  39  60  91 123 154 203 259 303 357
#     4  10  17  29  51  78 111 146 183 230 293 353
#     4  10  19  32  55  88 119 149 198 254 297 348
#     4  10  20  34  56  82 114 153 191 237 297 359
#
# _framework density 20.908104999999999
#
# number of rings (size 3 to 8) (size 9 to 14) (size 15 to 20)
#    0.000    1.600    0.000    8.400    0.000    0.000 
#    0.000    0.000    0.000    4.800    0.000    0.000 
#    0.000    0.000    0.000    0.000    0.000    0.000 
#
# Total GULP energy -222756.038368 kJ/mol
# GULP energy per Si atom -5568.900959 kJ/mol
# Density = 2.086052 g / cm^3
# Si number density = 20.908105 Si / 1000 Ang^3
#
#
#
# Elastic Constant Matrix: (Units=GPa)
#
#
# Indices 1 2 3 4 5 6 
#
# 1 143.6499 3.6083 11.8301 0.0000 0.0000 0.0000
# 2 3.6083 79.8710 21.4287 0.0000 0.0000 0.0000
# 3 11.8301 21.4287 65.3015 0.0000 0.0000 0.0000
# 4 0.0000 0.0000 0.0000 23.1924 0.0000 0.0000
# 5 0.0000 0.0000 0.0000 0.0000 26.8980 0.0000
# 6 0.0000 0.0000 0.0000 0.0000 0.0000 22.3220
#
#
#
# Elastic Compliance Matrix: (Units=1/GPa)
#
#
# Indices 1 2 3 4 5 6 
#
# 1 0.007067 0.000027 -0.001289 0.000000 0.000000 0.000000
# 2 0.000027 0.013729 -0.004510 0.000000 0.000000 0.000000
# 3 -0.001289 -0.004510 0.017027 0.000000 0.000000 0.000000
# 4 0.000000 0.000000 0.000000 0.043118 0.000000 0.000000
# 5 0.000000 0.000000 0.000000 0.000000 0.037177 0.000000
# 6 0.000000 0.000000 0.000000 0.000000 0.000000 0.044799
#
#
# Mechanical properties :
#
#
# Convention : Reuss Voigt Hill
#
# Bulk Modulus (GPa) = 38.05446 40.28406 39.16926
# Shear Modulus (GPa) = 27.28949 31.27952 29.28451
#
# Velocity S-wave (km/s) = 3.61669 3.87207 3.74656
# Velocity P-wave (km/s) = 5.97335 6.26894 6.12293
#
# Compressibility (1/GPa) = 0.02627813
#
# Stress axis : x y z
#
# Youngs Moduli (GPa) = 141.50573 72.83861 58.73013
#
# Poissons Ratio (x) = -0.00193 0.07570
# Poissons Ratio (y) = -0.00376 0.26487
# Poissons Ratio (z) = 0.18239 0.32850
#
# Static dielectric constant tensor:
#      x y z
#    x 1.876450 0.000000 0.000000 
#    y 0.000000 1.749130 0.000000 
#    z 0.000000 0.000000 1.772930 
# 
# From -- ./inp_files/13819.got.cif
#   From: 2010.05.17/outbox.cif.g08.bks.cpg/sg56_7_cif.got.tgz:13819.got - 2010.06.03 13:42:01.
