data_PCOD9429613
_publ_section_title
;
Structure prediction by ZEFSAII (Michael W. Deem and Ramdas Pophale) SiO2 
 PCOD9429613
Probable space group: P C C N
;
_chemical_formula_sum "Si O2"
_cell_formula_units_Z 48
_cell_length_a 12.437740
_cell_length_b 7.764878
_cell_length_c 18.904174
_cell_angle_alpha 90.000000
_cell_angle_beta 90.000000
_cell_angle_gamma 90.000000
_cell_volume 1825.718501
_symmetry_space_group_name_H-M "P C C N"
_symmetry_group_IT_number 56
_symmetry_cell_setting 'orthorhombic'
loop_
_space_group_symop_operation_xyz
x,y,z
1/2-x,1/2-y,z
1/2+x,-y,1/2-z
-x,1/2+y,1/2-z
-x,-y,-z
1/2+x,1/2+y,-z
1/2-x,y,1/2+z
x,1/2-y,1/2+z
loop_
_atom_site_type_symbol
_atom_site_label
_atom_site_fract_x
_atom_site_fract_y
_atom_site_fract_z
Si Si1 0.913261 0.229462 0.544014
Si Si2 0.665276 0.870095 0.097230
Si Si3 0.559235 0.975956 0.272471
Si Si4 0.924157 0.260569 0.882896
Si Si5 0.431806 0.366068 0.655935
Si Si6 0.682216 0.091456 0.676140
O O1 0.030700 0.217879 0.581348
O O2 0.849574 0.352291 0.596623
O O3 0.901648 0.283972 0.463824
O O4 0.871264 0.034359 0.551943
O O5 0.750000 0.750000 0.057067
O O6 0.555239 0.774845 0.117967
O O7 0.736639 0.934909 0.164224
O O8 0.608162 0.789583 0.293978
O O9 0.430338 0.947229 0.287507
O O10 0.604131 0.114618 0.327320
O O11 0.541354 0.068778 0.196666
O O12 0.878270 0.450390 0.862720
O O13 0.750000 0.250000 0.707315
#
# Coordination Sequence:
#
# PCOD9429613 Si02
#       6
#     8   8   8   8   8   8
#     4   9  21  37  57  88 118 146 198 252 288 341
#     4  10  17  32  55  85 112 153 192 241 281 348
#     4  11  20  34  58  85 117 151 189 237 298 340
#     4  11  21  38  60  90 117 151 200 250 289 344
#     4  10  20  34  54  86 115 145 185 241 291 339
#     4   9  19  35  55  84 114 151 196 239 285 351
#
# _framework density 26.291018000000001
#
# number of rings (size 3 to 8) (size 9 to 14) (size 15 to 20)
#    0.000    2.000    3.333    3.000    0.000    2.667 
#    3.000    0.000    0.000    5.000   17.333    0.000 
#    0.000    0.000    0.000    0.000    0.000    0.000 
#
# Total GULP energy -268088.818833 kJ/mol
# GULP energy per Si atom -5585.183726 kJ/mol
# Density = 2.623118 g / cm^3
# Si number density = 26.291018 Si / 1000 Ang^3
#
#
#
# Elastic Constant Matrix: (Units=GPa)
#
#
# Indices 1 2 3 4 5 6 
#
# 1 69.7032 3.4422 -17.5967 0.0000 0.0000 0.0000
# 2 3.4422 112.6502 24.2631 0.0000 0.0000 0.0000
# 3 -17.5967 24.2631 141.0772 0.0000 0.0000 0.0000
# 4 0.0000 0.0000 0.0000 37.0982 0.0000 0.0000
# 5 0.0000 0.0000 0.0000 0.0000 18.5448 0.0000
# 6 0.0000 0.0000 0.0000 0.0000 0.0000 21.5513
#
#
#
# Elastic Compliance Matrix: (Units=1/GPa)
#
#
# Indices 1 2 3 4 5 6 
#
# 1 0.014898 -0.000888 0.002011 0.000000 0.000000 0.000000
# 2 -0.000888 0.009271 -0.001705 0.000000 0.000000 0.000000
# 3 0.002011 -0.001705 0.007632 0.000000 0.000000 0.000000
# 4 0.000000 0.000000 0.000000 0.026955 0.000000 0.000000
# 5 0.000000 0.000000 0.000000 0.000000 0.053923 0.000000
# 6 0.000000 0.000000 0.000000 0.000000 0.000000 0.046401
#
#
# Mechanical properties :
#
#
# Convention : Reuss Voigt Hill
#
# Bulk Modulus (GPa) = 32.64065 38.18310 35.41188
# Shear Modulus (GPa) = 29.33250 36.32701 32.82976
#
# Velocity S-wave (km/s) = 3.34381 3.72119 3.53754
# Velocity P-wave (km/s) = 5.22974 5.74611 5.49400
#
# Compressibility (1/GPa) = 0.03063665
#
# Stress axis : x y z
#
# Youngs Moduli (GPa) = 67.12258 107.85753 131.01948
#
# Poissons Ratio (x) = 0.09582 -0.26349
# Poissons Ratio (y) = 0.05963 0.22344
# Poissons Ratio (z) = -0.13499 0.18394
#
# Static dielectric constant tensor:
#      x y z
#    x 2.136720 0.000000 0.000000 
#    y 0.000000 2.153200 0.000000 
#    z 0.000000 0.000000 2.159680 
# 
# From -- ./inp_files/16535.got.cif
#   From: 2010.05.17/outbox.cif.g08.bks.cpg/sg56_9_cif.got.tgz:16535.got - 2010.06.03 13:42:01.
