data_PCOD9429782
_publ_section_title
;
Structure prediction by ZEFSAII (Michael W. Deem and Ramdas Pophale) SiO2 
 PCOD9429782
Probable space group: P C C N
;
_chemical_formula_sum "Si O2"
_cell_formula_units_Z 48
_cell_length_a 9.721205
_cell_length_b 14.860263
_cell_length_c 12.645089
_cell_angle_alpha 90.000000
_cell_angle_beta 90.000000
_cell_angle_gamma 90.000000
_cell_volume 1826.705295
_symmetry_space_group_name_H-M "P C C N"
_symmetry_group_IT_number 56
_symmetry_cell_setting 'orthorhombic'
loop_
_space_group_symop_operation_xyz
x,y,z
1/2-x,1/2-y,z
1/2+x,-y,1/2-z
-x,1/2+y,1/2-z
-x,-y,-z
1/2+x,1/2+y,-z
1/2-x,y,1/2+z
x,1/2-y,1/2+z
loop_
_atom_site_type_symbol
_atom_site_label
_atom_site_fract_x
_atom_site_fract_y
_atom_site_fract_z
Si Si1 0.528511 0.422821 0.235782
Si Si2 0.650229 0.516045 0.948206
Si Si3 0.599461 0.733846 0.193374
Si Si4 0.295041 0.647613 0.369347
Si Si5 0.588058 0.593585 0.384409
Si Si6 0.348699 0.668364 0.121690
O O1 0.396810 0.454885 0.169593
O O2 0.485571 0.325099 0.280811
O O3 0.657620 0.410252 0.155736
O O4 0.567051 0.499997 0.319297
O O5 0.785296 0.577856 0.966380
O O6 0.705697 0.414541 0.943095
O O7 0.500000 0.500000 0.000000
O O8 0.750000 0.750000 0.151357
O O9 0.621121 0.672515 0.298829
O O10 0.509065 0.685049 0.103235
O O11 0.250000 0.750000 0.393992
O O12 0.435970 0.617879 0.427301
O O13 0.347610 0.651215 0.246607
O O14 0.250000 0.750000 0.105139
#
# Coordination Sequence:
#
# PCOD9429782 Si02
#       6
#     8   8   8   8   8   8
#     4  12  19  36  62  96 129 174 228 283 327 400
#     4  12  25  39  60  96 140 181 212 276 357 413
#     4  11  20  31  62 100 121 162 231 282 326 380
#     4  10  18  33  61  97 119 159 228 281 320 372
#     4  11  20  36  62  94 130 169 226 279 332 396
#     4  10  18  38  62  89 126 166 219 276 330 393
#
# _framework density 26.276817999999999
#
# number of rings (size 3 to 8) (size 9 to 14) (size 15 to 20)
#    0.000    1.000   11.667    0.000    0.000    0.000 
#    0.000    1.667    3.667    0.000    0.000    0.000 
#    0.000    0.000    0.000    0.000    0.000    0.000 
#
# Total GULP energy -268062.014320 kJ/mol
# GULP energy per Si atom -5584.625298 kJ/mol
# Density = 2.621701 g / cm^3
# Si number density = 26.276818 Si / 1000 Ang^3
#
#
#
# Elastic Constant Matrix: (Units=GPa)
#
#
# Indices 1 2 3 4 5 6 
#
# 1 249.8531 59.6725 30.1209 0.0000 0.0000 0.0000
# 2 59.6725 137.0754 0.4424 0.0000 0.0000 0.0000
# 3 30.1209 0.4424 31.1564 0.0000 0.0000 0.0000
# 4 0.0000 0.0000 0.0000 -3.6374 0.0000 0.0000
# 5 0.0000 0.0000 0.0000 0.0000 31.6730 0.0000
# 6 0.0000 0.0000 0.0000 0.0000 0.0000 55.9894
#
#
#
# Elastic Compliance Matrix: (Units=1/GPa)
#
#
# Indices 1 2 3 4 5 6 
#
# 1 0.005125 -0.002215 -0.004923 0.000000 0.000000 0.000000
# 2 -0.002215 0.008253 0.002024 0.000000 0.000000 0.000000
# 3 -0.004923 0.002024 0.036827 0.000000 0.000000 0.000000
# 4 0.000000 0.000000 0.000000 -0.274923 0.000000 0.000000
# 5 0.000000 0.000000 0.000000 0.000000 0.031573 0.000000
# 6 0.000000 0.000000 0.000000 0.000000 0.000000 0.017861
#
#
# Mechanical properties :
#
#
# Convention : Reuss Voigt Hill
#
# Bulk Modulus (GPa) = 25.01441 66.50629 45.76035
# Shear Modulus (GPa) = -32.95299 38.66162 2.85432
#
# Velocity S-wave (km/s) = -3.54513 3.83994 1.04336
# Velocity P-wave (km/s) = 2.68645 6.71007 4.34787
#
# Compressibility (1/GPa) = 0.03997696
#
# Stress axis : x y z
#
# Youngs Moduli (GPa) = 195.12614 121.16781 27.15407
#
# Poissons Ratio (x) = 0.26840 0.13368
# Poissons Ratio (y) = 0.43223 -0.05497
# Poissons Ratio (z) = 0.96063 -0.24528
#
# Static dielectric constant tensor:
#      x y z
#    x 2.152710 0.000000 0.000000 
#    y 0.000000 2.152050 0.000000 
#    z 0.000000 0.000000 2.147310 
# 
# From -- ./inp_files/10706.got.cif
#   From: 2010.05.17/outbox.cif.g08.bks.cpg/sg56_6_cif.got.tgz:10706.got - 2010.06.03 13:42:01.
