data_PCOD9429711
_publ_section_title
;
Structure prediction by ZEFSAII (Michael W. Deem and Ramdas Pophale) SiO2 
 PCOD9429711
Probable space group: P C C N
;
_chemical_formula_sum "Si O2"
_cell_formula_units_Z 64
_cell_length_a 8.403007
_cell_length_b 14.835033
_cell_length_c 22.979981
_cell_angle_alpha 90.000000
_cell_angle_beta 90.000000
_cell_angle_gamma 90.000000
_cell_volume 2864.658835
_symmetry_space_group_name_H-M "P C C N"
_symmetry_group_IT_number 56
_symmetry_cell_setting 'orthorhombic'
loop_
_space_group_symop_operation_xyz
x,y,z
1/2-x,1/2-y,z
1/2+x,-y,1/2-z
-x,1/2+y,1/2-z
-x,-y,-z
1/2+x,1/2+y,-z
1/2-x,y,1/2+z
x,1/2-y,1/2+z
loop_
_atom_site_type_symbol
_atom_site_label
_atom_site_fract_x
_atom_site_fract_y
_atom_site_fract_z
Si Si1 0.972678 0.309385 0.222540
Si Si2 0.975357 0.707881 0.641927
Si Si3 0.306246 0.956825 0.444709
Si Si4 0.150959 0.557600 0.575430
Si Si5 0.725334 0.009980 0.224317
Si Si6 0.225183 0.412662 0.154102
Si Si7 0.142860 0.108069 0.380658
Si Si8 0.574425 0.367720 0.158484
O O1 0.036713 0.290222 0.287724
O O2 0.090008 0.342118 0.170621
O O3 0.862081 0.395730 0.230975
O O4 0.902639 0.216219 0.200014
O O5 0.981717 0.810136 0.617527
O O6 0.811742 0.660572 0.621951
O O7 0.111862 0.642914 0.616310
O O8 0.296075 0.921770 0.509928
O O9 0.309139 0.877847 0.396469
O O10 0.480234 0.004719 0.433816
O O11 0.172188 0.031114 0.428971
O O12 0.278557 0.490728 0.605674
O O13 0.890521 0.038730 0.193106
O O14 0.754637 0.962496 0.284297
O O15 0.630441 0.945992 0.180075
O O16 0.391192 0.363996 0.140606
#
# Coordination Sequence:
#
# PCOD9429711 Si02
#       8
#     8   8   8   8   8   8   8   8
#     4  12  22  33  55  88 119 148 191 246 298 365
#     4  10  18  31  53  85 118 142 190 244 307 348
#     4   8  17  35  56  78 114 153 203 240 290 352
#     4   9  17  34  55  82 116 153 191 251 294 343
#     4  11  20  36  54  80 116 155 190 229 301 371
#     4  11  20  34  56  85 119 147 189 241 304 345
#     4   9  18  32  54  79 107 156 190 235 291 362
#     4  10  22  36  55  84 113 155 194 238 294 351
#
# _framework density 22.341228999999998
#
# number of rings (size 3 to 8) (size 9 to 14) (size 15 to 20)
#    0.000    2.000    2.500    3.000    1.750    0.000 
#    2.250    0.000    0.000    3.000   19.500    0.000 
#    0.000    0.000    0.000    0.000    0.000    0.000 
#
# Total GULP energy -357127.346516 kJ/mol
# GULP energy per Si atom -5580.114789 kJ/mol
# Density = 2.229038 g / cm^3
# Si number density = 22.341229 Si / 1000 Ang^3
#
#
#
# Elastic Constant Matrix: (Units=GPa)
#
#
# Indices 1 2 3 4 5 6 
#
# 1 40.2590 12.6495 1.4467 0.0000 0.0000 0.0000
# 2 12.6495 112.3140 34.8748 0.0000 0.0000 0.0000
# 3 1.4467 34.8748 114.9052 0.0000 0.0000 0.0000
# 4 0.0000 0.0000 0.0000 18.1583 0.0000 0.0000
# 5 0.0000 0.0000 0.0000 0.0000 38.4458 0.0000
# 6 0.0000 0.0000 0.0000 0.0000 0.0000 22.3931
#
#
#
# Elastic Compliance Matrix: (Units=1/GPa)
#
#
# Indices 1 2 3 4 5 6 
#
# 1 0.025790 -0.003095 0.000615 0.000000 0.000000 0.000000
# 2 -0.003095 0.010202 -0.003057 0.000000 0.000000 0.000000
# 3 0.000615 -0.003057 0.009623 0.000000 0.000000 0.000000
# 4 0.000000 0.000000 0.000000 0.055071 0.000000 0.000000
# 5 0.000000 0.000000 0.000000 0.000000 0.026011 0.000000
# 6 0.000000 0.000000 0.000000 0.000000 0.000000 0.044657
#
#
# Mechanical properties :
#
#
# Convention : Reuss Voigt Hill
#
# Bulk Modulus (GPa) = 28.95338 40.60225 34.77781
# Shear Modulus (GPa) = 25.78096 30.36659 28.07378
#
# Velocity S-wave (km/s) = 3.40069 3.69076 3.54869
# Velocity P-wave (km/s) = 5.32985 6.03120 5.69134
#
# Compressibility (1/GPa) = 0.03453828
#
# Stress axis : x y z
#
# Youngs Moduli (GPa) = 38.77521 98.02414 103.91760
#
# Poissons Ratio (x) = 0.30343 -0.06389
# Poissons Ratio (y) = 0.12003 0.31771
# Poissons Ratio (z) = -0.02384 0.29969
#
# Static dielectric constant tensor:
#      x y z
#    x 1.923570 0.000000 0.000000 
#    y 0.000000 1.848480 0.000000 
#    z 0.000000 0.000000 1.807160 
# 
# From -- ./inp_files/20669.got.cif
#   From: 2010.05.17/outbox.cif.g08.bks.cpg/sg56_11_cif.got.tgz:20669.got - 2010.06.03 13:42:01.
