data_PCOD9429488
_publ_section_title
;
Structure prediction by ZEFSAII (Michael W. Deem and Ramdas Pophale) SiO2 
 PCOD9429488
Probable space group: P C C N
;
_chemical_formula_sum "Si O2"
_cell_formula_units_Z 48
_cell_length_a 7.293121
_cell_length_b 16.828129
_cell_length_c 14.601735
_cell_angle_alpha 90.000000
_cell_angle_beta 90.000000
_cell_angle_gamma 90.000000
_cell_volume 1792.064818
_symmetry_space_group_name_H-M "P C C N"
_symmetry_group_IT_number 56
_symmetry_cell_setting 'orthorhombic'
loop_
_space_group_symop_operation_xyz
x,y,z
1/2-x,1/2-y,z
1/2+x,-y,1/2-z
-x,1/2+y,1/2-z
-x,-y,-z
1/2+x,1/2+y,-z
1/2-x,y,1/2+z
x,1/2-y,1/2+z
loop_
_atom_site_type_symbol
_atom_site_label
_atom_site_fract_x
_atom_site_fract_y
_atom_site_fract_z
Si Si1 0.048510 0.782479 0.023509
Si Si2 0.029783 0.212914 0.173072
Si Si3 0.688226 0.428795 0.860156
Si Si4 0.712069 0.996129 0.029345
Si Si5 0.845776 0.374447 0.175729
Si Si6 0.595897 0.638666 0.644928
O O1 0.250000 0.750000 0.991143
O O2 0.100970 0.850350 0.095160
O O3 0.948331 0.712224 0.077887
O O4 0.938428 0.808696 0.933057
O O5 0.003899 0.308630 0.167212
O O6 0.832272 0.177021 0.200043
O O7 0.144906 0.174422 0.255826
O O8 0.612490 0.435913 0.757936
O O9 0.905608 0.411059 0.850228
O O10 0.671424 0.497445 0.936037
O O11 0.736413 0.920759 0.094964
O O12 0.719959 0.076382 0.088326
O O13 0.500000 0.000000 0.000000
#
# Coordination Sequence:
#
# PCOD9429488 Si02
#       6
#     8   8   8   8   8   8
#     4  10  14  24  41  66  94 125 159 193 234 297
#     4  10  15  24  42  66  90 124 163 191 230 296
#     4   9  16  26  41  63  92 129 162 186 235 303
#     4  10  18  29  40  67 104 130 153 204 254 285
#     4  10  16  25  43  65  94 129 162 187 238 304
#     4   9  18  25  39  66 101 122 155 201 244 280
#
# _framework density 26.784742999999999
#
# number of rings (size 3 to 8) (size 9 to 14) (size 15 to 20)
#    0.000    2.333    5.000    2.000    0.000    0.000 
#    0.000    0.000    0.000    1.000    0.000    0.000 
#    0.000   42.667    0.000    0.000    0.000    0.000 
#
# Total GULP energy -268381.677884 kJ/mol
# GULP energy per Si atom -5591.284956 kJ/mol
# Density = 2.672378 g / cm^3
# Si number density = 26.784743 Si / 1000 Ang^3
#
#
#
# Elastic Constant Matrix: (Units=GPa)
#
#
# Indices 1 2 3 4 5 6 
#
# 1 54.2808 30.4501 0.0540 0.0000 0.0000 0.0000
# 2 30.4501 78.5349 18.4324 0.0000 0.0000 0.0000
# 3 0.0540 18.4324 135.2155 0.0000 0.0000 0.0000
# 4 0.0000 0.0000 0.0000 37.6184 0.0000 0.0000
# 5 0.0000 0.0000 0.0000 0.0000 15.7424 0.0000
# 6 0.0000 0.0000 0.0000 0.0000 0.0000 20.7431
#
#
#
# Elastic Compliance Matrix: (Units=1/GPa)
#
#
# Indices 1 2 3 4 5 6 
#
# 1 0.023759 -0.009514 0.001287 0.000000 0.000000 0.000000
# 2 -0.009514 0.016964 -0.002309 0.000000 0.000000 0.000000
# 3 0.001287 -0.002309 0.007710 0.000000 0.000000 0.000000
# 4 0.000000 0.000000 0.000000 0.026583 0.000000 0.000000
# 5 0.000000 0.000000 0.000000 0.000000 0.063523 0.000000
# 6 0.000000 0.000000 0.000000 0.000000 0.000000 0.048209
#
#
# Mechanical properties :
#
#
# Convention : Reuss Voigt Hill
#
# Bulk Modulus (GPa) = 36.54738 40.65602 38.60170
# Shear Modulus (GPa) = 23.04812 29.42711 26.23761
#
# Velocity S-wave (km/s) = 2.93660 3.31819 3.13321
# Velocity P-wave (km/s) = 5.01723 5.46738 5.24714
#
# Compressibility (1/GPa) = 0.02736174
#
# Stress axis : x y z
#
# Youngs Moduli (GPa) = 42.09018 58.94885 129.70495
#
# Poissons Ratio (x) = 0.56084 -0.16699
# Poissons Ratio (y) = 0.40044 0.29945
# Poissons Ratio (z) = -0.05419 0.13609
#
# Static dielectric constant tensor:
#      x y z
#    x 2.088500 0.000000 0.000000 
#    y 0.000000 2.046080 0.000000 
#    z 0.000000 0.000000 1.680830 
# 
# From -- ./inp_files/11611.got.cif
#   From: 2010.05.17/outbox.cif.g08.bks.cpg/sg56_6_cif.got.tgz:11611.got - 2010.06.03 13:42:01.
