data_PCOD9429311
_publ_section_title
;
Structure prediction by ZEFSAII (Michael W. Deem and Ramdas Pophale) SiO2 
 PCOD9429311
Probable space group: P B A M
;
_chemical_formula_sum "Si O2"
_cell_formula_units_Z 48
_cell_length_a 12.000000
_cell_length_b 24.000000
_cell_length_c 9.000000
_cell_angle_alpha 90.000000
_cell_angle_beta 90.000000
_cell_angle_gamma 90.000000
_cell_volume 2592.000000
_symmetry_space_group_name_H-M "P B A M"
_symmetry_group_IT_number 55
_symmetry_cell_setting 'orthorhombic'
loop_
_space_group_symop_operation_xyz
x,y,z
-x,-y,z
1/2+x,1/2-y,-z
1/2-x,1/2+y,-z
-x,-y,-z
x,y,-z
1/2-x,1/2+y,z
1/2+x,1/2-y,z
loop_
_atom_site_type_symbol
_atom_site_label
_atom_site_fract_x
_atom_site_fract_y
_atom_site_fract_z
Si Si1 0.997715 0.870595 0.680765
Si Si2 0.807579 0.048221 0.680209
Si Si3 0.848886 0.230320 0.676612
Si Si4 0.592741 0.844214 0.824203
Si Si5 0.233513 0.078381 0.319979
Si Si6 0.143940 0.353092 0.676028
O O1 0.000682 0.870736 0.500000
O O2 0.079853 0.920556 0.730351
O O3 0.052031 0.811852 0.724711
O O4 0.872269 0.883714 0.724849
O O5 0.813787 0.046861 0.500000
O O6 0.705936 0.089343 0.717225
O O7 0.790593 0.985016 0.728413
O O8 0.861871 0.241698 0.500000
O O9 0.852256 0.287381 0.764299
O O10 0.735225 0.195573 0.695524
O O11 0.656703 0.895777 0.749791
O O12 0.465797 0.843622 0.769367
O O13 0.599961 0.847448 0.000000
O O14 0.241621 0.079202 0.500000
O O15 0.116580 0.355060 0.500000
#
# Coordination Sequence:
#
# PCOD9429311 Si02
#       6
#     8   8   8   8   8   8
#     4   8  15  30  57  90 113 134 171 227 284 327
#     4   8  15  31  58  89 113 135 174 231 280 324
#     4   9  19  37  60  82 105 138 184 233 278 325
#     4  12  26  38  50  76 115 153 188 226 270 324
#     4  10  19  33  57  87 115 143 179 222 275 330
#     4   9  19  38  61  81 105 140 185 231 276 326
#
# _framework density 18.518519000000001
#
# number of rings (size 3 to 8) (size 9 to 14) (size 15 to 20)
#    0.000    2.667    0.000    4.000    2.333    3.333 
#    0.000    4.167    0.000    4.000    0.000    0.000 
#    0.000    0.000    0.000    0.000    0.000    0.000 
#
# Total GULP energy -267793.542785 kJ/mol
# GULP energy per Si atom -5579.032141 kJ/mol
# Density = 1.847637 g / cm^3
# Si number density = 18.518519 Si / 1000 Ang^3
#
#
#
# Elastic Constant Matrix: (Units=GPa)
#
#
# Indices 1 2 3 4 5 6 
#
# 1 50.5408 9.5697 26.9521 0.0000 0.0000 0.0000
# 2 9.5697 27.8146 9.5305 0.0000 0.0000 0.0000
# 3 26.9521 9.5305 30.5684 0.0000 0.0000 0.0000
# 4 0.0000 0.0000 0.0000 -9.0884 0.0000 0.0000
# 5 0.0000 0.0000 0.0000 0.0000 -3.6261 0.0000
# 6 0.0000 0.0000 0.0000 0.0000 0.0000 2.8426
#
#
#
# Elastic Compliance Matrix: (Units=1/GPa)
#
#
# Indices 1 2 3 4 5 6 
#
# 1 0.037422 -0.001757 -0.032447 0.000000 0.000000 0.000000
# 2 -0.001757 0.040335 -0.011026 0.000000 0.000000 0.000000
# 3 -0.032447 -0.011026 0.064760 0.000000 0.000000 0.000000
# 4 0.000000 0.000000 0.000000 -0.110030 0.000000 0.000000
# 5 0.000000 0.000000 0.000000 0.000000 -0.275782 0.000000
# 6 0.000000 0.000000 0.000000 0.000000 0.000000 0.351787
#
#
# Mechanical properties :
#
#
# Convention : Reuss Voigt Hill
#
# Bulk Modulus (GPa) = 19.21015 22.33649 20.77332
# Shear Modulus (GPa) = 23.11573 2.21707 12.66640
#
# Velocity S-wave (km/s) = 3.53689 1.09536 2.61815
# Velocity P-wave (km/s) = 5.20341 3.69968 4.51459
#
# Compressibility (1/GPa) = 0.05205581
#
# Stress axis : x y z
#
# Youngs Moduli (GPa) = 26.72237 24.79242 15.44174
#
# Poissons Ratio (x) = 0.04357 0.50104
# Poissons Ratio (y) = 0.04696 0.17026
# Poissons Ratio (z) = 0.86706 0.27336
#
# Static dielectric constant tensor:
#      x y z
#    x 1.639560 0.000000 0.000000 
#    y 0.000000 1.635390 0.000000 
#    z 0.000000 0.000000 1.613080 
# 
# From -- ./inp_files/4042.got.cif
#   From: 2010.05.17/outbox.ucp.g08.bks.cvg/sg55_3_cif.got.tgz:4042.got - 2010.06.11 16:36:00.
