data_PCOD9429523
_publ_section_title
;
Structure prediction by ZEFSAII (Michael W. Deem and Ramdas Pophale) SiO2 
 PCOD9429523
Probable space group: P C C N
;
_chemical_formula_sum "Si O2"
_cell_formula_units_Z 52
_cell_length_a 5.414124
_cell_length_b 21.379659
_cell_length_c 17.693494
_cell_angle_alpha 90.000000
_cell_angle_beta 90.000000
_cell_angle_gamma 90.000000
_cell_volume 2048.059527
_symmetry_space_group_name_H-M "P C C N"
_symmetry_group_IT_number 56
_symmetry_cell_setting 'orthorhombic'
loop_
_space_group_symop_operation_xyz
x,y,z
1/2-x,1/2-y,z
1/2+x,-y,1/2-z
-x,1/2+y,1/2-z
-x,-y,-z
1/2+x,1/2+y,-z
1/2-x,y,1/2+z
x,1/2-y,1/2+z
loop_
_atom_site_type_symbol
_atom_site_label
_atom_site_fract_x
_atom_site_fract_y
_atom_site_fract_z
Si Si1 0.560896 0.161824 0.805001
Si Si2 0.025720 0.469022 0.219814
Si Si3 0.050609 0.657310 0.374775
Si Si4 0.435626 0.378520 0.547536
Si Si5 0.750000 0.750000 0.961833
Si Si6 0.111287 0.450007 0.901674
Si Si7 0.553806 0.639692 0.167442
O O1 0.572399 0.161374 0.714966
O O2 0.543834 0.091823 0.841640
O O3 0.815901 0.181929 0.841595
O O4 0.291355 0.183018 0.827279
O O5 0.800923 0.505083 0.263345
O O6 0.937837 0.482242 0.133655
O O7 0.528194 0.600879 0.246336
O O8 0.810856 0.615155 0.399774
O O9 0.966437 0.723984 0.407985
O O10 0.305954 0.637048 0.412759
O O11 0.354949 0.313554 0.501844
O O12 0.462608 0.431890 0.485006
O O13 0.382224 0.417839 0.889607
#
# Coordination Sequence:
#
# PCOD9429523 Si02
#       7
#     8   8   8   8   4   8   8
#     4  10  19  32  55  81 107 137 183 222 266 307
#     4  10  16  30  49  81 109 145 177 218 258 325
#     4  10  21  37  57  79 105 147 178 217 274 336
#     4  10  21  36  58  78 109 138 187 216 276 329
#     4   8  22  38  58  76 102 146 180 214 268 350
#     4   9  21  31  58  85 108 140 184 229 262 303
#     4   9  18  31  52  82 108 140 178 222 263 306
#
# _framework density 25.389886000000001
#
# number of rings (size 3 to 8) (size 9 to 14) (size 15 to 20)
#    1.846    0.615    1.538    1.385    2.154    0.000 
#    0.000    0.769    0.000    7.385    0.000    0.000 
#    0.000    0.000    0.000    0.000    0.000    0.000 
#
# Total GULP energy -289537.440324 kJ/mol
# GULP energy per Si atom -5568.027699 kJ/mol
# Density = 2.533210 g / cm^3
# Si number density = 25.389886 Si / 1000 Ang^3
#
#
#
# Elastic Constant Matrix: (Units=GPa)
#
#
# Indices 1 2 3 4 5 6 
#
# 1 196.2260 42.4365 -8.2326 0.0000 0.0000 0.0000
# 2 42.4365 70.3989 26.4097 0.0000 0.0000 0.0000
# 3 -8.2326 26.4097 78.0403 0.0000 0.0000 0.0000
# 4 0.0000 0.0000 0.0000 7.9180 0.0000 0.0000
# 5 0.0000 0.0000 0.0000 0.0000 18.7025 0.0000
# 6 0.0000 0.0000 0.0000 0.0000 0.0000 0.3384
#
#
#
# Elastic Compliance Matrix: (Units=1/GPa)
#
#
# Indices 1 2 3 4 5 6 
#
# 1 0.006170 -0.004540 0.002187 0.000000 0.000000 0.000000
# 2 -0.004540 0.019610 -0.007115 0.000000 0.000000 0.000000
# 3 0.002187 -0.007115 0.015452 0.000000 0.000000 0.000000
# 4 0.000000 0.000000 0.000000 0.126294 0.000000 0.000000
# 5 0.000000 0.000000 0.000000 0.000000 0.053469 0.000000
# 6 0.000000 0.000000 0.000000 0.000000 0.000000 2.955447
#
#
# Mechanical properties :
#
#
# Convention : Reuss Voigt Hill
#
# Bulk Modulus (GPa) = 44.84881 51.76581 48.30731
# Shear Modulus (GPa) = 1.56113 24.32857 12.94485
#
# Velocity S-wave (km/s) = 0.78498 3.09884 2.26042
# Velocity P-wave (km/s) = 4.30395 5.76510 5.08726
#
# Compressibility (1/GPa) = 0.02229714
#
# Stress axis : x y z
#
# Youngs Moduli (GPa) = 162.08358 50.99326 64.71448
#
# Poissons Ratio (x) = 0.23149 -0.14154
# Poissons Ratio (y) = 0.73578 0.46046
# Poissons Ratio (z) = -0.35449 0.36283
#
# Static dielectric constant tensor:
#      x y z
#    x 2.156190 0.000000 0.000000 
#    y 0.000000 2.208370 0.000000 
#    z 0.000000 0.000000 2.003070 
# 
# From -- ./inp_files/17718.got.cif
#   From: 2010.05.17/outbox.cif.g08.bks.cpg/sg56_9_cif.got.tgz:17718.got - 2010.06.03 13:42:01.
