data_PCOD9429241
_publ_section_title
;
Structure prediction by ZEFSAII (Michael W. Deem and Ramdas Pophale) SiO2 
 PCOD9429241
Probable space group: P B A M
;
_chemical_formula_sum "Si O2"
_cell_formula_units_Z 40
_cell_length_a 15.995108
_cell_length_b 13.334105
_cell_length_c 7.445880
_cell_angle_alpha 90.000000
_cell_angle_beta 90.000000
_cell_angle_gamma 90.000000
_cell_volume 1588.060634
_symmetry_space_group_name_H-M "P B A M"
_symmetry_group_IT_number 55
_symmetry_cell_setting 'orthorhombic'
loop_
_space_group_symop_operation_xyz
x,y,z
-x,-y,z
1/2+x,1/2-y,-z
1/2-x,1/2+y,-z
-x,-y,-z
x,y,-z
1/2-x,1/2+y,z
1/2+x,1/2-y,z
loop_
_atom_site_type_symbol
_atom_site_label
_atom_site_fract_x
_atom_site_fract_y
_atom_site_fract_z
Si Si1 0.863582 0.304658 0.711733
Si Si2 0.905405 0.517269 0.279307
Si Si3 0.866408 0.991365 0.784012
Si Si4 0.268100 0.852694 0.294586
Si Si5 0.006829 0.161036 0.785976
O O1 0.847974 0.310116 0.500000
O O2 0.860056 0.415973 0.784159
O O3 0.793901 0.229241 0.789410
O O4 0.957676 0.259764 0.726134
O O5 0.904324 0.520142 0.500000
O O6 0.856880 0.615903 0.214379
O O7 0.000000 0.500000 0.224297
O O8 0.904478 0.884510 0.721104
O O9 0.784851 0.043112 0.704406
O O10 0.938561 0.073947 0.744658
O O11 0.856312 0.987388 0.000000
O O12 0.283216 0.822791 0.500000
O O13 0.013584 0.167071 0.000000
#
# Coordination Sequence:
#
# PCOD9429241 Si02
#       5
#     8   8   8   8   8
#     4   9  17  30  49  73  96 125 168 206 241 288
#     4   9  18  34  51  70 100 136 165 197 250 304
#     4   8  14  26  45  69  98 130 159 192 245 300
#     4   9  17  30  49  72  97 124 164 213 244 281
#     4   8  14  26  45  69  99 132 159 191 242 298
#
# _framework density 25.187957000000001
#
# number of rings (size 3 to 8) (size 9 to 14) (size 15 to 20)
#    0.000    3.400    0.000    1.200    0.000    0.800 
#    3.600    5.000    0.000    2.400    0.000    0.000 
#    0.000    0.000    0.000    0.000    0.000    0.000 
#
# Total GULP energy -223091.546452 kJ/mol
# GULP energy per Si atom -5577.288661 kJ/mol
# Density = 2.513063 g / cm^3
# Si number density = 25.187957 Si / 1000 Ang^3
#
#
#
# Elastic Constant Matrix: (Units=GPa)
#
#
# Indices 1 2 3 4 5 6 
#
# 1 95.1310 30.3211 0.0763 0.0000 0.0000 0.0000
# 2 30.3211 79.9159 -0.7936 0.0000 0.0000 0.0000
# 3 0.0763 -0.7936 75.8113 0.0000 0.0000 0.0000
# 4 0.0000 0.0000 0.0000 16.3451 0.0000 0.0000
# 5 0.0000 0.0000 0.0000 0.0000 49.7414 0.0000
# 6 0.0000 0.0000 0.0000 0.0000 0.0000 30.5662
#
#
#
# Elastic Compliance Matrix: (Units=1/GPa)
#
#
# Indices 1 2 3 4 5 6 
#
# 1 0.011958 -0.004538 -0.000060 0.000000 0.000000 0.000000
# 2 -0.004538 0.014236 0.000154 0.000000 0.000000 0.000000
# 3 -0.000060 0.000154 0.013192 0.000000 0.000000 0.000000
# 4 0.000000 0.000000 0.000000 0.061180 0.000000 0.000000
# 5 0.000000 0.000000 0.000000 0.000000 0.020104 0.000000
# 6 0.000000 0.000000 0.000000 0.000000 0.000000 0.032716
#
#
# Mechanical properties :
#
#
# Convention : Reuss Voigt Hill
#
# Bulk Modulus (GPa) = 32.78736 34.45178 33.61957
# Shear Modulus (GPa) = 28.99550 34.08086 31.53818
#
# Velocity S-wave (km/s) = 3.39656 3.68239 3.54236
# Velocity P-wave (km/s) = 5.33175 5.63805 5.48703
#
# Compressibility (1/GPa) = 0.03049956
#
# Stress axis : x y z
#
# Youngs Moduli (GPa) = 83.62495 70.24287 75.80176
#
# Poissons Ratio (x) = 0.31874 0.00451
# Poissons Ratio (y) = 0.37946 -0.01164
# Poissons Ratio (z) = 0.00498 -0.01079
#
# Static dielectric constant tensor:
#      x y z
#    x 2.021520 0.000000 0.000000 
#    y 0.000000 2.021060 0.000000 
#    z 0.000000 0.000000 1.924710 
# 
# From -- ./inp_files/5204.got.cif
#   From: 2010.05.17/outbox.cif.g08.bks.cpg/sg55_3_cif.got.tgz:5204.got - 2010.06.03 13:27:54.
