data_PCOD9429184
_publ_section_title
;
Structure prediction by ZEFSAII (Michael W. Deem and Ramdas Pophale) SiO2 
 PCOD9429184
Probable space group: P B A M
;
_chemical_formula_sum "Si O2"
_cell_formula_units_Z 48
_cell_length_a 9.105658
_cell_length_b 16.628240
_cell_length_c 14.789247
_cell_angle_alpha 90.000000
_cell_angle_beta 90.000000
_cell_angle_gamma 90.000000
_cell_volume 2239.255662
_symmetry_space_group_name_H-M "P B A M"
_symmetry_group_IT_number 55
_symmetry_cell_setting 'orthorhombic'
loop_
_space_group_symop_operation_xyz
x,y,z
-x,-y,z
1/2+x,1/2-y,-z
1/2-x,1/2+y,-z
-x,-y,-z
x,y,-z
1/2-x,1/2+y,z
1/2+x,1/2-y,z
loop_
_atom_site_type_symbol
_atom_site_label
_atom_site_fract_x
_atom_site_fract_y
_atom_site_fract_z
Si Si1 0.319604 0.811585 0.000000
Si Si2 0.623430 0.154262 0.675299
Si Si3 0.379090 0.555064 0.825326
Si Si4 0.711833 0.583910 0.500000
Si Si5 0.869362 0.560278 0.144794
Si Si6 0.727851 0.824420 0.317060
Si Si7 0.362735 0.605203 0.500000
Si Si8 0.517935 0.351248 0.000000
O O1 0.379362 0.860071 0.914022
O O2 0.368673 0.721319 0.000000
O O3 0.145539 0.817745 0.000000
O O4 0.698847 0.118472 0.585639
O O5 0.637180 0.086730 0.751722
O O6 0.712186 0.234866 0.702447
O O7 0.448768 0.173426 0.670933
O O8 0.500000 0.500000 0.773800
O O9 0.273218 0.491869 0.874111
O O10 0.286864 0.613839 0.759925
O O11 0.455464 0.602313 0.906610
O O12 0.540348 0.610311 0.500000
O O13 0.696745 0.486834 0.500000
O O14 0.000000 0.500000 0.126330
O O15 0.800923 0.851928 0.410973
#
# Coordination Sequence:
#
# PCOD9429184 Si02
#       8
#     4   8   8   4   8   8   4   4
#     4  12  28  46  72 101 145 181 233 287 347 422
#     4  12  27  47  70 105 144 187 233 290 352 416
#     4  12  26  46  75 100 141 183 236 287 351 415
#     4  11  26  45  76 103 141 181 236 288 344 416
#     4  12  26  47  72 106 136 184 234 288 349 415
#     4  12  27  46  72 103 144 187 233 290 353 416
#     4  11  26  45  74 107 136 186 233 287 349 407
#     4  12  28  47  70 105 139 188 227 289 353 410
#
# _framework density 21.435694999999999
#
# number of rings (size 3 to 8) (size 9 to 14) (size 15 to 20)
#    0.000    0.167    3.333    5.000    9.333    3.333 
#    0.000    0.000    0.000    0.000    0.000    0.000 
#    0.000    0.000    0.000    0.000    0.000    0.000 
#
# Total GULP energy -268661.510032 kJ/mol
# GULP energy per Si atom -5597.114792 kJ/mol
# Density = 2.138691 g / cm^3
# Si number density = 21.435695 Si / 1000 Ang^3
#
#
#
# Elastic Constant Matrix: (Units=GPa)
#
#
# Indices 1 2 3 4 5 6 
#
# 1 179.4106 -1.9340 0.0919 0.0000 0.0000 0.0000
# 2 -1.9340 423.0668 174.3597 0.0000 0.0000 0.0000
# 3 0.0919 174.3597 168.1115 0.0000 0.0000 0.0000
# 4 0.0000 0.0000 0.0000 30.2283 0.0000 0.0000
# 5 0.0000 0.0000 0.0000 0.0000 158.8779 0.0000
# 6 0.0000 0.0000 0.0000 0.0000 0.0000 67.0603
#
#
#
# Elastic Compliance Matrix: (Units=1/GPa)
#
#
# Indices 1 2 3 4 5 6 
#
# 1 0.005574 0.000047 -0.000051 0.000000 0.000000 0.000000
# 2 0.000047 0.004129 -0.004282 0.000000 0.000000 0.000000
# 3 -0.000051 -0.004282 0.010390 0.000000 0.000000 0.000000
# 4 0.000000 0.000000 0.000000 0.033082 0.000000 0.000000
# 5 0.000000 0.000000 0.000000 0.000000 0.006294 0.000000
# 6 0.000000 0.000000 0.000000 0.000000 0.000000 0.014912
#
#
# Mechanical properties :
#
#
# Convention : Reuss Voigt Hill
#
# Bulk Modulus (GPa) = 86.81376 123.95825 105.38601
# Shear Modulus (GPa) = 57.60747 91.10473 74.35610
#
# Velocity S-wave (km/s) = 5.18969 6.52638 5.89604
# Velocity P-wave (km/s) = 8.74632 10.71191 9.77863
#
# Compressibility (1/GPa) = 0.01151891
#
# Stress axis : x y z
#
# Youngs Moduli (GPa) = 179.39357 242.20371 96.24774
#
# Poissons Ratio (x) = -0.01131 0.00495
# Poissons Ratio (y) = -0.00838 0.41216
# Poissons Ratio (z) = 0.00924 1.03717
#
# Static dielectric constant tensor:
#      x y z
#    x 1.758800 0.000000 0.000000 
#    y 0.000000 1.749660 0.000000 
#    z 0.000000 0.000000 1.751790 
# 
# From -- ./inp_files/17427.got.cif
#   From: 2010.05.17/outbox.cif.g08.bks.cpg/sg55_9_cif.got.tgz:17427.got - 2010.06.03 13:27:54.
