data_PCOD9429985
_publ_section_title
;
Structure prediction by ZEFSAII (Michael W. Deem and Ramdas Pophale) SiO2 
 PCOD9429985
Probable space group: P C C N
;
_chemical_formula_sum "Si O2"
_cell_formula_units_Z 40
_cell_length_a 11.621541
_cell_length_b 4.958038
_cell_length_c 30.754918
_cell_angle_alpha 90.000000
_cell_angle_beta 90.000000
_cell_angle_gamma 90.000000
_cell_volume 1772.099664
_symmetry_space_group_name_H-M "P C C N"
_symmetry_group_IT_number 56
_symmetry_cell_setting 'orthorhombic'
loop_
_space_group_symop_operation_xyz
x,y,z
1/2-x,1/2-y,z
1/2+x,-y,1/2-z
-x,1/2+y,1/2-z
-x,-y,-z
1/2+x,1/2+y,-z
1/2-x,y,1/2+z
x,1/2-y,1/2+z
loop_
_atom_site_type_symbol
_atom_site_label
_atom_site_fract_x
_atom_site_fract_y
_atom_site_fract_z
Si Si1 0.929359 0.268424 0.757748
Si Si2 0.978538 0.127981 0.350762
Si Si3 0.473572 0.796423 0.557156
Si Si4 0.867209 0.122647 0.165396
Si Si5 0.120330 0.705823 0.964332
O O1 0.855873 0.381105 0.717978
O O2 0.043540 0.456359 0.751441
O O3 0.901669 0.309436 0.808259
O O4 0.923816 0.197793 0.397052
O O5 0.089754 0.329052 0.348415
O O6 0.029236 0.828695 0.346053
O O7 0.578419 0.593985 0.545678
O O8 0.390854 0.768701 0.515785
O O9 0.529226 0.092186 0.558006
O O10 0.750000 0.250000 0.147790
O O11 0.250000 0.750000 0.950408
#
# Coordination Sequence:
#
# PCOD9429985 Si02
#       5
#     8   8   8   8   8
#     4   8  16  30  45  62  91 126 150 180 229 277
#     4  10  19  32  49  70  97 126 160 200 241 289
#     4  10  21  35  54  78 101 133 172 209 257 308
#     4  10  19  30  47  72  99 126 159 199 242 286
#     4  10  21  37  54  74 104 135 166 210 261 310
#
# _framework density 22.572092999999999
#
# number of rings (size 3 to 8) (size 9 to 14) (size 15 to 20)
#    0.000    2.400    0.000    2.400    0.000    4.800 
#    0.000    1.000    0.000    0.000    0.000   19.600 
#    0.000    0.000    0.000    0.000    0.000    0.000 
#
# Total GULP energy -223207.704113 kJ/mol
# GULP energy per Si atom -5580.192603 kJ/mol
# Density = 2.252072 g / cm^3
# Si number density = 22.572093 Si / 1000 Ang^3
#
#
#
# Elastic Constant Matrix: (Units=GPa)
#
#
# Indices 1 2 3 4 5 6 
#
# 1 23.6594 -5.4591 -8.1905 0.0000 0.0000 0.0000
# 2 -5.4591 84.4391 -7.6483 0.0000 0.0000 0.0000
# 3 -8.1905 -7.6483 187.3002 0.0000 0.0000 0.0000
# 4 0.0000 0.0000 0.0000 28.2675 0.0000 0.0000
# 5 0.0000 0.0000 0.0000 0.0000 -7.6724 0.0000
# 6 0.0000 0.0000 0.0000 0.0000 0.0000 6.6015
#
#
#
# Elastic Compliance Matrix: (Units=1/GPa)
#
#
# Indices 1 2 3 4 5 6 
#
# 1 0.043664 0.003007 0.002032 0.000000 0.000000 0.000000
# 2 0.003007 0.012094 0.000625 0.000000 0.000000 0.000000
# 3 0.002032 0.000625 0.005453 0.000000 0.000000 0.000000
# 4 0.000000 0.000000 0.000000 0.035376 0.000000 0.000000
# 5 0.000000 0.000000 0.000000 0.000000 -0.130337 0.000000
# 6 0.000000 0.000000 0.000000 0.000000 0.000000 0.151482
#
#
# Mechanical properties :
#
#
# Convention : Reuss Voigt Hill
#
# Bulk Modulus (GPa) = 13.78548 28.08923 20.93736
# Shear Modulus (GPa) = 38.28969 26.55240 32.42105
#
# Velocity S-wave (km/s) = 4.12312 3.43350 3.79401
# Velocity P-wave (km/s) = 5.36539 5.30941 5.33747
#
# Compressibility (1/GPa) = 0.07254008
#
# Stress axis : x y z
#
# Youngs Moduli (GPa) = 22.90226 82.68636 183.37105
#
# Poissons Ratio (x) = -0.24864 -0.37264
# Poissons Ratio (y) = -0.06887 -0.11467
# Poissons Ratio (z) = -0.04654 -0.05171
#
# Static dielectric constant tensor:
#      x y z
#    x 1.580160 0.000000 0.000000 
#    y 0.000000 1.789220 0.000000 
#    z 0.000000 0.000000 1.933490 
# 
# From -- ./inp_files/21605.got.cif
#   From: 2010.05.17/outbox.cif.g08.bks.cpg/sg56_11_cif.got.tgz:21605.got - 2010.06.03 13:42:01.
