data_PCOD9429372
_publ_section_title
;
Structure prediction by ZEFSAII (Michael W. Deem and Ramdas Pophale) SiO2 
 PCOD9429372
Probable space group: P B A M
;
_chemical_formula_sum "Si O2"
_cell_formula_units_Z 64
_cell_length_a 30.000000
_cell_length_b 15.000000
_cell_length_c 9.000000
_cell_angle_alpha 90.000000
_cell_angle_beta 90.000000
_cell_angle_gamma 90.000000
_cell_volume 4050.000000
_symmetry_space_group_name_H-M "P B A M"
_symmetry_group_IT_number 55
_symmetry_cell_setting 'orthorhombic'
loop_
_space_group_symop_operation_xyz
x,y,z
-x,-y,z
1/2+x,1/2-y,-z
1/2-x,1/2+y,-z
-x,-y,-z
x,y,-z
1/2-x,1/2+y,z
1/2+x,1/2-y,z
loop_
_atom_site_type_symbol
_atom_site_label
_atom_site_fract_x
_atom_site_fract_y
_atom_site_fract_z
Si Si1 0.143969 0.488079 0.676736
Si Si2 0.119222 0.298855 0.177487
Si Si3 0.534365 0.324433 0.819787
Si Si4 0.366863 0.171588 0.180020
Si Si5 0.904143 0.977318 0.679043
Si Si6 0.434904 0.317741 0.320306
Si Si7 0.722064 0.886965 0.677747
Si Si8 0.321137 0.624259 0.820289
O O1 0.134723 0.492056 0.500000
O O2 0.130751 0.391584 0.740491
O O3 0.120296 0.571441 0.761710
O O4 0.196421 0.517031 0.695707
O O5 0.070558 0.254931 0.212448
O O6 0.155817 0.221125 0.209915
O O7 0.120221 0.314701 0.000000
O O8 0.558165 0.412819 0.751636
O O9 0.485046 0.310888 0.749565
O O10 0.531186 0.332272 0.000000
O O11 0.400612 0.245441 0.247955
O O12 0.315707 0.177306 0.245550
O O13 0.366547 0.175345 0.000000
O O14 0.903102 0.963769 0.500000
O O15 0.856664 0.946036 0.749492
O O16 0.916518 0.081162 0.706596
O O17 0.436978 0.304898 0.500000
O O18 0.725036 0.869431 0.500000
O O19 0.771141 0.882592 0.751423
O O20 0.319375 0.613033 0.000000
#
# Coordination Sequence:
#
# PCOD9429372 Si02
#       8
#     8   8   8   8   8   8   8   8
#     4   9  19  35  56  80 107 141 179 219 270 323
#     4   9  19  35  55  81 110 141 181 225 269 323
#     4  10  21  36  56  83 113 145 185 230 277 330
#     4  10  20  36  57  78 106 142 179 225 275 322
#     4  10  21  36  55  80 113 149 184 228 278 328
#     4  11  22  37  56  81 112 147 187 229 277 334
#     4   9  19  36  55  78 108 141 178 222 273 324
#     4  10  20  35  56  83 112 143 183 228 273 324
#
# _framework density 15.802469
#
# number of rings (size 3 to 8) (size 9 to 14) (size 15 to 20)
#    0.750    1.500    0.000    4.125    0.000    6.500 
#    2.250    0.625    0.000    3.750    0.000    0.000 
#    0.000    0.000    0.000    0.000    0.000    0.000 
#
# Total GULP energy -356378.131041 kJ/mol
# GULP energy per Si atom -5568.408298 kJ/mol
# Density = 1.576650 g / cm^3
# Si number density = 15.802469 Si / 1000 Ang^3
#
#
#
# Elastic Constant Matrix: (Units=GPa)
#
#
# Indices 1 2 3 4 5 6 
#
# 1 164.0504 77.6851 76.5021 0.0000 0.0000 0.0000
# 2 77.6851 130.6449 69.5143 0.0000 0.0000 0.0000
# 3 76.5021 69.5143 137.0847 0.0000 0.0000 0.0000
# 4 0.0000 0.0000 0.0000 34.2576 0.0000 0.0000
# 5 0.0000 0.0000 0.0000 0.0000 38.6864 0.0000
# 6 0.0000 0.0000 0.0000 0.0000 0.0000 25.0990
#
#
#
# Elastic Compliance Matrix: (Units=1/GPa)
#
#
# Indices 1 2 3 4 5 6 
#
# 1 0.009479 -0.003864 -0.003330 0.000000 0.000000 0.000000
# 2 -0.003864 0.012058 -0.003958 0.000000 0.000000 0.000000
# 3 -0.003330 -0.003958 0.011160 0.000000 0.000000 0.000000
# 4 0.000000 0.000000 0.000000 0.029191 0.000000 0.000000
# 5 0.000000 0.000000 0.000000 0.000000 0.025849 0.000000
# 6 0.000000 0.000000 0.000000 0.000000 0.000000 0.039842
#
#
# Mechanical properties :
#
#
# Convention : Reuss Voigt Hill
#
# Bulk Modulus (GPa) = 96.22711 97.68700 96.95705
# Shear Modulus (GPa) = 32.60566 33.48049 33.04307
#
# Velocity S-wave (km/s) = 4.54731 4.60791 4.57771
# Velocity P-wave (km/s) = 9.41258 9.50064 9.45671
#
# Compressibility (1/GPa) = 0.01039208
#
# Stress axis : x y z
#
# Youngs Moduli (GPa) = 105.50153 82.93116 89.60371
#
# Poissons Ratio (x) = 0.32047 0.29839
# Poissons Ratio (y) = 0.40769 0.35466
# Poissons Ratio (z) = 0.35133 0.32825
#
# Static dielectric constant tensor:
#      x y z
#    x 1.521430 0.000000 0.000000 
#    y 0.000000 1.523990 0.000000 
#    z 0.000000 0.000000 1.534680 
# 
# From -- ./inp_files/10921.got.cif
#   From: 2010.05.17/outbox.ucp.g08.bks.cvg/sg55_6_cif.got.tgz:10921.got - 2010.06.11 16:36:00.
