data_PCOD9429410
_publ_section_title
;
Structure prediction by ZEFSAII (Michael W. Deem and Ramdas Pophale) SiO2 
 PCOD9429410
Probable space group: P B A M
;
_chemical_formula_sum "Si O2"
_cell_formula_units_Z 64
_cell_length_a 12.000000
_cell_length_b 30.000000
_cell_length_c 9.000000
_cell_angle_alpha 90.000000
_cell_angle_beta 90.000000
_cell_angle_gamma 90.000000
_cell_volume 3240.000000
_symmetry_space_group_name_H-M "P B A M"
_symmetry_group_IT_number 55
_symmetry_cell_setting 'orthorhombic'
loop_
_space_group_symop_operation_xyz
x,y,z
-x,-y,z
1/2+x,1/2-y,-z
1/2-x,1/2+y,-z
-x,-y,-z
x,y,-z
1/2-x,1/2+y,z
1/2+x,1/2-y,z
loop_
_atom_site_type_symbol
_atom_site_label
_atom_site_fract_x
_atom_site_fract_y
_atom_site_fract_z
Si Si1 0.124880 0.920714 0.670851
Si Si2 0.657608 0.938758 0.172638
Si Si3 0.977351 0.617973 0.321443
Si Si4 0.336588 0.970122 0.673838
Si Si5 0.566474 0.308375 0.675588
Si Si6 0.658608 0.668645 0.171207
Si Si7 0.364646 0.791197 0.677149
Si Si8 0.635403 0.407868 0.330577
O O1 0.146297 0.904968 0.500000
O O2 0.992299 0.924155 0.684409
O O3 0.203290 0.963177 0.690974
O O4 0.164427 0.882864 0.782845
O O5 0.591840 0.899405 0.254715
O O6 0.785894 0.930695 0.212581
O O7 0.625352 0.986996 0.236695
O O8 0.634801 0.937013 0.000000
O O9 0.983794 0.619594 0.500000
O O10 0.892357 0.577263 0.284676
O O11 0.940382 0.667099 0.267461
O O12 0.360856 0.977703 0.500000
O O13 0.532848 0.306798 0.500000
O O14 0.463647 0.316624 0.782832
O O15 0.612703 0.259994 0.717526
O O16 0.637659 0.353929 0.686876
O O17 0.742843 0.696178 0.270330
O O18 0.683139 0.675123 0.000000
O O19 0.372099 0.792845 0.500000
O O20 0.671902 0.418382 0.500000
#
# Coordination Sequence:
#
# PCOD9429410 Si02
#       8
#     8   8   8   8   8   8   8   8
#     4   9  18  37  64  88 110 144 196 246 284 336
#     4  12  26  39  54  81 123 163 193 235 291 357
#     4  10  21  39  63  86 112 148 195 247 292 342
#     4  10  20  38  64  89 112 146 195 249 296 343
#     4   9  20  38  62  86 111 149 198 246 287 338
#     4  11  21  33  54  84 121 154 180 228 294 354
#     4  10  20  38  63  88 111 145 198 248 287 338
#     4   9  19  38  61  84 113 151 195 241 290 343
#
# _framework density 19.753086
#
# number of rings (size 3 to 8) (size 9 to 14) (size 15 to 20)
#    0.000    2.000    1.250    3.375    0.000    7.000 
#    0.000    7.500    0.000    0.000    0.000    0.000 
#    0.000    0.000    0.000    0.000    0.000    0.000 
#
# Total GULP energy -356882.291382 kJ/mol
# GULP energy per Si atom -5576.285803 kJ/mol
# Density = 1.970813 g / cm^3
# Si number density = 19.753086 Si / 1000 Ang^3
#
#
#
# Elastic Constant Matrix: (Units=GPa)
#
#
# Indices 1 2 3 4 5 6 
#
# 1 31.1330 17.5707 7.6818 0.0000 0.0000 0.0000
# 2 17.5707 43.6784 16.2851 0.0000 0.0000 0.0000
# 3 7.6818 16.2851 -45.3364 0.0000 0.0000 0.0000
# 4 0.0000 0.0000 0.0000 -15.1503 0.0000 0.0000
# 5 0.0000 0.0000 0.0000 0.0000 152.1981 0.0000
# 6 0.0000 0.0000 0.0000 0.0000 0.0000 4.1226
#
#
#
# Elastic Compliance Matrix: (Units=1/GPa)
#
#
# Indices 1 2 3 4 5 6 
#
# 1 0.041512 -0.017039 0.000913 0.000000 0.000000 0.000000
# 2 -0.017039 0.027185 0.006878 0.000000 0.000000 0.000000
# 3 0.000913 0.006878 -0.019432 0.000000 0.000000 0.000000
# 4 0.000000 0.000000 0.000000 -0.066005 0.000000 0.000000
# 5 0.000000 0.000000 0.000000 0.000000 0.006570 0.000000
# 6 0.000000 0.000000 0.000000 0.000000 0.000000 0.242567
#
#
# Mechanical properties :
#
#
# Convention : Reuss Voigt Hill
#
# Bulk Modulus (GPa) = 32.50227 12.50558 22.50392
# Shear Modulus (GPa) = 19.14615 27.42990 23.28803
#
# Velocity S-wave (km/s) = 3.11669 3.73049 3.43732
# Velocity P-wave (km/s) = 5.42602 4.99000 5.21257
#
# Compressibility (1/GPa) = 0.03076708
#
# Stress axis : x y z
#
# Youngs Moduli (GPa) = 24.08970 36.78531 -51.46127
#
# Poissons Ratio (x) = 0.62680 0.04699
# Poissons Ratio (y) = 0.41047 0.35394
# Poissons Ratio (z) = -0.02199 -0.25300
#
# Static dielectric constant tensor:
#      x y z
#    x 1.753850 0.000000 0.000000 
#    y 0.000000 1.710130 0.000000 
#    z 0.000000 0.000000 1.660270 
# 
# From -- ./inp_files/4564.got.cif
#   From: 2010.05.17/outbox.ucp.g08.bks.cvg/sg55_3_cif.got.tgz:4564.got - 2010.06.11 16:36:00.
