data_PCOD9429058
_publ_section_title
;
Structure prediction by ZEFSAII (Michael W. Deem and Ramdas Pophale) SiO2 
 PCOD9429058
Probable space group: P B A M
;
_chemical_formula_sum "Si O2"
_cell_formula_units_Z 48
_cell_length_a 31.747505
_cell_length_b 9.499324
_cell_length_c 7.807510
_cell_angle_alpha 90.000000
_cell_angle_beta 90.000000
_cell_angle_gamma 90.000000
_cell_volume 2354.587587
_symmetry_space_group_name_H-M "P B A M"
_symmetry_group_IT_number 55
_symmetry_cell_setting 'orthorhombic'
loop_
_space_group_symop_operation_xyz
x,y,z
-x,-y,z
1/2+x,1/2-y,-z
1/2-x,1/2+y,-z
-x,-y,-z
x,y,-z
1/2-x,1/2+y,z
1/2+x,1/2-y,z
loop_
_atom_site_type_symbol
_atom_site_label
_atom_site_fract_x
_atom_site_fract_y
_atom_site_fract_z
Si Si1 0.039806 0.587601 0.708811
Si Si2 0.634324 0.587304 0.292559
Si Si3 0.291674 0.888229 0.695333
Si Si4 0.366065 0.085859 0.709420
Si Si5 0.540095 0.586735 0.708871
Si Si6 0.217476 0.072865 0.192582
O O1 0.039561 0.581265 0.500000
O O2 0.086724 0.542026 0.761870
O O3 0.035190 0.750431 0.756512
O O4 0.000000 0.500000 0.771462
O O5 0.635410 0.585048 0.500000
O O6 0.640990 0.750946 0.239568
O O7 0.587183 0.542359 0.237834
O O8 0.671132 0.488157 0.226829
O O9 0.302908 0.850983 0.500000
O O10 0.282092 0.740114 0.782761
O O11 0.330267 0.979230 0.769797
O O12 0.251276 0.989820 0.694706
O O13 0.364710 0.086620 0.500000
O O14 0.500000 0.500000 0.771041
O O15 0.539955 0.580048 0.500000
O O16 0.230044 0.038231 0.000000
#
# Coordination Sequence:
#
# PCOD9429058 Si02
#       6
#     8   8   8   8   8   8
#     4   8  13  22  38  65 103 137 162 200 258 312
#     4   9  17  33  55  78 107 143 182 222 268 324
#     4  11  22  38  59  80 104 139 182 222 266 324
#     4   8  16  30  50  76 103 134 174 217 258 308
#     4   8  14  24  42  72 106 137 172 218 267 313
#     4  12  25  39  55  80 111 139 174 223 277 327
#
# _framework density 20.385736000000001
#
# number of rings (size 3 to 8) (size 9 to 14) (size 15 to 20)
#    0.000    2.667    0.000    5.000    0.000    2.667 
#    0.000    5.833    0.000    0.500    0.000    0.000 
#    0.000    8.000    0.000    0.000    0.000    0.000 
#
# Total GULP energy -267828.433290 kJ/mol
# GULP energy per Si atom -5579.759027 kJ/mol
# Density = 2.033934 g / cm^3
# Si number density = 20.385736 Si / 1000 Ang^3
#
#
#
# Elastic Constant Matrix: (Units=GPa)
#
#
# Indices 1 2 3 4 5 6 
#
# 1 160.1814 85.2986 -6.2015 0.0000 0.0000 0.0000
# 2 85.2986 95.4190 -0.8751 0.0000 0.0000 0.0000
# 3 -6.2015 -0.8751 32.9608 0.0000 0.0000 0.0000
# 4 0.0000 0.0000 0.0000 -19.7254 0.0000 0.0000
# 5 0.0000 0.0000 0.0000 0.0000 -23.0458 0.0000
# 6 0.0000 0.0000 0.0000 0.0000 0.0000 44.1528
#
#
#
# Elastic Compliance Matrix: (Units=1/GPa)
#
#
# Indices 1 2 3 4 5 6 
#
# 1 0.012043 -0.010747 0.001980 0.000000 0.000000 0.000000
# 2 -0.010747 0.020074 -0.001489 0.000000 0.000000 0.000000
# 3 0.001980 -0.001489 0.030672 0.000000 0.000000 0.000000
# 4 0.000000 0.000000 0.000000 -0.050696 0.000000 0.000000
# 5 0.000000 0.000000 0.000000 0.000000 -0.043392 0.000000
# 6 0.000000 0.000000 0.000000 0.000000 0.000000 0.022649
#
#
# Mechanical properties :
#
#
# Convention : Reuss Voigt Hill
#
# Bulk Modulus (GPa) = 23.65360 49.44502 36.54931
# Shear Modulus (GPa) = 192.65568 14.29894 103.47731
#
# Velocity S-wave (km/s) = 9.73192 2.65130 7.13231
# Velocity P-wave (km/s) = 11.74345 5.80344 9.26252
#
# Compressibility (1/GPa) = 0.04227686
#
# Stress axis : x y z
#
# Youngs Moduli (GPa) = 83.03854 49.81633 32.60288
#
# Poissons Ratio (x) = 0.53538 -0.06457
# Poissons Ratio (y) = 0.89243 0.04855
# Poissons Ratio (z) = -0.16445 0.07418
#
# Static dielectric constant tensor:
#      x y z
#    x 1.724870 0.000000 0.000000 
#    y 0.000000 1.674940 0.000000 
#    z 0.000000 0.000000 1.752510 
# 
# From -- ./inp_files/10494.got.cif
#   From: 2010.05.17/outbox.cif.g08.bks.cpg/sg55_6_cif.got.tgz:10494.got - 2010.06.03 13:27:54.
