data_PCOD9429401
_publ_section_title
;
Structure prediction by ZEFSAII (Michael W. Deem and Ramdas Pophale) SiO2 
 PCOD9429401
Probable space group: P B A M
;
_chemical_formula_sum "Si O2"
_cell_formula_units_Z 64
_cell_length_a 15.000000
_cell_length_b 24.000000
_cell_length_c 9.000000
_cell_angle_alpha 90.000000
_cell_angle_beta 90.000000
_cell_angle_gamma 90.000000
_cell_volume 3240.000000
_symmetry_space_group_name_H-M "P B A M"
_symmetry_group_IT_number 55
_symmetry_cell_setting 'orthorhombic'
loop_
_space_group_symop_operation_xyz
x,y,z
-x,-y,z
1/2+x,1/2-y,-z
1/2-x,1/2+y,-z
-x,-y,-z
x,y,-z
1/2-x,1/2+y,z
1/2+x,1/2-y,z
loop_
_atom_site_type_symbol
_atom_site_label
_atom_site_fract_x
_atom_site_fract_y
_atom_site_fract_z
Si Si1 0.143154 0.509089 0.327276
Si Si2 0.081449 0.872693 0.321482
Si Si3 0.096941 0.109974 0.824035
Si Si4 0.746578 0.301309 0.822748
Si Si5 0.403558 0.124990 0.824867
Si Si6 0.103323 0.397455 0.826287
Si Si7 0.644305 0.504257 0.673573
Si Si8 0.260252 0.814508 0.677077
O O1 0.118294 0.506064 0.500000
O O2 0.123761 0.569807 0.263283
O O3 0.096025 0.459777 0.237337
O O4 0.248882 0.497662 0.314339
O O5 0.073371 0.872349 0.500000
O O6 0.159691 0.830814 0.278725
O O7 0.988196 0.860637 0.246629
O O8 0.110372 0.935433 0.276919
O O9 0.183484 0.146414 0.786827
O O10 0.105440 0.047853 0.760992
O O11 0.088521 0.107540 0.000000
O O12 0.845219 0.321980 0.779856
O O13 0.717516 0.245630 0.741483
O O14 0.742840 0.291719 0.000000
O O15 0.508501 0.132459 0.808330
O O16 0.384504 0.114697 0.000000
O O17 0.176664 0.362593 0.739558
O O18 0.125695 0.400287 0.000000
O O19 0.620626 0.497471 0.500000
O O20 0.265940 0.814623 0.500000
#
# Coordination Sequence:
#
# PCOD9429401 Si02
#       8
#     8   8   8   8   8   8   8   8
#     4  11  21  36  61  92 125 159 199 246 296 354
#     4  10  22  41  61  86 122 158 193 242 302 356
#     4  11  23  38  61  92 121 154 200 245 290 354
#     4  10  23  43  62  84 119 158 200 249 299 353
#     4  10  22  41  62  88 123 161 200 244 299 360
#     4  11  23  39  63  91 123 161 198 243 301 356
#     4  10  20  37  60  86 122 161 193 238 301 355
#     4  11  24  43  64  87 117 155 204 252 298 355
#
# _framework density 19.753086
#
# number of rings (size 3 to 8) (size 9 to 14) (size 15 to 20)
#    0.000    1.500    2.500    2.250    0.000    8.500 
#    0.000    3.750    0.000    0.000    0.000    0.000 
#    0.000    0.000    0.000    0.000    0.000    0.000 
#
# Total GULP energy -357634.566674 kJ/mol
# GULP energy per Si atom -5588.040104 kJ/mol
# Density = 1.970813 g / cm^3
# Si number density = 19.753086 Si / 1000 Ang^3
#
#
#
# Elastic Constant Matrix: (Units=GPa)
#
#
# Indices 1 2 3 4 5 6 
#
# 1 47.5815 -9.5457 24.0750 0.0000 0.0000 0.0000
# 2 -9.5457 26.5578 -2.2079 0.0000 0.0000 0.0000
# 3 24.0750 -2.2079 8.7730 0.0000 0.0000 0.0000
# 4 0.0000 0.0000 0.0000 17.1420 0.0000 0.0000
# 5 0.0000 0.0000 0.0000 0.0000 24.8467 0.0000
# 6 0.0000 0.0000 0.0000 0.0000 0.0000 6.5331
#
#
#
# Elastic Compliance Matrix: (Units=1/GPa)
#
#
# Indices 1 2 3 4 5 6 
#
# 1 -0.052762 -0.007075 0.143010 0.000000 0.000000 0.000000
# 2 -0.007075 0.037510 0.028856 0.000000 0.000000 0.000000
# 3 0.143010 0.028856 -0.271202 0.000000 0.000000 0.000000
# 4 0.000000 0.000000 0.000000 0.058336 0.000000 0.000000
# 5 0.000000 0.000000 0.000000 0.000000 0.040247 0.000000
# 6 0.000000 0.000000 0.000000 0.000000 0.000000 0.153066
#
#
# Mechanical properties :
#
#
# Convention : Reuss Voigt Hill
#
# Bulk Modulus (GPa) = 23.18730 11.95055 17.56893
# Shear Modulus (GPa) = -14.28526 14.41043 0.06259
#
# Velocity S-wave (km/s) = -2.69214 2.70391 0.17819
# Velocity P-wave (km/s) = 1.44933 3.97634 2.99264
#
# Compressibility (1/GPa) = 0.04312706
#
# Stress axis : x y z
#
# Youngs Moduli (GPa) = -18.95297 26.65979 -3.68729
#
# Poissons Ratio (x) = 0.18862 0.52732
# Poissons Ratio (y) = -0.13410 0.10640
# Poissons Ratio (z) = 2.71047 -0.76929
#
# Static dielectric constant tensor:
#      x y z
#    x 1.722800 0.000000 0.000000 
#    y 0.000000 1.658770 0.000000 
#    z 0.000000 0.000000 1.661390 
# 
# From -- ./inp_files/6663.got.cif
#   From: 2010.05.17/outbox.ucp.g08.bks.cvg/sg55_4_cif.got.tgz:6663.got - 2010.06.11 16:36:00.
