data_PCOD9429501
_publ_section_title
;
Structure prediction by ZEFSAII (Michael W. Deem and Ramdas Pophale) SiO2 
 PCOD9429501
Probable space group: P C C N
;
_chemical_formula_sum "Si O2"
_cell_formula_units_Z 64
_cell_length_a 13.397779
_cell_length_b 37.083112
_cell_length_c 5.398956
_cell_angle_alpha 90.000000
_cell_angle_beta 90.000000
_cell_angle_gamma 90.000000
_cell_volume 2682.370540
_symmetry_space_group_name_H-M "P C C N"
_symmetry_group_IT_number 56
_symmetry_cell_setting 'orthorhombic'
loop_
_space_group_symop_operation_xyz
x,y,z
1/2-x,1/2-y,z
1/2+x,-y,1/2-z
-x,1/2+y,1/2-z
-x,-y,-z
1/2+x,1/2+y,-z
1/2-x,y,1/2+z
x,1/2-y,1/2+z
loop_
_atom_site_type_symbol
_atom_site_label
_atom_site_fract_x
_atom_site_fract_y
_atom_site_fract_z
Si Si1 0.193118 0.350774 0.405479
Si Si2 0.872510 0.382919 0.984592
Si Si3 0.366580 0.041968 0.034587
Si Si4 0.353771 0.646427 0.016696
Si Si5 0.684808 0.038778 0.049885
Si Si6 0.612098 0.728720 0.995927
Si Si7 0.134390 0.428789 0.533796
Si Si8 0.373622 0.771281 0.487631
O O1 0.219286 0.353419 0.114256
O O2 0.150491 0.311463 0.460260
O O3 0.132843 0.386794 0.471228
O O4 0.909050 0.361646 0.226123
O O5 0.752617 0.374124 0.971936
O O6 0.880054 0.425328 0.022703
O O7 0.910819 0.367746 0.724964
O O8 0.411520 0.050144 0.302253
O O9 0.250386 0.056542 0.053588
O O10 0.410494 0.062634 0.799779
O O11 0.367185 0.999759 0.976874
O O12 0.331003 0.688541 0.990657
O O13 0.738499 0.039951 0.317055
O O14 0.640285 0.746015 0.730384
O O15 0.492976 0.725229 0.991920
O O16 0.349574 0.749464 0.735654
#
# Coordination Sequence:
#
# PCOD9429501 Si02
#       8
#     8   8   8   8   8   8   8   8
#     4  12  21  32  53  74 103 131 149 196 254 294
#     4  10  19  30  43  75 107 123 156 199 242 293
#     4  10  16  25  41  61  96 134 161 184 218 287
#     4  10  18  32  50  68  98 130 152 199 251 280
#     4  12  16  25  41  63  99 138 158 185 233 279
#     4  10  23  40  54  73  96 123 165 206 234 291
#     4  10  16  27  38  64  94 126 152 190 226 280
#     4  10  21  39  57  70  90 125 168 204 239 282
#
# _framework density 23.859494999999999
#
# number of rings (size 3 to 8) (size 9 to 14) (size 15 to 20)
#    0.000    1.500    7.500    1.500    0.000    1.500 
#    0.000    7.500    0.000    0.000    0.000    0.000 
#    0.000   11.000    0.000    0.000    0.000    0.000 
#
# Total GULP energy -357915.792107 kJ/mol
# GULP energy per Si atom -5592.434252 kJ/mol
# Density = 2.380519 g / cm^3
# Si number density = 23.859495 Si / 1000 Ang^3
#
#
#
# Elastic Constant Matrix: (Units=GPa)
#
#
# Indices 1 2 3 4 5 6 
#
# 1 52.4404 2.4490 -6.7053 0.0000 0.0000 0.0000
# 2 2.4490 121.3396 -30.5831 0.0000 0.0000 0.0000
# 3 -6.7053 -30.5831 107.8848 0.0000 0.0000 0.0000
# 4 0.0000 0.0000 0.0000 52.5120 0.0000 0.0000
# 5 0.0000 0.0000 0.0000 0.0000 -5.3531 0.0000
# 6 0.0000 0.0000 0.0000 0.0000 0.0000 -23.0826
#
#
#
# Elastic Compliance Matrix: (Units=1/GPa)
#
#
# Indices 1 2 3 4 5 6 
#
# 1 0.019223 -0.000094 0.001168 0.000000 0.000000 0.000000
# 2 -0.000094 0.008876 0.002510 0.000000 0.000000 0.000000
# 3 0.001168 0.002510 0.010053 0.000000 0.000000 0.000000
# 4 0.000000 0.000000 0.000000 0.019043 0.000000 0.000000
# 5 0.000000 0.000000 0.000000 0.000000 -0.186809 0.000000
# 6 0.000000 0.000000 0.000000 0.000000 0.000000 -0.043323
#
#
# Mechanical properties :
#
#
# Convention : Reuss Voigt Hill
#
# Bulk Modulus (GPa) = 22.06415 23.55401 22.80908
# Shear Modulus (GPa) = -30.30328 25.91554 -2.19387
#
# Velocity S-wave (km/s) = -3.56767 3.29929 -0.95994
# Velocity P-wave (km/s) = 2.77551 4.94036 2.88996
#
# Compressibility (1/GPa) = 0.04532239
#
# Stress axis : x y z
#
# Youngs Moduli (GPa) = 52.02102 112.66414 99.46903
#
# Poissons Ratio (x) = 0.01054 -0.11620
# Poissons Ratio (y) = 0.00487 -0.24970
# Poissons Ratio (z) = -0.06077 -0.28282
#
# Static dielectric constant tensor:
#      x y z
#    x 1.988820 0.000000 0.000000 
#    y 0.000000 1.832170 0.000000 
#    z 0.000000 0.000000 1.959940 
# 
# From -- ./inp_files/775.got.cif
#   From: 2010.05.17/outbox.cif.g08.bks.cpg/sg56_1_cif.got.tgz:775.got - 2010.06.03 13:42:01.
