data_PCOD9429027
_publ_section_title
;
Structure prediction by ZEFSAII (Michael W. Deem and Ramdas Pophale) SiO2 
 PCOD9429027
Probable space group: P B A M
;
_chemical_formula_sum "Si O2"
_cell_formula_units_Z 48
_cell_length_a 18.351335
_cell_length_b 9.466351
_cell_length_c 13.415560
_cell_angle_alpha 90.000000
_cell_angle_beta 90.000000
_cell_angle_gamma 90.000000
_cell_volume 2330.553477
_symmetry_space_group_name_H-M "P B A M"
_symmetry_group_IT_number 55
_symmetry_cell_setting 'orthorhombic'
loop_
_space_group_symop_operation_xyz
x,y,z
-x,-y,z
1/2+x,1/2-y,-z
1/2-x,1/2+y,-z
-x,-y,-z
x,y,-z
1/2-x,1/2+y,z
1/2+x,1/2-y,z
loop_
_atom_site_type_symbol
_atom_site_label
_atom_site_fract_x
_atom_site_fract_y
_atom_site_fract_z
Si Si1 0.822360 0.998666 0.218409
Si Si2 0.125090 0.004644 0.000000
Si Si3 0.993776 0.231902 0.000000
Si Si4 0.798653 0.565893 0.500000
Si Si5 0.046385 0.873470 0.665612
Si Si6 0.812822 0.683683 0.714851
Si Si7 0.965727 0.644269 0.791346
Si Si8 0.151982 0.759553 0.500000
O O1 0.901022 0.054903 0.252826
O O2 0.761069 0.109388 0.250280
O O3 0.827891 0.978870 0.099924
O O4 0.806157 0.851933 0.274576
O O5 0.060865 0.120893 0.000000
O O6 0.081543 0.855643 0.000000
O O7 0.003274 0.322349 0.099590
O O8 0.829662 0.632840 0.602194
O O9 0.812252 0.396781 0.500000
O O10 0.714631 0.619968 0.500000
O O11 0.099594 0.787407 0.593568
O O12 0.990944 0.769739 0.719709
O O13 0.000000 0.000000 0.616991
O O14 0.878874 0.637908 0.786276
O O15 0.000000 0.500000 0.753867
#
# Coordination Sequence:
#
# PCOD9429027 Si02
#       8
#     8   4   4   4   8   8   8   4
#     4  12  26  45  72 105 140 191 236 299 353 436
#     4  11  22  43  75 103 140 189 244 288 365 434
#     4  11  21  43  73 103 139 194 232 294 371 430
#     4  12  26  47  71 104 145 197 232 303 368 430
#     4  12  24  47  71 104 140 190 242 295 356 433
#     4  12  27  46  72 101 146 188 242 293 365 428
#     4  12  26  44  72 108 143 184 244 305 357 425
#     4  12  27  43  75 105 145 188 248 292 371 434
#
# _framework density 20.595967000000002
#
# number of rings (size 3 to 8) (size 9 to 14) (size 15 to 20)
#    0.000    0.167    6.667    2.500    2.333    2.000 
#    0.000    1.667    0.000    0.000    0.000    0.000 
#    0.000    0.000    0.000    0.000    0.000    0.000 
#
# Total GULP energy -268535.234063 kJ/mol
# GULP energy per Si atom -5594.484043 kJ/mol
# Density = 2.054909 g / cm^3
# Si number density = 20.595967 Si / 1000 Ang^3
#
#
#
# Elastic Constant Matrix: (Units=GPa)
#
#
# Indices 1 2 3 4 5 6 
#
# 1 75.9766 37.6465 0.5483 0.0000 0.0000 0.0000
# 2 37.6465 88.0696 35.8253 0.0000 0.0000 0.0000
# 3 0.5483 35.8253 107.4559 0.0000 0.0000 0.0000
# 4 0.0000 0.0000 0.0000 20.1081 0.0000 0.0000
# 5 0.0000 0.0000 0.0000 0.0000 1905.8597 0.0000
# 6 0.0000 0.0000 0.0000 0.0000 0.0000 36.0539
#
#
#
# Elastic Compliance Matrix: (Units=1/GPa)
#
#
# Indices 1 2 3 4 5 6 
#
# 1 0.017380 -0.008553 0.002763 0.000000 0.000000 0.000000
# 2 -0.008553 0.017345 -0.005739 0.000000 0.000000 0.000000
# 3 0.002763 -0.005739 0.011205 0.000000 0.000000 0.000000
# 4 0.000000 0.000000 0.000000 0.049731 0.000000 0.000000
# 5 0.000000 0.000000 0.000000 0.000000 0.000525 0.000000
# 6 0.000000 0.000000 0.000000 0.000000 0.000000 0.027736
#
#
# Mechanical properties :
#
#
# Convention : Reuss Voigt Hill
#
# Bulk Modulus (GPa) = 43.72172 46.61581 45.16877
# Shear Modulus (GPa) = 32.34015 405.56981 218.95498
#
# Velocity S-wave (km/s) = 3.96690 14.04794 10.32184
# Velocity P-wave (km/s) = 6.50047 16.90588 12.80751
#
# Compressibility (1/GPa) = 0.02287193
#
# Stress axis : x y z
#
# Youngs Moduli (GPa) = 57.53686 57.65184 89.24200
#
# Poissons Ratio (x) = 0.49311 -0.24657
# Poissons Ratio (y) = 0.49213 0.51218
# Poissons Ratio (z) = -0.15897 0.33088
#
# Static dielectric constant tensor:
#      x y z
#    x 1.691670 0.000000 0.000000 
#    y 0.000000 1.722360 0.000000 
#    z 0.000000 0.000000 1.736190 
# 
# From -- ./inp_files/19401.got.cif
#   From: 2010.05.17/outbox.cif.g08.bks.cpg/sg55_10_cif.got.tgz:19401.got - 2010.06.03 13:27:54.
