data_PCOD9429586
_publ_section_title
;
Structure prediction by ZEFSAII (Michael W. Deem and Ramdas Pophale) SiO2 
 PCOD9429586
Probable space group: P C C N
;
_chemical_formula_sum "Si O2"
_cell_formula_units_Z 56
_cell_length_a 14.961014
_cell_length_b 27.733322
_cell_length_c 8.981082
_cell_angle_alpha 90.000000
_cell_angle_beta 90.000000
_cell_angle_gamma 90.000000
_cell_volume 3726.418138
_symmetry_space_group_name_H-M "P C C N"
_symmetry_group_IT_number 56
_symmetry_cell_setting 'orthorhombic'
loop_
_space_group_symop_operation_xyz
x,y,z
1/2-x,1/2-y,z
1/2+x,-y,1/2-z
-x,1/2+y,1/2-z
-x,-y,-z
1/2+x,1/2+y,-z
1/2-x,y,1/2+z
x,1/2-y,1/2+z
loop_
_atom_site_type_symbol
_atom_site_label
_atom_site_fract_x
_atom_site_fract_y
_atom_site_fract_z
Si Si1 0.146002 0.761407 0.497556
Si Si2 0.932473 0.997125 0.361611
Si Si3 0.806039 0.053878 0.545764
Si Si4 0.108584 0.818557 0.216133
Si Si5 0.041760 0.579661 0.715317
Si Si6 0.392780 0.570032 0.881693
Si Si7 0.188971 0.854708 0.679466
O O1 0.250000 0.750000 0.461806
O O2 0.100390 0.781823 0.351765
O O3 0.105175 0.713599 0.568480
O O4 0.148792 0.805673 0.614346
O O5 0.954954 0.947749 0.277259
O O6 0.838914 0.010702 0.439147
O O7 0.946554 0.039462 0.240250
O O8 0.000000 0.000000 0.500000
O O9 0.874951 0.060697 0.682759
O O10 0.705712 0.046831 0.600071
O O11 0.809012 0.103070 0.446059
O O12 0.041688 0.862788 0.230209
O O13 0.208893 0.841878 0.222150
O O14 0.061667 0.570075 0.542073
O O15 0.367502 0.622525 0.814563
#
# Coordination Sequence:
#
# PCOD9429586 Si02
#       7
#     8   8   8   8   8   8   8
#     4  10  20  28  37  59  88 122 163 207 221 245
#     4   9  21  33  44  66  91 118 151 192 240 280
#     4  10  17  31  48  64  85 121 161 191 228 272
#     4  11  20  28  42  59  90 123 165 196 229 256
#     4  11  19  30  44  62  91 120 157 196 235 268
#     4  11  18  29  50  67  85 121 163 191 224 280
#     4  10  17  29  42  62  88 121 162 201 221 250
#
# _framework density 15.027837
#
# number of rings (size 3 to 8) (size 9 to 14) (size 15 to 20)
#    0.000    1.714    4.286    2.571    4.000    0.000 
#    0.000    0.000    0.000    0.000    0.000    0.000 
#    0.000    0.000    0.000    3.857    2.286    0.000 
#
# Total GULP energy -312140.726751 kJ/mol
# GULP energy per Si atom -5573.941549 kJ/mol
# Density = 1.499363 g / cm^3
# Si number density = 15.027837 Si / 1000 Ang^3
#
#
#
# Elastic Constant Matrix: (Units=GPa)
#
#
# Indices 1 2 3 4 5 6 
#
# 1 18.8926 23.8902 14.0169 0.0000 0.0000 0.0000
# 2 23.8902 90.1926 38.2004 0.0000 0.0000 0.0000
# 3 14.0169 38.2004 94.7485 0.0000 0.0000 0.0000
# 4 0.0000 0.0000 0.0000 31.2329 0.0000 0.0000
# 5 0.0000 0.0000 0.0000 0.0000 18.9933 0.0000
# 6 0.0000 0.0000 0.0000 0.0000 0.0000 24.1962
#
#
#
# Elastic Compliance Matrix: (Units=1/GPa)
#
#
# Indices 1 2 3 4 5 6 
#
# 1 0.080833 -0.019712 -0.004011 0.000000 0.000000 0.000000
# 2 -0.019712 0.018178 -0.004413 0.000000 0.000000 0.000000
# 3 -0.004011 -0.004413 0.012927 0.000000 0.000000 0.000000
# 4 0.000000 0.000000 0.000000 0.032017 0.000000 0.000000
# 5 0.000000 0.000000 0.000000 0.000000 0.052650 0.000000
# 6 0.000000 0.000000 0.000000 0.000000 0.000000 0.041329
#
#
# Mechanical properties :
#
#
# Convention : Reuss Voigt Hill
#
# Bulk Modulus (GPa) = 17.96422 39.56097 28.76260
# Shear Modulus (GPa) = 15.98664 23.39956 19.69310
#
# Velocity S-wave (km/s) = 3.26514 3.95027 3.62393
# Velocity P-wave (km/s) = 5.11808 6.86938 6.05736
#
# Compressibility (1/GPa) = 0.05566620
#
# Stress axis : x y z
#
# Youngs Moduli (GPa) = 12.37113 55.01232 77.35946
#
# Poissons Ratio (x) = 1.08443 0.31027
# Poissons Ratio (y) = 0.24386 0.34136
# Poissons Ratio (z) = 0.04962 0.24275
#
# Static dielectric constant tensor:
#      x y z
#    x 1.473910 0.000000 0.000000 
#    y 0.000000 1.522080 0.000000 
#    z 0.000000 0.000000 1.566560 
# 
# From -- ./inp_files/3762.got.cif
#   From: 2010.05.17/outbox.cif.g08.bks.cpg/sg56_2_cif.got.tgz:3762.got - 2010.06.03 13:42:01.
