data_PCOD9429440
_publ_section_title
;
Structure prediction by ZEFSAII (Michael W. Deem and Ramdas Pophale) SiO2 
 PCOD9429440
Probable space group: P B A M
;
_chemical_formula_sum "Si O2"
_cell_formula_units_Z 64
_cell_length_a 15.000000
_cell_length_b 24.000000
_cell_length_c 9.000000
_cell_angle_alpha 90.000000
_cell_angle_beta 90.000000
_cell_angle_gamma 90.000000
_cell_volume 3240.000000
_symmetry_space_group_name_H-M "P B A M"
_symmetry_group_IT_number 55
_symmetry_cell_setting 'orthorhombic'
loop_
_space_group_symop_operation_xyz
x,y,z
-x,-y,z
1/2+x,1/2-y,-z
1/2-x,1/2+y,-z
-x,-y,-z
x,y,-z
1/2-x,1/2+y,z
1/2+x,1/2-y,z
loop_
_atom_site_type_symbol
_atom_site_label
_atom_site_fract_x
_atom_site_fract_y
_atom_site_fract_z
Si Si1 0.996035 0.165539 0.323466
Si Si2 0.310193 0.186864 0.175227
Si Si3 0.932381 0.948465 0.178904
Si Si4 0.655435 0.120446 0.325860
Si Si5 0.606557 0.004984 0.825316
Si Si6 0.746388 0.924612 0.678327
Si Si7 0.808347 0.186533 0.825699
Si Si8 0.498253 0.209879 0.674194
O O1 0.006768 0.155992 0.500000
O O2 0.031723 0.111514 0.236784
O O3 0.033495 0.227764 0.286995
O O4 0.893530 0.174093 0.275928
O O5 0.259490 0.139591 0.267602
O O6 0.275831 0.249901 0.197631
O O7 0.413008 0.192260 0.228707
O O8 0.306008 0.173228 0.000000
O O9 0.835315 0.953459 0.255449
O O10 0.923112 0.947259 0.000000
O O11 0.000000 0.000000 0.215273
O O12 0.680805 0.118165 0.500000
O O13 0.631379 0.060206 0.264498
O O14 0.733041 0.144551 0.224118
O O15 0.573041 0.163071 0.312322
O O16 0.500000 0.000000 0.817256
O O17 0.660087 0.954632 0.748876
O O18 0.631299 0.008387 0.000000
O O19 0.746002 0.927687 0.500000
O O20 0.832169 0.181160 0.000000
O O21 0.470259 0.212865 0.500000
#
# Coordination Sequence:
#
# PCOD9429440 Si02
#       8
#     8   8   8   8   8   8   8   8
#     4  10  21  40  65  93 126 164 209 261 317 378
#     4  10  21  39  63  93 127 165 209 257 315 377
#     4  11  26  46  67  91 125 169 216 271 325 384
#     4  11  23  38  61  92 127 164 207 258 312 376
#     4  11  25  45  68  95 129 170 215 264 318 383
#     4  12  26  43  68  97 130 171 216 269 323 383
#     4  10  22  39  61  91 126 167 208 256 313 376
#     4   9  20  38  61  93 129 166 204 255 317 377
#
# _framework density 19.753086
#
# number of rings (size 3 to 8) (size 9 to 14) (size 15 to 20)
#    0.000    1.500    0.000    4.125    3.500    7.000 
#    0.000    0.000    0.000    0.000    0.000    0.000 
#    0.000    0.000    0.000    0.000    0.000    0.000 
#
# Total GULP energy -357685.811825 kJ/mol
# GULP energy per Si atom -5588.840810 kJ/mol
# Density = 1.970813 g / cm^3
# Si number density = 19.753086 Si / 1000 Ang^3
#
#
#
# Elastic Constant Matrix: (Units=GPa)
#
#
# Indices 1 2 3 4 5 6 
#
# 1 42.1876 7.3659 12.8111 0.0000 0.0000 0.0000
# 2 7.3659 77.4154 24.8203 0.0000 0.0000 0.0000
# 3 12.8111 24.8203 81.2117 0.0000 0.0000 0.0000
# 4 0.0000 0.0000 0.0000 32.6713 0.0000 0.0000
# 5 0.0000 0.0000 0.0000 0.0000 31.6508 0.0000
# 6 0.0000 0.0000 0.0000 0.0000 0.0000 31.2587
#
#
#
# Elastic Compliance Matrix: (Units=1/GPa)
#
#
# Indices 1 2 3 4 5 6 
#
# 1 0.025002 -0.001235 -0.003567 0.000000 0.000000 0.000000
# 2 -0.001235 0.014382 -0.004200 0.000000 0.000000 0.000000
# 3 -0.003567 -0.004200 0.014160 0.000000 0.000000 0.000000
# 4 0.000000 0.000000 0.000000 0.030608 0.000000 0.000000
# 5 0.000000 0.000000 0.000000 0.000000 0.031595 0.000000
# 6 0.000000 0.000000 0.000000 0.000000 0.000000 0.031991
#
#
# Mechanical properties :
#
#
# Convention : Reuss Voigt Hill
#
# Bulk Modulus (GPa) = 28.13815 32.31216 30.22515
# Shear Modulus (GPa) = 28.15491 29.50398 28.82945
#
# Velocity S-wave (km/s) = 3.77947 3.86896 3.82447
# Velocity P-wave (km/s) = 5.77249 6.02926 5.90227
#
# Compressibility (1/GPa) = 0.03553894
#
# Stress axis : x y z
#
# Youngs Moduli (GPa) = 39.99617 69.53327 70.62208
#
# Poissons Ratio (x) = 0.08591 0.25188
# Poissons Ratio (y) = 0.04941 0.29665
# Poissons Ratio (z) = 0.14265 0.29207
#
# Static dielectric constant tensor:
#      x y z
#    x 1.689890 0.000000 0.000000 
#    y 0.000000 1.701370 0.000000 
#    z 0.000000 0.000000 1.661370 
# 
# From -- ./inp_files/6696.got.cif
#   From: 2010.05.17/outbox.ucp.g08.bks.cvg/sg55_4_cif.got.tgz:6696.got - 2010.06.11 16:36:00.
