data_PCOD9429266
_publ_section_title
;
Structure prediction by ZEFSAII (Michael W. Deem and Ramdas Pophale) SiO2 
 PCOD9429266
Probable space group: P B A M
;
_chemical_formula_sum "Si O2"
_cell_formula_units_Z 64
_cell_length_a 18.000000
_cell_length_b 24.000000
_cell_length_c 9.000000
_cell_angle_alpha 90.000000
_cell_angle_beta 90.000000
_cell_angle_gamma 90.000000
_cell_volume 3888.000000
_symmetry_space_group_name_H-M "P B A M"
_symmetry_group_IT_number 55
_symmetry_cell_setting 'orthorhombic'
loop_
_space_group_symop_operation_xyz
x,y,z
-x,-y,z
1/2+x,1/2-y,-z
1/2-x,1/2+y,-z
-x,-y,-z
x,y,-z
1/2-x,1/2+y,z
1/2+x,1/2-y,z
loop_
_atom_site_type_symbol
_atom_site_label
_atom_site_fract_x
_atom_site_fract_y
_atom_site_fract_z
Si Si1 0.956106 0.229207 0.833220
Si Si2 0.191597 0.175848 0.673686
Si Si3 0.687886 0.739595 0.670597
Si Si4 0.728930 0.138912 0.825226
Si Si5 0.825628 0.049479 0.676170
Si Si6 0.635088 0.435105 0.822542
Si Si7 0.388362 0.776933 0.829048
Si Si8 0.971127 0.098571 0.173548
O O1 0.897837 0.241656 0.706827
O O2 0.983090 0.165193 0.817230
O O3 0.024059 0.271316 0.825141
O O4 0.922819 0.232825 0.000000
O O5 0.180487 0.163567 0.500000
O O6 0.273486 0.201133 0.697699
O O7 0.171904 0.122108 0.768354
O O8 0.142386 0.228825 0.722745
O O9 0.703450 0.723940 0.500000
O O10 0.720875 0.691595 0.775675
O O11 0.757193 0.086024 0.735731
O O12 0.646969 0.163282 0.794433
O O13 0.738065 0.128267 0.000000
O O14 0.824823 0.046619 0.500000
O O15 0.900563 0.080525 0.731690
O O16 0.828568 0.988363 0.746648
O O17 0.547441 0.431375 0.782244
O O18 0.639163 0.439356 0.000000
O O19 0.364774 0.763635 0.000000
O O20 0.955704 0.085323 0.000000
#
# Coordination Sequence:
#
# PCOD9429266 Si02
#       8
#     8   8   8   8   8   8   8   8
#     4  10  18  31  51  75 101 131 165 203 245 291
#     4  10  20  33  49  72 101 129 163 205 249 292
#     4  10  20  32  48  73 102 131 162 201 247 296
#     4  10  19  33  52  71  95 130 169 207 246 290
#     4  12  24  35  49  71 101 133 170 208 247 292
#     4  11  22  37  54  70  95 132 175 210 245 290
#     4   9  18  33  52  73  97 128 167 206 247 293
#     4  10  20  34  50  70  99 134 171 207 239 283
#
# _framework density 16.460905
#
# number of rings (size 3 to 8) (size 9 to 14) (size 15 to 20)
#    0.000    1.750    2.500    3.000    0.000    5.000 
#    0.000    0.000    0.000    0.000    0.000    0.875 
#    0.000    7.000    0.000    0.000    0.000    0.000 
#
# Total GULP energy -356931.010817 kJ/mol
# GULP energy per Si atom -5577.047044 kJ/mol
# Density = 1.642344 g / cm^3
# Si number density = 16.460905 Si / 1000 Ang^3
#
#
#
# Elastic Constant Matrix: (Units=GPa)
#
#
# Indices 1 2 3 4 5 6 
#
# 1 8.5528 -1.2868 1.1059 0.0000 0.0000 0.0000
# 2 -1.2868 24.6745 10.8687 0.0000 0.0000 0.0000
# 3 1.1059 10.8687 36.4595 0.0000 0.0000 0.0000
# 4 0.0000 0.0000 0.0000 23.1038 0.0000 0.0000
# 5 0.0000 0.0000 0.0000 0.0000 10.7923 0.0000
# 6 0.0000 0.0000 0.0000 0.0000 0.0000 21.0758
#
#
#
# Elastic Compliance Matrix: (Units=1/GPa)
#
#
# Indices 1 2 3 4 5 6 
#
# 1 0.119085 0.008981 -0.006289 0.000000 0.000000 0.000000
# 2 0.008981 0.047331 -0.014382 0.000000 0.000000 0.000000
# 3 -0.006289 -0.014382 0.031906 0.000000 0.000000 0.000000
# 4 0.000000 0.000000 0.000000 0.043283 0.000000 0.000000
# 5 0.000000 0.000000 0.000000 0.000000 0.092658 0.000000
# 6 0.000000 0.000000 0.000000 0.000000 0.000000 0.047448
#
#
# Mechanical properties :
#
#
# Convention : Reuss Voigt Hill
#
# Bulk Modulus (GPa) = 5.71623 10.11804 7.91713
# Shear Modulus (GPa) = 10.78969 14.92764 12.85866
#
# Velocity S-wave (km/s) = 2.56300 3.01467 2.79796
# Velocity P-wave (km/s) = 3.49839 4.27524 3.90618
#
# Compressibility (1/GPa) = 0.17494059
#
# Stress axis : x y z
#
# Youngs Moduli (GPa) = 8.39737 21.12778 31.34229
#
# Poissons Ratio (x) = -0.18974 0.19712
# Poissons Ratio (y) = -0.07541 0.45076
# Poissons Ratio (z) = 0.05281 0.30386
#
# Static dielectric constant tensor:
#      x y z
#    x 1.589390 0.000000 0.000000 
#    y 0.000000 1.537610 0.000000 
#    z 0.000000 0.000000 1.575310 
# 
# From -- ./inp_files/8147.got.cif
#   From: 2010.05.17/outbox.ucp.g08.bks.cvg/sg55_5_cif.got.tgz:8147.got - 2010.06.11 16:36:00.
