data_PCOD9429740
_publ_section_title
;
Structure prediction by ZEFSAII (Michael W. Deem and Ramdas Pophale) SiO2 
 PCOD9429740
Probable space group: P C C N
;
_chemical_formula_sum "Si O2"
_cell_formula_units_Z 48
_cell_length_a 18.326684
_cell_length_b 8.261381
_cell_length_c 16.942720
_cell_angle_alpha 90.000000
_cell_angle_beta 90.000000
_cell_angle_gamma 90.000000
_cell_volume 2565.190818
_symmetry_space_group_name_H-M "P C C N"
_symmetry_group_IT_number 56
_symmetry_cell_setting 'orthorhombic'
loop_
_space_group_symop_operation_xyz
x,y,z
1/2-x,1/2-y,z
1/2+x,-y,1/2-z
-x,1/2+y,1/2-z
-x,-y,-z
1/2+x,1/2+y,-z
1/2-x,y,1/2+z
x,1/2-y,1/2+z
loop_
_atom_site_type_symbol
_atom_site_label
_atom_site_fract_x
_atom_site_fract_y
_atom_site_fract_z
Si Si1 0.947466 0.890598 0.244100
Si Si2 0.821711 0.639308 0.209135
Si Si3 0.069223 0.602526 0.101203
Si Si4 0.092459 0.500770 0.932277
Si Si5 0.327188 0.685341 0.193315
Si Si6 0.077696 0.790637 0.822985
O O1 0.889602 0.754048 0.227690
O O2 0.023798 0.808766 0.264797
O O3 0.925212 0.987073 0.322873
O O4 0.949023 0.025725 0.175823
O O5 0.750000 0.750000 0.207679
O O6 0.843044 0.563078 0.123864
O O7 0.821011 0.498473 0.275533
O O8 0.112396 0.763831 0.127883
O O9 0.981862 0.604096 0.082737
O O10 0.104795 0.518072 0.024951
O O11 0.077763 0.684482 0.901244
O O12 0.250000 0.750000 0.163760
O O13 0.346603 0.781358 0.275256
#
# Coordination Sequence:
#
# PCOD9429740 Si02
#       6
#     8   8   8   8   8   8
#     4  10  18  32  55  78 102 137 179 223 266 324
#     4  11  21  34  54  80 110 143 181 223 271 331
#     4   9  18  36  57  79 107 140 182 228 277 328
#     4   9  19  35  56  79 108 142 178 229 280 325
#     4  10  19  34  54  76 104 139 179 221 267 323
#     4   9  17  31  53  76 101 135 180 222 267 322
#
# _framework density 18.712057000000001
#
# number of rings (size 3 to 8) (size 9 to 14) (size 15 to 20)
#    0.000    2.333    0.000    6.000    0.000    0.000 
#    0.000    9.167    0.000   12.000    0.000    0.000 
#    0.000    0.000    0.000    0.000    0.000    0.000 
#
# Total GULP energy -267251.296717 kJ/mol
# GULP energy per Si atom -5567.735348 kJ/mol
# Density = 1.866947 g / cm^3
# Si number density = 18.712057 Si / 1000 Ang^3
#
#
#
# Elastic Constant Matrix: (Units=GPa)
#
#
# Indices 1 2 3 4 5 6 
#
# 1 43.0411 29.9158 34.6254 0.0000 0.0000 0.0000
# 2 29.9158 105.9842 31.4516 0.0000 0.0000 0.0000
# 3 34.6254 31.4516 78.4985 0.0000 0.0000 0.0000
# 4 0.0000 0.0000 0.0000 3.3175 0.0000 0.0000
# 5 0.0000 0.0000 0.0000 0.0000 2.8325 0.0000
# 6 0.0000 0.0000 0.0000 0.0000 0.0000 30.0435
#
#
#
# Elastic Compliance Matrix: (Units=1/GPa)
#
#
# Indices 1 2 3 4 5 6 
#
# 1 0.039981 -0.006869 -0.014883 0.000000 0.000000 0.000000
# 2 -0.006869 0.011889 -0.001734 0.000000 0.000000 0.000000
# 3 -0.014883 -0.001734 0.019999 0.000000 0.000000 0.000000
# 4 0.000000 0.000000 0.000000 0.301428 0.000000 0.000000
# 5 0.000000 0.000000 0.000000 0.000000 0.353045 0.000000
# 6 0.000000 0.000000 0.000000 0.000000 0.000000 0.033285
#
#
# Mechanical properties :
#
#
# Convention : Reuss Voigt Hill
#
# Bulk Modulus (GPa) = 40.16548 46.61214 43.38881
# Shear Modulus (GPa) = 6.13575 16.00744 11.07159
#
# Velocity S-wave (km/s) = 1.81277 2.92800 2.43509
# Velocity P-wave (km/s) = 5.08853 6.03284 5.58070
#
# Compressibility (1/GPa) = 0.02489700
#
# Stress axis : x y z
#
# Youngs Moduli (GPa) = 25.01195 84.11419 50.00312
#
# Poissons Ratio (x) = 0.57774 0.74422
# Poissons Ratio (y) = 0.17179 0.08669
# Poissons Ratio (z) = 0.37226 0.14583
#
# Static dielectric constant tensor:
#      x y z
#    x 1.859770 0.000000 0.000000 
#    y 0.000000 1.705520 0.000000 
#    z 0.000000 0.000000 1.640160 
# 
# From -- ./inp_files/16801.got.cif
#   From: 2010.05.17/outbox.cif.g08.bks.cpg/sg56_9_cif.got.tgz:16801.got - 2010.06.03 13:42:01.
