data_PCOD9429654
_publ_section_title
;
Structure prediction by ZEFSAII (Michael W. Deem and Ramdas Pophale) SiO2 
 PCOD9429654
Probable space group: P C C N
;
_chemical_formula_sum "Si O2"
_cell_formula_units_Z 64
_cell_length_a 9.402835
_cell_length_b 26.091608
_cell_length_c 9.498005
_cell_angle_alpha 90.000000
_cell_angle_beta 90.000000
_cell_angle_gamma 90.000000
_cell_volume 2330.193863
_symmetry_space_group_name_H-M "P C C N"
_symmetry_group_IT_number 56
_symmetry_cell_setting 'orthorhombic'
loop_
_space_group_symop_operation_xyz
x,y,z
1/2-x,1/2-y,z
1/2+x,-y,1/2-z
-x,1/2+y,1/2-z
-x,-y,-z
1/2+x,1/2+y,-z
1/2-x,y,1/2+z
x,1/2-y,1/2+z
loop_
_atom_site_type_symbol
_atom_site_label
_atom_site_fract_x
_atom_site_fract_y
_atom_site_fract_z
Si Si1 0.329021 0.171190 0.003186
Si Si2 0.099912 0.951036 0.995782
Si Si3 0.172961 0.508837 0.212552
Si Si4 0.508357 0.084306 0.100373
Si Si5 0.136948 0.419605 0.815223
Si Si6 0.863950 0.206537 0.467831
Si Si7 0.246408 0.653785 0.292468
Si Si8 0.046021 0.142499 0.052782
O O1 0.284211 0.128159 0.888442
O O2 0.463153 0.205041 0.948042
O O3 0.404430 0.133903 0.117594
O O4 0.167101 0.186680 0.039615
O O5 0.236192 0.967053 0.086401
O O6 0.024884 0.899282 0.054214
O O7 0.120802 0.950351 0.826399
O O8 0.000000 0.000000 0.000000
O O9 0.279410 0.471951 0.301922
O O10 0.054134 0.467227 0.166741
O O11 0.989419 0.574756 0.069044
O O12 0.657610 0.105505 0.156107
O O13 0.114744 0.398081 0.660477
O O14 0.750000 0.250000 0.428087
O O15 0.800242 0.160709 0.368956
O O16 0.841793 0.198026 0.634593
O O17 0.096380 0.662739 0.373133
#
# Coordination Sequence:
#
# PCOD9429654 Si02
#       8
#     8   8   8   8   8   8   8   8
#     4   9  20  41  71  98 138 190 242 290 361 458
#     4  12  26  41  63 101 143 199 265 331 380 425
#     4  12  22  42  68 100 148 202 263 336 381 418
#     4   9  20  39  69 101 139 201 259 311 382 439
#     4  10  17  40  67  95 143 193 264 314 361 440
#     4  11  24  47  78 114 146 182 229 306 382 454
#     4  11  24  45  72 109 150 191 243 302 371 470
#     4  12  22  42  68  99 146 201 261 300 368 453
#
# _framework density 27.465527000000002
#
# number of rings (size 3 to 8) (size 9 to 14) (size 15 to 20)
#    0.750    0.500    5.000    1.125    0.000    5.000 
#    0.000    2.500    0.000    1.500    0.000    0.000 
#    0.000    0.000    0.000    0.000    0.000    0.000 
#
# Total GULP energy -356517.931419 kJ/mol
# GULP energy per Si atom -5570.592678 kJ/mol
# Density = 2.740301 g / cm^3
# Si number density = 27.465527 Si / 1000 Ang^3
#
#
#
# Elastic Constant Matrix: (Units=GPa)
#
#
# Indices 1 2 3 4 5 6 
#
# 1 214.9339 65.4237 43.6132 0.0000 0.0000 0.0000
# 2 65.4237 69.9777 15.7647 0.0000 0.0000 0.0000
# 3 43.6132 15.7647 113.6231 0.0000 0.0000 0.0000
# 4 0.0000 0.0000 0.0000 19.0364 0.0000 0.0000
# 5 0.0000 0.0000 0.0000 0.0000 30.4203 0.0000
# 6 0.0000 0.0000 0.0000 0.0000 0.0000 62.4184
#
#
#
# Elastic Compliance Matrix: (Units=1/GPa)
#
#
# Indices 1 2 3 4 5 6 
#
# 1 0.006840 -0.005991 -0.001794 0.000000 0.000000 0.000000
# 2 -0.005991 0.019998 -0.000475 0.000000 0.000000 0.000000
# 3 -0.001794 -0.000475 0.009556 0.000000 0.000000 0.000000
# 4 0.000000 0.000000 0.000000 0.052531 0.000000 0.000000
# 5 0.000000 0.000000 0.000000 0.000000 0.032873 0.000000
# 6 0.000000 0.000000 0.000000 0.000000 0.000000 0.016021
#
#
# Mechanical properties :
#
#
# Convention : Reuss Voigt Hill
#
# Bulk Modulus (GPa) = 50.31819 72.01532 61.16675
# Shear Modulus (GPa) = 31.06283 40.62389 35.84336
#
# Velocity S-wave (km/s) = 3.36665 3.85006 3.61644
# Velocity P-wave (km/s) = 5.78556 6.78536 6.30531
#
# Compressibility (1/GPa) = 0.01987353
#
# Stress axis : x y z
#
# Youngs Moduli (GPa) = 146.19333 50.00425 104.64957
#
# Poissons Ratio (x) = 0.29957 0.18778
# Poissons Ratio (y) = 0.87583 0.04972
# Poissons Ratio (z) = 0.26232 0.02376
#
# Static dielectric constant tensor:
#      x y z
#    x 2.407280 0.000000 0.000000 
#    y 0.000000 2.413600 0.000000 
#    z 0.000000 0.000000 2.293840 
# 
# From -- ./inp_files/6615.got.cif
#   From: 2010.05.17/outbox.cif.g08.bks.cpg/sg56_4_cif.got.tgz:6615.got - 2010.06.03 13:42:01.
