data_PCOD9429373
_publ_section_title
;
Structure prediction by ZEFSAII (Michael W. Deem and Ramdas Pophale) SiO2 
 PCOD9429373
Probable space group: P B A M
;
_chemical_formula_sum "Si O2"
_cell_formula_units_Z 56
_cell_length_a 9.000000
_cell_length_b 21.000000
_cell_length_c 15.000000
_cell_angle_alpha 90.000000
_cell_angle_beta 90.000000
_cell_angle_gamma 90.000000
_cell_volume 2835.000000
_symmetry_space_group_name_H-M "P B A M"
_symmetry_group_IT_number 55
_symmetry_cell_setting 'orthorhombic'
loop_
_space_group_symop_operation_xyz
x,y,z
-x,-y,z
1/2+x,1/2-y,-z
1/2-x,1/2+y,-z
-x,-y,-z
x,y,-z
1/2-x,1/2+y,z
1/2+x,1/2-y,z
loop_
_atom_site_type_symbol
_atom_site_label
_atom_site_fract_x
_atom_site_fract_y
_atom_site_fract_z
Si Si1 0.011757 0.575803 0.402127
Si Si2 0.713448 0.755087 0.222096
Si Si3 0.946917 0.072378 0.394612
Si Si4 0.461254 0.696229 0.105328
Si Si5 0.199156 0.390130 0.253994
Si Si6 0.388135 0.442783 0.103973
Si Si7 0.716135 0.335128 0.398458
O O1 0.945491 0.596646 0.500000
O O2 0.175730 0.604188 0.404491
O O3 0.000000 0.500000 0.401175
O O4 0.952000 0.599932 0.307220
O O5 0.558760 0.739852 0.172373
O O6 0.781038 0.684035 0.231995
O O7 0.727656 0.788352 0.319675
O O8 0.801160 0.797652 0.150155
O O9 0.913607 0.073576 0.500000
O O10 0.811531 0.087563 0.331134
O O11 0.060567 0.130783 0.377057
O O12 0.000000 0.000000 0.375333
O O13 0.523525 0.624320 0.110054
O O14 0.464411 0.714988 0.000000
O O15 0.246602 0.431963 0.168258
O O16 0.500000 0.500000 0.130633
O O17 0.347350 0.452855 0.000000
O O18 0.711470 0.306657 0.500000
#
# Coordination Sequence:
#
# PCOD9429373 Si02
#       7
#     8   8   8   8   8   8   8
#     4  10  21  36  53  76 108 144 179 214 261 318
#     4  11  22  37  54  81 111 142 184 218 261 326
#     4  10  20  35  57  83 107 137 184 232 270 312
#     4  10  21  38  60  81 107 141 178 225 272 318
#     4  11  21  34  55  80 107 141 177 221 266 313
#     4   9  19  36  58  84 108 133 173 226 280 326
#     4  10  21  36  53  76 111 149 179 218 267 317
#
# _framework density 19.753086
#
# number of rings (size 3 to 8) (size 9 to 14) (size 15 to 20)
#    0.000    1.857    0.000    4.714    0.000    5.143 
#    0.000    3.571    0.000    0.429    0.000    0.000 
#    0.000    0.000    0.000    0.000    0.000    0.000 
#
# Total GULP energy -312030.656225 kJ/mol
# GULP energy per Si atom -5571.976004 kJ/mol
# Density = 1.970813 g / cm^3
# Si number density = 19.753086 Si / 1000 Ang^3
#
#
#
# Elastic Constant Matrix: (Units=GPa)
#
#
# Indices 1 2 3 4 5 6 
#
# 1 15.4844 -13.7071 -17.3718 0.0000 0.0000 0.0000
# 2 -13.7071 39.1114 13.7449 0.0000 0.0000 0.0000
# 3 -17.3718 13.7449 67.9948 0.0000 0.0000 0.0000
# 4 0.0000 0.0000 0.0000 28.8558 0.0000 0.0000
# 5 0.0000 0.0000 0.0000 0.0000 19.5421 0.0000
# 6 0.0000 0.0000 0.0000 0.0000 0.0000 18.2585
#
#
#
# Elastic Compliance Matrix: (Units=1/GPa)
#
#
# Indices 1 2 3 4 5 6 
#
# 1 0.122173 0.034283 0.024283 0.000000 0.000000 0.000000
# 2 0.034283 0.037143 0.001251 0.000000 0.000000 0.000000
# 3 0.024283 0.001251 0.020658 0.000000 0.000000 0.000000
# 4 0.000000 0.000000 0.000000 0.034655 0.000000 0.000000
# 5 0.000000 0.000000 0.000000 0.000000 0.051172 0.000000
# 6 0.000000 0.000000 0.000000 0.000000 0.000000 0.054769
#
#
# Mechanical properties :
#
#
# Convention : Reuss Voigt Hill
#
# Bulk Modulus (GPa) = 3.33769 9.76917 6.55343
# Shear Modulus (GPa) = 16.62202 22.65958 19.64080
#
# Velocity S-wave (km/s) = 2.90399 3.39062 3.15670
# Velocity P-wave (km/s) = 3.59689 4.50387 4.07568
#
# Compressibility (1/GPa) = 0.29960877
#
# Stress axis : x y z
#
# Youngs Moduli (GPa) = 8.18512 26.92268 48.40657
#
# Poissons Ratio (x) = -0.92299 -1.17548
# Poissons Ratio (y) = -0.28061 -0.06053
# Poissons Ratio (z) = -0.19876 -0.03367
#
# Static dielectric constant tensor:
#      x y z
#    x 1.778630 0.000000 0.000000 
#    y 0.000000 1.681050 0.000000 
#    z 0.000000 0.000000 1.710480 
# 
# From -- ./inp_files/17612.got.cif
#   From: 2010.05.17/outbox.ucp.g08.bks.cvg/sg55_9_cif.got.tgz:17612.got - 2010.06.11 16:36:00.
