data_PCOD9429641
_publ_section_title
;
Structure prediction by ZEFSAII (Michael W. Deem and Ramdas Pophale) SiO2 
 PCOD9429641
Probable space group: P C C N
;
_chemical_formula_sum "Si O2"
_cell_formula_units_Z 64
_cell_length_a 16.162249
_cell_length_b 9.567394
_cell_length_c 22.079738
_cell_angle_alpha 90.000000
_cell_angle_beta 90.000000
_cell_angle_gamma 90.000000
_cell_volume 3414.203226
_symmetry_space_group_name_H-M "P C C N"
_symmetry_group_IT_number 56
_symmetry_cell_setting 'orthorhombic'
loop_
_space_group_symop_operation_xyz
x,y,z
1/2-x,1/2-y,z
1/2+x,-y,1/2-z
-x,1/2+y,1/2-z
-x,-y,-z
1/2+x,1/2+y,-z
1/2-x,y,1/2+z
x,1/2-y,1/2+z
loop_
_atom_site_type_symbol
_atom_site_label
_atom_site_fract_x
_atom_site_fract_y
_atom_site_fract_z
Si Si1 0.862211 0.150049 0.393361
Si Si2 0.517828 0.788549 0.184714
Si Si3 0.376974 0.422720 0.006747
Si Si4 0.537966 0.970770 0.304041
Si Si5 0.545746 0.133528 0.578131
Si Si6 0.085100 0.931572 0.474483
Si Si7 0.303205 0.530057 0.121257
Si Si8 0.158624 0.307431 0.912310
O O1 0.869060 0.112088 0.463717
O O2 0.836933 0.312931 0.390465
O O3 0.792063 0.054701 0.362004
O O4 0.948892 0.141486 0.358865
O O5 0.532563 0.884895 0.242535
O O6 0.485552 0.634190 0.202705
O O7 0.599219 0.774857 0.143807
O O8 0.461520 0.415100 0.044760
O O9 0.308467 0.449972 0.057345
O O10 0.384149 0.543023 0.955966
O O11 0.368973 0.280598 0.970813
O O12 0.473300 0.905960 0.352796
O O13 0.631255 0.964634 0.331967
O O14 0.561897 0.294681 0.564181
O O15 0.140956 0.034435 0.433734
O O16 0.000000 0.000000 0.500000
O O17 0.250000 0.250000 0.899106
#
# Coordination Sequence:
#
# PCOD9429641 Si02
#       8
#     8   8   8   8   8   8   8   8
#     4  10  19  37  62  93 119 153 204 257 308 371
#     4  11  23  43  63  84 118 171 213 257 309 369
#     4  10  17  36  61  89 126 160 189 245 323 380
#     4  10  23  40  65  87 118 164 217 258 308 366
#     4  10  19  35  64  90 117 160 206 245 305 385
#     4  12  21  35  63  96 125 159 201 248 314 380
#     4   9  19  36  63  92 120 152 200 260 311 366
#     4  12  25  40  59  91 133 163 197 257 320 372
#
# _framework density 18.745221000000001
#
# number of rings (size 3 to 8) (size 9 to 14) (size 15 to 20)
#    0.000    1.500    5.000    0.750    1.750    0.000 
#    2.250    0.000    0.000    0.000    0.000    0.000 
#    0.000    0.000    0.000    0.000    0.000    0.000 
#
# Total GULP energy -357057.270174 kJ/mol
# GULP energy per Si atom -5579.019846 kJ/mol
# Density = 1.870256 g / cm^3
# Si number density = 18.745221 Si / 1000 Ang^3
#
#
#
# Elastic Constant Matrix: (Units=GPa)
#
#
# Indices 1 2 3 4 5 6 
#
# 1 46.5373 -5.1219 27.3070 0.0000 0.0000 0.0000
# 2 -5.1219 64.4411 21.2731 0.0000 0.0000 0.0000
# 3 27.3070 21.2731 92.0852 0.0000 0.0000 0.0000
# 4 0.0000 0.0000 0.0000 36.4787 0.0000 0.0000
# 5 0.0000 0.0000 0.0000 0.0000 5.4620 0.0000
# 6 0.0000 0.0000 0.0000 0.0000 0.0000 18.7850
#
#
#
# Elastic Compliance Matrix: (Units=1/GPa)
#
#
# Indices 1 2 3 4 5 6 
#
# 1 0.027590 0.005298 -0.009405 0.000000 0.000000 0.000000
# 2 0.005298 0.017816 -0.005687 0.000000 0.000000 0.000000
# 3 -0.009405 -0.005687 0.014962 0.000000 0.000000 0.000000
# 4 0.000000 0.000000 0.000000 0.027413 0.000000 0.000000
# 5 0.000000 0.000000 0.000000 0.000000 0.183083 0.000000
# 6 0.000000 0.000000 0.000000 0.000000 0.000000 0.053234
#
#
# Mechanical properties :
#
#
# Convention : Reuss Voigt Hill
#
# Bulk Modulus (GPa) = 24.52190 32.22000 28.37095
# Shear Modulus (GPa) = 13.99457 22.78550 18.39003
#
# Velocity S-wave (km/s) = 2.73530 3.49024 3.13557
# Velocity P-wave (km/s) = 4.80478 5.78516 5.31761
#
# Compressibility (1/GPa) = 0.04077987
#
# Stress axis : x y z
#
# Youngs Moduli (GPa) = 36.24485 56.12784 66.83430
#
# Poissons Ratio (x) = -0.29736 0.62861
# Poissons Ratio (y) = -0.19202 0.38008
# Poissons Ratio (z) = 0.34090 0.31919
#
# Static dielectric constant tensor:
#      x y z
#    x 2.143020 0.000000 0.000000 
#    y 0.000000 1.682090 0.000000 
#    z 0.000000 0.000000 1.617020 
# 
# From -- ./inp_files/21148.got.cif
#   From: 2010.05.17/outbox.cif.g08.bks.cpg/sg56_11_cif.got.tgz:21148.got - 2010.06.03 13:42:01.
