data_PCOD9429452
_publ_section_title
;
Structure prediction by ZEFSAII (Michael W. Deem and Ramdas Pophale) SiO2 
 PCOD9429452
Probable space group: P B A M
;
_chemical_formula_sum "Si O2"
_cell_formula_units_Z 48
_cell_length_a 15.000000
_cell_length_b 18.000000
_cell_length_c 9.000000
_cell_angle_alpha 90.000000
_cell_angle_beta 90.000000
_cell_angle_gamma 90.000000
_cell_volume 2430.000000
_symmetry_space_group_name_H-M "P B A M"
_symmetry_group_IT_number 55
_symmetry_cell_setting 'orthorhombic'
loop_
_space_group_symop_operation_xyz
x,y,z
-x,-y,z
1/2+x,1/2-y,-z
1/2-x,1/2+y,-z
-x,-y,-z
x,y,-z
1/2-x,1/2+y,z
1/2+x,1/2-y,z
loop_
_atom_site_type_symbol
_atom_site_label
_atom_site_fract_x
_atom_site_fract_y
_atom_site_fract_z
Si Si1 0.898740 0.006647 0.678949
Si Si2 0.168599 0.681777 0.333254
Si Si3 0.313440 0.341425 0.675164
Si Si4 0.372871 0.799543 0.176984
Si Si5 0.502032 0.084012 0.670298
Si Si6 0.660944 0.358822 0.827326
O O1 0.897058 0.007589 0.500000
O O2 0.857582 0.083851 0.733777
O O3 0.851806 0.933102 0.735744
O O4 0.000000 0.000000 0.729257
O O5 0.211399 0.682538 0.500000
O O6 0.130660 0.765005 0.311831
O O7 0.238221 0.666109 0.204453
O O8 0.095781 0.618463 0.334232
O O9 0.296878 0.352846 0.500000
O O10 0.220846 0.324052 0.753668
O O11 0.442001 0.859858 0.231923
O O12 0.393472 0.714358 0.224025
O O13 0.366278 0.798376 0.000000
O O14 0.537421 0.082788 0.500000
O O15 0.500000 0.000000 0.725743
O O16 0.643815 0.372629 0.000000
#
# Coordination Sequence:
#
# PCOD9429452 Si02
#       6
#     8   8   8   8   8   8
#     4  10  22  37  59  88 115 145 189 238 282 332
#     4   9  19  37  60  83 111 149 190 234 284 334
#     4   9  19  37  59  83 110 147 191 234 282 334
#     4  10  22  39  58  83 114 152 191 228 279 340
#     4  10  22  37  58  88 117 146 187 238 286 333
#     4  10  22  39  58  83 116 153 189 228 282 340
#
# _framework density 19.753086
#
# number of rings (size 3 to 8) (size 9 to 14) (size 15 to 20)
#    0.000    2.333    0.000    1.000    4.667    4.000 
#    0.000    0.000    0.000    0.000    0.000    0.000 
#    0.000    0.000    0.000    0.000    0.000    0.000 
#
# Total GULP energy -267404.287841 kJ/mol
# GULP energy per Si atom -5570.922663 kJ/mol
# Density = 1.970813 g / cm^3
# Si number density = 19.753086 Si / 1000 Ang^3
#
#
#
# Elastic Constant Matrix: (Units=GPa)
#
#
# Indices 1 2 3 4 5 6 
#
# 1 19.1234 16.2833 -2.5472 0.0000 0.0000 0.0000
# 2 16.2833 126.5734 4.1753 0.0000 0.0000 0.0000
# 3 -2.5472 4.1753 -5.5745 0.0000 0.0000 0.0000
# 4 0.0000 0.0000 0.0000 88.7956 0.0000 0.0000
# 5 0.0000 0.0000 0.0000 0.0000 4.2150 0.0000
# 6 0.0000 0.0000 0.0000 0.0000 0.0000 24.9866
#
#
#
# Elastic Compliance Matrix: (Units=1/GPa)
#
#
# Indices 1 2 3 4 5 6 
#
# 1 0.053493 -0.005929 -0.028884 0.000000 0.000000 0.000000
# 2 -0.005929 0.008367 0.008976 0.000000 0.000000 0.000000
# 3 -0.028884 0.008976 -0.159468 0.000000 0.000000 0.000000
# 4 0.000000 0.000000 0.000000 0.011262 0.000000 0.000000
# 5 0.000000 0.000000 0.000000 0.000000 0.237250 0.000000
# 6 0.000000 0.000000 0.000000 0.000000 0.000000 0.040022
#
#
# Mechanical properties :
#
#
# Convention : Reuss Voigt Hill
#
# Bulk Modulus (GPa) = -6.69883 19.54947 6.42532
# Shear Modulus (GPa) = 25.92848 31.74680 28.83764
#
# Velocity S-wave (km/s) = 3.62695 4.01332 3.82502
# Velocity P-wave (km/s) = 3.76046 5.60304 4.77154
#
# Compressibility (1/GPa) = -0.14927990
#
# Stress axis : x y z
#
# Youngs Moduli (GPa) = 18.69396 119.51438 -6.27086
#
# Poissons Ratio (x) = 0.70859 -0.18112
# Poissons Ratio (y) = 0.11084 0.05629
# Poissons Ratio (z) = 0.53995 -1.07279
#
# Static dielectric constant tensor:
#      x y z
#    x 1.708020 0.000000 0.000000 
#    y 0.000000 2.205610 0.000000 
#    z 0.000000 0.000000 1.684060 
# 
# From -- ./inp_files/5606.got.cif
#   From: 2010.05.17/outbox.ucp.g08.bks.cvg/sg55_3_cif.got.tgz:5606.got - 2010.06.11 16:36:00.
