data_PCOD9429858
_publ_section_title
;
Structure prediction by ZEFSAII (Michael W. Deem and Ramdas Pophale) SiO2 
 PCOD9429858
Probable space group: P C C N
;
_chemical_formula_sum "Si O2"
_cell_formula_units_Z 52
_cell_length_a 14.713763
_cell_length_b 16.548244
_cell_length_c 8.843896
_cell_angle_alpha 90.000000
_cell_angle_beta 90.000000
_cell_angle_gamma 90.000000
_cell_volume 2153.373177
_symmetry_space_group_name_H-M "P C C N"
_symmetry_group_IT_number 56
_symmetry_cell_setting 'orthorhombic'
loop_
_space_group_symop_operation_xyz
x,y,z
1/2-x,1/2-y,z
1/2+x,-y,1/2-z
-x,1/2+y,1/2-z
-x,-y,-z
1/2+x,1/2+y,-z
1/2-x,y,1/2+z
x,1/2-y,1/2+z
loop_
_atom_site_type_symbol
_atom_site_label
_atom_site_fract_x
_atom_site_fract_y
_atom_site_fract_z
Si Si1 0.204359 0.506930 0.199846
Si Si2 0.628484 0.851646 0.519964
Si Si3 0.629972 0.459080 0.001062
Si Si4 0.322689 0.100312 0.940005
Si Si5 0.878208 0.188158 0.849582
Si Si6 0.250000 0.750000 0.390706
Si Si7 0.057607 0.271717 0.770670
O O1 0.143466 0.555162 0.320008
O O2 0.272488 0.550279 0.084134
O O3 0.146552 0.453693 0.081774
O O4 0.271730 0.453487 0.309095
O O5 0.737207 0.848425 0.497171
O O6 0.601116 0.655601 0.632457
O O7 0.609043 0.810533 0.680711
O O8 0.576007 0.796901 0.400261
O O9 0.574716 0.395968 0.899757
O O10 0.605331 0.553795 0.993591
O O11 0.804062 0.187646 0.716090
O O12 0.953328 0.253160 0.804059
O O13 0.825423 0.213695 0.999811
#
# Coordination Sequence:
#
# PCOD9429858 Si02
#       7
#     8   8   8   8   8   4   8
#     4   8  17  33  62  97 131 176 212 259 330 412
#     4  10  24  36  62  93 144 176 215 262 329 416
#     4  10  19  39  61 101 125 175 218 274 338 388
#     4  10  18  36  59  98 136 180 207 252 324 409
#     4  11  24  43  77  91 133 165 233 291 332 399
#     4  10  24  50  68 102 114 178 226 294 348 378
#     4  12  23  39  60 103 131 177 224 265 329 398
#
# _framework density 24.148161000000002
#
# number of rings (size 3 to 8) (size 9 to 14) (size 15 to 20)
#    0.000    2.154    3.077    2.308    4.308    1.846 
#    0.000    0.000    0.000    3.692    0.000    0.000 
#    0.000    0.000    0.000    0.000    0.000    0.000 
#
# Total GULP energy -290412.727279 kJ/mol
# GULP energy per Si atom -5584.860140 kJ/mol
# Density = 2.409320 g / cm^3
# Si number density = 24.148161 Si / 1000 Ang^3
#
#
#
# Elastic Constant Matrix: (Units=GPa)
#
#
# Indices 1 2 3 4 5 6 
#
# 1 74.1912 1.8985 11.5141 0.0000 0.0000 0.0000
# 2 1.8985 55.4509 10.8144 0.0000 0.0000 0.0000
# 3 11.5141 10.8144 103.5351 0.0000 0.0000 0.0000
# 4 0.0000 0.0000 0.0000 36.1732 0.0000 0.0000
# 5 0.0000 0.0000 0.0000 0.0000 34.9519 0.0000
# 6 0.0000 0.0000 0.0000 0.0000 0.0000 2.3026
#
#
#
# Elastic Compliance Matrix: (Units=1/GPa)
#
#
# Indices 1 2 3 4 5 6 
#
# 1 0.013717 -0.000176 -0.001507 0.000000 0.000000 0.000000
# 2 -0.000176 0.018411 -0.001904 0.000000 0.000000 0.000000
# 3 -0.001507 -0.001904 0.010025 0.000000 0.000000 0.000000
# 4 0.000000 0.000000 0.000000 0.027645 0.000000 0.000000
# 5 0.000000 0.000000 0.000000 0.000000 0.028611 0.000000
# 6 0.000000 0.000000 0.000000 0.000000 0.000000 0.434287
#
#
# Mechanical properties :
#
#
# Convention : Reuss Voigt Hill
#
# Bulk Modulus (GPa) = 28.58731 31.29237 29.93984
# Shear Modulus (GPa) = 9.06571 28.61557 18.84064
#
# Velocity S-wave (km/s) = 1.93968 3.44612 2.79625
# Velocity P-wave (km/s) = 4.10859 5.36851 4.78024
#
# Compressibility (1/GPa) = 0.03498055
#
# Stress axis : x y z
#
# Youngs Moduli (GPa) = 72.90183 54.31470 99.75073
#
# Poissons Ratio (x) = 0.00954 0.15034
# Poissons Ratio (y) = 0.01281 0.18988
# Poissons Ratio (z) = 0.10987 0.10339
#
# Static dielectric constant tensor:
#      x y z
#    x 1.962510 0.000000 0.000000 
#    y 0.000000 2.085740 0.000000 
#    z 0.000000 0.000000 1.914900 
# 
# From -- ./inp_files/4094.got.cif
#   From: 2010.05.17/outbox.cif.g08.bks.cpg/sg56_3_cif.got.tgz:4094.got - 2010.06.03 13:42:01.
