data_PCOD9429695
_publ_section_title
;
Structure prediction by ZEFSAII (Michael W. Deem and Ramdas Pophale) SiO2 
 PCOD9429695
Probable space group: P C C N
;
_chemical_formula_sum "Si O2"
_cell_formula_units_Z 40
_cell_length_a 23.210499
_cell_length_b 7.433382
_cell_length_c 8.858154
_cell_angle_alpha 90.000000
_cell_angle_beta 90.000000
_cell_angle_gamma 90.000000
_cell_volume 1528.319504
_symmetry_space_group_name_H-M "P C C N"
_symmetry_group_IT_number 56
_symmetry_cell_setting 'orthorhombic'
loop_
_space_group_symop_operation_xyz
x,y,z
1/2-x,1/2-y,z
1/2+x,-y,1/2-z
-x,1/2+y,1/2-z
-x,-y,-z
1/2+x,1/2+y,-z
1/2-x,y,1/2+z
x,1/2-y,1/2+z
loop_
_atom_site_type_symbol
_atom_site_label
_atom_site_fract_x
_atom_site_fract_y
_atom_site_fract_z
Si Si1 0.330297 0.446203 0.592259
Si Si2 0.727789 0.036555 0.593978
Si Si3 0.557475 0.326021 0.149538
Si Si4 0.952848 0.612993 0.900582
Si Si5 0.869471 0.144086 0.875935
O O1 0.301445 0.444308 0.759888
O O2 0.283044 0.429851 0.462981
O O3 0.388539 0.339579 0.546947
O O4 0.346887 0.656292 0.591460
O O5 0.750000 0.250000 0.625597
O O6 0.683228 0.034419 0.450157
O O7 0.491301 0.274775 0.154271
O O8 0.563416 0.492374 0.258327
O O9 0.600833 0.167946 0.211615
O O10 0.576212 0.379331 0.984319
O O11 0.000000 0.500000 0.000000
#
# Coordination Sequence:
#
# PCOD9429695 Si02
#       5
#     8   8   8   8   8
#     4  10  20  31  53  81 121 149 190 247 313 348
#     4  10  18  30  51  83 116 150 187 248 306 354
#     4  11  21  37  61  85 128 160 197 250 305 366
#     4  11  22  40  57  89 128 160 201 253 303 368
#     4  10  18  33  54  88 118 150 194 245 305 356
#
# _framework density 26.172536999999998
#
# number of rings (size 3 to 8) (size 9 to 14) (size 15 to 20)
#    0.000    1.600    8.000    1.800    2.800    0.800 
#    0.000    0.000    0.000    0.000    0.000   11.200 
#    0.000    0.000    0.000    0.000    0.000    0.000 
#
# Total GULP energy -223100.263937 kJ/mol
# GULP energy per Si atom -5577.506598 kJ/mol
# Density = 2.611297 g / cm^3
# Si number density = 26.172537 Si / 1000 Ang^3
#
#
#
# Elastic Constant Matrix: (Units=GPa)
#
#
# Indices 1 2 3 4 5 6 
#
# 1 200.1484 20.5323 52.2122 0.0000 0.0000 0.0000
# 2 20.5323 24.8484 12.9336 0.0000 0.0000 0.0000
# 3 52.2122 12.9336 95.6086 0.0000 0.0000 0.0000
# 4 0.0000 0.0000 0.0000 1.3110 0.0000 0.0000
# 5 0.0000 0.0000 0.0000 0.0000 47.1333 0.0000
# 6 0.0000 0.0000 0.0000 0.0000 0.0000 41.6987
#
#
#
# Elastic Compliance Matrix: (Units=1/GPa)
#
#
# Indices 1 2 3 4 5 6 
#
# 1 0.006106 -0.003560 -0.002853 0.000000 0.000000 0.000000
# 2 -0.003560 0.045368 -0.004193 0.000000 0.000000 0.000000
# 3 -0.002853 -0.004193 0.012584 0.000000 0.000000 0.000000
# 4 0.000000 0.000000 0.000000 0.762801 0.000000 0.000000
# 5 0.000000 0.000000 0.000000 0.000000 0.021216 0.000000
# 6 0.000000 0.000000 0.000000 0.000000 0.000000 0.023982
#
#
# Mechanical properties :
#
#
# Convention : Reuss Voigt Hill
#
# Bulk Modulus (GPa) = 23.33914 54.66241 39.00077
# Shear Modulus (GPa) = 5.50933 33.69041 19.59987
#
# Velocity S-wave (km/s) = 1.45244 3.59171 2.73952
# Velocity P-wave (km/s) = 3.42776 6.17505 4.99404
#
# Compressibility (1/GPa) = 0.04284649
#
# Stress axis : x y z
#
# Youngs Moduli (GPa) = 163.78100 22.04175 79.46346
#
# Poissons Ratio (x) = 0.07848 0.22669
# Poissons Ratio (y) = 0.58311 0.33319
# Poissons Ratio (z) = 0.46722 0.09242
#
# Static dielectric constant tensor:
#      x y z
#    x 2.363850 0.000000 0.000000 
#    y 0.000000 2.149770 0.000000 
#    z 0.000000 0.000000 2.112730 
# 
# From -- ./inp_files/2049.got.cif
#   From: 2010.05.17/outbox.cif.g08.bks.cpg/sg56_2_cif.got.tgz:2049.got - 2010.06.03 13:42:01.
