data_PCOD9429966
_publ_section_title
;
Structure prediction by ZEFSAII (Michael W. Deem and Ramdas Pophale) SiO2 
 PCOD9429966
Probable space group: P C C N
;
_chemical_formula_sum "Si O2"
_cell_formula_units_Z 48
_cell_length_a 13.470961
_cell_length_b 12.172770
_cell_length_c 13.514669
_cell_angle_alpha 90.000000
_cell_angle_beta 90.000000
_cell_angle_gamma 90.000000
_cell_volume 2216.120691
_symmetry_space_group_name_H-M "P C C N"
_symmetry_group_IT_number 56
_symmetry_cell_setting 'orthorhombic'
loop_
_space_group_symop_operation_xyz
x,y,z
1/2-x,1/2-y,z
1/2+x,-y,1/2-z
-x,1/2+y,1/2-z
-x,-y,-z
1/2+x,1/2+y,-z
1/2-x,y,1/2+z
x,1/2-y,1/2+z
loop_
_atom_site_type_symbol
_atom_site_label
_atom_site_fract_x
_atom_site_fract_y
_atom_site_fract_z
Si Si1 0.143441 0.283428 0.475512
Si Si2 0.509325 0.295495 0.132498
Si Si3 0.911252 0.059079 0.295253
Si Si4 0.655981 0.829913 0.745228
Si Si5 0.838504 0.336677 0.996799
Si Si6 0.584698 0.536254 0.577431
O O1 0.250000 0.250000 0.518932
O O2 0.072346 0.339764 0.554748
O O3 0.150807 0.347310 0.372802
O O4 0.105892 0.162764 0.441782
O O5 0.579047 0.378083 0.192212
O O6 0.442101 0.229290 0.211796
O O7 0.577066 0.217819 0.065085
O O8 0.873444 0.136739 0.384563
O O9 0.844139 0.950196 0.293703
O O10 0.026057 0.025198 0.319960
O O11 0.750000 0.750000 0.760475
O O12 0.750000 0.250000 0.994692
O O13 0.825014 0.455178 0.051376
O O14 0.500000 0.500000 0.500000
#
# Coordination Sequence:
#
# PCOD9429966 Si02
#       6
#     8   8   8   8   8   8
#     4  11  23  41  69 102 140 178 234 287 342 413
#     4  12  21  42  69 101 137 183 229 290 341 418
#     4  11  23  44  71  97 139 190 232 278 363 412
#     4  11  24  43  70 103 138 185 235 287 343 419
#     4  11  24  42  70 100 137 181 235 287 350 416
#     4  10  18  42  70  87 129 188 218 269 351 410
#
# _framework density 21.659471
#
# number of rings (size 3 to 8) (size 9 to 14) (size 15 to 20)
#    0.000    1.000    6.667    1.500    0.000    4.000 
#    0.000    5.000    0.000    0.000    0.000    0.000 
#    0.000    0.000    0.000    0.000    0.000    0.000 
#
# Total GULP energy -267778.134352 kJ/mol
# GULP energy per Si atom -5578.711132 kJ/mol
# Density = 2.161017 g / cm^3
# Si number density = 21.659471 Si / 1000 Ang^3
#
#
#
# Elastic Constant Matrix: (Units=GPa)
#
#
# Indices 1 2 3 4 5 6 
#
# 1 65.9191 37.5892 23.9965 0.0000 0.0000 0.0000
# 2 37.5892 101.0655 32.3139 0.0000 0.0000 0.0000
# 3 23.9965 32.3139 114.9715 0.0000 0.0000 0.0000
# 4 0.0000 0.0000 0.0000 36.0093 0.0000 0.0000
# 5 0.0000 0.0000 0.0000 0.0000 18.6327 0.0000
# 6 0.0000 0.0000 0.0000 0.0000 0.0000 40.3169
#
#
#
# Elastic Compliance Matrix: (Units=1/GPa)
#
#
# Indices 1 2 3 4 5 6 
#
# 1 0.019776 -0.006631 -0.002264 0.000000 0.000000 0.000000
# 2 -0.006631 0.013095 -0.002296 0.000000 0.000000 0.000000
# 3 -0.002264 -0.002296 0.009816 0.000000 0.000000 0.000000
# 4 0.000000 0.000000 0.000000 0.027771 0.000000 0.000000
# 5 0.000000 0.000000 0.000000 0.000000 0.053669 0.000000
# 6 0.000000 0.000000 0.000000 0.000000 0.000000 0.024804
#
#
# Mechanical properties :
#
#
# Convention : Reuss Voigt Hill
#
# Bulk Modulus (GPa) = 49.25256 52.19503 50.72380
# Shear Modulus (GPa) = 28.07718 31.52888 29.80303
#
# Velocity S-wave (km/s) = 3.60432 3.81945 3.71345
# Velocity P-wave (km/s) = 6.33328 6.60313 6.46961
#
# Compressibility (1/GPa) = 0.02030351
#
# Stress axis : x y z
#
# Youngs Moduli (GPa) = 50.56742 76.36369 101.87729
#
# Poissons Ratio (x) = 0.50639 0.23062
# Poissons Ratio (y) = 0.33533 0.23396
# Poissons Ratio (z) = 0.11447 0.17537
#
# Static dielectric constant tensor:
#      x y z
#    x 1.863140 0.000000 0.000000 
#    y 0.000000 1.825290 0.000000 
#    z 0.000000 0.000000 1.823520 
# 
# From -- ./inp_files/12200.got.cif
#   From: 2010.05.17/outbox.cif.g08.bks.cpg/sg56_7_cif.got.tgz:12200.got - 2010.06.03 13:42:01.
