data_PCOD9429316
_publ_section_title
;
Structure prediction by ZEFSAII (Michael W. Deem and Ramdas Pophale) SiO2 
 PCOD9429316
Probable space group: P B A M
;
_chemical_formula_sum "Si O2"
_cell_formula_units_Z 48
_cell_length_a 30.000000
_cell_length_b 9.000000
_cell_length_c 9.000000
_cell_angle_alpha 90.000000
_cell_angle_beta 90.000000
_cell_angle_gamma 90.000000
_cell_volume 2430.000000
_symmetry_space_group_name_H-M "P B A M"
_symmetry_group_IT_number 55
_symmetry_cell_setting 'orthorhombic'
loop_
_space_group_symop_operation_xyz
x,y,z
-x,-y,z
1/2+x,1/2-y,-z
1/2-x,1/2+y,-z
-x,-y,-z
x,y,-z
1/2-x,1/2+y,z
1/2+x,1/2-y,z
loop_
_atom_site_type_symbol
_atom_site_label
_atom_site_fract_x
_atom_site_fract_y
_atom_site_fract_z
Si Si1 0.392986 0.340806 0.176378
Si Si2 0.777345 0.668674 0.818423
Si Si3 0.012254 0.829833 0.665022
Si Si4 0.457901 0.898397 0.178620
Si Si5 0.691351 0.495185 0.181275
Si Si6 0.362475 0.013123 0.177883
O O1 0.439514 0.320638 0.258878
O O2 0.359074 0.468492 0.228937
O O3 0.365263 0.188971 0.196364
O O4 0.402351 0.357945 0.000000
O O5 0.728777 0.613339 0.770246
O O6 0.817112 0.560301 0.766624
O O7 0.790845 0.834218 0.774474
O O8 0.776316 0.665559 0.000000
O O9 0.013303 0.761585 0.500000
O O10 0.973497 0.759331 0.764031
O O11 0.000000 0.000000 0.651772
O O12 0.409426 0.947061 0.235058
O O13 0.500000 0.000000 0.225623
O O14 0.456482 0.904197 0.000000
O O15 0.689786 0.499574 0.000000
O O16 0.362639 0.985400 0.000000
#
# Coordination Sequence:
#
# PCOD9429316 Si02
#       6
#     8   8   8   8   8   8
#     4  10  19  34  54  78 105 139 179 223 269 314
#     4   9  16  27  43  73 111 142 169 209 265 320
#     4  11  25  40  53  75 109 147 183 223 272 324
#     4  10  19  35  57  82 108 139 180 225 269 317
#     4   9  17  27  45  73 107 141 172 211 264 317
#     4   9  17  29  48  75 109 139 170 216 266 314
#
# _framework density 19.753086
#
# number of rings (size 3 to 8) (size 9 to 14) (size 15 to 20)
#    0.000    2.333    1.667    1.500    2.333    5.667 
#    0.000    0.000    0.000    0.000    0.000    5.833 
#    0.000    0.000    0.000    0.000    0.000    0.000 
#
# Total GULP energy -267497.392046 kJ/mol
# GULP energy per Si atom -5572.862334 kJ/mol
# Density = 1.970813 g / cm^3
# Si number density = 19.753086 Si / 1000 Ang^3
#
#
#
# Elastic Constant Matrix: (Units=GPa)
#
#
# Indices 1 2 3 4 5 6 
#
# 1 72.7305 -6.0767 10.1881 0.0000 0.0000 0.0000
# 2 -6.0767 7.6394 -7.0592 0.0000 0.0000 0.0000
# 3 10.1881 -7.0592 -14.7610 0.0000 0.0000 0.0000
# 4 0.0000 0.0000 0.0000 16.4225 0.0000 0.0000
# 5 0.0000 0.0000 0.0000 0.0000 11.0739 0.0000
# 6 0.0000 0.0000 0.0000 0.0000 0.0000 34.4648
#
#
#
# Elastic Compliance Matrix: (Units=1/GPa)
#
#
# Indices 1 2 3 4 5 6 
#
# 1 0.014518 0.014431 0.003119 0.000000 0.000000 0.000000
# 2 0.014431 0.105126 -0.040315 0.000000 0.000000 0.000000
# 3 0.003119 -0.040315 -0.046313 0.000000 0.000000 0.000000
# 4 0.000000 0.000000 0.000000 0.060892 0.000000 0.000000
# 5 0.000000 0.000000 0.000000 0.000000 0.090302 0.000000
# 6 0.000000 0.000000 0.000000 0.000000 0.000000 0.029015
#
#
# Mechanical properties :
#
#
# Convention : Reuss Voigt Hill
#
# Bulk Modulus (GPa) = 35.96974 6.63479 21.30227
# Shear Modulus (GPa) = 16.21598 16.96270 16.58934
#
# Velocity S-wave (km/s) = 2.86830 2.93360 2.90114
# Velocity P-wave (km/s) = 5.40544 3.85238 4.69359
#
# Compressibility (1/GPa) = 0.02780114
#
# Stress axis : x y z
#
# Youngs Moduli (GPa) = 68.87923 9.51238 -21.59213
#
# Poissons Ratio (x) = -0.13727 0.06735
# Poissons Ratio (y) = -0.99398 -0.87049
# Poissons Ratio (z) = -0.21485 0.38349
#
# Static dielectric constant tensor:
#      x y z
#    x 1.636260 0.000000 0.000000 
#    y 0.000000 1.670710 0.000000 
#    z 0.000000 0.000000 1.691200 
# 
# From -- ./inp_files/2779.got.cif
#   From: 2010.05.17/outbox.ucp.g08.bks.cvg/sg55_2_cif.got.tgz:2779.got - 2010.06.11 16:36:00.
