data_PCOD9429715
_publ_section_title
;
Structure prediction by ZEFSAII (Michael W. Deem and Ramdas Pophale) SiO2 
 PCOD9429715
Probable space group: P C C N
;
_chemical_formula_sum "Si O2"
_cell_formula_units_Z 52
_cell_length_a 21.153125
_cell_length_b 5.276790
_cell_length_c 19.537019
_cell_angle_alpha 90.000000
_cell_angle_beta 90.000000
_cell_angle_gamma 90.000000
_cell_volume 2180.733753
_symmetry_space_group_name_H-M "P C C N"
_symmetry_group_IT_number 56
_symmetry_cell_setting 'orthorhombic'
loop_
_space_group_symop_operation_xyz
x,y,z
1/2-x,1/2-y,z
1/2+x,-y,1/2-z
-x,1/2+y,1/2-z
-x,-y,-z
1/2+x,1/2+y,-z
1/2-x,y,1/2+z
x,1/2-y,1/2+z
loop_
_atom_site_type_symbol
_atom_site_label
_atom_site_fract_x
_atom_site_fract_y
_atom_site_fract_z
Si Si1 0.174481 0.604448 0.085300
Si Si2 0.494673 0.799078 0.588198
Si Si3 0.750000 0.250000 0.533119
Si Si4 0.916257 0.237745 0.289198
Si Si5 0.638081 0.735568 0.732376
Si Si6 0.428233 0.296396 0.529205
Si Si7 0.250000 0.250000 0.159057
Si Si8 0.250000 0.250000 0.876841
O O1 0.188070 0.749852 0.015467
O O2 0.140425 0.341942 0.059778
O O3 0.133628 0.723655 0.146572
O O4 0.239847 0.498103 0.114961
O O5 0.481561 0.754345 0.668096
O O6 0.457336 0.572766 0.548789
O O7 0.562510 0.768712 0.551057
O O8 0.465687 0.072600 0.568358
O O9 0.749130 0.498740 0.578393
O O10 0.901532 0.479242 0.242520
O O11 0.903766 0.984937 0.245870
O O12 0.688729 0.731380 0.794202
O O13 0.685643 0.749542 0.668460
#
# Coordination Sequence:
#
# PCOD9429715 Si02
#       8
#     8   8   4   8   8   8   4   4
#     4  10  20  33  51  80 109 140 173 208 261 318
#     4   9  16  29  47  77 108 138 163 200 260 322
#     4  12  24  36  52  70 106 146 180 216 250 320
#     4  10  18  31  55  80 102 126 165 216 268 312
#     4  10  20  34  52  72  98 132 171 223 265 302
#     4   9  18  29  46  71 114 144 162 195 250 327
#     4   9  17  30  50  74 101 127 166 212 256 305
#     4  11  25  40  50  70 101 143 186 216 262 313
#
# _framework density 23.845182000000001
#
# number of rings (size 3 to 8) (size 9 to 14) (size 15 to 20)
#    0.000    2.154    0.000    5.077    0.000    9.231 
#    0.000    0.000    0.000    0.000    0.000    4.308 
#    0.000    0.000    0.000    0.000    0.000    0.000 
#
# Total GULP energy -290338.863096 kJ/mol
# GULP energy per Si atom -5583.439675 kJ/mol
# Density = 2.379091 g / cm^3
# Si number density = 23.845182 Si / 1000 Ang^3
#
#
#
# Elastic Constant Matrix: (Units=GPa)
#
#
# Indices 1 2 3 4 5 6 
#
# 1 42.7248 23.5548 49.1074 0.0000 0.0000 0.0000
# 2 23.5548 168.3700 60.8040 0.0000 0.0000 0.0000
# 3 49.1074 60.8040 100.4540 0.0000 0.0000 0.0000
# 4 0.0000 0.0000 0.0000 27.1249 0.0000 0.0000
# 5 0.0000 0.0000 0.0000 0.0000 47.0912 0.0000
# 6 0.0000 0.0000 0.0000 0.0000 0.0000 27.7659
#
#
#
# Elastic Compliance Matrix: (Units=1/GPa)
#
#
# Indices 1 2 3 4 5 6 
#
# 1 0.054262 0.002544 -0.028066 0.000000 0.000000 0.000000
# 2 0.002544 0.007720 -0.005917 0.000000 0.000000 0.000000
# 3 -0.028066 -0.005917 0.027257 0.000000 0.000000 0.000000
# 4 0.000000 0.000000 0.000000 0.036866 0.000000 0.000000
# 5 0.000000 0.000000 0.000000 0.000000 0.021235 0.000000
# 6 0.000000 0.000000 0.000000 0.000000 0.000000 0.036015
#
#
# Mechanical properties :
#
#
# Convention : Reuss Voigt Hill
#
# Bulk Modulus (GPa) = 37.93444 64.27568 51.10506
# Shear Modulus (GPa) = 19.60630 32.26859 25.93744
#
# Velocity S-wave (km/s) = 2.87057 3.68265 3.30167
# Velocity P-wave (km/s) = 5.18942 6.71539 6.00111
#
# Compressibility (1/GPa) = 0.02636127
#
# Stress axis : x y z
#
# Youngs Moduli (GPa) = 18.42912 129.53243 36.68844
#
# Poissons Ratio (x) = -0.32959 1.02971
# Poissons Ratio (y) = -0.04689 0.21708
# Poissons Ratio (z) = 0.51724 0.76641
#
# Static dielectric constant tensor:
#      x y z
#    x 2.053290 0.000000 0.000000 
#    y 0.000000 1.926820 0.000000 
#    z 0.000000 0.000000 1.920480 
# 
# From -- ./inp_files/17028.got.cif
#   From: 2010.05.17/outbox.cif.g08.bks.cpg/sg56_9_cif.got.tgz:17028.got - 2010.06.03 13:42:01.
