data_PCOD9429697
_publ_section_title
;
Structure prediction by ZEFSAII (Michael W. Deem and Ramdas Pophale) SiO2 
 PCOD9429697
Probable space group: P C C N
;
_chemical_formula_sum "Si O2"
_cell_formula_units_Z 64
_cell_length_a 8.083595
_cell_length_b 10.703759
_cell_length_c 29.943126
_cell_angle_alpha 90.000000
_cell_angle_beta 90.000000
_cell_angle_gamma 90.000000
_cell_volume 2590.824568
_symmetry_space_group_name_H-M "P C C N"
_symmetry_group_IT_number 56
_symmetry_cell_setting 'orthorhombic'
loop_
_space_group_symop_operation_xyz
x,y,z
1/2-x,1/2-y,z
1/2+x,-y,1/2-z
-x,1/2+y,1/2-z
-x,-y,-z
1/2+x,1/2+y,-z
1/2-x,y,1/2+z
x,1/2-y,1/2+z
loop_
_atom_site_type_symbol
_atom_site_label
_atom_site_fract_x
_atom_site_fract_y
_atom_site_fract_z
Si Si1 0.039392 0.021730 0.417145
Si Si2 0.371053 0.640305 0.188377
Si Si3 0.550379 0.241141 0.565414
Si Si4 0.052127 0.735722 0.532225
Si Si5 0.426004 0.316335 0.251765
Si Si6 0.563471 0.498002 0.321332
Si Si7 0.636342 0.625237 0.112660
Si Si8 0.055082 0.777171 0.837359
O O1 0.228644 0.020913 0.399121
O O2 0.019117 0.127720 0.454237
O O3 0.940481 0.053959 0.372077
O O4 0.990968 0.885108 0.433112
O O5 0.250000 0.750000 0.169401
O O6 0.452013 0.706480 0.230742
O O7 0.242006 0.531549 0.198927
O O8 0.517232 0.608877 0.154416
O O9 0.750000 0.250000 0.564588
O O10 0.500205 0.190699 0.517138
O O11 0.499890 0.181807 0.612866
O O12 0.250000 0.750000 0.534349
O O13 0.978598 0.646607 0.569840
O O14 0.250000 0.250000 0.248223
O O15 0.436118 0.422908 0.289874
O O16 0.503150 0.358724 0.204778
O O17 0.527867 0.642824 0.327516
O O18 0.750000 0.750000 0.119567
O O19 0.250000 0.750000 0.837977
#
# Coordination Sequence:
#
# PCOD9429697 Si02
#       8
#     8   8   8   8   8   8   8   8
#     4  10  19  34  57  86 114 146 193 241 291 348
#     4  10  18  33  56  86 120 150 187 238 295 354
#     4   9  20  38  57  77 110 158 197 231 285 351
#     4  10  18  32  56  84 115 151 189 235 289 350
#     4  11  22  36  57  88 120 154 194 244 298 358
#     4  10  21  37  61  89 115 157 197 242 302 350
#     4  10  18  30  53  89 121 146 182 244 299 340
#     4  10  22  42  62  83 115 156 202 249 296 361
#
# _framework density 24.702559999999998
#
# number of rings (size 3 to 8) (size 9 to 14) (size 15 to 20)
#    0.000    2.000    0.000    6.750    0.000    2.000 
#    0.000    9.375    0.000    9.000    0.000    0.000 
#    0.000    0.000    0.000    0.000    0.000    0.000 
#
# Total GULP energy -358162.153306 kJ/mol
# GULP energy per Si atom -5596.283645 kJ/mol
# Density = 2.464634 g / cm^3
# Si number density = 24.702560 Si / 1000 Ang^3
#
#
#
# Elastic Constant Matrix: (Units=GPa)
#
#
# Indices 1 2 3 4 5 6 
#
# 1 97.9071 14.1685 21.1895 0.0000 0.0000 0.0000
# 2 14.1685 41.9692 14.5731 0.0000 0.0000 0.0000
# 3 21.1895 14.5731 168.3595 0.0000 0.0000 0.0000
# 4 0.0000 0.0000 0.0000 25.7643 0.0000 0.0000
# 5 0.0000 0.0000 0.0000 0.0000 19.7338 0.0000
# 6 0.0000 0.0000 0.0000 0.0000 0.0000 35.7414
#
#
#
# Elastic Compliance Matrix: (Units=1/GPa)
#
#
# Indices 1 2 3 4 5 6 
#
# 1 0.010929 -0.003311 -0.001089 0.000000 0.000000 0.000000
# 2 -0.003311 0.025569 -0.001796 0.000000 0.000000 0.000000
# 3 -0.001089 -0.001796 0.006232 0.000000 0.000000 0.000000
# 4 0.000000 0.000000 0.000000 0.038813 0.000000 0.000000
# 5 0.000000 0.000000 0.000000 0.000000 0.050674 0.000000
# 6 0.000000 0.000000 0.000000 0.000000 0.000000 0.027979
#
#
# Mechanical properties :
#
#
# Convention : Reuss Voigt Hill
#
# Bulk Modulus (GPa) = 32.96387 45.34424 39.15406
# Shear Modulus (GPa) = 27.36706 33.46821 30.41764
#
# Velocity S-wave (km/s) = 3.33207 3.68482 3.51287
# Velocity P-wave (km/s) = 5.30819 6.04151 5.68668
#
# Compressibility (1/GPa) = 0.03033624
#
# Stress axis : x y z
#
# Youngs Moduli (GPa) = 91.50296 39.11035 160.45669
#
# Poissons Ratio (x) = 0.12951 0.17471
# Poissons Ratio (y) = 0.30300 0.28825
# Poissons Ratio (z) = 0.09963 0.07026
#
# Static dielectric constant tensor:
#      x y z
#    x 1.964620 0.000000 0.000000 
#    y 0.000000 2.048590 0.000000 
#    z 0.000000 0.000000 1.962890 
# 
# From -- ./inp_files/23411.got.cif
#   From: 2010.05.17/outbox.cif.g08.bks.cpg/sg56_12_cif.got.tgz:23411.got - 2010.06.03 13:42:01.
