data_PCOD9429120
_publ_section_title
;
Structure prediction by ZEFSAII (Michael W. Deem and Ramdas Pophale) SiO2 
 PCOD9429120
Probable space group: P B A M
;
_chemical_formula_sum "Si O2"
_cell_formula_units_Z 34
_cell_length_a 22.909666
_cell_length_b 8.603898
_cell_length_c 7.769543
_cell_angle_alpha 90.000000
_cell_angle_beta 90.000000
_cell_angle_gamma 90.000000
_cell_volume 1531.473497
_symmetry_space_group_name_H-M "P B A M"
_symmetry_group_IT_number 55
_symmetry_cell_setting 'orthorhombic'
loop_
_space_group_symop_operation_xyz
x,y,z
-x,-y,z
1/2+x,1/2-y,-z
1/2-x,1/2+y,-z
-x,-y,-z
x,y,-z
1/2-x,1/2+y,z
1/2+x,1/2-y,z
loop_
_atom_site_type_symbol
_atom_site_label
_atom_site_fract_x
_atom_site_fract_y
_atom_site_fract_z
Si Si1 0.680206 0.926216 0.203807
Si Si2 0.080689 0.065915 0.801528
Si Si3 0.697378 0.569089 0.700193
Si Si4 0.500000 0.500000 0.500000
Si Si5 0.439799 0.925387 0.209121
O O1 0.687926 0.744293 0.237667
O O2 0.736380 0.015906 0.273419
O O3 0.618352 0.988426 0.272467
O O4 0.679801 0.952707 0.000000
O O5 0.048617 0.966162 0.655447
O O6 0.064970 0.243012 0.751851
O O7 0.150093 0.040163 0.792038
O O8 0.063527 0.034815 0.000000
O O9 0.684551 0.560432 0.500000
O O10 0.500000 0.000000 0.273163
O O11 0.440499 0.937432 0.000000
#
# Coordination Sequence:
#
# PCOD9429120 Si02
#       5
#     8   8   8   2   8
#     4  11  23  42  70  99 132 181 233 282 344 413
#     4  11  24  45  71  98 139 183 228 284 341 410
#     4  12  25  44  67 101 138 176 230 288 347 409
#     4  12  26  44  66 106 140 176 234 276 344 410
#     4   9  21  41  67  98 133 179 231 279 338 409
#
# _framework density 22.200842000000002
#
# number of rings (size 3 to 8) (size 9 to 14) (size 15 to 20)
#    0.000    1.176    1.176    4.588    3.294    1.882 
#    4.235    0.588    0.000    0.000    0.000    0.000 
#    0.000    0.000    0.000    0.000    0.000    0.000 
#
# Total GULP energy -189676.355969 kJ/mol
# GULP energy per Si atom -5578.716352 kJ/mol
# Density = 2.215031 g / cm^3
# Si number density = 22.200842 Si / 1000 Ang^3
#
#
#
# Elastic Constant Matrix: (Units=GPa)
#
#
# Indices 1 2 3 4 5 6 
#
# 1 191.9474 62.1740 21.3943 0.0000 0.0000 0.0000
# 2 62.1740 96.0328 26.6469 0.0000 0.0000 0.0000
# 3 21.3943 26.6469 117.7339 0.0000 0.0000 0.0000
# 4 0.0000 0.0000 0.0000 33.8802 0.0000 0.0000
# 5 0.0000 0.0000 0.0000 0.0000 17.4498 0.0000
# 6 0.0000 0.0000 0.0000 0.0000 0.0000 47.1813
#
#
#
# Elastic Compliance Matrix: (Units=1/GPa)
#
#
# Indices 1 2 3 4 5 6 
#
# 1 0.006599 -0.004204 -0.000248 0.000000 0.000000 0.000000
# 2 -0.004204 0.013789 -0.002357 0.000000 0.000000 0.000000
# 3 -0.000248 -0.002357 0.009072 0.000000 0.000000 0.000000
# 4 0.000000 0.000000 0.000000 0.029516 0.000000 0.000000
# 5 0.000000 0.000000 0.000000 0.000000 0.057307 0.000000
# 6 0.000000 0.000000 0.000000 0.000000 0.000000 0.021195
#
#
# Mechanical properties :
#
#
# Convention : Reuss Voigt Hill
#
# Bulk Modulus (GPa) = 63.11840 69.57162 66.34501
# Shear Modulus (GPa) = 31.97438 39.40219 35.68829
#
# Velocity S-wave (km/s) = 3.79916 4.21742 4.01374
# Velocity P-wave (km/s) = 6.90921 7.42434 7.17140
#
# Compressibility (1/GPa) = 0.01584324
#
# Stress axis : x y z
#
# Youngs Moduli (GPa) = 151.53888 72.52356 110.22688
#
# Poissons Ratio (x) = 0.30486 0.02731
# Poissons Ratio (y) = 0.63701 0.25980
# Poissons Ratio (z) = 0.03754 0.17093
#
# Static dielectric constant tensor:
#      x y z
#    x 1.826640 0.000000 0.000000 
#    y 0.000000 1.797710 0.000000 
#    z 0.000000 0.000000 1.790270 
# 
# From -- ./inp_files/2123.got.cif
#   From: 2010.05.17/outbox.cif.g08.bks.cpg/sg55_2_cif.got.tgz:2123.got - 2010.06.03 13:27:54.
