data_PCOD9429289
_publ_section_title
;
Structure prediction by ZEFSAII (Michael W. Deem and Ramdas Pophale) SiO2 
 PCOD9429289
Probable space group: P B A M
;
_chemical_formula_sum "Si O2"
_cell_formula_units_Z 64
_cell_length_a 12.000000
_cell_length_b 30.000000
_cell_length_c 9.000000
_cell_angle_alpha 90.000000
_cell_angle_beta 90.000000
_cell_angle_gamma 90.000000
_cell_volume 3240.000000
_symmetry_space_group_name_H-M "P B A M"
_symmetry_group_IT_number 55
_symmetry_cell_setting 'orthorhombic'
loop_
_space_group_symop_operation_xyz
x,y,z
-x,-y,z
1/2+x,1/2-y,-z
1/2-x,1/2+y,-z
-x,-y,-z
x,y,-z
1/2-x,1/2+y,z
1/2+x,1/2-y,z
loop_
_atom_site_type_symbol
_atom_site_label
_atom_site_fract_x
_atom_site_fract_y
_atom_site_fract_z
Si Si1 0.764358 0.835173 0.322084
Si Si2 0.803388 0.939148 0.676479
Si Si3 0.869469 0.151330 0.325669
Si Si4 0.723643 0.023971 0.825220
Si Si5 0.526313 0.271012 0.324074
Si Si6 0.468829 0.180736 0.176339
Si Si7 0.467292 0.432594 0.827235
Si Si8 0.626434 0.110402 0.675559
O O1 0.745439 0.832622 0.500000
O O2 0.781502 0.887389 0.284678
O O3 0.872687 0.804993 0.290363
O O4 0.656910 0.817772 0.236591
O O5 0.794593 0.944139 0.500000
O O6 0.929745 0.948434 0.729163
O O7 0.722853 0.974893 0.754572
O O8 0.896607 0.141731 0.500000
O O9 0.739939 0.139746 0.304751
O O10 0.912289 0.201116 0.297120
O O11 0.937452 0.117415 0.223101
O O12 0.650354 0.061844 0.745083
O O13 0.851759 0.041001 0.807728
O O14 0.698265 0.022658 0.000000
O O15 0.531536 0.260337 0.500000
O O16 0.528644 0.225653 0.233244
O O17 0.528803 0.137667 0.246456
O O18 0.472055 0.178147 0.000000
O O19 0.499413 0.435229 0.000000
O O20 0.605899 0.106266 0.500000
#
# Coordination Sequence:
#
# PCOD9429289 Si02
#       8
#     8   8   8   8   8   8   8   8
#     4  10  23  44  67  90 121 161 208 257 304 361
#     4  11  21  36  59  88 120 161 212 261 304 362
#     4   9  18  35  60  89 117 153 201 247 296 355
#     4  10  21  36  56  88 127 166 204 252 314 372
#     4  10  21  41  66  91 120 158 204 252 304 367
#     4  12  27  43  62  91 126 161 202 255 311 370
#     4  10  19  31  51  83 126 165 196 241 305 366
#     4  10  21  40  65  90 120 163 211 256 301 361
#
# _framework density 19.753086
#
# number of rings (size 3 to 8) (size 9 to 14) (size 15 to 20)
#    0.000    1.750    1.250    3.000    1.750    5.500 
#    0.000    0.625    0.000    3.750    0.000    0.000 
#    0.000    0.000    0.000    0.000    0.000    0.000 
#
# Total GULP energy -357658.795004 kJ/mol
# GULP energy per Si atom -5588.418672 kJ/mol
# Density = 1.970813 g / cm^3
# Si number density = 19.753086 Si / 1000 Ang^3
#
#
#
# Elastic Constant Matrix: (Units=GPa)
#
#
# Indices 1 2 3 4 5 6 
#
# 1 31.0263 7.9402 29.4436 0.0000 0.0000 0.0000
# 2 7.9402 83.0399 49.0789 0.0000 0.0000 0.0000
# 3 29.4436 49.0789 67.0476 0.0000 0.0000 0.0000
# 4 0.0000 0.0000 0.0000 20.0175 0.0000 0.0000
# 5 0.0000 0.0000 0.0000 0.0000 20.0183 0.0000
# 6 0.0000 0.0000 0.0000 0.0000 0.0000 16.4398
#
#
#
# Elastic Compliance Matrix: (Units=1/GPa)
#
#
# Indices 1 2 3 4 5 6 
#
# 1 0.070605 0.020400 -0.045938 0.000000 0.000000 0.000000
# 2 0.020400 0.027119 -0.028810 0.000000 0.000000 0.000000
# 3 -0.045938 -0.028810 0.056177 0.000000 0.000000 0.000000
# 4 0.000000 0.000000 0.000000 0.049956 0.000000 0.000000
# 5 0.000000 0.000000 0.000000 0.000000 0.049954 0.000000
# 6 0.000000 0.000000 0.000000 0.000000 0.000000 0.060828
#
#
# Mechanical properties :
#
#
# Convention : Reuss Voigt Hill
#
# Bulk Modulus (GPa) = 22.12166 39.33769 30.72968
# Shear Modulus (GPa) = 11.40500 17.60521 14.50511
#
# Velocity S-wave (km/s) = 2.40548 2.98864 2.71278
# Velocity P-wave (km/s) = 4.35184 5.64511 5.04013
#
# Compressibility (1/GPa) = 0.04520455
#
# Stress axis : x y z
#
# Youngs Moduli (GPa) = 14.16328 36.87449 17.80091
#
# Poissons Ratio (x) = -0.75223 0.81774
# Poissons Ratio (y) = -0.28893 0.51284
# Poissons Ratio (z) = 0.65064 1.06234
#
# Static dielectric constant tensor:
#      x y z
#    x 1.686920 0.000000 0.000000 
#    y 0.000000 1.695970 0.000000 
#    z 0.000000 0.000000 1.655320 
# 
# From -- ./inp_files/4572.got.cif
#   From: 2010.05.17/outbox.ucp.g08.bks.cvg/sg55_3_cif.got.tgz:4572.got - 2010.06.11 16:36:00.
