data_PCOD9429614
_publ_section_title
;
Structure prediction by ZEFSAII (Michael W. Deem and Ramdas Pophale) SiO2 
 PCOD9429614
Probable space group: P C C N
;
_chemical_formula_sum "Si O2"
_cell_formula_units_Z 56
_cell_length_a 8.576523
_cell_length_b 20.068987
_cell_length_c 12.770694
_cell_angle_alpha 90.000000
_cell_angle_beta 90.000000
_cell_angle_gamma 90.000000
_cell_volume 2198.119035
_symmetry_space_group_name_H-M "P C C N"
_symmetry_group_IT_number 56
_symmetry_cell_setting 'orthorhombic'
loop_
_space_group_symop_operation_xyz
x,y,z
1/2-x,1/2-y,z
1/2+x,-y,1/2-z
-x,1/2+y,1/2-z
-x,-y,-z
1/2+x,1/2+y,-z
1/2-x,y,1/2+z
x,1/2-y,1/2+z
loop_
_atom_site_type_symbol
_atom_site_label
_atom_site_fract_x
_atom_site_fract_y
_atom_site_fract_z
Si Si1 0.126865 0.581034 0.989116
Si Si2 0.080149 0.087123 0.854496
Si Si3 0.643352 0.625096 0.921382
Si Si4 0.918245 0.281567 0.362633
Si Si5 0.617624 0.982716 0.842725
Si Si6 0.858880 0.828551 0.587789
Si Si7 0.349967 0.687131 0.898327
O O1 0.241593 0.624522 0.920271
O O2 0.040590 0.531540 0.908454
O O3 0.004424 0.631892 0.040092
O O4 0.191146 0.543981 0.092767
O O5 0.067592 0.081938 0.980974
O O6 0.077664 0.022782 0.780095
O O7 0.250779 0.121958 0.845623
O O8 0.959289 0.145332 0.818240
O O9 0.765209 0.577665 0.865491
O O10 0.746116 0.678965 0.986186
O O11 0.509796 0.658589 0.851104
O O12 0.750000 0.250000 0.338125
O O13 0.908464 0.290015 0.487598
O O14 0.067875 0.233630 0.351489
O O15 0.250000 0.750000 0.860176
#
# Coordination Sequence:
#
# PCOD9429614 Si02
#       7
#     8   8   8   8   8   8   8
#     4  10  20  37  63  83 122 159 198 249 305 351
#     4   9  20  36  58  86 114 156 201 237 298 357
#     4   8  20  36  61  87 114 158 197 248 300 349
#     4  10  17  32  61  83 118 151 195 250 300 354
#     4  10  21  42  59  85 124 161 204 247 295 366
#     4   9  17  34  56  86 111 156 192 237 303 356
#     4  10  18  33  59  89 109 153 201 244 304 359
#
# _framework density 25.476326
#
# number of rings (size 3 to 8) (size 9 to 14) (size 15 to 20)
#    0.857    1.714    2.857    0.429    0.000    0.571 
#    5.143    5.000    0.000    0.000    0.000    0.000 
#    0.000    0.000    0.000    0.000    0.000    0.000 
#
# Total GULP energy -312181.759918 kJ/mol
# GULP energy per Si atom -5574.674284 kJ/mol
# Density = 2.541834 g / cm^3
# Si number density = 25.476326 Si / 1000 Ang^3
#
#
#
# Elastic Constant Matrix: (Units=GPa)
#
#
# Indices 1 2 3 4 5 6 
#
# 1 106.2700 17.0113 -3.3548 0.0000 0.0000 0.0000
# 2 17.0113 41.4224 -7.6756 0.0000 0.0000 0.0000
# 3 -3.3548 -7.6756 44.4219 0.0000 0.0000 0.0000
# 4 0.0000 0.0000 0.0000 -85.6480 0.0000 0.0000
# 5 0.0000 0.0000 0.0000 0.0000 30.4924 0.0000
# 6 0.0000 0.0000 0.0000 0.0000 0.0000 23.9870
#
#
#
# Elastic Compliance Matrix: (Units=1/GPa)
#
#
# Indices 1 2 3 4 5 6 
#
# 1 0.010072 -0.004128 0.000047 0.000000 0.000000 0.000000
# 2 -0.004128 0.026632 0.004290 0.000000 0.000000 0.000000
# 3 0.000047 0.004290 0.023256 0.000000 0.000000 0.000000
# 4 0.000000 0.000000 0.000000 -0.011676 0.000000 0.000000
# 5 0.000000 0.000000 0.000000 0.000000 0.032795 0.000000
# 6 0.000000 0.000000 0.000000 0.000000 0.000000 0.041689
#
#
# Mechanical properties :
#
#
# Convention : Reuss Voigt Hill
#
# Bulk Modulus (GPa) = 16.56193 22.67514 19.61853
# Shear Modulus (GPa) = 35.09372 6.17520 20.63446
#
# Velocity S-wave (km/s) = 3.71550 1.55858 2.84904
# Velocity P-wave (km/s) = 4.99215 3.48693 4.30583
#
# Compressibility (1/GPa) = 0.06037945
#
# Stress axis : x y z
#
# Youngs Moduli (GPa) = 99.28288 37.54937 42.99924
#
# Poissons Ratio (x) = 0.15499 -0.00204
# Poissons Ratio (y) = 0.40981 -0.18446
# Poissons Ratio (z) = -0.00471 -0.16108
#
# Static dielectric constant tensor:
#      x y z
#    x 2.056750 0.000000 0.000000 
#    y 0.000000 2.094110 0.000000 
#    z 0.000000 0.000000 2.047060 
# 
# From -- ./inp_files/15165.got.cif
#   From: 2010.05.17/outbox.cif.g08.bks.cpg/sg56_8_cif.got.tgz:15165.got - 2010.06.03 13:42:01.
