data_PCOD9429185
_publ_section_title
;
Structure prediction by ZEFSAII (Michael W. Deem and Ramdas Pophale) SiO2 
 PCOD9429185
Probable space group: P B A M
;
_chemical_formula_sum "Si O2"
_cell_formula_units_Z 34
_cell_length_a 4.921755
_cell_length_b 19.001314
_cell_length_c 13.899137
_cell_angle_alpha 90.000000
_cell_angle_beta 90.000000
_cell_angle_gamma 90.000000
_cell_volume 1299.844682
_symmetry_space_group_name_H-M "P B A M"
_symmetry_group_IT_number 55
_symmetry_cell_setting 'orthorhombic'
loop_
_space_group_symop_operation_xyz
x,y,z
-x,-y,z
1/2+x,1/2-y,-z
1/2-x,1/2+y,-z
-x,-y,-z
x,y,-z
1/2-x,1/2+y,z
1/2+x,1/2-y,z
loop_
_atom_site_type_symbol
_atom_site_label
_atom_site_fract_x
_atom_site_fract_y
_atom_site_fract_z
Si Si1 0.000000 0.500000 0.000000
Si Si2 0.252351 0.449278 0.500000
Si Si3 0.200396 0.794785 0.837748
Si Si4 0.796068 0.793245 0.500000
Si Si5 0.842293 0.931231 0.826289
Si Si6 0.541058 0.139571 0.332978
O O1 0.825427 0.458371 0.083263
O O2 0.500000 0.500000 0.500000
O O3 0.000000 0.500000 0.500000
O O4 0.231635 0.406857 0.599381
O O5 0.491596 0.765763 0.871271
O O6 0.274145 0.803764 0.723934
O O7 0.058332 0.869987 0.857743
O O8 0.612784 0.722405 0.500000
O O9 0.683385 0.831812 0.406627
O O10 0.630339 0.900627 0.748916
O O11 0.000000 0.000000 0.787901
#
# Coordination Sequence:
#
# PCOD9429185 Si02
#       6
#     2   4   8   4   8   8
#     4  12  30  60  84 132 160 222 282 366 448 550
#     4  11  30  43  68 114 172 226 289 350 415 510
#     4  12  26  48  83 122 163 219 281 350 431 513
#     4  11  26  45  75 118 171 228 290 344 417 512
#     4  12  29  53  92 126 170 226 291 369 451 544
#     4  11  27  47  79 119 171 230 288 355 432 513
#
# _framework density 26.156967999999999
#
# number of rings (size 3 to 8) (size 9 to 14) (size 15 to 20)
#    0.000    0.471    2.353    3.176   11.529    1.882 
#    0.000    2.941    0.000    0.000    0.000    0.000 
#    0.000    0.000    0.000    0.000    0.000    0.000 
#
# Total GULP energy -189965.225358 kJ/mol
# GULP energy per Si atom -5587.212511 kJ/mol
# Density = 2.609743 g / cm^3
# Si number density = 26.156968 Si / 1000 Ang^3
#
#
#
# Elastic Constant Matrix: (Units=GPa)
#
#
# Indices 1 2 3 4 5 6 
#
# 1 159.7176 60.4187 43.4554 0.0000 0.0000 0.0000
# 2 60.4187 122.3060 40.1798 0.0000 0.0000 0.0000
# 3 43.4554 40.1798 150.2466 0.0000 0.0000 0.0000
# 4 0.0000 0.0000 0.0000 9.3624 0.0000 0.0000
# 5 0.0000 0.0000 0.0000 0.0000 -82.6697 0.0000
# 6 0.0000 0.0000 0.0000 0.0000 0.0000 86.0956
#
#
#
# Elastic Compliance Matrix: (Units=1/GPa)
#
#
# Indices 1 2 3 4 5 6 
#
# 1 0.007949 -0.003477 -0.001369 0.000000 0.000000 0.000000
# 2 -0.003477 0.010485 -0.001798 0.000000 0.000000 0.000000
# 3 -0.001369 -0.001798 0.007533 0.000000 0.000000 0.000000
# 4 0.000000 0.000000 0.000000 0.106811 0.000000 0.000000
# 5 0.000000 0.000000 0.000000 0.000000 -0.012096 0.000000
# 6 0.000000 0.000000 0.000000 0.000000 0.000000 0.011615
#
#
# Mechanical properties :
#
#
# Convention : Reuss Voigt Hill
#
# Bulk Modulus (GPa) = 78.88079 80.04201 79.46140
# Shear Modulus (GPa) = 33.37565 21.77206 27.57386
#
# Velocity S-wave (km/s) = 3.57596 2.88820 3.25032
# Velocity P-wave (km/s) = 6.87547 6.46447 6.67313
#
# Compressibility (1/GPa) = 0.01267736
#
# Stress axis : x y z
#
# Youngs Moduli (GPa) = 125.80464 95.37856 132.75578
#
# Poissons Ratio (x) = 0.33162 0.18177
# Poissons Ratio (y) = 0.43741 0.23872
# Poissons Ratio (z) = 0.17225 0.17151
#
# Static dielectric constant tensor:
#      x y z
#    x 2.031590 0.000000 0.000000 
#    y 0.000000 2.146490 0.000000 
#    z 0.000000 0.000000 1.990270 
# 
# From -- ./inp_files/16510.got.cif
#   From: 2010.05.17/outbox.cif.g08.bks.cpg/sg55_9_cif.got.tgz:16510.got - 2010.06.03 13:27:54.
