data_PCOD9429630
_publ_section_title
;
Structure prediction by ZEFSAII (Michael W. Deem and Ramdas Pophale) SiO2 
 PCOD9429630
Probable space group: P C C N
;
_chemical_formula_sum "Si O2"
_cell_formula_units_Z 48
_cell_length_a 8.170639
_cell_length_b 8.391734
_cell_length_c 29.061130
_cell_angle_alpha 90.000000
_cell_angle_beta 90.000000
_cell_angle_gamma 90.000000
_cell_volume 1992.600473
_symmetry_space_group_name_H-M "P C C N"
_symmetry_group_IT_number 56
_symmetry_cell_setting 'orthorhombic'
loop_
_space_group_symop_operation_xyz
x,y,z
1/2-x,1/2-y,z
1/2+x,-y,1/2-z
-x,1/2+y,1/2-z
-x,-y,-z
1/2+x,1/2+y,-z
1/2-x,y,1/2+z
x,1/2-y,1/2+z
loop_
_atom_site_type_symbol
_atom_site_label
_atom_site_fract_x
_atom_site_fract_y
_atom_site_fract_z
Si Si1 0.656360 0.577151 0.920473
Si Si2 0.007216 0.577383 0.073327
Si Si3 0.570225 0.822826 0.328834
Si Si4 0.442053 0.742882 0.485045
Si Si5 0.933335 0.988855 0.674326
Si Si6 0.835077 0.077663 0.244153
O O1 0.750000 0.750000 0.918075
O O2 0.796021 0.446360 0.923532
O O3 0.568845 0.560820 0.871862
O O4 0.527141 0.608107 0.960273
O O5 0.937365 0.597987 0.124864
O O6 0.958157 0.410009 0.049110
O O7 0.972563 0.706816 0.034020
O O8 0.750000 0.750000 0.322033
O O9 0.449817 0.675407 0.339090
O O10 0.503330 0.907364 0.284254
O O11 0.250000 0.750000 0.491998
O O12 0.779704 0.974398 0.709306
O O13 0.097475 0.961835 0.705085
O O14 0.750000 0.250000 0.247480
#
# Coordination Sequence:
#
# PCOD9429630 Si02
#       6
#     8   8   8   8   8   8
#     4   9  17  34  59  83 114 150 190 247 291 349
#     4  10  21  37  59  86 120 158 194 247 304 355
#     4  10  17  34  60  84 112 154 197 249 290 349
#     4  10  21  35  59  88 115 152 199 248 294 361
#     4  11  20  37  58  85 120 159 203 247 300 362
#     4  10  24  35  59  92 120 159 204 255 299 359
#
# _framework density 24.089123000000001
#
# number of rings (size 3 to 8) (size 9 to 14) (size 15 to 20)
#    0.000    2.000    5.000    1.000    2.333    1.333 
#    0.000    0.000    0.000    9.000    0.000    0.000 
#    0.000    0.000    0.000    0.000    0.000    0.000 
#
# Total GULP energy -267816.248811 kJ/mol
# GULP energy per Si atom -5579.505184 kJ/mol
# Density = 2.403429 g / cm^3
# Si number density = 24.089123 Si / 1000 Ang^3
#
#
#
# Elastic Constant Matrix: (Units=GPa)
#
#
# Indices 1 2 3 4 5 6 
#
# 1 75.5435 2.9787 55.2912 0.0000 0.0000 0.0000
# 2 2.9787 22.8120 32.8357 0.0000 0.0000 0.0000
# 3 55.2912 32.8357 219.0745 0.0000 0.0000 0.0000
# 4 0.0000 0.0000 0.0000 13.0048 0.0000 0.0000
# 5 0.0000 0.0000 0.0000 0.0000 0.3367 0.0000
# 6 0.0000 0.0000 0.0000 0.0000 0.0000 13.0516
#
#
#
# Elastic Compliance Matrix: (Units=1/GPa)
#
#
# Indices 1 2 3 4 5 6 
#
# 1 0.016663 0.004944 -0.004947 0.000000 0.000000 0.000000
# 2 0.004944 0.057363 -0.009846 0.000000 0.000000 0.000000
# 3 -0.004947 -0.009846 0.007289 0.000000 0.000000 0.000000
# 4 0.000000 0.000000 0.000000 0.076894 0.000000 0.000000
# 5 0.000000 0.000000 0.000000 0.000000 2.969633 0.000000
# 6 0.000000 0.000000 0.000000 0.000000 0.000000 0.076619
#
#
# Mechanical properties :
#
#
# Convention : Reuss Voigt Hill
#
# Bulk Modulus (GPa) = 16.22883 55.51567 35.87225
# Shear Modulus (GPa) = 1.54098 20.36693 10.95395
#
# Velocity S-wave (km/s) = 0.80068 2.91087 2.13474
# Velocity P-wave (km/s) = 2.75797 5.86460 4.58257
#
# Compressibility (1/GPa) = 0.06161872
#
# Stress axis : x y z
#
# Youngs Moduli (GPa) = 60.01361 17.43293 137.19710
#
# Poissons Ratio (x) = -0.08619 0.67865
# Poissons Ratio (y) = -0.29673 1.35079
# Poissons Ratio (z) = 0.29686 0.17164
#
# Static dielectric constant tensor:
#      x y z
#    x 1.956230 0.000000 0.000000 
#    y 0.000000 1.991680 0.000000 
#    z 0.000000 0.000000 2.002160 
# 
# From -- ./inp_files/22022.got.cif
#   From: 2010.05.17/outbox.cif.g08.bks.cpg/sg56_12_cif.got.tgz:22022.got - 2010.06.03 13:42:01.
