data_PCOD9429461
_publ_section_title
;
Structure prediction by ZEFSAII (Michael W. Deem and Ramdas Pophale) SiO2 
 PCOD9429461
Probable space group: P B A M
;
_chemical_formula_sum "Si O2"
_cell_formula_units_Z 64
_cell_length_a 12.000000
_cell_length_b 18.000000
_cell_length_c 15.000000
_cell_angle_alpha 90.000000
_cell_angle_beta 90.000000
_cell_angle_gamma 90.000000
_cell_volume 3240.000000
_symmetry_space_group_name_H-M "P B A M"
_symmetry_group_IT_number 55
_symmetry_cell_setting 'orthorhombic'
loop_
_space_group_symop_operation_xyz
x,y,z
-x,-y,z
1/2+x,1/2-y,-z
1/2-x,1/2+y,-z
-x,-y,-z
x,y,-z
1/2-x,1/2+y,z
1/2+x,1/2-y,z
loop_
_atom_site_type_symbol
_atom_site_label
_atom_site_fract_x
_atom_site_fract_y
_atom_site_fract_z
Si Si1 0.805925 0.232036 0.106737
Si Si2 0.819993 0.664082 0.398231
Si Si3 0.512802 0.080652 0.729332
Si Si4 0.601420 0.645862 0.725154
Si Si5 0.122725 0.991800 0.845868
Si Si6 0.161334 0.408601 0.904071
Si Si7 0.738520 0.872692 0.229254
Si Si8 0.617300 0.335276 0.602836
O O1 0.889906 0.194366 0.181755
O O2 0.700918 0.176351 0.103165
O O3 0.765483 0.304969 0.158862
O O4 0.841206 0.240894 0.000000
O O5 0.804162 0.634719 0.500000
O O6 0.920356 0.628476 0.342020
O O7 0.710682 0.658052 0.335714
O O8 0.852338 0.749455 0.406608
O O9 0.586858 0.073156 0.819182
O O10 0.390925 0.107293 0.757579
O O11 0.500000 0.000000 0.688032
O O12 0.602535 0.561812 0.761018
O O13 0.496190 0.658794 0.660991
O O14 0.220965 0.951939 0.900501
O O15 0.179700 0.067282 0.814778
O O16 0.000000 0.000000 0.888116
O O17 0.106464 0.422168 0.000000
O O18 0.787602 0.863674 0.329135
O O19 0.610473 0.365657 0.500000
#
# Coordination Sequence:
#
# PCOD9429461 Si02
#       8
#     8   8   8   8   8   8   8   8
#     4  10  22  41  68  98 128 165 215 269 330 387
#     4  11  23  40  66  96 125 168 219 269 329 391
#     4  12  23  42  65  90 132 174 212 270 327 388
#     4  11  20  44  68  92 133 172 217 269 330 391
#     4  11  22  41  68  90 129 173 213 266 332 385
#     4  10  22  44  67  92 128 175 219 265 328 399
#     4  12  23  41  64  96 133 166 214 279 325 387
#     4  11  24  41  67  99 130 175 222 276 334 388
#
# _framework density 19.753086
#
# number of rings (size 3 to 8) (size 9 to 14) (size 15 to 20)
#    0.000    1.000    6.250    1.125    0.000    2.250 
#    0.000    5.000    0.000    0.000    0.000    0.000 
#    0.000    0.000    0.000    0.000    0.000    0.000 
#
# Total GULP energy -356660.165230 kJ/mol
# GULP energy per Si atom -5572.815082 kJ/mol
# Density = 1.970813 g / cm^3
# Si number density = 19.753086 Si / 1000 Ang^3
#
#
#
# Elastic Constant Matrix: (Units=GPa)
#
#
# Indices 1 2 3 4 5 6 
#
# 1 125.9711 26.7819 41.2657 0.0000 0.0000 0.0000
# 2 26.7819 84.4454 27.8957 0.0000 0.0000 0.0000
# 3 41.2657 27.8957 137.2693 0.0000 0.0000 0.0000
# 4 0.0000 0.0000 0.0000 -30.5528 0.0000 0.0000
# 5 0.0000 0.0000 0.0000 0.0000 -246.6682 0.0000
# 6 0.0000 0.0000 0.0000 0.0000 0.0000 7.7015
#
#
#
# Elastic Compliance Matrix: (Units=1/GPa)
#
#
# Indices 1 2 3 4 5 6 
#
# 1 0.009152 -0.002137 -0.002317 0.000000 0.000000 0.000000
# 2 -0.002137 0.013193 -0.002039 0.000000 0.000000 0.000000
# 3 -0.002317 -0.002039 0.008396 0.000000 0.000000 0.000000
# 4 0.000000 0.000000 0.000000 -0.032730 0.000000 0.000000
# 5 0.000000 0.000000 0.000000 0.000000 -0.004054 0.000000
# 6 0.000000 0.000000 0.000000 0.000000 0.000000 0.129846
#
#
# Mechanical properties :
#
#
# Convention : Reuss Voigt Hill
#
# Bulk Modulus (GPa) = 56.32100 59.95247 58.13673
# Shear Modulus (GPa) = 35.03716 -37.12108 -1.04196
#
# Velocity S-wave (km/s) = 4.21617 -4.33974 -0.72708
# Velocity P-wave (km/s) = 7.23020 2.30341 5.36570
#
# Compressibility (1/GPa) = 0.01775537
#
# Stress axis : x y z
#
# Youngs Moduli (GPa) = 109.27010 75.79663 119.10811
#
# Poissons Ratio (x) = 0.16198 0.27596
# Poissons Ratio (y) = 0.23352 0.24282
# Poissons Ratio (z) = 0.25316 0.15452
#
# Static dielectric constant tensor:
#      x y z
#    x 1.548310 0.000000 0.000000 
#    y 0.000000 1.751870 0.000000 
#    z 0.000000 0.000000 1.672940 
# 
# From -- ./inp_files/18577.got.cif
#   From: 2010.05.17/outbox.ucp.g08.bks.cvg/sg55_10_cif.got.tgz:18577.got - 2010.06.11 16:36:00.
