data_PCOD9429306
_publ_section_title
;
Structure prediction by ZEFSAII (Michael W. Deem and Ramdas Pophale) SiO2 
 PCOD9429306
Probable space group: P B A M
;
_chemical_formula_sum "Si O2"
_cell_formula_units_Z 64
_cell_length_a 24.000000
_cell_length_b 15.000000
_cell_length_c 9.000000
_cell_angle_alpha 90.000000
_cell_angle_beta 90.000000
_cell_angle_gamma 90.000000
_cell_volume 3240.000000
_symmetry_space_group_name_H-M "P B A M"
_symmetry_group_IT_number 55
_symmetry_cell_setting 'orthorhombic'
loop_
_space_group_symop_operation_xyz
x,y,z
-x,-y,z
1/2+x,1/2-y,-z
1/2-x,1/2+y,-z
-x,-y,-z
x,y,-z
1/2-x,1/2+y,z
1/2+x,1/2-y,z
loop_
_atom_site_type_symbol
_atom_site_label
_atom_site_fract_x
_atom_site_fract_y
_atom_site_fract_z
Si Si1 0.622399 0.440794 0.678575
Si Si2 0.422728 0.370074 0.680772
Si Si3 0.267617 0.803728 0.178837
Si Si4 0.166337 0.725167 0.324130
Si Si5 0.108684 0.357157 0.820976
Si Si6 0.960412 0.786212 0.320486
Si Si7 0.231158 0.000633 0.170911
Si Si8 0.860197 0.445528 0.828881
O O1 0.623340 0.441253 0.500000
O O2 0.589259 0.529354 0.729143
O O3 0.587993 0.354989 0.726393
O O4 0.685090 0.448350 0.735988
O O5 0.424225 0.371294 0.500000
O O6 0.371338 0.308246 0.725773
O O7 0.480767 0.326932 0.728991
O O8 0.227108 0.731331 0.249682
O O9 0.332191 0.811583 0.225411
O O10 0.239537 0.898460 0.220258
O O11 0.266861 0.795313 0.000000
O O12 0.173354 0.728009 0.500000
O O13 0.132208 0.638191 0.275952
O O14 0.057148 0.307218 0.748758
O O15 0.112260 0.461557 0.782309
O O16 0.106712 0.352018 0.000000
O O17 0.960911 0.780377 0.500000
O O18 0.293671 0.037366 0.173920
O O19 0.212290 0.000980 0.000000
O O20 0.875698 0.425955 0.000000
#
# Coordination Sequence:
#
# PCOD9429306 Si02
#       8
#     8   8   8   8   8   8   8   8
#     4  10  19  33  54  80 110 145 180 219 266 321
#     4   9  19  37  55  77 112 148 181 222 273 326
#     4   9  18  34  54  76 107 145 177 214 270 327
#     4  11  21  33  55  84 110 141 183 228 270 316
#     4   9  20  39  58  77 107 145 184 226 274 324
#     4  10  21  36  57  80 106 145 188 226 274 326
#     4   9  18  33  53  77 107 144 179 213 262 322
#     4   9  20  38  56  76 109 150 182 218 275 333
#
# _framework density 19.753086
#
# number of rings (size 3 to 8) (size 9 to 14) (size 15 to 20)
#    0.000    2.500    1.250    2.250    1.750    3.500 
#    0.000    5.000    0.000    5.250    0.000    0.000 
#    0.000    0.000    0.000    0.000    0.000    0.000 
#
# Total GULP energy -356933.086105 kJ/mol
# GULP energy per Si atom -5577.079470 kJ/mol
# Density = 1.970813 g / cm^3
# Si number density = 19.753086 Si / 1000 Ang^3
#
#
#
# Elastic Constant Matrix: (Units=GPa)
#
#
# Indices 1 2 3 4 5 6 
#
# 1 8.7939 -17.8572 0.1970 0.0000 0.0000 0.0000
# 2 -17.8572 52.5732 6.8170 0.0000 0.0000 0.0000
# 3 0.1970 6.8170 -10.2186 0.0000 0.0000 0.0000
# 4 0.0000 0.0000 0.0000 19.9445 0.0000 0.0000
# 5 0.0000 0.0000 0.0000 0.0000 25.1084 0.0000
# 6 0.0000 0.0000 0.0000 0.0000 0.0000 5.4419
#
#
#
# Elastic Compliance Matrix: (Units=1/GPa)
#
#
# Indices 1 2 3 4 5 6 
#
# 1 0.303301 0.094120 0.068636 0.000000 0.000000 0.000000
# 2 0.094120 0.046714 0.032978 0.000000 0.000000 0.000000
# 3 0.068636 0.032978 -0.074538 0.000000 0.000000 0.000000
# 4 0.000000 0.000000 0.000000 0.050139 0.000000 0.000000
# 5 0.000000 0.000000 0.000000 0.000000 0.039827 0.000000
# 6 0.000000 0.000000 0.000000 0.000000 0.000000 0.183760
#
#
# Mechanical properties :
#
#
# Convention : Reuss Voigt Hill
#
# Bulk Modulus (GPa) = 1.49937 3.27357 2.38647
# Shear Modulus (GPa) = 13.15616 14.23174 13.69395
#
# Velocity S-wave (km/s) = 2.58356 2.68709 2.63583
# Velocity P-wave (km/s) = 3.10812 3.35978 3.23640
#
# Compressibility (1/GPa) = 0.66694461
#
# Stress axis : x y z
#
# Youngs Moduli (GPa) = 3.29706 21.40682 -13.41601
#
# Poissons Ratio (x) = -2.01481 0.92082
# Poissons Ratio (y) = -0.31032 0.44243
# Poissons Ratio (z) = -0.22630 -0.70596
#
# Static dielectric constant tensor:
#      x y z
#    x 1.676240 0.000000 0.000000 
#    y 0.000000 1.753470 0.000000 
#    z 0.000000 0.000000 1.666310 
# 
# From -- ./inp_files/6697.got.cif
#   From: 2010.05.17/outbox.ucp.g08.bks.cvg/sg55_4_cif.got.tgz:6697.got - 2010.06.11 16:36:00.
