data_PCOD9429416
_publ_section_title
;
Structure prediction by ZEFSAII (Michael W. Deem and Ramdas Pophale) SiO2 
 PCOD9429416
Probable space group: P B A M
;
_chemical_formula_sum "Si O2"
_cell_formula_units_Z 48
_cell_length_a 30.000000
_cell_length_b 9.000000
_cell_length_c 9.000000
_cell_angle_alpha 90.000000
_cell_angle_beta 90.000000
_cell_angle_gamma 90.000000
_cell_volume 2430.000000
_symmetry_space_group_name_H-M "P B A M"
_symmetry_group_IT_number 55
_symmetry_cell_setting 'orthorhombic'
loop_
_space_group_symop_operation_xyz
x,y,z
-x,-y,z
1/2+x,1/2-y,-z
1/2-x,1/2+y,-z
-x,-y,-z
x,y,-z
1/2-x,1/2+y,z
1/2+x,1/2-y,z
loop_
_atom_site_type_symbol
_atom_site_label
_atom_site_fract_x
_atom_site_fract_y
_atom_site_fract_z
Si Si1 0.953063 0.415591 0.178933
Si Si2 0.634315 0.449471 0.829588
Si Si3 0.859226 0.464623 0.675375
Si Si4 0.305413 0.267994 0.829538
Si Si5 0.453302 0.413155 0.321626
Si Si6 0.298535 0.800416 0.179976
O O1 0.907656 0.487443 0.247558
O O2 0.955184 0.248901 0.244919
O O3 0.000000 0.500000 0.212698
O O4 0.948193 0.410696 0.000000
O O5 0.674770 0.567268 0.839170
O O6 0.590685 0.501870 0.740265
O O7 0.661867 0.309883 0.769674
O O8 0.619369 0.421132 0.000000
O O9 0.863191 0.488412 0.500000
O O10 0.841397 0.301962 0.717646
O O11 0.817200 0.551627 0.746164
O O12 0.253235 0.264839 0.783318
O O13 0.308458 0.205800 0.000000
O O14 0.500000 0.500000 0.291008
O O15 0.449442 0.396295 0.500000
O O16 0.299556 0.807931 0.000000
#
# Coordination Sequence:
#
# PCOD9429416 Si02
#       6
#     8   8   8   8   8   8
#     4  11  25  45  69  94 120 160 213 263 307 367
#     4  10  21  38  64  93 122 163 212 260 303 358
#     4  12  25  40  62  94 132 169 203 255 321 378
#     4  10  20  40  67  92 122 165 215 262 307 363
#     4  11  25  43  64  93 128 164 199 249 318 380
#     4  10  22  40  64  94 126 167 216 259 302 362
#
# _framework density 19.753086
#
# number of rings (size 3 to 8) (size 9 to 14) (size 15 to 20)
#    0.000    1.333    1.667    3.500    2.333    6.667 
#    0.000    1.667    0.000    0.000    0.000    0.000 
#    0.000    0.000    0.000    0.000    0.000    0.000 
#
# Total GULP energy -267647.004610 kJ/mol
# GULP energy per Si atom -5575.979263 kJ/mol
# Density = 1.970813 g / cm^3
# Si number density = 19.753086 Si / 1000 Ang^3
#
#
#
# Elastic Constant Matrix: (Units=GPa)
#
#
# Indices 1 2 3 4 5 6 
#
# 1 160.5858 -5.0765 46.1903 0.0000 0.0000 0.0000
# 2 -5.0765 9.6344 -7.5666 0.0000 0.0000 0.0000
# 3 46.1903 -7.5666 60.0721 0.0000 0.0000 0.0000
# 4 0.0000 0.0000 0.0000 11.4613 0.0000 0.0000
# 5 0.0000 0.0000 0.0000 0.0000 29.2354 0.0000
# 6 0.0000 0.0000 0.0000 0.0000 0.0000 37.4043
#
#
#
# Elastic Compliance Matrix: (Units=1/GPa)
#
#
# Indices 1 2 3 4 5 6 
#
# 1 0.008000 -0.000683 -0.006237 0.000000 0.000000 0.000000
# 2 -0.000683 0.115248 0.015042 0.000000 0.000000 0.000000
# 3 -0.006237 0.015042 0.023337 0.000000 0.000000 0.000000
# 4 0.000000 0.000000 0.000000 0.087250 0.000000 0.000000
# 5 0.000000 0.000000 0.000000 0.000000 0.034205 0.000000
# 6 0.000000 0.000000 0.000000 0.000000 0.000000 0.026735
#
#
# Mechanical properties :
#
#
# Convention : Reuss Voigt Hill
#
# Bulk Modulus (GPa) = 6.14144 33.04297 19.59221
# Shear Modulus (GPa) = 15.02367 28.73654 21.88011
#
# Velocity S-wave (km/s) = 2.76084 3.81831 3.33179
# Velocity P-wave (km/s) = 3.64402 6.01694 4.97405
#
# Compressibility (1/GPa) = 0.16282820
#
# Stress axis : x y z
#
# Youngs Moduli (GPa) = 125.00603 8.67690 42.85019
#
# Poissons Ratio (x) = 0.00593 0.26726
# Poissons Ratio (y) = 0.08543 -0.64455
# Poissons Ratio (z) = 0.77967 -0.13052
#
# Static dielectric constant tensor:
#      x y z
#    x 1.645660 0.000000 0.000000 
#    y 0.000000 1.777040 0.000000 
#    z 0.000000 0.000000 1.676480 
# 
# From -- ./inp_files/10545.got.cif
#   From: 2010.05.17/outbox.ucp.g08.bks.cvg/sg55_6_cif.got.tgz:10545.got - 2010.06.11 16:36:00.
