data_PCOD9429629
_publ_section_title
;
Structure prediction by ZEFSAII (Michael W. Deem and Ramdas Pophale) SiO2 
 PCOD9429629
Probable space group: P C C N
;
_chemical_formula_sum "Si O2"
_cell_formula_units_Z 48
_cell_length_a 8.148246
_cell_length_b 13.345440
_cell_length_c 18.676432
_cell_angle_alpha 90.000000
_cell_angle_beta 90.000000
_cell_angle_gamma 90.000000
_cell_volume 2030.911226
_symmetry_space_group_name_H-M "P C C N"
_symmetry_group_IT_number 56
_symmetry_cell_setting 'orthorhombic'
loop_
_space_group_symop_operation_xyz
x,y,z
1/2-x,1/2-y,z
1/2+x,-y,1/2-z
-x,1/2+y,1/2-z
-x,-y,-z
1/2+x,1/2+y,-z
1/2-x,y,1/2+z
x,1/2-y,1/2+z
loop_
_atom_site_type_symbol
_atom_site_label
_atom_site_fract_x
_atom_site_fract_y
_atom_site_fract_z
Si Si1 0.570254 0.328038 0.351394
Si Si2 0.083953 0.184925 0.948799
Si Si3 0.032256 0.626954 0.397852
Si Si4 0.439811 0.213566 0.209183
Si Si5 0.767761 0.972255 0.641207
Si Si6 0.255472 0.016782 0.190341
O O1 0.559936 0.253908 0.417821
O O2 0.524614 0.262099 0.280315
O O3 0.431607 0.410389 0.371561
O O4 0.716716 0.403840 0.336170
O O5 0.250000 0.250000 0.961388
O O6 0.131759 0.106372 0.887252
O O7 0.033115 0.133936 0.022139
O O8 0.025532 0.733135 0.357882
O O9 0.899699 0.563857 0.350487
O O10 0.208844 0.574410 0.395014
O O11 0.250000 0.250000 0.216907
O O12 0.408487 0.096759 0.189293
O O13 0.768160 0.990198 0.725238
#
# Coordination Sequence:
#
# PCOD9429629 Si02
#       6
#     8   8   8   8   8   8
#     4  11  20  37  64  90 123 159 212 252 307 367
#     4  10  21  38  61  89 118 171 206 246 301 384
#     4  11  22  37  62  91 124 158 209 255 310 367
#     4  10  17  34  59  83 116 160 201 243 286 377
#     4  11  19  36  63  90 124 160 206 252 312 362
#     4  11  20  36  63  95 119 162 212 258 296 371
#
# _framework density 23.634710999999999
#
# number of rings (size 3 to 8) (size 9 to 14) (size 15 to 20)
#    0.000    1.333    6.667    2.500    0.000    0.000 
#    0.000    9.167    0.000    6.000    0.000    0.000 
#    0.000    0.000    0.000    0.000    0.000    0.000 
#
# Total GULP energy -268029.050267 kJ/mol
# GULP energy per Si atom -5583.938547 kJ/mol
# Density = 2.358092 g / cm^3
# Si number density = 23.634711 Si / 1000 Ang^3
#
#
#
# Elastic Constant Matrix: (Units=GPa)
#
#
# Indices 1 2 3 4 5 6 
#
# 1 69.1077 48.1775 30.4023 0.0000 0.0000 0.0000
# 2 48.1775 87.2044 22.2700 0.0000 0.0000 0.0000
# 3 30.4023 22.2700 106.2734 0.0000 0.0000 0.0000
# 4 0.0000 0.0000 0.0000 -9.1596 0.0000 0.0000
# 5 0.0000 0.0000 0.0000 0.0000 6.2877 0.0000
# 6 0.0000 0.0000 0.0000 0.0000 0.0000 55.1831
#
#
#
# Elastic Compliance Matrix: (Units=1/GPa)
#
#
# Indices 1 2 3 4 5 6 
#
# 1 0.025488 -0.012910 -0.004586 0.000000 0.000000 0.000000
# 2 -0.012910 0.018655 -0.000216 0.000000 0.000000 0.000000
# 3 -0.004586 -0.000216 0.010767 0.000000 0.000000 0.000000
# 4 0.000000 0.000000 0.000000 -0.109175 0.000000 0.000000
# 5 0.000000 0.000000 0.000000 0.000000 0.159041 0.000000
# 6 0.000000 0.000000 0.000000 0.000000 0.000000 0.018121
#
#
# Mechanical properties :
#
#
# Convention : Reuss Voigt Hill
#
# Bulk Modulus (GPa) = 51.32042 51.58726 51.45384
# Shear Modulus (GPa) = 30.33694 21.24462 25.79078
#
# Velocity S-wave (km/s) = 3.58659 3.00138 3.30695
# Velocity P-wave (km/s) = 6.23800 5.82111 6.03316
#
# Compressibility (1/GPa) = 0.01948542
#
# Stress axis : x y z
#
# Youngs Moduli (GPa) = 39.23471 53.60572 92.87707
#
# Poissons Ratio (x) = 0.69204 0.42594
# Poissons Ratio (y) = 0.50651 0.02006
# Poissons Ratio (z) = 0.17993 0.01158
#
# Static dielectric constant tensor:
#      x y z
#    x 1.990930 0.000000 0.000000 
#    y 0.000000 1.954300 0.000000 
#    z 0.000000 0.000000 1.813880 
# 
# From -- ./inp_files/14850.got.cif
#   From: 2010.05.17/outbox.cif.g08.bks.cpg/sg56_8_cif.got.tgz:14850.got - 2010.06.03 13:42:01.
