data_PCOD9429627
_publ_section_title
;
Structure prediction by ZEFSAII (Michael W. Deem and Ramdas Pophale) SiO2 
 PCOD9429627
Probable space group: P C C N
;
_chemical_formula_sum "Si O2"
_cell_formula_units_Z 56
_cell_length_a 9.358511
_cell_length_b 14.974234
_cell_length_c 18.282191
_cell_angle_alpha 90.000000
_cell_angle_beta 90.000000
_cell_angle_gamma 90.000000
_cell_volume 2562.002873
_symmetry_space_group_name_H-M "P C C N"
_symmetry_group_IT_number 56
_symmetry_cell_setting 'orthorhombic'
loop_
_space_group_symop_operation_xyz
x,y,z
1/2-x,1/2-y,z
1/2+x,-y,1/2-z
-x,1/2+y,1/2-z
-x,-y,-z
1/2+x,1/2+y,-z
1/2-x,y,1/2+z
x,1/2-y,1/2+z
loop_
_atom_site_type_symbol
_atom_site_label
_atom_site_fract_x
_atom_site_fract_y
_atom_site_fract_z
Si Si1 0.959223 0.340592 0.326166
Si Si2 0.771247 0.152217 0.196629
Si Si3 0.381103 0.078418 0.513275
Si Si4 0.786805 0.956406 0.146312
Si Si5 0.653083 0.335325 0.990473
Si Si6 0.366572 0.974170 0.051224
Si Si7 0.507977 0.637419 0.684949
O O1 0.847653 0.344996 0.260488
O O2 0.882837 0.345929 0.404274
O O3 0.030056 0.242497 0.331394
O O4 0.066852 0.422572 0.317743
O O5 0.750000 0.250000 0.160386
O O6 0.918462 0.140712 0.240779
O O7 0.764072 0.062347 0.149944
O O8 0.301519 0.086429 0.435012
O O9 0.496924 0.157090 0.528986
O O10 0.500000 0.000000 0.500000
O O11 0.251281 0.052877 0.567876
O O12 0.657261 0.911865 0.188899
O O13 0.750000 0.250000 0.001412
O O14 0.766302 0.413883 0.999742
O O15 0.422616 0.917224 0.120821
O O16 0.500000 0.000000 0.000000
#
# Coordination Sequence:
#
# PCOD9429627 Si02
#       7
#     8   8   8   8   8   8   8
#     4  10  19  35  58  89 113 147 202 252 300 361
#     4  10  21  38  60  84 115 155 202 248 303 372
#     4   9  21  34  53  83 118 151 200 238 297 374
#     4  11  21  35  57  91 117 152 197 256 308 360
#     4  10  17  34  57  81 110 151 196 246 297 347
#     4  11  19  34  54  84 118 154 189 247 299 359
#     4  11  20  35  60  86 118 153 202 252 300 357
#
# _framework density 21.857900000000001
#
# number of rings (size 3 to 8) (size 9 to 14) (size 15 to 20)
#    0.000    1.714    4.286    1.714    0.000    0.000 
#    0.000    3.571    0.000    0.000    3.714    0.000 
#    0.000    0.000    0.000    0.000    0.000    0.000 
#
# Total GULP energy -311970.401055 kJ/mol
# GULP energy per Si atom -5570.900019 kJ/mol
# Density = 2.180815 g / cm^3
# Si number density = 21.857900 Si / 1000 Ang^3
#
#
#
# Elastic Constant Matrix: (Units=GPa)
#
#
# Indices 1 2 3 4 5 6 
#
# 1 105.3548 52.9337 23.5515 0.0000 0.0000 0.0000
# 2 52.9337 120.6019 26.2595 0.0000 0.0000 0.0000
# 3 23.5515 26.2595 59.3939 0.0000 0.0000 0.0000
# 4 0.0000 0.0000 0.0000 22.3039 0.0000 0.0000
# 5 0.0000 0.0000 0.0000 0.0000 8.2371 0.0000
# 6 0.0000 0.0000 0.0000 0.0000 0.0000 40.3716
#
#
#
# Elastic Compliance Matrix: (Units=1/GPa)
#
#
# Indices 1 2 3 4 5 6 
#
# 1 0.012590 -0.004912 -0.002821 0.000000 0.000000 0.000000
# 2 -0.004912 0.011091 -0.002956 0.000000 0.000000 0.000000
# 3 -0.002821 -0.002956 0.019262 0.000000 0.000000 0.000000
# 4 0.000000 0.000000 0.000000 0.044835 0.000000 0.000000
# 5 0.000000 0.000000 0.000000 0.000000 0.121401 0.000000
# 6 0.000000 0.000000 0.000000 0.000000 0.000000 0.024770
#
#
# Mechanical properties :
#
#
# Convention : Reuss Voigt Hill
#
# Bulk Modulus (GPa) = 46.36838 54.53777 50.45307
# Shear Modulus (GPa) = 19.04645 26.35625 22.70135
#
# Velocity S-wave (km/s) = 2.95511 3.47623 3.22621
# Velocity P-wave (km/s) = 5.73613 6.41229 6.08361
#
# Compressibility (1/GPa) = 0.02156642
#
# Stress axis : x y z
#
# Youngs Moduli (GPa) = 79.42728 90.16138 51.91519
#
# Poissons Ratio (x) = 0.44285 0.14644
# Poissons Ratio (y) = 0.39013 0.15346
# Poissons Ratio (z) = 0.22404 0.26652
#
# Static dielectric constant tensor:
#      x y z
#    x 1.892770 0.000000 0.000000 
#    y 0.000000 1.966970 0.000000 
#    z 0.000000 0.000000 1.852450 
# 
# From -- ./inp_files/18205.got.cif
#   From: 2010.05.17/outbox.cif.g08.bks.cpg/sg56_10_cif.got.tgz:18205.got - 2010.06.03 13:42:01.
