data_PCOD9429776
_publ_section_title
;
Structure prediction by ZEFSAII (Michael W. Deem and Ramdas Pophale) SiO2 
 PCOD9429776
Probable space group: P C C N
;
_chemical_formula_sum "Si O2"
_cell_formula_units_Z 56
_cell_length_a 12.520922
_cell_length_b 9.573029
_cell_length_c 19.126078
_cell_angle_alpha 90.000000
_cell_angle_beta 90.000000
_cell_angle_gamma 90.000000
_cell_volume 2292.511945
_symmetry_space_group_name_H-M "P C C N"
_symmetry_group_IT_number 56
_symmetry_cell_setting 'orthorhombic'
loop_
_space_group_symop_operation_xyz
x,y,z
1/2-x,1/2-y,z
1/2+x,-y,1/2-z
-x,1/2+y,1/2-z
-x,-y,-z
1/2+x,1/2+y,-z
1/2-x,y,1/2+z
x,1/2-y,1/2+z
loop_
_atom_site_type_symbol
_atom_site_label
_atom_site_fract_x
_atom_site_fract_y
_atom_site_fract_z
Si Si1 0.109593 0.581068 0.170341
Si Si2 0.650786 0.966209 0.978711
Si Si3 0.560538 0.380488 0.835498
Si Si4 0.530111 0.197766 0.071969
Si Si5 0.165175 0.616424 0.513592
Si Si6 0.108181 0.534343 0.810919
Si Si7 0.316727 0.394530 0.798284
O O1 0.157223 0.548741 0.095177
O O2 0.120889 0.739962 0.191301
O O3 0.150402 0.467476 0.224858
O O4 0.981761 0.569803 0.160276
O O5 0.590345 0.827164 0.954620
O O6 0.771360 0.975254 0.004227
O O7 0.586248 0.064395 0.032763
O O8 0.606554 0.399633 0.912382
O O9 0.595070 0.482296 0.772699
O O10 0.431581 0.375439 0.834903
O O11 0.561865 0.175446 0.152868
O O12 0.578542 0.338291 0.043015
O O13 0.250000 0.750000 0.511714
O O14 0.228823 0.500086 0.830587
O O15 0.250000 0.250000 0.790904
#
# Coordination Sequence:
#
# PCOD9429776 Si02
#       7
#     8   8   8   8   8   8   8
#     4  10  19  37  59  89 111 163 210 239 304 374
#     4   9  17  32  57  84 114 153 199 248 295 367
#     4  11  21  38  64  89 117 160 215 243 298 385
#     4   9  18  33  56  86 120 152 201 253 302 365
#     4  10  18  33  58  88 111 157 204 246 299 371
#     4  10  22  36  58  92 124 156 199 259 313 353
#     4  11  23  37  58  86 130 156 195 264 314 351
#
# _framework density 24.427354000000001
#
# number of rings (size 3 to 8) (size 9 to 14) (size 15 to 20)
#    0.000    2.000    4.286    0.857    0.000    0.000 
#    7.714    0.000    0.000    9.429    0.000    0.000 
#    0.000    0.000    0.000    0.000    0.000    0.000 
#
# Total GULP energy -312133.692263 kJ/mol
# GULP energy per Si atom -5573.815933 kJ/mol
# Density = 2.437176 g / cm^3
# Si number density = 24.427354 Si / 1000 Ang^3
#
#
#
# Elastic Constant Matrix: (Units=GPa)
#
#
# Indices 1 2 3 4 5 6 
#
# 1 157.5539 33.6678 3.4462 0.0000 0.0000 0.0000
# 2 33.6678 23.6584 -6.9376 0.0000 0.0000 0.0000
# 3 3.4462 -6.9376 42.5294 0.0000 0.0000 0.0000
# 4 0.0000 0.0000 0.0000 15.0529 0.0000 0.0000
# 5 0.0000 0.0000 0.0000 0.0000 24.0209 0.0000
# 6 0.0000 0.0000 0.0000 0.0000 0.0000 34.3831
#
#
#
# Elastic Compliance Matrix: (Units=1/GPa)
#
#
# Indices 1 2 3 4 5 6 
#
# 1 0.009500 -0.014436 -0.003125 0.000000 0.000000 0.000000
# 2 -0.014436 0.066327 0.011989 0.000000 0.000000 0.000000
# 3 -0.003125 0.011989 0.025722 0.000000 0.000000 0.000000
# 4 0.000000 0.000000 0.000000 0.066432 0.000000 0.000000
# 5 0.000000 0.000000 0.000000 0.000000 0.041630 0.000000
# 6 0.000000 0.000000 0.000000 0.000000 0.000000 0.029084
#
#
# Mechanical properties :
#
#
# Convention : Reuss Voigt Hill
#
# Bulk Modulus (GPa) = 11.06104 31.56608 21.31356
# Shear Modulus (GPa) = 17.85878 27.59573 22.72725
#
# Velocity S-wave (km/s) = 2.70681 3.36476 3.05356
# Velocity P-wave (km/s) = 3.78247 5.29584 4.60179
#
# Compressibility (1/GPa) = 0.09040739
#
# Stress axis : x y z
#
# Youngs Moduli (GPa) = 105.26119 15.07673 38.87713
#
# Poissons Ratio (x) = 0.21764 0.12148
# Poissons Ratio (y) = 1.51953 -0.46611
# Poissons Ratio (z) = 0.32890 -0.18076
#
# Static dielectric constant tensor:
#      x y z
#    x 2.047300 0.000000 0.000000 
#    y 0.000000 1.980480 0.000000 
#    z 0.000000 0.000000 1.949480 
# 
# From -- ./inp_files/18726.got.cif
#   From: 2010.05.17/outbox.cif.g08.bks.cpg/sg56_10_cif.got.tgz:18726.got - 2010.06.03 13:42:01.
