data_PCOD9429412
_publ_section_title
;
Structure prediction by ZEFSAII (Michael W. Deem and Ramdas Pophale) SiO2 
 PCOD9429412
Probable space group: P B A M
;
_chemical_formula_sum "Si O2"
_cell_formula_units_Z 56
_cell_length_a 21.000000
_cell_length_b 15.000000
_cell_length_c 9.000000
_cell_angle_alpha 90.000000
_cell_angle_beta 90.000000
_cell_angle_gamma 90.000000
_cell_volume 2835.000000
_symmetry_space_group_name_H-M "P B A M"
_symmetry_group_IT_number 55
_symmetry_cell_setting 'orthorhombic'
loop_
_space_group_symop_operation_xyz
x,y,z
-x,-y,z
1/2+x,1/2-y,-z
1/2-x,1/2+y,-z
-x,-y,-z
x,y,-z
1/2-x,1/2+y,z
1/2+x,1/2-y,z
loop_
_atom_site_type_symbol
_atom_site_label
_atom_site_fract_x
_atom_site_fract_y
_atom_site_fract_z
Si Si1 0.569630 0.584102 0.177182
Si Si2 0.301895 0.916024 0.323361
Si Si3 0.805845 0.195947 0.824653
Si Si4 0.069126 0.101669 0.679248
Si Si5 0.475117 0.096359 0.820034
Si Si6 0.672007 0.897623 0.178899
Si Si7 0.906328 0.713674 0.179587
O O1 0.621821 0.661471 0.192944
O O2 0.593945 0.490472 0.246918
O O3 0.504112 0.605603 0.262197
O O4 0.557399 0.573320 0.000000
O O5 0.312063 0.915740 0.500000
O O6 0.238171 0.864316 0.277592
O O7 0.357240 0.860108 0.239743
O O8 0.300078 0.016734 0.261297
O O9 0.798549 0.300653 0.790562
O O10 0.789468 0.183067 0.000000
O O11 0.071734 0.097979 0.500000
O O12 0.102347 0.190352 0.743677
O O13 0.402343 0.109030 0.776184
O O14 0.523959 0.174390 0.779768
O O15 0.500000 0.000000 0.766865
O O16 0.475827 0.093672 0.000000
O O17 0.675055 0.912125 0.000000
O O18 0.901623 0.721363 0.000000
#
# Coordination Sequence:
#
# PCOD9429412 Si02
#       7
#     8   8   8   8   8   8   8
#     4  10  20  39  64  90 117 155 207 250 294 357
#     4  12  26  41  58  86 124 160 197 244 303 362
#     4  10  23  42  66  89 114 157 211 256 293 350
#     4  11  22  36  58  91 129 160 192 244 309 362
#     4   9  16  31  61  94 118 147 187 244 304 351
#     4  10  20  40  66  91 118 152 198 246 298 361
#     4  11  21  38  63  88 119 159 205 250 297 357
#
# _framework density 19.753086
#
# number of rings (size 3 to 8) (size 9 to 14) (size 15 to 20)
#    0.000    1.571    1.429    5.143    0.000    5.143 
#    0.000    5.000    0.000    0.000    0.000    0.000 
#    0.000    0.000    0.000    0.000    0.000    0.000 
#
# Total GULP energy -312949.026569 kJ/mol
# GULP energy per Si atom -5588.375474 kJ/mol
# Density = 1.970813 g / cm^3
# Si number density = 19.753086 Si / 1000 Ang^3
#
#
#
# Elastic Constant Matrix: (Units=GPa)
#
#
# Indices 1 2 3 4 5 6 
#
# 1 37.3122 13.6004 16.8198 0.0000 0.0000 0.0000
# 2 13.6004 143.7189 52.6353 0.0000 0.0000 0.0000
# 3 16.8198 52.6353 112.0544 0.0000 0.0000 0.0000
# 4 0.0000 0.0000 0.0000 18.4959 0.0000 0.0000
# 5 0.0000 0.0000 0.0000 0.0000 18.4128 0.0000
# 6 0.0000 0.0000 0.0000 0.0000 0.0000 24.5606
#
#
#
# Elastic Compliance Matrix: (Units=1/GPa)
#
#
# Indices 1 2 3 4 5 6 
#
# 1 0.028973 -0.001388 -0.003697 0.000000 0.000000 0.000000
# 2 -0.001388 0.008470 -0.003770 0.000000 0.000000 0.000000
# 3 -0.003697 -0.003770 0.011250 0.000000 0.000000 0.000000
# 4 0.000000 0.000000 0.000000 0.054066 0.000000 0.000000
# 5 0.000000 0.000000 0.000000 0.000000 0.054310 0.000000
# 6 0.000000 0.000000 0.000000 0.000000 0.000000 0.040716
#
#
# Mechanical properties :
#
#
# Convention : Reuss Voigt Hill
#
# Bulk Modulus (GPa) = 32.27556 51.02183 41.64870
# Shear Modulus (GPa) = 22.14114 26.29585 24.21849
#
# Velocity S-wave (km/s) = 3.35161 3.65256 3.50531
# Velocity P-wave (km/s) = 5.59935 6.60864 6.12482
#
# Compressibility (1/GPa) = 0.03098319
#
# Stress axis : x y z
#
# Youngs Moduli (GPa) = 34.51448 118.06071 88.88679
#
# Poissons Ratio (x) = 0.16384 0.32863
# Poissons Ratio (y) = 0.04790 0.33514
# Poissons Ratio (z) = 0.12760 0.44514
#
# Static dielectric constant tensor:
#      x y z
#    x 1.717590 0.000000 0.000000 
#    y 0.000000 1.697400 0.000000 
#    z 0.000000 0.000000 1.653510 
# 
# From -- ./inp_files/8800.got.cif
#   From: 2010.05.17/outbox.ucp.g08.bks.cvg/sg55_5_cif.got.tgz:8800.got - 2010.06.11 16:36:00.
