data_PCOD9429014
_publ_section_title
;
Structure prediction by ZEFSAII (Michael W. Deem and Ramdas Pophale) SiO2 
 PCOD9429014
Probable space group: P B A M
;
_chemical_formula_sum "Si O2"
_cell_formula_units_Z 58
_cell_length_a 17.108030
_cell_length_b 10.212772
_cell_length_c 14.810325
_cell_angle_alpha 90.000000
_cell_angle_beta 90.000000
_cell_angle_gamma 90.000000
_cell_volume 2587.666053
_symmetry_space_group_name_H-M "P B A M"
_symmetry_group_IT_number 55
_symmetry_cell_setting 'orthorhombic'
loop_
_space_group_symop_operation_xyz
x,y,z
-x,-y,z
1/2+x,1/2-y,-z
1/2-x,1/2+y,-z
-x,-y,-z
x,y,-z
1/2-x,1/2+y,z
1/2+x,1/2-y,z
loop_
_atom_site_type_symbol
_atom_site_label
_atom_site_fract_x
_atom_site_fract_y
_atom_site_fract_z
Si Si1 0.171653 0.639603 0.394008
Si Si2 0.019293 0.668653 0.176378
Si Si3 0.890314 0.630753 0.320779
Si Si4 0.642490 0.397921 0.603327
Si Si5 0.738253 0.164213 0.832511
Si Si6 0.500000 0.000000 0.000000
Si Si7 0.605788 0.626527 0.731845
Si Si8 0.822648 0.407468 0.099397
O O1 0.165744 0.669726 0.500000
O O2 0.129627 0.503185 0.370788
O O3 0.264345 0.615839 0.374460
O O4 0.133874 0.757447 0.336838
O O5 0.034344 0.376421 0.257981
O O6 0.985210 0.612561 0.082151
O O7 0.035932 0.820261 0.204366
O O8 0.108196 0.614494 0.170208
O O9 0.894337 0.754158 0.387150
O O10 0.820257 0.667048 0.251442
O O11 0.637199 0.444619 0.500000
O O12 0.600392 0.497177 0.671563
O O13 0.820617 0.109632 0.797808
O O14 0.755724 0.303839 0.877135
O O15 0.705265 0.054547 0.897993
O O16 0.857575 0.381889 0.000000
#
# Coordination Sequence:
#
# PCOD9429014 Si02
#       8
#     8   8   8   8   8   2   8   8
#     4  11  21  38  66 100 132 170 228 288 328 386
#     4  11  26  40  69  93 137 171 223 272 337 403
#     4  12  23  42  65 101 131 181 226 274 334 406
#     4  11  22  40  68  98 134 180 226 274 335 407
#     4  11  21  37  67  92 130 172 219 278 335 390
#     4  12  20  48  68  98 122 188 224 270 322 420
#     4  11  22  42  64 100 136 181 218 279 342 400
#     4  11  23  43  63  98 128 169 222 282 338 399
#
# _framework density 22.414021999999999
#
# number of rings (size 3 to 8) (size 9 to 14) (size 15 to 20)
#    0.000    0.828    3.448    5.379    0.000    2.759 
#    1.241    4.138    0.000    0.828    0.000    0.000 
#    0.000    0.000    0.000    0.000    0.000    0.000 
#
# Total GULP energy -323587.724325 kJ/mol
# GULP energy per Si atom -5579.098695 kJ/mol
# Density = 2.236301 g / cm^3
# Si number density = 22.414022 Si / 1000 Ang^3
#
#
#
# Elastic Constant Matrix: (Units=GPa)
#
#
# Indices 1 2 3 4 5 6 
#
# 1 30.8057 0.0324 -15.7874 0.0000 0.0000 0.0000
# 2 0.0324 92.8603 10.0760 0.0000 0.0000 0.0000
# 3 -15.7874 10.0760 62.9384 0.0000 0.0000 0.0000
# 4 0.0000 0.0000 0.0000 34.8947 0.0000 0.0000
# 5 0.0000 0.0000 0.0000 0.0000 24.5835 0.0000
# 6 0.0000 0.0000 0.0000 0.0000 0.0000 -9.1199
#
#
#
# Elastic Compliance Matrix: (Units=1/GPa)
#
#
# Indices 1 2 3 4 5 6 
#
# 1 0.037350 -0.001048 0.009537 0.000000 0.000000 0.000000
# 2 -0.001048 0.010989 -0.002022 0.000000 0.000000 0.000000
# 3 0.009537 -0.002022 0.018604 0.000000 0.000000 0.000000
# 4 0.000000 0.000000 0.000000 0.028658 0.000000 0.000000
# 5 0.000000 0.000000 0.000000 0.000000 0.040678 0.000000
# 6 0.000000 0.000000 0.000000 0.000000 0.000000 -0.109650
#
#
# Mechanical properties :
#
#
# Convention : Reuss Voigt Hill
#
# Bulk Modulus (GPa) = 12.51933 19.47183 15.99558
# Shear Modulus (GPa) = 124.00663 22.89055 73.44859
#
# Velocity S-wave (km/s) = 7.44618 3.19918 5.73063
# Velocity P-wave (km/s) = 8.91768 4.72785 7.13714
#
# Compressibility (1/GPa) = 0.07987649
#
# Stress axis : x y z
#
# Youngs Moduli (GPa) = 26.77376 91.00308 53.75066
#
# Poissons Ratio (x) = 0.09536 -0.51260
# Poissons Ratio (y) = 0.02805 0.10869
# Poissons Ratio (z) = -0.25533 0.18401
#
# Static dielectric constant tensor:
#      x y z
#    x 1.796500 0.000000 0.000000 
#    y 0.000000 1.875020 0.000000 
#    z 0.000000 0.000000 1.820330 
# 
# From -- ./inp_files/19921.got.cif
#   From: 2010.05.17/outbox.cif.g08.bks.cpg/sg55_10_cif.got.tgz:19921.got - 2010.06.03 13:27:54.
