data_PCOD9429363
_publ_section_title
;
Structure prediction by ZEFSAII (Michael W. Deem and Ramdas Pophale) SiO2 
 PCOD9429363
Probable space group: P B A M
;
_chemical_formula_sum "Si O2"
_cell_formula_units_Z 48
_cell_length_a 9.000000
_cell_length_b 18.000000
_cell_length_c 15.000000
_cell_angle_alpha 90.000000
_cell_angle_beta 90.000000
_cell_angle_gamma 90.000000
_cell_volume 2430.000000
_symmetry_space_group_name_H-M "P B A M"
_symmetry_group_IT_number 55
_symmetry_cell_setting 'orthorhombic'
loop_
_space_group_symop_operation_xyz
x,y,z
-x,-y,z
1/2+x,1/2-y,-z
1/2-x,1/2+y,-z
-x,-y,-z
x,y,-z
1/2-x,1/2+y,z
1/2+x,1/2-y,z
loop_
_atom_site_type_symbol
_atom_site_label
_atom_site_fract_x
_atom_site_fract_y
_atom_site_fract_z
Si Si1 0.334495 0.848275 0.752618
Si Si2 0.361691 0.549555 0.747524
Si Si3 0.334591 0.966168 0.397351
Si Si4 0.108774 0.728709 0.315810
Si Si5 0.108327 0.161076 0.602171
Si Si6 0.325166 0.981878 0.105679
O O1 0.329618 0.890134 0.657063
O O2 0.501736 0.816028 0.751500
O O3 0.214491 0.782957 0.742309
O O4 0.305799 0.906863 0.833061
O O5 0.500000 0.500000 0.774409
O O6 0.269833 0.516535 0.663953
O O7 0.433086 0.618116 0.694461
O O8 0.257673 0.545770 0.834949
O O9 0.287091 0.959998 0.500000
O O10 0.500000 0.000000 0.395167
O O11 0.221273 0.681067 0.376338
O O12 0.999937 0.769140 0.385701
O O13 0.093749 0.131503 0.500000
O O14 0.500000 0.000000 0.106690
O O15 0.280251 0.976218 0.000000
#
# Coordination Sequence:
#
# PCOD9429363 Si02
#       6
#     8   8   8   8   8   8
#     4  10  20  37  55  78 110 142 180 223 270 322
#     4  11  22  35  55  84 114 141 175 231 289 328
#     4  10  20  34  54  78 108 150 194 231 268 317
#     4  10  22  35  52  75 110 153 187 219 258 312
#     4  11  21  34  52  78 113 151 188 220 258 312
#     4  10  21  40  65  85 103 135 179 227 281 339
#
# _framework density 19.753086
#
# number of rings (size 3 to 8) (size 9 to 14) (size 15 to 20)
#    0.000    1.667    0.000    7.000    0.000    8.333 
#    0.000    0.833    0.000    4.000    0.000    0.000 
#    0.000    0.000    0.000    0.000    0.000    0.000 
#
# Total GULP energy -267368.853474 kJ/mol
# GULP energy per Si atom -5570.184447 kJ/mol
# Density = 1.970813 g / cm^3
# Si number density = 19.753086 Si / 1000 Ang^3
#
#
#
# Elastic Constant Matrix: (Units=GPa)
#
#
# Indices 1 2 3 4 5 6 
#
# 1 63.1652 -1.2993 7.3128 0.0000 0.0000 0.0000
# 2 -1.2993 36.4448 13.1943 0.0000 0.0000 0.0000
# 3 7.3128 13.1943 153.8753 0.0000 0.0000 0.0000
# 4 0.0000 0.0000 0.0000 15.9476 0.0000 0.0000
# 5 0.0000 0.0000 0.0000 0.0000 15.7011 0.0000
# 6 0.0000 0.0000 0.0000 0.0000 0.0000 33.7359
#
#
#
# Elastic Compliance Matrix: (Units=1/GPa)
#
#
# Indices 1 2 3 4 5 6 
#
# 1 0.015946 0.000870 -0.000832 0.000000 0.000000 0.000000
# 2 0.000870 0.028365 -0.002474 0.000000 0.000000 0.000000
# 3 -0.000832 -0.002474 0.006750 0.000000 0.000000 0.000000
# 4 0.000000 0.000000 0.000000 0.062705 0.000000 0.000000
# 5 0.000000 0.000000 0.000000 0.000000 0.063690 0.000000
# 6 0.000000 0.000000 0.000000 0.000000 0.000000 0.029642
#
#
# Mechanical properties :
#
#
# Convention : Reuss Voigt Hill
#
# Bulk Modulus (GPa) = 21.65006 32.43343 27.04175
# Shear Modulus (GPa) = 21.99084 28.69540 25.34312
#
# Velocity S-wave (km/s) = 3.34021 3.81557 3.58578
# Velocity P-wave (km/s) = 5.08529 5.98887 5.55548
#
# Compressibility (1/GPa) = 0.04618925
#
# Stress axis : x y z
#
# Youngs Moduli (GPa) = 62.71253 35.25438 148.13866
#
# Poissons Ratio (x) = -0.03067 0.12331
# Poissons Ratio (y) = -0.05455 0.36643
# Poissons Ratio (z) = 0.05220 0.08720
#
# Static dielectric constant tensor:
#      x y z
#    x 1.741240 0.000000 0.000000 
#    y 0.000000 2.027920 0.000000 
#    z 0.000000 0.000000 1.687330 
# 
# From -- ./inp_files/17376.got.cif
#   From: 2010.05.17/outbox.ucp.g08.bks.cvg/sg55_9_cif.got.tgz:17376.got - 2010.06.11 16:36:00.
