data_PCOD9429622
_publ_section_title
;
Structure prediction by ZEFSAII (Michael W. Deem and Ramdas Pophale) SiO2 
 PCOD9429622
Probable space group: P C C N
;
_chemical_formula_sum "Si O2"
_cell_formula_units_Z 56
_cell_length_a 17.519979
_cell_length_b 20.076606
_cell_length_c 8.373574
_cell_angle_alpha 90.000000
_cell_angle_beta 90.000000
_cell_angle_gamma 90.000000
_cell_volume 2945.335284
_symmetry_space_group_name_H-M "P C C N"
_symmetry_group_IT_number 56
_symmetry_cell_setting 'orthorhombic'
loop_
_space_group_symop_operation_xyz
x,y,z
1/2-x,1/2-y,z
1/2+x,-y,1/2-z
-x,1/2+y,1/2-z
-x,-y,-z
1/2+x,1/2+y,-z
1/2-x,y,1/2+z
x,1/2-y,1/2+z
loop_
_atom_site_type_symbol
_atom_site_label
_atom_site_fract_x
_atom_site_fract_y
_atom_site_fract_z
Si Si1 0.102483 0.401162 0.851462
Si Si2 0.151825 0.391534 0.331846
Si Si3 0.823439 0.048391 0.233189
Si Si4 0.517858 0.451111 0.147345
Si Si5 0.658859 0.052079 0.110434
Si Si6 0.506979 0.582645 0.328026
Si Si7 0.271655 0.173415 0.024288
O O1 0.144220 0.473394 0.853686
O O2 0.166685 0.346350 0.887098
O O3 0.048978 0.400837 0.695477
O O4 0.045667 0.398648 0.004682
O O5 0.171488 0.469195 0.305000
O O6 0.060721 0.384365 0.307464
O O7 0.194782 0.367965 0.489060
O O8 0.189836 0.350261 0.187711
O O9 0.896971 0.077498 0.139684
O O10 0.739783 0.071932 0.183942
O O11 0.835116 0.059080 0.420487
O O12 0.518584 0.503538 0.296454
O O13 0.500000 0.500000 0.000000
O O14 0.583802 0.090788 0.172654
O O15 0.250000 0.250000 0.023646
#
# Coordination Sequence:
#
# PCOD9429622 Si02
#       7
#     8   8   8   8   8   8   8
#     4  10  17  34  48  57  99 137 161 204 250 293
#     4  10  19  34  48  65  96 133 163 203 251 279
#     4  11  19  29  47  68  95 130 162 199 240 301
#     4  10  19  28  44  70  93 125 171 200 240 297
#     4  11  18  30  46  68  93 125 170 190 243 302
#     4   9  18  33  47  60  91 136 159 191 246 311
#     4  11  21  32  50  72  94 130 178 210 242 289
#
# _framework density 19.013114000000002
#
# number of rings (size 3 to 8) (size 9 to 14) (size 15 to 20)
#    0.000    1.714    7.143    1.286    4.000    2.286 
#    0.000    0.000    0.000    0.000    0.000    0.000 
#    0.000    1.143    1.143    0.000    0.000    0.000 
#
# Total GULP energy -312253.708374 kJ/mol
# GULP energy per Si atom -5575.959078 kJ/mol
# Density = 1.896984 g / cm^3
# Si number density = 19.013114 Si / 1000 Ang^3
#
#
#
# Elastic Constant Matrix: (Units=GPa)
#
#
# Indices 1 2 3 4 5 6 
#
# 1 182.7791 12.0623 34.3938 0.0000 0.0000 0.0000
# 2 12.0623 34.0150 4.2989 0.0000 0.0000 0.0000
# 3 34.3938 4.2989 44.8894 0.0000 0.0000 0.0000
# 4 0.0000 0.0000 0.0000 3.9177 0.0000 0.0000
# 5 0.0000 0.0000 0.0000 0.0000 37.5607 0.0000
# 6 0.0000 0.0000 0.0000 0.0000 0.0000 10.3073
#
#
#
# Elastic Compliance Matrix: (Units=1/GPa)
#
#
# Indices 1 2 3 4 5 6 
#
# 1 0.006488 -0.001693 -0.004809 0.000000 0.000000 0.000000
# 2 -0.001693 0.030201 -0.001595 0.000000 0.000000 0.000000
# 3 -0.004809 -0.001595 0.026114 0.000000 0.000000 0.000000
# 4 0.000000 0.000000 0.000000 0.255250 0.000000 0.000000
# 5 0.000000 0.000000 0.000000 0.000000 0.026624 0.000000
# 6 0.000000 0.000000 0.000000 0.000000 0.000000 0.097018
#
#
# Mechanical properties :
#
#
# Convention : Reuss Voigt Hill
#
# Bulk Modulus (GPa) = 21.45503 40.35484 30.90494
# Shear Modulus (GPa) = 10.56136 24.41905 17.49020
#
# Velocity S-wave (km/s) = 2.35941 3.58764 3.03628
# Velocity P-wave (km/s) = 4.32796 6.19938 5.34620
#
# Compressibility (1/GPa) = 0.04660912
#
# Stress axis : x y z
#
# Youngs Moduli (GPa) = 154.13879 33.11177 38.29356
#
# Poissons Ratio (x) = 0.05606 0.18414
# Poissons Ratio (y) = 0.26094 0.06108
# Poissons Ratio (z) = 0.74120 0.05282
#
# Static dielectric constant tensor:
#      x y z
#    x 1.767630 0.000000 0.000000 
#    y 0.000000 1.626250 0.000000 
#    z 0.000000 0.000000 1.741080 
# 
# From -- ./inp_files/4179.got.cif
#   From: 2010.05.17/outbox.cif.g08.bks.cpg/sg56_3_cif.got.tgz:4179.got - 2010.06.03 13:42:01.
