data_PCOD9429639
_publ_section_title
;
Structure prediction by ZEFSAII (Michael W. Deem and Ramdas Pophale) SiO2 
 PCOD9429639
Probable space group: P C C N
;
_chemical_formula_sum "Si O2"
_cell_formula_units_Z 56
_cell_length_a 11.700180
_cell_length_b 15.959983
_cell_length_c 14.392966
_cell_angle_alpha 90.000000
_cell_angle_beta 90.000000
_cell_angle_gamma 90.000000
_cell_volume 2687.665812
_symmetry_space_group_name_H-M "P C C N"
_symmetry_group_IT_number 56
_symmetry_cell_setting 'orthorhombic'
loop_
_space_group_symop_operation_xyz
x,y,z
1/2-x,1/2-y,z
1/2+x,-y,1/2-z
-x,1/2+y,1/2-z
-x,-y,-z
1/2+x,1/2+y,-z
1/2-x,y,1/2+z
x,1/2-y,1/2+z
loop_
_atom_site_type_symbol
_atom_site_label
_atom_site_fract_x
_atom_site_fract_y
_atom_site_fract_z
Si Si1 0.231454 0.490698 0.830412
Si Si2 0.113362 0.588545 0.993375
Si Si3 0.670824 0.447117 0.875028
Si Si4 0.032093 0.388242 0.841842
Si Si5 0.031214 0.560953 0.368565
Si Si6 0.116510 0.771678 0.186645
Si Si7 0.116151 0.744261 0.405433
O O1 0.153029 0.550527 0.894881
O O2 0.224390 0.522779 0.723872
O O3 0.358748 0.501067 0.867693
O O4 0.168448 0.401381 0.840643
O O5 0.066823 0.680635 0.965343
O O6 0.229422 0.577467 0.054281
O O7 0.020567 0.561394 0.070688
O O8 0.582489 0.518068 0.908011
O O9 0.599089 0.363639 0.852880
O O10 0.993448 0.423491 0.741403
O O11 0.973997 0.297328 0.845352
O O12 0.066094 0.650653 0.412653
O O13 0.250000 0.750000 0.164366
O O14 0.108431 0.768861 0.297646
O O15 0.250000 0.750000 0.430244
#
# Coordination Sequence:
#
# PCOD9429639 Si02
#       7
#     8   8   8   8   8   8   8
#     4  11  21  40  54  86 132 155 194 256 301 374
#     4  12  21  35  62  93 116 159 207 254 309 358
#     4  11  22  36  62  92 123 158 203 257 308 367
#     4  10  22  34  61  90 116 159 206 241 308 373
#     4  10  21  40  59  88 128 162 193 256 318 359
#     4  10  17  36  58  86 118 151 201 252 299 358
#     4  10  19  34  58  84 118 151 198 253 297 350
#
# _framework density 20.835925
#
# number of rings (size 3 to 8) (size 9 to 14) (size 15 to 20)
#    0.000    1.429    5.714    1.286    2.000    0.571 
#    0.000    0.714    0.000    0.000    0.000    3.000 
#    0.000    0.000    0.000    0.000    0.000    0.000 
#
# Total GULP energy -312186.492955 kJ/mol
# GULP energy per Si atom -5574.758803 kJ/mol
# Density = 2.078850 g / cm^3
# Si number density = 20.835925 Si / 1000 Ang^3
#
#
#
# Elastic Constant Matrix: (Units=GPa)
#
#
# Indices 1 2 3 4 5 6 
#
# 1 60.4974 28.0811 -0.2851 0.0000 0.0000 0.0000
# 2 28.0811 68.2744 3.2947 0.0000 0.0000 0.0000
# 3 -0.2851 3.2947 81.5976 0.0000 0.0000 0.0000
# 4 0.0000 0.0000 0.0000 27.2873 0.0000 0.0000
# 5 0.0000 0.0000 0.0000 0.0000 62.7648 0.0000
# 6 0.0000 0.0000 0.0000 0.0000 0.0000 25.2385
#
#
#
# Elastic Compliance Matrix: (Units=1/GPa)
#
#
# Indices 1 2 3 4 5 6 
#
# 1 0.020444 -0.008428 0.000412 0.000000 0.000000 0.000000
# 2 -0.008428 0.018150 -0.000762 0.000000 0.000000 0.000000
# 3 0.000412 -0.000762 0.012287 0.000000 0.000000 0.000000
# 4 0.000000 0.000000 0.000000 0.036647 0.000000 0.000000
# 5 0.000000 0.000000 0.000000 0.000000 0.015933 0.000000
# 6 0.000000 0.000000 0.000000 0.000000 0.000000 0.039622
#
#
# Mechanical properties :
#
#
# Convention : Reuss Voigt Hill
#
# Bulk Modulus (GPa) = 30.00879 30.28342 30.14611
# Shear Modulus (GPa) = 29.11234 35.01004 32.06119
#
# Velocity S-wave (km/s) = 3.74199 4.10356 3.92694
# Velocity P-wave (km/s) = 5.75358 6.08425 5.92122
#
# Compressibility (1/GPa) = 0.03332356
#
# Stress axis : x y z
#
# Youngs Moduli (GPa) = 48.91471 55.09606 81.38359
#
# Poissons Ratio (x) = 0.46437 -0.03351
# Poissons Ratio (y) = 0.41227 0.06204
# Poissons Ratio (z) = -0.02014 0.04200
#
# Static dielectric constant tensor:
#      x y z
#    x 1.754180 0.000000 0.000000 
#    y 0.000000 1.903460 0.000000 
#    z 0.000000 0.000000 1.794120 
# 
# From -- ./inp_files/11677.got.cif
#   From: 2010.05.17/outbox.cif.g08.bks.cpg/sg56_6_cif.got.tgz:11677.got - 2010.06.03 13:42:01.
