data_PCOD9429172
_publ_section_title
;
Structure prediction by ZEFSAII (Michael W. Deem and Ramdas Pophale) SiO2 
 PCOD9429172
Probable space group: P B A M
;
_chemical_formula_sum "Si O2"
_cell_formula_units_Z 58
_cell_length_a 15.433212
_cell_length_b 8.341121
_cell_length_c 19.217283
_cell_angle_alpha 90.000000
_cell_angle_beta 90.000000
_cell_angle_gamma 90.000000
_cell_volume 2473.846389
_symmetry_space_group_name_H-M "P B A M"
_symmetry_group_IT_number 55
_symmetry_cell_setting 'orthorhombic'
loop_
_space_group_symop_operation_xyz
x,y,z
-x,-y,z
1/2+x,1/2-y,-z
1/2-x,1/2+y,-z
-x,-y,-z
x,y,-z
1/2-x,1/2+y,z
1/2+x,1/2-y,z
loop_
_atom_site_type_symbol
_atom_site_label
_atom_site_fract_x
_atom_site_fract_y
_atom_site_fract_z
Si Si1 0.500000 0.500000 0.500000
Si Si2 0.370387 0.910898 0.783669
Si Si3 0.444438 0.302844 0.371793
Si Si4 0.618534 0.643255 0.923696
Si Si5 0.555998 0.738734 0.220788
Si Si6 0.707973 0.928113 0.580085
Si Si7 0.705768 0.995625 0.075659
Si Si8 0.149887 0.260211 0.641738
O O1 0.441498 0.417800 0.437908
O O2 0.461656 0.818971 0.785045
O O3 0.326847 0.903559 0.858761
O O4 0.325808 0.830321 0.717423
O O5 0.384374 0.101517 0.772406
O O6 0.430302 0.359531 0.292084
O O7 0.374733 0.165492 0.388075
O O8 0.453888 0.752137 0.368359
O O9 0.569951 0.644065 0.850534
O O10 0.690806 0.505701 0.922213
O O11 0.668353 0.815983 0.921905
O O12 0.573923 0.638394 0.000000
O O13 0.720557 0.884417 0.500000
O O14 0.793655 0.894612 0.625126
O O15 0.684480 0.113099 0.586130
O O16 0.678979 0.063337 0.000000
#
# Coordination Sequence:
#
# PCOD9429172 Si02
#       8
#     2   8   8   8   8   8   8   8
#     4  12  28  44  70  96 126 174 214 272 328 392
#     4   9  18  35  59  86 119 156 207 255 309 370
#     4  11  25  45  66  89 132 169 212 269 332 383
#     4   9  18  33  56  86 121 160 204 254 310 373
#     4   9  18  37  59  86 115 160 207 255 312 379
#     4  12  26  42  67  96 124 167 215 261 327 391
#     4   9  18  31  52  85 122 159 197 247 304 361
#     4  11  26  42  66  94 127 165 215 266 322 391
#
# _framework density 23.445271999999999
#
# number of rings (size 3 to 8) (size 9 to 14) (size 15 to 20)
#    0.000    1.931    2.069    0.828    5.793    1.103 
#    0.000    5.517    0.000    0.000    0.000    4.345 
#    0.000    0.000    0.000    0.000    0.000    0.000 
#
# Total GULP energy -323340.411169 kJ/mol
# GULP energy per Si atom -5574.834675 kJ/mol
# Density = 2.339191 g / cm^3
# Si number density = 23.445272 Si / 1000 Ang^3
#
#
#
# Elastic Constant Matrix: (Units=GPa)
#
#
# Indices 1 2 3 4 5 6 
#
# 1 67.2859 17.3522 50.3699 0.0000 0.0000 0.0000
# 2 17.3522 27.3881 43.3377 0.0000 0.0000 0.0000
# 3 50.3699 43.3377 227.0907 0.0000 0.0000 0.0000
# 4 0.0000 0.0000 0.0000 9.5305 0.0000 0.0000
# 5 0.0000 0.0000 0.0000 0.0000 32.1464 0.0000
# 6 0.0000 0.0000 0.0000 0.0000 0.0000 26.5761
#
#
#
# Elastic Compliance Matrix: (Units=1/GPa)
#
#
# Indices 1 2 3 4 5 6 
#
# 1 0.018875 -0.007641 -0.002728 0.000000 0.000000 0.000000
# 2 -0.007641 0.055401 -0.008878 0.000000 0.000000 0.000000
# 3 -0.002728 -0.008878 0.006703 0.000000 0.000000 0.000000
# 4 0.000000 0.000000 0.000000 0.104926 0.000000 0.000000
# 5 0.000000 0.000000 0.000000 0.000000 0.031108 0.000000
# 6 0.000000 0.000000 0.000000 0.000000 0.000000 0.037628
#
#
# Mechanical properties :
#
#
# Convention : Reuss Voigt Hill
#
# Bulk Modulus (GPa) = 23.53816 60.43160 41.98488
# Shear Modulus (GPa) = 16.27089 27.69760 21.98425
#
# Velocity S-wave (km/s) = 2.63724 3.44084 3.06548
# Velocity P-wave (km/s) = 4.39713 6.45115 5.52051
#
# Compressibility (1/GPa) = 0.04248420
#
# Stress axis : x y z
#
# Youngs Moduli (GPa) = 52.98024 18.05007 149.18891
#
# Poissons Ratio (x) = 0.13793 0.40703
# Poissons Ratio (y) = 0.40484 1.32447
# Poissons Ratio (z) = 0.14455 0.16025
#
# Static dielectric constant tensor:
#      x y z
#    x 1.915060 0.000000 0.000000 
#    y 0.000000 1.932820 0.000000 
#    z 0.000000 0.000000 1.880830 
# 
# From -- ./inp_files/21805.got.cif
#   From: 2010.05.17/outbox.cif.g08.bks.cpg/sg55_11_cif.got.tgz:21805.got - 2010.06.03 13:27:54.
