data_PCOD9429298
_publ_section_title
;
Structure prediction by ZEFSAII (Michael W. Deem and Ramdas Pophale) SiO2 
 PCOD9429298
Probable space group: P B A M
;
_chemical_formula_sum "Si O2"
_cell_formula_units_Z 64
_cell_length_a 15.000000
_cell_length_b 24.000000
_cell_length_c 9.000000
_cell_angle_alpha 90.000000
_cell_angle_beta 90.000000
_cell_angle_gamma 90.000000
_cell_volume 3240.000000
_symmetry_space_group_name_H-M "P B A M"
_symmetry_group_IT_number 55
_symmetry_cell_setting 'orthorhombic'
loop_
_space_group_symop_operation_xyz
x,y,z
-x,-y,z
1/2+x,1/2-y,-z
1/2-x,1/2+y,-z
-x,-y,-z
x,y,-z
1/2-x,1/2+y,z
1/2+x,1/2-y,z
loop_
_atom_site_type_symbol
_atom_site_label
_atom_site_fract_x
_atom_site_fract_y
_atom_site_fract_z
Si Si1 0.404297 0.859024 0.168248
Si Si2 0.439132 0.357918 0.828624
Si Si3 0.238414 0.835175 0.325926
Si Si4 0.432088 0.547192 0.180375
Si Si5 0.251382 0.091970 0.819494
Si Si6 0.541789 0.772516 0.829883
Si Si7 0.279326 0.207864 0.323811
Si Si8 0.057081 0.550270 0.825104
O O1 0.325188 0.868876 0.279759
O O2 0.446004 0.798635 0.195474
O O3 0.489399 0.898420 0.180316
O O4 0.369372 0.863063 0.000000
O O5 0.348241 0.363953 0.740488
O O6 0.520038 0.395418 0.777259
O O7 0.463158 0.293357 0.820385
O O8 0.421279 0.372658 0.000000
O O9 0.228402 0.830918 0.500000
O O10 0.245981 0.770582 0.269826
O O11 0.500000 0.500000 0.234415
O O12 0.329737 0.551818 0.227241
O O13 0.429291 0.542737 0.000000
O O14 0.238032 0.154493 0.757622
O O15 0.346361 0.067562 0.766579
O O16 0.253035 0.095675 0.000000
O O17 0.615519 0.794199 0.716511
O O18 0.569276 0.787938 0.000000
O O19 0.264277 0.204087 0.500000
O O20 0.000000 0.500000 0.756822
O O21 0.072738 0.536032 0.000000
#
# Coordination Sequence:
#
# PCOD9429298 Si02
#       8
#     8   8   8   8   8   8   8   8
#     4  10  19  32  53  83 114 144 179 223 271 323
#     4   9  18  34  55  80 108 140 179 229 276 322
#     4  10  22  36  51  78 114 152 186 222 273 330
#     4   9  19  34  56  86 111 137 183 234 279 322
#     4  10  19  34  57  81 108 143 180 230 277 321
#     4   9  17  31  52  80 110 138 176 221 273 326
#     4  10  20  34  52  77 110 146 185 224 268 326
#     4   9  18  33  54  83 113 143 181 220 268 325
#
# _framework density 19.753086
#
# number of rings (size 3 to 8) (size 9 to 14) (size 15 to 20)
#    0.000    2.500    1.250    0.750    1.750    3.000 
#    0.000    4.375    0.000    4.500    0.000    0.000 
#    0.000    0.000    0.000    0.000    0.000    0.000 
#
# Total GULP energy -356458.394429 kJ/mol
# GULP energy per Si atom -5569.662413 kJ/mol
# Density = 1.970813 g / cm^3
# Si number density = 19.753086 Si / 1000 Ang^3
#
#
#
# Elastic Constant Matrix: (Units=GPa)
#
#
# Indices 1 2 3 4 5 6 
#
# 1 98.4697 33.6669 22.1077 0.0000 0.0000 0.0000
# 2 33.6669 18.8334 9.8712 0.0000 0.0000 0.0000
# 3 22.1077 9.8712 6.9760 0.0000 0.0000 0.0000
# 4 0.0000 0.0000 0.0000 8.3166 0.0000 0.0000
# 5 0.0000 0.0000 0.0000 0.0000 -43.6863 0.0000
# 6 0.0000 0.0000 0.0000 0.0000 0.0000 17.8955
#
#
#
# Elastic Compliance Matrix: (Units=1/GPa)
#
#
# Indices 1 2 3 4 5 6 
#
# 1 0.036711 -0.017987 -0.090889 0.000000 0.000000 0.000000
# 2 -0.017987 0.214349 -0.246306 0.000000 0.000000 0.000000
# 3 -0.090889 -0.246306 0.779917 0.000000 0.000000 0.000000
# 4 0.000000 0.000000 0.000000 0.120241 0.000000 0.000000
# 5 0.000000 0.000000 0.000000 0.000000 -0.022890 0.000000
# 6 0.000000 0.000000 0.000000 0.000000 0.000000 0.055880
#
#
# Mechanical properties :
#
#
# Convention : Reuss Voigt Hill
#
# Bulk Modulus (GPa) = 3.11903 28.39675 15.75789
# Shear Modulus (GPa) = 2.49820 0.41406 1.45613
#
# Velocity S-wave (km/s) = 1.12581 0.45834 0.85951
# Velocity P-wave (km/s) = 1.80897 3.83238 2.99663
#
# Compressibility (1/GPa) = 0.32061219
#
# Stress axis : x y z
#
# Youngs Moduli (GPa) = 27.23984 4.66530 1.28219
#
# Poissons Ratio (x) = 0.08392 0.11654
# Poissons Ratio (y) = 0.48997 0.31581
# Poissons Ratio (z) = 2.47579 1.14909
#
# Static dielectric constant tensor:
#      x y z
#    x 1.734380 0.000000 0.000000 
#    y 0.000000 1.771190 0.000000 
#    z 0.000000 0.000000 1.682400 
# 
# From -- ./inp_files/6669.got.cif
#   From: 2010.05.17/outbox.ucp.g08.bks.cvg/sg55_4_cif.got.tgz:6669.got - 2010.06.11 16:36:00.
