data_PCOD9429154
_publ_section_title
;
Structure prediction by ZEFSAII (Michael W. Deem and Ramdas Pophale) SiO2 
 PCOD9429154
Probable space group: P B A M
;
_chemical_formula_sum "Si O2"
_cell_formula_units_Z 32
_cell_length_a 9.489291
_cell_length_b 9.733498
_cell_length_c 14.047623
_cell_angle_alpha 90.000000
_cell_angle_beta 90.000000
_cell_angle_gamma 90.000000
_cell_volume 1297.494580
_symmetry_space_group_name_H-M "P B A M"
_symmetry_group_IT_number 55
_symmetry_cell_setting 'orthorhombic'
loop_
_space_group_symop_operation_xyz
x,y,z
-x,-y,z
1/2+x,1/2-y,-z
1/2-x,1/2+y,-z
-x,-y,-z
x,y,-z
1/2-x,1/2+y,z
1/2+x,1/2-y,z
loop_
_atom_site_type_symbol
_atom_site_label
_atom_site_fract_x
_atom_site_fract_y
_atom_site_fract_z
Si Si1 0.684664 0.602827 0.663553
Si Si2 0.478342 0.701906 0.500000
Si Si3 0.328764 0.663469 0.785753
Si Si4 0.178477 0.558246 0.500000
Si Si5 0.950399 0.345805 0.889435
O O1 0.553140 0.639882 0.594872
O O2 0.655211 0.488223 0.743309
O O3 0.755175 0.737273 0.708173
O O4 0.795711 0.530789 0.593368
O O5 0.314363 0.664490 0.500000
O O6 0.537046 0.855386 0.500000
O O7 0.215541 0.660050 0.870748
O O8 0.468759 0.737177 0.823213
O O9 0.000000 0.500000 0.863932
O O10 0.983240 0.321234 0.000000
#
# Coordination Sequence:
#
# PCOD9429154 Si02
#       5
#     8   4   8   4   8
#     4  11  24  43  70 102 142 183 236 280 353 406
#     4  11  25  44  67  99 147 184 232 294 343 415
#     4  12  25  45  76 104 142 188 240 289 355 432
#     4  11  25  44  67  99 147 184 232 294 343 415
#     4  11  26  49  73 108 145 183 232 304 365 423
#
# _framework density 24.662915999999999
#
# number of rings (size 3 to 8) (size 9 to 14) (size 15 to 20)
#    0.000    0.750    5.000    2.250    7.000    0.000 
#    4.500    2.500    0.000    0.000    0.000    0.000 
#    0.000    0.000    0.000    0.000    0.000    0.000 
#
# Total GULP energy -179610.975297 kJ/mol
# GULP energy per Si atom -5612.842978 kJ/mol
# Density = 2.460678 g / cm^3
# Si number density = 24.662916 Si / 1000 Ang^3
#
#
#
# Elastic Constant Matrix: (Units=GPa)
#
#
# Indices 1 2 3 4 5 6 
#
# 1 125.3670 16.4692 14.2099 0.0000 0.0000 0.0000
# 2 16.4692 130.9796 34.4206 0.0000 0.0000 0.0000
# 3 14.2099 34.4206 74.9529 0.0000 0.0000 0.0000
# 4 0.0000 0.0000 0.0000 36.2354 0.0000 0.0000
# 5 0.0000 0.0000 0.0000 0.0000 5.2978 0.0000
# 6 0.0000 0.0000 0.0000 0.0000 0.0000 36.1390
#
#
#
# Elastic Compliance Matrix: (Units=1/GPa)
#
#
# Indices 1 2 3 4 5 6 
#
# 1 0.008209 -0.000709 -0.001231 0.000000 0.000000 0.000000
# 2 -0.000709 0.008744 -0.003881 0.000000 0.000000 0.000000
# 3 -0.001231 -0.003881 0.015357 0.000000 0.000000 0.000000
# 4 0.000000 0.000000 0.000000 0.027597 0.000000 0.000000
# 5 0.000000 0.000000 0.000000 0.000000 0.188759 0.000000
# 6 0.000000 0.000000 0.000000 0.000000 0.000000 0.027671
#
#
# Mechanical properties :
#
#
# Convention : Reuss Voigt Hill
#
# Bulk Modulus (GPa) = 48.38152 51.27767 49.82959
# Shear Modulus (GPa) = 16.95672 33.28109 25.11891
#
# Velocity S-wave (km/s) = 2.62494 3.67746 3.19484
# Velocity P-wave (km/s) = 5.37092 6.23443 5.81872
#
# Compressibility (1/GPa) = 0.02066905
#
# Stress axis : x y z
#
# Youngs Moduli (GPa) = 121.81450 114.36661 65.11538
#
# Poissons Ratio (x) = 0.08106 0.08015
# Poissons Ratio (y) = 0.08634 0.25272
# Poissons Ratio (z) = 0.14994 0.44386
#
# Static dielectric constant tensor:
#      x y z
#    x 1.970540 0.000000 0.000000 
#    y 0.000000 1.978520 0.000000 
#    z 0.000000 0.000000 1.903610 
# 
# From -- ./inp_files/18014.got.cif
#   From: 2010.05.17/outbox.cif.g08.bks.cpg/sg55_10_cif.got.tgz:18014.got - 2010.06.03 13:27:54.
