data_PCOD9429775
_publ_section_title
;
Structure prediction by ZEFSAII (Michael W. Deem and Ramdas Pophale) SiO2 
 PCOD9429775
Probable space group: P C C N
;
_chemical_formula_sum "Si O2"
_cell_formula_units_Z 48
_cell_length_a 13.285440
_cell_length_b 8.781252
_cell_length_c 21.867164
_cell_angle_alpha 90.000000
_cell_angle_beta 90.000000
_cell_angle_gamma 90.000000
_cell_volume 2551.084505
_symmetry_space_group_name_H-M "P C C N"
_symmetry_group_IT_number 56
_symmetry_cell_setting 'orthorhombic'
loop_
_space_group_symop_operation_xyz
x,y,z
1/2-x,1/2-y,z
1/2+x,-y,1/2-z
-x,1/2+y,1/2-z
-x,-y,-z
1/2+x,1/2+y,-z
1/2-x,y,1/2+z
x,1/2-y,1/2+z
loop_
_atom_site_type_symbol
_atom_site_label
_atom_site_fract_x
_atom_site_fract_y
_atom_site_fract_z
Si Si1 0.250000 0.750000 0.429171
Si Si2 0.657334 0.998808 0.156567
Si Si3 0.983447 0.063062 0.829064
Si Si4 0.750000 0.750000 0.571235
Si Si5 0.545121 0.079039 0.796683
Si Si6 0.403568 0.497590 0.956790
Si Si7 0.765894 0.067530 0.789730
O O1 0.194445 0.864504 0.384228
O O2 0.165282 0.649334 0.463160
O O3 0.710390 0.998452 0.222934
O O4 0.683921 0.852425 0.116814
O O5 0.539752 0.013130 0.168230
O O6 0.862781 0.030834 0.831330
O O7 0.980241 0.242931 0.809961
O O8 0.049141 0.027262 0.888767
O O9 0.029483 0.962261 0.774372
O O10 0.825372 0.641699 0.533978
O O11 0.656492 0.025445 0.814534
O O12 0.500000 0.500000 0.000000
O O13 0.750000 0.250000 0.780669
#
# Coordination Sequence:
#
# PCOD9429775 Si02
#       7
#     4   8   8   4   8   8   8
#     4  10  22  40  66  84 114 166 210 250 308 366
#     4  10  18  33  58  86 118 158 203 248 294 369
#     4  10  21  36  60  88 126 161 197 252 303 367
#     4  10  20  38  64  88 110 158 214 252 292 364
#     4  10  19  33  57  93 125 158 196 245 310 369
#     4  11  24  45  64  90 121 165 214 262 303 369
#     4   9  18  31  51  87 125 156 185 239 307 361
#
# _framework density 18.815528
#
# number of rings (size 3 to 8) (size 9 to 14) (size 15 to 20)
#    0.000    2.000    2.500    2.000    4.667    0.000 
#    4.500    5.000    0.000    0.000    0.000    0.000 
#    0.000    0.000    0.000    0.000    0.000    0.000 
#
# Total GULP energy -267492.785166 kJ/mol
# GULP energy per Si atom -5572.766358 kJ/mol
# Density = 1.877270 g / cm^3
# Si number density = 18.815528 Si / 1000 Ang^3
#
#
#
# Elastic Constant Matrix: (Units=GPa)
#
#
# Indices 1 2 3 4 5 6 
#
# 1 141.7940 22.0539 28.8415 0.0000 0.0000 0.0000
# 2 22.0539 41.5354 15.9967 0.0000 0.0000 0.0000
# 3 28.8415 15.9967 32.5371 0.0000 0.0000 0.0000
# 4 0.0000 0.0000 0.0000 2.7794 0.0000 0.0000
# 5 0.0000 0.0000 0.0000 0.0000 33.4747 0.0000
# 6 0.0000 0.0000 0.0000 0.0000 0.0000 15.5561
#
#
#
# Elastic Compliance Matrix: (Units=1/GPa)
#
#
# Indices 1 2 3 4 5 6 
#
# 1 0.008742 -0.002044 -0.006744 0.000000 0.000000 0.000000
# 2 -0.002044 0.030178 -0.013024 0.000000 0.000000 0.000000
# 3 -0.006744 -0.013024 0.043116 0.000000 0.000000 0.000000
# 4 0.000000 0.000000 0.000000 0.359791 0.000000 0.000000
# 5 0.000000 0.000000 0.000000 0.000000 0.029873 0.000000
# 6 0.000000 0.000000 0.000000 0.000000 0.000000 0.064284
#
#
# Mechanical properties :
#
#
# Convention : Reuss Voigt Hill
#
# Bulk Modulus (GPa) = 26.03528 38.85009 32.44268
# Shear Modulus (GPa) = 8.44007 20.29365 14.36686
#
# Velocity S-wave (km/s) = 2.12024 3.28770 2.76626
# Velocity P-wave (km/s) = 4.45658 5.92492 5.24241
#
# Compressibility (1/GPa) = 0.03840943
#
# Stress axis : x y z
#
# Youngs Moduli (GPa) = 114.38700 33.13721 23.19342
#
# Poissons Ratio (x) = 0.06775 0.15642
# Poissons Ratio (y) = 0.23386 0.30208
# Poissons Ratio (z) = 0.77144 0.43159
#
# Static dielectric constant tensor:
#      x y z
#    x 1.712360 0.000000 0.000000 
#    y 0.000000 1.581770 0.000000 
#    z 0.000000 0.000000 1.624250 
# 
# From -- ./inp_files/20941.got.cif
#   From: 2010.05.17/outbox.cif.g08.bks.cpg/sg56_11_cif.got.tgz:20941.got - 2010.06.03 13:42:01.
