data_PCOD9429855
_publ_section_title
;
Structure prediction by ZEFSAII (Michael W. Deem and Ramdas Pophale) SiO2 
 PCOD9429855
Probable space group: P C C N
;
_chemical_formula_sum "Si O2"
_cell_formula_units_Z 48
_cell_length_a 9.234395
_cell_length_b 11.509516
_cell_length_c 20.704559
_cell_angle_alpha 90.000000
_cell_angle_beta 90.000000
_cell_angle_gamma 90.000000
_cell_volume 2200.551278
_symmetry_space_group_name_H-M "P C C N"
_symmetry_group_IT_number 56
_symmetry_cell_setting 'orthorhombic'
loop_
_space_group_symop_operation_xyz
x,y,z
1/2-x,1/2-y,z
1/2+x,-y,1/2-z
-x,1/2+y,1/2-z
-x,-y,-z
1/2+x,1/2+y,-z
1/2-x,y,1/2+z
x,1/2-y,1/2+z
loop_
_atom_site_type_symbol
_atom_site_label
_atom_site_fract_x
_atom_site_fract_y
_atom_site_fract_z
Si Si1 0.250000 0.250000 0.318902
Si Si2 0.997127 0.905935 0.236590
Si Si3 0.250000 0.750000 0.188899
Si Si4 0.360152 0.392868 0.439807
Si Si5 0.101936 0.974968 0.633858
Si Si6 0.421305 0.479157 0.108396
Si Si7 0.949087 0.648561 0.511665
O O1 0.368057 0.183947 0.277043
O O2 0.319664 0.342914 0.368305
O O3 0.144758 0.832247 0.230547
O O4 0.004016 0.996172 0.176556
O O5 0.970571 0.972504 0.302446
O O6 0.346686 0.841405 0.147783
O O7 0.487891 0.481646 0.424575
O O8 0.205109 0.416417 0.472206
O O9 0.424168 0.282830 0.477363
O O10 0.252001 0.040606 0.620242
O O11 0.485812 0.381650 0.061661
O O12 0.443661 0.595671 0.064943
#
# Coordination Sequence:
#
# PCOD9429855 Si02
#       7
#     4   8   4   8   8   8   8
#     4  10  18  36  56  90 116 168 210 248 314 384
#     4  11  22  37  62  91 127 167 212 261 325 392
#     4  10  22  38  54  90 126 160 212 258 310 390
#     4  10  18  37  60  84 118 166 204 251 319 369
#     4  11  23  36  63  93 125 163 208 262 325 392
#     4  10  20  36  57  92 111 154 212 257 305 366
#     4   9  19  36  62  79 114 155 210 256 294 377
#
# _framework density 21.812716000000002
#
# number of rings (size 3 to 8) (size 9 to 14) (size 15 to 20)
#    0.000    2.000    5.000    1.000    4.667    0.667 
#    0.000    5.000    0.000    4.000    0.000    0.000 
#    0.000    0.000    0.000    0.000    0.000    0.000 
#
# Total GULP energy -268021.459730 kJ/mol
# GULP energy per Si atom -5583.780411 kJ/mol
# Density = 2.176307 g / cm^3
# Si number density = 21.812716 Si / 1000 Ang^3
#
#
#
# Elastic Constant Matrix: (Units=GPa)
#
#
# Indices 1 2 3 4 5 6 
#
# 1 78.7353 8.6365 30.7476 0.0000 0.0000 0.0000
# 2 8.6365 32.2300 28.5959 0.0000 0.0000 0.0000
# 3 30.7476 28.5959 119.6102 0.0000 0.0000 0.0000
# 4 0.0000 0.0000 0.0000 27.1365 0.0000 0.0000
# 5 0.0000 0.0000 0.0000 0.0000 -0.5726 0.0000
# 6 0.0000 0.0000 0.0000 0.0000 0.0000 18.6520
#
#
#
# Elastic Compliance Matrix: (Units=1/GPa)
#
#
# Indices 1 2 3 4 5 6 
#
# 1 0.014131 -0.000715 -0.003462 0.000000 0.000000 0.000000
# 2 -0.000715 0.039416 -0.009240 0.000000 0.000000 0.000000
# 3 -0.003462 -0.009240 0.011459 0.000000 0.000000 0.000000
# 4 0.000000 0.000000 0.000000 0.036851 0.000000 0.000000
# 5 0.000000 0.000000 0.000000 0.000000 -1.746317 0.000000
# 6 0.000000 0.000000 0.000000 0.000000 0.000000 0.053613
#
#
# Mechanical properties :
#
#
# Convention : Reuss Voigt Hill
#
# Bulk Modulus (GPa) = 26.19604 40.72618 33.46111
# Shear Modulus (GPa) = -3.22313 19.88289 8.32988
#
# Velocity S-wave (km/s) = -1.21690 3.02243 1.95630
# Velocity P-wave (km/s) = 3.17193 5.55801 4.52507
#
# Compressibility (1/GPa) = 0.03817370
#
# Stress axis : x y z
#
# Youngs Moduli (GPa) = 70.76612 25.37010 87.26525
#
# Poissons Ratio (x) = 0.01815 0.30208
# Poissons Ratio (y) = 0.05062 0.80630
# Poissons Ratio (z) = 0.24496 0.23441
#
# Static dielectric constant tensor:
#      x y z
#    x 1.862770 0.000000 0.000000 
#    y 0.000000 1.813240 0.000000 
#    z 0.000000 0.000000 1.772450 
# 
# From -- ./inp_files/14876.got.cif
#   From: 2010.05.17/outbox.cif.g08.bks.cpg/sg56_8_cif.got.tgz:14876.got - 2010.06.03 13:42:01.
