data_PCOD9429664
_publ_section_title
;
Structure prediction by ZEFSAII (Michael W. Deem and Ramdas Pophale) SiO2 
 PCOD9429664
Probable space group: P C C N
;
_chemical_formula_sum "Si O2"
_cell_formula_units_Z 56
_cell_length_a 26.256656
_cell_length_b 20.067971
_cell_length_c 5.413280
_cell_angle_alpha 90.000000
_cell_angle_beta 90.000000
_cell_angle_gamma 90.000000
_cell_volume 2852.353649
_symmetry_space_group_name_H-M "P C C N"
_symmetry_group_IT_number 56
_symmetry_cell_setting 'orthorhombic'
loop_
_space_group_symop_operation_xyz
x,y,z
1/2-x,1/2-y,z
1/2+x,-y,1/2-z
-x,1/2+y,1/2-z
-x,-y,-z
1/2+x,1/2+y,-z
1/2-x,y,1/2+z
x,1/2-y,1/2+z
loop_
_atom_site_type_symbol
_atom_site_label
_atom_site_fract_x
_atom_site_fract_y
_atom_site_fract_z
Si Si1 0.511350 0.896497 0.147825
Si Si2 0.930285 0.662386 0.768029
Si Si3 0.973837 0.235073 0.193399
Si Si4 0.780181 0.560232 0.675236
Si Si5 0.442739 0.532933 0.308236
Si Si6 0.317036 0.289389 0.805106
Si Si7 0.603281 0.983680 0.673512
O O1 0.563794 0.864124 0.050533
O O2 0.518194 0.971299 0.232654
O O3 0.488194 0.842415 0.325838
O O4 0.475669 0.904680 0.902535
O O5 0.877883 0.697373 0.702438
O O6 0.924836 0.589066 0.636689
O O7 0.975456 0.718301 0.759726
O O8 0.945540 0.242233 0.451441
O O9 0.749065 0.542454 0.428030
O O10 0.789355 0.639841 0.680099
O O11 0.836661 0.529587 0.667438
O O12 0.412154 0.532150 0.053164
O O13 0.411229 0.511914 0.554984
O O14 0.305571 0.252932 0.548378
#
# Coordination Sequence:
#
# PCOD9429664 Si02
#       7
#     8   8   8   8   8   8   8
#     4   9  19  31  48  70  97 130 168 206 237 279
#     4   9  19  32  48  69  96 130 170 204 234 278
#     4  10  18  28  43  63  90 122 161 196 224 262
#     4  11  23  38  55  72  91 120 162 211 265 319
#     4  10  20  33  49  70  96 126 162 204 248 287
#     4  11  22  34  49  69  96 128 162 207 254 293
#     4  10  21  36  52  70  94 124 163 210 256 296
#
# _framework density 19.632909000000001
#
# number of rings (size 3 to 8) (size 9 to 14) (size 15 to 20)
#    0.000    2.000    0.000    4.286    0.000   16.000 
#    0.000    0.000    0.000    0.000    0.000    0.000 
#    0.000    0.000    0.000    0.000    0.000  200.000 
#
# Total GULP energy -312243.157752 kJ/mol
# GULP energy per Si atom -5575.770674 kJ/mol
# Density = 1.958822 g / cm^3
# Si number density = 19.632909 Si / 1000 Ang^3
#
#
#
# Elastic Constant Matrix: (Units=GPa)
#
#
# Indices 1 2 3 4 5 6 
#
# 1 67.3657 10.7475 33.3926 0.0000 0.0000 0.0000
# 2 10.7475 48.9261 11.5637 0.0000 0.0000 0.0000
# 3 33.3926 11.5637 142.3212 0.0000 0.0000 0.0000
# 4 0.0000 0.0000 0.0000 29.6186 0.0000 0.0000
# 5 0.0000 0.0000 0.0000 0.0000 24.9981 0.0000
# 6 0.0000 0.0000 0.0000 0.0000 0.0000 23.4646
#
#
#
# Elastic Compliance Matrix: (Units=1/GPa)
#
#
# Indices 1 2 3 4 5 6 
#
# 1 0.017186 -0.002878 -0.003799 0.000000 0.000000 0.000000
# 2 -0.002878 0.021321 -0.001057 0.000000 0.000000 0.000000
# 3 -0.003799 -0.001057 0.008004 0.000000 0.000000 0.000000
# 4 0.000000 0.000000 0.000000 0.033763 0.000000 0.000000
# 5 0.000000 0.000000 0.000000 0.000000 0.040003 0.000000
# 6 0.000000 0.000000 0.000000 0.000000 0.000000 0.042617
#
#
# Mechanical properties :
#
#
# Convention : Reuss Voigt Hill
#
# Bulk Modulus (GPa) = 32.21213 41.11341 36.66277
# Shear Modulus (GPa) = 26.49590 29.14355 27.81973
#
# Velocity S-wave (km/s) = 3.67763 3.85700 3.76838
# Velocity P-wave (km/s) = 5.87164 6.38919 6.13587
#
# Compressibility (1/GPa) = 0.03104421
#
# Stress axis : x y z
#
# Youngs Moduli (GPa) = 58.18567 46.90222 124.94502
#
# Poissons Ratio (x) = 0.13496 0.47462
# Poissons Ratio (y) = 0.16743 0.13209
# Poissons Ratio (z) = 0.22102 0.04958
#
# Static dielectric constant tensor:
#      x y z
#    x 1.702170 0.000000 0.000000 
#    y 0.000000 1.713720 0.000000 
#    z 0.000000 0.000000 1.808030 
# 
# From -- ./inp_files/952.got.cif
#   From: 2010.05.17/outbox.cif.g08.bks.cpg/sg56_1_cif.got.tgz:952.got - 2010.06.03 13:42:01.
