data_PCOD9429957
_publ_section_title
;
Structure prediction by ZEFSAII (Michael W. Deem and Ramdas Pophale) SiO2 
 PCOD9429957
Probable space group: P C C N
;
_chemical_formula_sum "Si O2"
_cell_formula_units_Z 48
_cell_length_a 5.150696
_cell_length_b 15.620066
_cell_length_c 25.426057
_cell_angle_alpha 90.000000
_cell_angle_beta 90.000000
_cell_angle_gamma 90.000000
_cell_volume 2045.633367
_symmetry_space_group_name_H-M "P C C N"
_symmetry_group_IT_number 56
_symmetry_cell_setting 'orthorhombic'
loop_
_space_group_symop_operation_xyz
x,y,z
1/2-x,1/2-y,z
1/2+x,-y,1/2-z
-x,1/2+y,1/2-z
-x,-y,-z
1/2+x,1/2+y,-z
1/2-x,y,1/2+z
x,1/2-y,1/2+z
loop_
_atom_site_type_symbol
_atom_site_label
_atom_site_fract_x
_atom_site_fract_y
_atom_site_fract_z
Si Si1 0.615793 0.968952 0.846731
Si Si2 0.750000 0.750000 0.316771
Si Si3 0.068551 0.104480 0.756340
Si Si4 0.141485 0.136899 0.359752
Si Si5 0.750000 0.250000 0.523290
Si Si6 0.250000 0.750000 0.702587
Si Si7 0.385930 0.639070 0.880289
Si Si8 0.250000 0.250000 0.451772
O O1 0.604130 0.976194 0.782311
O O2 0.370718 0.906351 0.857592
O O3 0.874588 0.927125 0.870845
O O4 0.561927 0.061376 0.870500
O O5 0.761763 0.829370 0.277681
O O6 0.509360 0.775588 0.353326
O O7 0.170066 0.096901 0.815381
O O8 0.818191 0.166076 0.763243
O O9 0.275515 0.169188 0.412446
O O10 0.984637 0.216592 0.333751
O O11 0.818657 0.330223 0.561075
O O12 0.500593 0.264602 0.487227
#
# Coordination Sequence:
#
# PCOD9429957 Si02
#       8
#     8   4   8   8   4   4   8   4
#     4  11  28  42  72 105 155 183 227 292 369 411
#     4  10  18  40  68 106 136 184 232 288 342 408
#     4  11  22  38  65  99 141 193 231 276 336 419
#     4  12  27  44  64 106 148 194 238 284 341 441
#     4  12  25  49  82 100 130 178 249 311 372 424
#     4  12  21  41  66  92 148 194 253 271 322 408
#     4  11  24  47  71 109 135 176 240 311 359 429
#     4  12  26  48  74 104 132 194 242 300 358 430
#
# _framework density 23.464614999999998
#
# number of rings (size 3 to 8) (size 9 to 14) (size 15 to 20)
#    0.000    0.667    3.333    5.000    7.000    0.000 
#    0.000    5.000    0.000    0.000    0.000    0.000 
#    0.000    0.000    0.000    0.000    0.000    0.000 
#
# Total GULP energy -268189.135275 kJ/mol
# GULP energy per Si atom -5587.273652 kJ/mol
# Density = 2.341121 g / cm^3
# Si number density = 23.464615 Si / 1000 Ang^3
#
#
#
# Elastic Constant Matrix: (Units=GPa)
#
#
# Indices 1 2 3 4 5 6 
#
# 1 148.3480 20.6011 61.8234 0.0000 0.0000 0.0000
# 2 20.6011 100.4704 28.0005 0.0000 0.0000 0.0000
# 3 61.8234 28.0005 147.4585 0.0000 0.0000 0.0000
# 4 0.0000 0.0000 0.0000 27.1155 0.0000 0.0000
# 5 0.0000 0.0000 0.0000 0.0000 51.0775 0.0000
# 6 0.0000 0.0000 0.0000 0.0000 0.0000 41.3745
#
#
#
# Elastic Compliance Matrix: (Units=1/GPa)
#
#
# Indices 1 2 3 4 5 6 
#
# 1 0.008224 -0.000766 -0.003302 0.000000 0.000000 0.000000
# 2 -0.000766 0.010581 -0.001688 0.000000 0.000000 0.000000
# 3 -0.003302 -0.001688 0.008487 0.000000 0.000000 0.000000
# 4 0.000000 0.000000 0.000000 0.036879 0.000000 0.000000
# 5 0.000000 0.000000 0.000000 0.000000 0.019578 0.000000
# 6 0.000000 0.000000 0.000000 0.000000 0.000000 0.024169
#
#
# Mechanical properties :
#
#
# Convention : Reuss Voigt Hill
#
# Bulk Modulus (GPa) = 63.37816 68.56969 65.97392
# Shear Modulus (GPa) = 40.09957 42.97030 41.53494
#
# Velocity S-wave (km/s) = 4.13842 4.28399 4.21183
# Velocity P-wave (km/s) = 7.06428 7.33186 7.19931
#
# Compressibility (1/GPa) = 0.01577831
#
# Stress axis : x y z
#
# Youngs Moduli (GPa) = 121.60266 94.51205 117.83209
#
# Poissons Ratio (x) = 0.07238 0.38912
# Poissons Ratio (y) = 0.09313 0.19891
# Poissons Ratio (z) = 0.40158 0.15954
#
# Static dielectric constant tensor:
#      x y z
#    x 2.019790 0.000000 0.000000 
#    y 0.000000 1.989830 0.000000 
#    z 0.000000 0.000000 1.888320 
# 
# From -- ./inp_files/20092.got.cif
#   From: 2010.05.17/outbox.cif.g08.bks.cpg/sg56_11_cif.got.tgz:20092.got - 2010.06.03 13:42:01.
