data_PCOD9429374
_publ_section_title
;
Structure prediction by ZEFSAII (Michael W. Deem and Ramdas Pophale) SiO2 
 PCOD9429374
Probable space group: P B A M
;
_chemical_formula_sum "Si O2"
_cell_formula_units_Z 64
_cell_length_a 18.000000
_cell_length_b 21.000000
_cell_length_c 9.000000
_cell_angle_alpha 90.000000
_cell_angle_beta 90.000000
_cell_angle_gamma 90.000000
_cell_volume 3402.000000
_symmetry_space_group_name_H-M "P B A M"
_symmetry_group_IT_number 55
_symmetry_cell_setting 'orthorhombic'
loop_
_space_group_symop_operation_xyz
x,y,z
-x,-y,z
1/2+x,1/2-y,-z
1/2-x,1/2+y,-z
-x,-y,-z
x,y,-z
1/2-x,1/2+y,z
1/2+x,1/2-y,z
loop_
_atom_site_type_symbol
_atom_site_label
_atom_site_fract_x
_atom_site_fract_y
_atom_site_fract_z
Si Si1 0.915944 0.248079 0.667655
Si Si2 0.256601 0.070158 0.676662
Si Si3 0.408056 0.114763 0.176210
Si Si4 0.218145 0.432973 0.321994
Si Si5 0.444564 0.912017 0.328088
Si Si6 0.200421 0.189890 0.827991
Si Si7 0.584469 0.239164 0.338474
Si Si8 0.294326 0.312739 0.176838
O O1 0.887276 0.259376 0.500000
O O2 0.911667 0.313212 0.761129
O O3 0.873752 0.191075 0.746890
O O4 0.002389 0.233629 0.656320
O O5 0.265150 0.074076 0.500000
O O6 0.334729 0.085467 0.753591
O O7 0.203669 0.125725 0.734576
O O8 0.236923 0.997154 0.713148
O O9 0.482435 0.079559 0.231291
O O10 0.403946 0.115636 0.000000
O O11 0.219739 0.421978 0.500000
O O12 0.131738 0.445113 0.282520
O O13 0.247367 0.370712 0.240706
O O14 0.461939 0.927036 0.500000
O O15 0.423790 0.836720 0.322507
O O16 0.126065 0.228450 0.795926
O O17 0.260385 0.243482 0.782335
O O18 0.211936 0.174844 0.000000
O O19 0.621868 0.250781 0.500000
O O20 0.297024 0.316457 0.000000
#
# Coordination Sequence:
#
# PCOD9429374 Si02
#       8
#     8   8   8   8   8   8   8   8
#     4  10  20  35  57  83 111 144 184 229 274 322
#     4  11  23  38  57  79 108 150 193 233 275 325
#     4  11  21  33  51  78 113 148 185 227 274 329
#     4  10  22  39  58  80 108 148 194 233 275 327
#     4   9  18  34  54  77 108 145 186 227 269 324
#     4  11  22  35  55  84 114 146 182 226 279 333
#     4   9  18  33  56  83 109 141 182 228 275 322
#     4  11  22  35  56  86 115 146 183 226 282 333
#
# _framework density 18.812463000000001
#
# number of rings (size 3 to 8) (size 9 to 14) (size 15 to 20)
#    0.000    1.750    2.500    3.375    0.000    5.500 
#    0.000    2.500    0.000    0.750    0.000    5.250 
#    0.000    0.000    0.000    0.000    0.000    0.000 
#
# Total GULP energy -356921.437766 kJ/mol
# GULP energy per Si atom -5576.897465 kJ/mol
# Density = 1.876965 g / cm^3
# Si number density = 18.812463 Si / 1000 Ang^3
#
#
#
# Elastic Constant Matrix: (Units=GPa)
#
#
# Indices 1 2 3 4 5 6 
#
# 1 28.4846 6.4206 2.9338 0.0000 0.0000 0.0000
# 2 6.4206 14.9771 10.2419 0.0000 0.0000 0.0000
# 3 2.9338 10.2419 26.0813 0.0000 0.0000 0.0000
# 4 0.0000 0.0000 0.0000 -174.1686 0.0000 0.0000
# 5 0.0000 0.0000 0.0000 0.0000 18.2820 0.0000
# 6 0.0000 0.0000 0.0000 0.0000 0.0000 19.5361
#
#
#
# Elastic Compliance Matrix: (Units=1/GPa)
#
#
# Indices 1 2 3 4 5 6 
#
# 1 0.039031 -0.018771 0.002981 0.000000 0.000000 0.000000
# 2 -0.018771 0.100308 -0.037279 0.000000 0.000000 0.000000
# 3 0.002981 -0.037279 0.052645 0.000000 0.000000 0.000000
# 4 0.000000 0.000000 0.000000 -0.005742 0.000000 0.000000
# 5 0.000000 0.000000 0.000000 0.000000 0.054699 0.000000
# 6 0.000000 0.000000 0.000000 0.000000 0.000000 0.051187
#
#
# Mechanical properties :
#
#
# Convention : Reuss Voigt Hill
#
# Bulk Modulus (GPa) = 11.64866 12.08175 11.86521
# Shear Modulus (GPa) = 11.71287 -23.94033 -6.11373
#
# Velocity S-wave (km/s) = 2.49793 -3.57119 -1.80468
# Velocity P-wave (km/s) = 3.81116 3.25091 1.40651
#
# Compressibility (1/GPa) = 0.08584677
#
# Stress axis : x y z
#
# Youngs Moduli (GPa) = 25.62082 9.96931 18.99506
#
# Poissons Ratio (x) = 0.18713 -0.05662
# Poissons Ratio (y) = 0.48092 0.70811
# Poissons Ratio (z) = -0.07637 0.37164
#
# Static dielectric constant tensor:
#      x y z
#    x 1.732610 0.000000 0.000000 
#    y 0.000000 1.672140 0.000000 
#    z 0.000000 0.000000 1.640230 
# 
# From -- ./inp_files/7934.got.cif
#   From: 2010.05.17/outbox.ucp.g08.bks.cvg/sg55_4_cif.got.tgz:7934.got - 2010.06.11 16:36:00.
