data_PCOD9429474
_publ_section_title
;
Structure prediction by ZEFSAII (Michael W. Deem and Ramdas Pophale) SiO2 
 PCOD9429474
Probable space group: P B A M
;
_chemical_formula_sum "Si O2"
_cell_formula_units_Z 64
_cell_length_a 12.000000
_cell_length_b 30.000000
_cell_length_c 9.000000
_cell_angle_alpha 90.000000
_cell_angle_beta 90.000000
_cell_angle_gamma 90.000000
_cell_volume 3240.000000
_symmetry_space_group_name_H-M "P B A M"
_symmetry_group_IT_number 55
_symmetry_cell_setting 'orthorhombic'
loop_
_space_group_symop_operation_xyz
x,y,z
-x,-y,z
1/2+x,1/2-y,-z
1/2-x,1/2+y,-z
-x,-y,-z
x,y,-z
1/2-x,1/2+y,z
1/2+x,1/2-y,z
loop_
_atom_site_type_symbol
_atom_site_label
_atom_site_fract_x
_atom_site_fract_y
_atom_site_fract_z
Si Si1 0.538888 0.933890 0.824929
Si Si2 0.279618 0.519462 0.825191
Si Si3 0.115641 0.111311 0.819650
Si Si4 0.689943 0.063127 0.676586
Si Si5 0.294366 0.833305 0.322925
Si Si6 0.154131 0.656694 0.179529
Si Si7 0.982601 0.727939 0.821258
Si Si8 0.036355 0.819510 0.675839
O O1 0.654788 0.960076 0.808640
O O2 0.434099 0.949659 0.731562
O O3 0.569529 0.883259 0.781168
O O4 0.508943 0.935595 0.000000
O O5 0.360193 0.559943 0.776041
O O6 0.276677 0.472308 0.743548
O O7 0.298892 0.512154 0.000000
O O8 0.223597 0.141081 0.771740
O O9 0.010699 0.135272 0.747900
O O10 0.110117 0.112337 0.000000
O O11 0.696584 0.061247 0.500000
O O12 0.704494 0.114632 0.723760
O O13 0.319977 0.831635 0.500000
O O14 0.382083 0.802993 0.235744
O O15 0.168743 0.816459 0.300589
O O16 0.097539 0.702748 0.226149
O O17 0.159067 0.657152 0.000000
O O18 0.979553 0.776867 0.752028
O O19 0.979726 0.730640 0.000000
O O20 0.014744 0.819774 0.500000
#
# Coordination Sequence:
#
# PCOD9429474 Si02
#       8
#     8   8   8   8   8   8   8   8
#     4   9  16  31  52  78 114 153 187 227 287 346
#     4   9  19  34  56  83 116 155 193 239 296 352
#     4   9  19  39  62  86 116 151 198 247 290 344
#     4  11  21  33  53  82 117 155 197 243 288 342
#     4  10  24  44  60  83 122 162 198 241 293 352
#     4   8  16  32  56  85 114 144 181 233 288 340
#     4  11  22  38  64  92 115 146 193 243 296 352
#     4  11  25  43  61  83 117 157 197 241 295 354
#
# _framework density 19.753086
#
# number of rings (size 3 to 8) (size 9 to 14) (size 15 to 20)
#    0.000    2.250    1.250    3.000    1.750    4.000 
#    0.000    3.125    0.000    3.750    0.000    0.000 
#    0.000    0.000    0.000    0.000    0.000    0.000 
#
# Total GULP energy -357214.092628 kJ/mol
# GULP energy per Si atom -5581.470197 kJ/mol
# Density = 1.970813 g / cm^3
# Si number density = 19.753086 Si / 1000 Ang^3
#
#
#
# Elastic Constant Matrix: (Units=GPa)
#
#
# Indices 1 2 3 4 5 6 
#
# 1 26.0461 0.5880 17.9578 0.0000 0.0000 0.0000
# 2 0.5880 88.4744 34.5991 0.0000 0.0000 0.0000
# 3 17.9578 34.5991 41.7640 0.0000 0.0000 0.0000
# 4 0.0000 0.0000 0.0000 19.6342 0.0000 0.0000
# 5 0.0000 0.0000 0.0000 0.0000 21.4036 0.0000
# 6 0.0000 0.0000 0.0000 0.0000 0.0000 17.2322
#
#
#
# Elastic Compliance Matrix: (Units=1/GPa)
#
#
# Indices 1 2 3 4 5 6 
#
# 1 0.067065 0.016022 -0.042110 0.000000 0.000000 0.000000
# 2 0.016022 0.020547 -0.023911 0.000000 0.000000 0.000000
# 3 -0.042110 -0.023911 0.061860 0.000000 0.000000 0.000000
# 4 0.000000 0.000000 0.000000 0.050932 0.000000 0.000000
# 5 0.000000 0.000000 0.000000 0.000000 0.046721 0.000000
# 6 0.000000 0.000000 0.000000 0.000000 0.000000 0.058031
#
#
# Mechanical properties :
#
#
# Convention : Reuss Voigt Hill
#
# Bulk Modulus (GPa) = 20.21297 29.17491 24.69394
# Shear Modulus (GPa) = 11.85831 18.52998 15.19415
#
# Velocity S-wave (km/s) = 2.45281 3.06613 2.77646
# Velocity P-wave (km/s) = 4.27513 5.22846 4.77564
#
# Compressibility (1/GPa) = 0.04947319
#
# Stress axis : x y z
#
# Youngs Moduli (GPa) = 14.91089 48.66882 16.16557
#
# Poissons Ratio (x) = -0.77977 0.68073
# Poissons Ratio (y) = -0.23890 0.38654
# Poissons Ratio (z) = 0.62790 1.16373
#
# Static dielectric constant tensor:
#      x y z
#    x 1.694040 0.000000 0.000000 
#    y 0.000000 1.723010 0.000000 
#    z 0.000000 0.000000 1.657300 
# 
# From -- ./inp_files/4684.got.cif
#   From: 2010.05.17/outbox.ucp.g08.bks.cvg/sg55_3_cif.got.tgz:4684.got - 2010.06.11 16:36:00.
