data_PCOD9429900
_publ_section_title
;
Structure prediction by ZEFSAII (Michael W. Deem and Ramdas Pophale) SiO2 
 PCOD9429900
Probable space group: P C C N
;
_chemical_formula_sum "Si O2"
_cell_formula_units_Z 52
_cell_length_a 9.136488
_cell_length_b 9.893981
_cell_length_c 26.097262
_cell_angle_alpha 90.000000
_cell_angle_beta 90.000000
_cell_angle_gamma 90.000000
_cell_volume 2359.094325
_symmetry_space_group_name_H-M "P C C N"
_symmetry_group_IT_number 56
_symmetry_cell_setting 'orthorhombic'
loop_
_space_group_symop_operation_xyz
x,y,z
1/2-x,1/2-y,z
1/2+x,-y,1/2-z
-x,1/2+y,1/2-z
-x,-y,-z
1/2+x,1/2+y,-z
1/2-x,y,1/2+z
x,1/2-y,1/2+z
loop_
_atom_site_type_symbol
_atom_site_label
_atom_site_fract_x
_atom_site_fract_y
_atom_site_fract_z
Si Si1 0.442286 0.449538 0.429602
Si Si2 0.950538 0.182023 0.177842
Si Si3 0.250000 0.750000 0.229056
Si Si4 0.786190 0.968484 0.782582
Si Si5 0.040680 0.984759 0.318858
Si Si6 0.578376 0.720447 0.476818
Si Si7 0.840614 0.110840 0.074134
O O1 0.466592 0.424508 0.369259
O O2 0.538378 0.581579 0.445604
O O3 0.470654 0.322556 0.465957
O O4 0.273160 0.494021 0.440215
O O5 0.869845 0.185168 0.232672
O O6 0.884144 0.090462 0.133541
O O7 0.922286 0.335289 0.160302
O O8 0.115889 0.136832 0.186721
O O9 0.182418 0.876234 0.199997
O O10 0.845683 0.965518 0.724068
O O11 0.614777 0.953294 0.791981
O O12 0.750000 0.750000 0.473068
O O13 0.487425 0.849431 0.456305
O O14 0.750000 0.250000 0.068152
#
# Coordination Sequence:
#
# PCOD9429900 Si02
#       7
#     8   8   4   8   8   8   8
#     4  10  22  41  65  91 132 167 208 270 329 378
#     4  11  19  36  64  89 118 165 221 261 303 379
#     4  10  20  40  52  88 136 162 204 256 322 380
#     4  11  23  36  63  92 130 169 216 263 313 373
#     4  11  22  39  63  92 129 173 216 266 314 382
#     4  10  22  39  64  97 123 158 215 270 318 392
#     4  10  18  37  67  90 120 163 204 267 324 370
#
# _framework density 22.042356999999999
#
# number of rings (size 3 to 8) (size 9 to 14) (size 15 to 20)
#    0.000    1.538    5.385    1.385    2.154    0.615 
#    0.000    3.077    8.462    0.000    0.000    0.000 
#    0.000    0.000    0.000    0.000    0.000    0.000 
#
# Total GULP energy -289944.093747 kJ/mol
# GULP energy per Si atom -5575.847957 kJ/mol
# Density = 2.199219 g / cm^3
# Si number density = 22.042357 Si / 1000 Ang^3
#
#
#
# Elastic Constant Matrix: (Units=GPa)
#
#
# Indices 1 2 3 4 5 6 
#
# 1 130.8887 4.8557 38.3253 0.0000 0.0000 0.0000
# 2 4.8557 36.0291 12.3900 0.0000 0.0000 0.0000
# 3 38.3253 12.3900 61.0506 0.0000 0.0000 0.0000
# 4 0.0000 0.0000 0.0000 10.8500 0.0000 0.0000
# 5 0.0000 0.0000 0.0000 0.0000 19.7455 0.0000
# 6 0.0000 0.0000 0.0000 0.0000 0.0000 22.3025
#
#
#
# Elastic Compliance Matrix: (Units=1/GPa)
#
#
# Indices 1 2 3 4 5 6 
#
# 1 0.009383 0.000818 -0.006056 0.000000 0.000000 0.000000
# 2 0.000818 0.029909 -0.006584 0.000000 0.000000 0.000000
# 3 -0.006056 -0.006584 0.021518 0.000000 0.000000 0.000000
# 4 0.000000 0.000000 0.000000 0.092166 0.000000 0.000000
# 5 0.000000 0.000000 0.000000 0.000000 0.050644 0.000000
# 6 0.000000 0.000000 0.000000 0.000000 0.000000 0.044838
#
#
# Mechanical properties :
#
#
# Convention : Reuss Voigt Hill
#
# Bulk Modulus (GPa) = 26.90591 37.67893 32.29242
# Shear Modulus (GPa) = 17.57523 22.07275 19.82399
#
# Velocity S-wave (km/s) = 2.82678 3.16789 3.00218
# Velocity P-wave (km/s) = 4.78406 5.52374 5.16715
#
# Compressibility (1/GPa) = 0.03716655
#
# Stress axis : x y z
#
# Youngs Moduli (GPa) = 106.57471 33.43465 46.47285
#
# Poissons Ratio (x) = -0.02736 0.28146
# Poissons Ratio (y) = -0.08720 0.30596
# Poissons Ratio (z) = 0.64546 0.22012
#
# Static dielectric constant tensor:
#      x y z
#    x 1.885400 0.000000 0.000000 
#    y 0.000000 1.896450 0.000000 
#    z 0.000000 0.000000 1.867450 
# 
# From -- ./inp_files/22046.got.cif
#   From: 2010.05.17/outbox.cif.g08.bks.cpg/sg56_12_cif.got.tgz:22046.got - 2010.06.03 13:42:01.
