data_PCOD9429986
_publ_section_title
;
Structure prediction by ZEFSAII (Michael W. Deem and Ramdas Pophale) SiO2 
 PCOD9429986
Probable space group: P C C N
;
_chemical_formula_sum "Si O2"
_cell_formula_units_Z 48
_cell_length_a 13.709991
_cell_length_b 5.423482
_cell_length_c 23.955627
_cell_angle_alpha 90.000000
_cell_angle_beta 90.000000
_cell_angle_gamma 90.000000
_cell_volume 1781.241952
_symmetry_space_group_name_H-M "P C C N"
_symmetry_group_IT_number 56
_symmetry_cell_setting 'orthorhombic'
loop_
_space_group_symop_operation_xyz
x,y,z
1/2-x,1/2-y,z
1/2+x,-y,1/2-z
-x,1/2+y,1/2-z
-x,-y,-z
1/2+x,1/2+y,-z
1/2-x,y,1/2+z
x,1/2-y,1/2+z
loop_
_atom_site_type_symbol
_atom_site_label
_atom_site_fract_x
_atom_site_fract_y
_atom_site_fract_z
Si Si1 0.633317 0.005794 0.395906
Si Si2 0.848932 0.330270 0.512731
Si Si3 0.476381 0.008214 0.126762
Si Si4 0.865482 0.486127 0.274789
Si Si5 0.863903 0.669887 0.055396
Si Si6 0.915233 0.517190 0.744011
O O1 0.568935 0.758921 0.397705
O O2 0.686556 0.038746 0.454972
O O3 0.579068 0.266622 0.394256
O O4 0.686728 0.998354 0.335097
O O5 0.750000 0.250000 0.545110
O O6 0.907079 0.556706 0.540726
O O7 0.891495 0.052093 0.511932
O O8 0.587317 0.948241 0.110397
O O9 0.453566 0.021840 0.192129
O O10 0.855925 0.732728 0.239210
O O11 0.983753 0.483221 0.289673
O O12 0.855073 0.232935 0.241398
O O13 0.750000 0.750000 0.059081
#
# Coordination Sequence:
#
# PCOD9429986 Si02
#       6
#     8   8   8   8   8   8
#     4  10  19  30  48  73  94 118 156 198 236 274
#     4  10  21  35  48  65  93 128 159 189 235 288
#     4  10  19  30  48  73  94 118 156 198 236 274
#     4   8  14  25  41  64  92 116 141 180 230 277
#     4  10  21  35  48  65  93 128 159 189 235 288
#     4   8  14  25  41  64  92 116 141 180 230 277
#
# _framework density 26.947488
#
# number of rings (size 3 to 8) (size 9 to 14) (size 15 to 20)
#    0.000    2.667    0.000    2.000    0.000    4.000 
#    0.000    0.000    0.000    0.000    0.000   30.333 
#    0.000    0.000    0.000    0.000    0.000    0.000 
#
# Total GULP energy -267478.257043 kJ/mol
# GULP energy per Si atom -5572.463688 kJ/mol
# Density = 2.688615 g / cm^3
# Si number density = 26.947488 Si / 1000 Ang^3
#
#
#
# Elastic Constant Matrix: (Units=GPa)
#
#
# Indices 1 2 3 4 5 6 
#
# 1 71.1347 38.1878 20.0378 0.0000 0.0000 0.0000
# 2 38.1878 314.0782 26.0162 0.0000 0.0000 0.0000
# 3 20.0378 26.0162 53.8789 0.0000 0.0000 0.0000
# 4 0.0000 0.0000 0.0000 37.6173 0.0000 0.0000
# 5 0.0000 0.0000 0.0000 0.0000 3.1929 0.0000
# 6 0.0000 0.0000 0.0000 0.0000 0.0000 21.9100
#
#
#
# Elastic Compliance Matrix: (Units=1/GPa)
#
#
# Indices 1 2 3 4 5 6 
#
# 1 0.016397 -0.001551 -0.005349 0.000000 0.000000 0.000000
# 2 -0.001551 0.003463 -0.001096 0.000000 0.000000 0.000000
# 3 -0.005349 -0.001096 0.021079 0.000000 0.000000 0.000000
# 4 0.000000 0.000000 0.000000 0.026584 0.000000 0.000000
# 5 0.000000 0.000000 0.000000 0.000000 0.313190 0.000000
# 6 0.000000 0.000000 0.000000 0.000000 0.000000 0.045641
#
#
# Mechanical properties :
#
#
# Convention : Reuss Voigt Hill
#
# Bulk Modulus (GPa) = 40.08377 67.50839 53.79608
# Shear Modulus (GPa) = 11.09482 36.20072 23.64777
#
# Velocity S-wave (km/s) = 2.03129 3.66919 2.96556
# Velocity P-wave (km/s) = 4.51759 6.56177 5.63318
#
# Compressibility (1/GPa) = 0.02494775
#
# Stress axis : x y z
#
# Youngs Moduli (GPa) = 60.98638 288.75024 47.44133
#
# Poissons Ratio (x) = 0.44773 0.25379
# Poissons Ratio (y) = 0.09456 0.05198
# Poissons Ratio (z) = 0.32624 0.31635
#
# Static dielectric constant tensor:
#      x y z
#    x 2.247180 0.000000 0.000000 
#    y 0.000000 2.287510 0.000000 
#    z 0.000000 0.000000 2.163670 
# 
# From -- ./inp_files/22485.got.cif
#   From: 2010.05.17/outbox.cif.g08.bks.cpg/sg56_12_cif.got.tgz:22485.got - 2010.06.03 13:42:01.
