data_PCOD9429348
_publ_section_title
;
Structure prediction by ZEFSAII (Michael W. Deem and Ramdas Pophale) SiO2 
 PCOD9429348
Probable space group: P B A M
;
_chemical_formula_sum "Si O2"
_cell_formula_units_Z 64
_cell_length_a 15.000000
_cell_length_b 24.000000
_cell_length_c 9.000000
_cell_angle_alpha 90.000000
_cell_angle_beta 90.000000
_cell_angle_gamma 90.000000
_cell_volume 3240.000000
_symmetry_space_group_name_H-M "P B A M"
_symmetry_group_IT_number 55
_symmetry_cell_setting 'orthorhombic'
loop_
_space_group_symop_operation_xyz
x,y,z
-x,-y,z
1/2+x,1/2-y,-z
1/2-x,1/2+y,-z
-x,-y,-z
x,y,-z
1/2-x,1/2+y,z
1/2+x,1/2-y,z
loop_
_atom_site_type_symbol
_atom_site_label
_atom_site_fract_x
_atom_site_fract_y
_atom_site_fract_z
Si Si1 0.354885 0.846875 0.832573
Si Si2 0.968189 0.827663 0.676714
Si Si3 0.250804 0.042294 0.672948
Si Si4 0.653798 0.839773 0.659074
Si Si5 0.059261 0.054350 0.822295
Si Si6 0.468335 0.226666 0.163397
Si Si7 0.406722 0.970797 0.180023
Si Si8 0.805451 0.750735 0.664780
O O1 0.435079 0.802138 0.835720
O O2 0.392065 0.905902 0.776250
O O3 0.287426 0.808649 0.740845
O O4 0.322176 0.856296 0.000000
O O5 0.967823 0.836186 0.500000
O O6 0.976707 0.887392 0.754647
O O7 0.875006 0.797704 0.724569
O O8 0.035788 0.778692 0.725258
O O9 0.240275 0.026253 0.500000
O O10 0.289524 0.104868 0.675628
O O11 0.156626 0.043192 0.754515
O O12 0.323754 0.004103 0.752813
O O13 0.604466 0.843496 0.500000
O O14 0.590970 0.826152 0.794280
O O15 0.716769 0.786315 0.654737
O O16 0.064346 0.060118 0.000000
O O17 0.000000 0.000000 0.787575
O O18 0.447597 0.247811 0.000000
O O19 0.500000 0.000000 0.227821
O O20 0.405477 0.973072 0.000000
O O21 0.841259 0.737303 0.500000
#
# Coordination Sequence:
#
# PCOD9429348 Si02
#       8
#     8   8   8   8   8   8   8   8
#     4   9  19  35  54  79 112 147 187 232 284 345
#     4  10  19  37  61  85 115 151 189 241 302 357
#     4  11  23  40  63  91 122 160 211 260 306 367
#     4  10  20  36  55  82 115 147 190 241 293 353
#     4  11  24  42  64  89 118 157 207 261 313 369
#     4  10  20  34  56  88 117 150 194 238 290 356
#     4  10  21  39  61  87 124 166 204 248 304 364
#     4   9  18  34  56  79 109 144 183 230 286 346
#
# _framework density 19.753086
#
# number of rings (size 3 to 8) (size 9 to 14) (size 15 to 20)
#    0.000    2.000    1.250    2.250    0.000    5.250 
#    2.250    0.000    0.000    0.000    0.000    0.000 
#    0.000    0.000    0.000    0.000    0.000    0.000 
#
# Total GULP energy -356311.946844 kJ/mol
# GULP energy per Si atom -5567.374169 kJ/mol
# Density = 1.970813 g / cm^3
# Si number density = 19.753086 Si / 1000 Ang^3
#
#
#
# Elastic Constant Matrix: (Units=GPa)
#
#
# Indices 1 2 3 4 5 6 
#
# 1 29.4849 23.1684 25.6639 0.0000 0.0000 0.0000
# 2 23.1684 136.0488 54.1407 0.0000 0.0000 0.0000
# 3 25.6639 54.1407 38.6306 0.0000 0.0000 0.0000
# 4 0.0000 0.0000 0.0000 21.9457 0.0000 0.0000
# 5 0.0000 0.0000 0.0000 0.0000 26.2051 0.0000
# 6 0.0000 0.0000 0.0000 0.0000 0.0000 22.8642
#
#
#
# Elastic Compliance Matrix: (Units=1/GPa)
#
#
# Indices 1 2 3 4 5 6 
#
# 1 0.102961 0.021902 -0.099097 0.000000 0.000000 0.000000
# 2 0.021902 0.021278 -0.044372 0.000000 0.000000 0.000000
# 3 -0.099097 -0.044372 0.153908 0.000000 0.000000 0.000000
# 4 0.000000 0.000000 0.000000 0.045567 0.000000 0.000000
# 5 0.000000 0.000000 0.000000 0.000000 0.038160 0.000000
# 6 0.000000 0.000000 0.000000 0.000000 0.000000 0.043737
#
#
# Mechanical properties :
#
#
# Convention : Reuss Voigt Hill
#
# Bulk Modulus (GPa) = 28.56066 45.56781 37.06424
# Shear Modulus (GPa) = 7.57097 20.94907 14.26002
#
# Velocity S-wave (km/s) = 1.95988 3.26014 2.68976
# Velocity P-wave (km/s) = 4.42851 6.10656 5.33394
#
# Compressibility (1/GPa) = 0.03501319
#
# Stress axis : x y z
#
# Youngs Moduli (GPa) = 9.71244 46.99584 6.49737
#
# Poissons Ratio (x) = -1.02931 0.64387
# Poissons Ratio (y) = -0.21272 0.28830
# Poissons Ratio (z) = 0.96247 2.08531
#
# Static dielectric constant tensor:
#      x y z
#    x 1.767030 0.000000 0.000000 
#    y 0.000000 1.681440 0.000000 
#    z 0.000000 0.000000 1.758440 
# 
# From -- ./inp_files/6611.got.cif
#   From: 2010.05.17/outbox.ucp.g08.bks.cvg/sg55_4_cif.got.tgz:6611.got - 2010.06.11 16:36:00.
