data_PCOD9429040
_publ_section_title
;
Structure prediction by ZEFSAII (Michael W. Deem and Ramdas Pophale) SiO2 
 PCOD9429040
Probable space group: P B A M
;
_chemical_formula_sum "Si O2"
_cell_formula_units_Z 32
_cell_length_a 13.522805
_cell_length_b 7.609506
_cell_length_c 12.667034
_cell_angle_alpha 90.000000
_cell_angle_beta 90.000000
_cell_angle_gamma 90.000000
_cell_volume 1303.461433
_symmetry_space_group_name_H-M "P B A M"
_symmetry_group_IT_number 55
_symmetry_cell_setting 'orthorhombic'
loop_
_space_group_symop_operation_xyz
x,y,z
-x,-y,z
1/2+x,1/2-y,-z
1/2-x,1/2+y,-z
-x,-y,-z
x,y,-z
1/2-x,1/2+y,z
1/2+x,1/2-y,z
loop_
_atom_site_type_symbol
_atom_site_label
_atom_site_fract_x
_atom_site_fract_y
_atom_site_fract_z
Si Si1 0.873761 0.193793 0.226425
Si Si2 0.000000 0.500000 0.811105
Si Si3 0.140501 0.940348 0.000000
Si Si4 0.129883 0.353867 0.000000
Si Si5 0.826572 0.571745 0.500000
Si Si6 0.193897 0.145173 0.333171
O O1 0.873579 0.011493 0.290029
O O2 0.761809 0.267588 0.242128
O O3 0.950796 0.344977 0.256208
O O4 0.896898 0.151082 0.105503
O O5 0.081567 0.427049 0.892721
O O6 0.257737 0.914617 0.000000
O O7 0.119078 0.145164 0.000000
O O8 0.775430 0.443335 0.590104
O O9 0.858468 0.710807 0.405755
#
# Coordination Sequence:
#
# PCOD9429040 Si02
#       6
#     8   4   4   4   4   8
#     4  11  22  36  58  87 120 156 193 235 289 347
#     4  11  24  38  52  83 124 156 192 237 286 341
#     4  12  23  40  62  86 118 156 201 236 268 340
#     4  11  23  39  58  79 116 165 199 233 276 322
#     4   8  16  34  62  86 106 137 202 258 282 329
#     4   9  18  35  61  87 110 148 197 245 291 339
#
# _framework density 24.550018999999999
#
# number of rings (size 3 to 8) (size 9 to 14) (size 15 to 20)
#    0.000    1.750    0.000    6.000    0.000    4.000 
#    0.000    0.000    0.000   28.500    0.000    0.000 
#    0.000    0.000    0.000    0.000    0.000    0.000 
#
# Total GULP energy -178176.371027 kJ/mol
# GULP energy per Si atom -5568.011595 kJ/mol
# Density = 2.449414 g / cm^3
# Si number density = 24.550019 Si / 1000 Ang^3
#
#
#
# Elastic Constant Matrix: (Units=GPa)
#
#
# Indices 1 2 3 4 5 6 
#
# 1 63.2746 13.2125 8.9540 0.0000 0.0000 0.0000
# 2 13.2125 101.1739 35.2755 0.0000 0.0000 0.0000
# 3 8.9540 35.2755 99.8029 0.0000 0.0000 0.0000
# 4 0.0000 0.0000 0.0000 107.3427 0.0000 0.0000
# 5 0.0000 0.0000 0.0000 0.0000 -6.0800 0.0000
# 6 0.0000 0.0000 0.0000 0.0000 0.0000 -78.6642
#
#
#
# Elastic Compliance Matrix: (Units=1/GPa)
#
#
# Indices 1 2 3 4 5 6 
#
# 1 0.016304 -0.001847 -0.000810 0.000000 0.000000 0.000000
# 2 -0.001847 0.011482 -0.003893 0.000000 0.000000 0.000000
# 3 -0.000810 -0.003893 0.011468 0.000000 0.000000 0.000000
# 4 0.000000 0.000000 0.000000 0.009316 0.000000 0.000000
# 5 0.000000 0.000000 0.000000 0.000000 -0.164474 0.000000
# 6 0.000000 0.000000 0.000000 0.000000 0.000000 -0.012712
#
#
# Mechanical properties :
#
#
# Convention : Reuss Voigt Hill
#
# Bulk Modulus (GPa) = 38.23226 42.12615 40.17921
# Shear Modulus (GPa) = -46.81781 18.30699 -14.25541
#
# Velocity S-wave (km/s) = -4.37170 2.73372 -2.41232
# Velocity P-wave (km/s) = 3.14251 5.21161 2.93985
#
# Compressibility (1/GPa) = 0.02615592
#
# Stress axis : x y z
#
# Youngs Moduli (GPa) = 61.33318 87.08971 87.19668
#
# Poissons Ratio (x) = 0.16084 0.07063
# Poissons Ratio (y) = 0.11327 0.33944
# Poissons Ratio (z) = 0.04968 0.33902
#
# Static dielectric constant tensor:
#      x y z
#    x 1.971630 0.000000 0.000000 
#    y 0.000000 1.998140 0.000000 
#    z 0.000000 0.000000 1.878930 
# 
# From -- ./inp_files/16887.got.cif
#   From: 2010.05.17/outbox.cif.g08.bks.cpg/sg55_9_cif.got.tgz:16887.got - 2010.06.03 13:27:54.
