data_PCOD9429883
_publ_section_title
;
Structure prediction by ZEFSAII (Michael W. Deem and Ramdas Pophale) SiO2 
 PCOD9429883
Probable space group: P C C N
;
_chemical_formula_sum "Si O2"
_cell_formula_units_Z 52
_cell_length_a 18.650675
_cell_length_b 14.192855
_cell_length_c 9.799796
_cell_angle_alpha 90.000000
_cell_angle_beta 90.000000
_cell_angle_gamma 90.000000
_cell_volume 2594.067994
_symmetry_space_group_name_H-M "P C C N"
_symmetry_group_IT_number 56
_symmetry_cell_setting 'orthorhombic'
loop_
_space_group_symop_operation_xyz
x,y,z
1/2-x,1/2-y,z
1/2+x,-y,1/2-z
-x,1/2+y,1/2-z
-x,-y,-z
1/2+x,1/2+y,-z
1/2-x,y,1/2+z
x,1/2-y,1/2+z
loop_
_atom_site_type_symbol
_atom_site_label
_atom_site_fract_x
_atom_site_fract_y
_atom_site_fract_z
Si Si1 0.920662 0.754771 0.177321
Si Si2 0.833722 0.919464 0.063284
Si Si3 0.750000 0.250000 0.105777
Si Si4 0.620030 0.372846 0.011323
Si Si5 0.696336 0.599078 0.745827
Si Si6 0.634583 0.103097 0.201393
Si Si7 0.514474 0.288666 0.564262
O O1 0.895309 0.843307 0.087512
O O2 0.853933 0.686303 0.206214
O O3 0.954581 0.789029 0.318880
O O4 0.979742 0.703232 0.084129
O O5 0.773577 0.896959 0.175688
O O6 0.801862 0.909292 0.910352
O O7 0.864208 0.025332 0.075147
O O8 0.701207 0.175459 0.187714
O O9 0.693036 0.312028 0.022312
O O10 0.602472 0.386072 0.852483
O O11 0.557398 0.310537 0.076147
O O12 0.661430 0.502902 0.689001
O O13 0.574458 0.133107 0.094036
#
# Coordination Sequence:
#
# PCOD9429883 Si02
#       7
#     8   8   4   8   8   8   8
#     4  12  25  44  65  92 132 177 217 262 314 389
#     4  11  25  44  68  96 128 174 218 268 321 380
#     4  10  18  36  64  98 128 166 202 274 310 390
#     4  10  21  40  66  96 129 168 212 263 328 384
#     4  11  25  44  67  97 127 172 219 269 321 378
#     4  10  21  40  65  96 131 162 217 265 324 383
#     4  11  24  43  66  97 129 174 213 263 326 382
#
# _framework density 20.045735000000001
#
# number of rings (size 3 to 8) (size 9 to 14) (size 15 to 20)
#    0.000    1.231    4.615    0.923    2.154    3.692 
#    2.769    0.000    0.000    0.000    0.000    0.000 
#    0.000    0.000    0.000    0.000    0.000    0.000 
#
# Total GULP energy -290543.600248 kJ/mol
# GULP energy per Si atom -5587.376928 kJ/mol
# Density = 2.000011 g / cm^3
# Si number density = 20.045735 Si / 1000 Ang^3
#
#
#
# Elastic Constant Matrix: (Units=GPa)
#
#
# Indices 1 2 3 4 5 6 
#
# 1 31.4975 0.1445 -5.6802 0.0000 0.0000 0.0000
# 2 0.1445 73.4627 -9.5993 0.0000 0.0000 0.0000
# 3 -5.6802 -9.5993 35.7713 0.0000 0.0000 0.0000
# 4 0.0000 0.0000 0.0000 22.6003 0.0000 0.0000
# 5 0.0000 0.0000 0.0000 0.0000 34.3600 0.0000
# 6 0.0000 0.0000 0.0000 0.0000 0.0000 21.3709
#
#
#
# Elastic Compliance Matrix: (Units=1/GPa)
#
#
# Indices 1 2 3 4 5 6 
#
# 1 0.032713 0.000637 0.005365 0.000000 0.000000 0.000000
# 2 0.000637 0.014119 0.003890 0.000000 0.000000 0.000000
# 3 0.005365 0.003890 0.029851 0.000000 0.000000 0.000000
# 4 0.000000 0.000000 0.000000 0.044247 0.000000 0.000000
# 5 0.000000 0.000000 0.000000 0.000000 0.029104 0.000000
# 6 0.000000 0.000000 0.000000 0.000000 0.000000 0.046793
#
#
# Mechanical properties :
#
#
# Convention : Reuss Voigt Hill
#
# Bulk Modulus (GPa) = 10.36607 12.27349 11.31978
# Shear Modulus (GPa) = 23.90069 26.05733 24.97901
#
# Velocity S-wave (km/s) = 3.45673 3.60932 3.53385
# Velocity P-wave (km/s) = 4.59504 4.84826 4.72334
#
# Compressibility (1/GPa) = 0.09646859
#
# Stress axis : x y z
#
# Youngs Moduli (GPa) = 30.56864 70.82442 33.49937
#
# Poissons Ratio (x) = -0.04510 -0.17974
# Poissons Ratio (y) = -0.01946 -0.13032
# Poissons Ratio (z) = -0.16401 -0.27551
#
# Static dielectric constant tensor:
#      x y z
#    x 1.704750 0.000000 0.000000 
#    y 0.000000 1.692860 0.000000 
#    z 0.000000 0.000000 1.680100 
# 
# From -- ./inp_files/3534.got.cif
#   From: 2010.05.17/outbox.cif.g08.bks.cpg/sg56_2_cif.got.tgz:3534.got - 2010.06.03 13:42:01.
