data_PCOD9429048
_publ_section_title
;
Structure prediction by ZEFSAII (Michael W. Deem and Ramdas Pophale) SiO2 
 PCOD9429048
Probable space group: P B A M
;
_chemical_formula_sum "Si O2"
_cell_formula_units_Z 56
_cell_length_a 13.596706
_cell_length_b 8.714394
_cell_length_c 21.878446
_cell_angle_alpha 90.000000
_cell_angle_beta 90.000000
_cell_angle_gamma 90.000000
_cell_volume 2592.312595
_symmetry_space_group_name_H-M "P B A M"
_symmetry_group_IT_number 55
_symmetry_cell_setting 'orthorhombic'
loop_
_space_group_symop_operation_xyz
x,y,z
-x,-y,z
1/2+x,1/2-y,-z
1/2-x,1/2+y,-z
-x,-y,-z
x,y,-z
1/2-x,1/2+y,z
1/2+x,1/2-y,z
loop_
_atom_site_type_symbol
_atom_site_label
_atom_site_fract_x
_atom_site_fract_y
_atom_site_fract_z
Si Si1 0.058041 0.163906 0.709105
Si Si2 0.393589 0.193896 0.631610
Si Si3 0.783116 0.992957 0.928789
Si Si4 0.013933 0.678288 0.500000
Si Si5 0.441854 0.663200 0.151827
Si Si6 0.784863 0.997807 0.629181
Si Si7 0.384794 0.563155 0.500000
Si Si8 0.398529 0.186758 0.928940
O O1 0.153811 0.121307 0.670556
O O2 0.987301 0.283908 0.674852
O O3 0.078586 0.209901 0.778652
O O4 0.000000 0.000000 0.709615
O O5 0.429358 0.218627 0.562101
O O6 0.329830 0.039967 0.634923
O O7 0.319636 0.333108 0.647107
O O8 0.668520 0.961626 0.915930
O O9 0.845683 0.880534 0.886149
O O10 0.826032 0.164339 0.922477
O O11 0.798140 0.949721 0.000000
O O12 0.000000 0.500000 0.500000
O O13 0.907823 0.756930 0.500000
O O14 0.500000 0.500000 0.153903
O O15 0.511518 0.780881 0.115818
O O16 0.823855 0.975907 0.560062
O O17 0.500000 0.500000 0.500000
O O18 0.430966 0.182960 0.000000
#
# Coordination Sequence:
#
# PCOD9429048 Si02
#       8
#     8   8   8   4   8   8   4   8
#     4   9  19  37  55  77 108 146 183 229 272 318
#     4  11  23  39  58  86 111 145 182 223 276 330
#     4   9  17  30  50  77 107 138 177 224 274 323
#     4  12  25  38  62  87 115 139 177 225 272 320
#     4   9  17  31  54  76 102 142 189 222 264 323
#     4  11  22  37  60  81 112 145 182 223 277 328
#     4  12  19  40  62  79 113 147 170 222 274 322
#     4   9  17  30  50  77 107 138 175 224 272 321
#
# _framework density 21.602333000000002
#
# number of rings (size 3 to 8) (size 9 to 14) (size 15 to 20)
#    0.000    2.000    2.857    1.286    2.000    2.857 
#    0.000    0.714    0.000    6.857    0.000    0.000 
#    0.000    0.000    0.000    0.000    0.000    0.000 
#
# Total GULP energy -312790.390900 kJ/mol
# GULP energy per Si atom -5585.542695 kJ/mol
# Density = 2.155317 g / cm^3
# Si number density = 21.602333 Si / 1000 Ang^3
#
#
#
# Elastic Constant Matrix: (Units=GPa)
#
#
# Indices 1 2 3 4 5 6 
#
# 1 55.0510 17.8768 47.2495 0.0000 0.0000 0.0000
# 2 17.8768 47.5335 8.3675 0.0000 0.0000 0.0000
# 3 47.2495 8.3675 113.4350 0.0000 0.0000 0.0000
# 4 0.0000 0.0000 0.0000 -0.1274 0.0000 0.0000
# 5 0.0000 0.0000 0.0000 0.0000 -5.8373 0.0000
# 6 0.0000 0.0000 0.0000 0.0000 0.0000 49.4077
#
#
#
# Elastic Compliance Matrix: (Units=1/GPa)
#
#
# Indices 1 2 3 4 5 6 
#
# 1 0.032304 -0.009909 -0.012725 0.000000 0.000000 0.000000
# 2 -0.009909 0.024354 0.002331 0.000000 0.000000 0.000000
# 3 -0.012725 0.002331 0.013944 0.000000 0.000000 0.000000
# 4 0.000000 0.000000 0.000000 -7.852296 0.000000 0.000000
# 5 0.000000 0.000000 0.000000 0.000000 -0.171312 0.000000
# 6 0.000000 0.000000 0.000000 0.000000 0.000000 0.020240
#
#
# Mechanical properties :
#
#
# Convention : Reuss Voigt Hill
#
# Bulk Modulus (GPa) = 33.33738 40.33414 36.83576
# Shear Modulus (GPa) = -0.63434 18.19032 8.77799
#
# Velocity S-wave (km/s) = -0.54248 2.90496 2.01799
# Velocity P-wave (km/s) = 3.88245 5.47389 4.74536
#
# Compressibility (1/GPa) = 0.02999636
#
# Stress axis : x y z
#
# Youngs Moduli (GPa) = 30.95546 41.06060 71.71529
#
# Poissons Ratio (x) = 0.40688 0.91257
# Poissons Ratio (y) = 0.30675 -0.16717
# Poissons Ratio (z) = 0.39391 -0.09572
#
# Static dielectric constant tensor:
#      x y z
#    x 1.759200 0.000000 0.000000 
#    y 0.000000 1.841000 0.000000 
#    z 0.000000 0.000000 1.745800 
# 
# From -- ./inp_files/22992.got.cif
#   From: 2010.05.17/outbox.cif.g08.bks.cpg/sg55_12_cif.got.tgz:22992.got - 2010.06.03 13:27:54.
