data_PCOD9429334
_publ_section_title
;
Structure prediction by ZEFSAII (Michael W. Deem and Ramdas Pophale) SiO2 
 PCOD9429334
Probable space group: P B A M
;
_chemical_formula_sum "Si O2"
_cell_formula_units_Z 64
_cell_length_a 30.000000
_cell_length_b 12.000000
_cell_length_c 9.000000
_cell_angle_alpha 90.000000
_cell_angle_beta 90.000000
_cell_angle_gamma 90.000000
_cell_volume 3240.000000
_symmetry_space_group_name_H-M "P B A M"
_symmetry_group_IT_number 55
_symmetry_cell_setting 'orthorhombic'
loop_
_space_group_symop_operation_xyz
x,y,z
-x,-y,z
1/2+x,1/2-y,-z
1/2-x,1/2+y,-z
-x,-y,-z
x,y,-z
1/2-x,1/2+y,z
1/2+x,1/2-y,z
loop_
_atom_site_type_symbol
_atom_site_label
_atom_site_fract_x
_atom_site_fract_y
_atom_site_fract_z
Si Si1 0.586350 0.213062 0.835383
Si Si2 0.315386 0.162439 0.823161
Si Si3 0.914820 0.288818 0.820180
Si Si4 0.872546 0.917025 0.323215
Si Si5 0.545388 0.572612 0.680402
Si Si6 0.780749 0.803928 0.323966
Si Si7 0.551921 0.013710 0.665019
Si Si8 0.318405 0.901974 0.835331
O O1 0.598094 0.311901 0.725605
O O2 0.632125 0.144768 0.848732
O O3 0.554644 0.125428 0.760551
O O4 0.572879 0.251560 0.000000
O O5 0.361661 0.224391 0.779561
O O6 0.268214 0.185638 0.745839
O O7 0.321743 0.030612 0.796581
O O8 0.310175 0.180003 0.000000
O O9 0.947796 0.193995 0.754642
O O10 0.928399 0.408016 0.751775
O O11 0.917464 0.291036 0.000000
O O12 0.868500 0.925291 0.500000
O O13 0.821526 0.887208 0.268698
O O14 0.906785 0.014876 0.276622
O O15 0.500000 0.500000 0.720246
O O16 0.544038 0.582690 0.500000
O O17 0.777844 0.818788 0.500000
O O18 0.795446 0.678758 0.281904
O O19 0.573196 0.025102 0.500000
O O20 0.500000 0.000000 0.645352
O O21 0.296832 0.891372 0.000000
#
# Coordination Sequence:
#
# PCOD9429334 Si02
#       8
#     8   8   8   8   8   8   8   8
#     4  10  19  35  60  88 117 149 192 245 300 352
#     4  10  21  39  60  84 119 159 197 244 306 368
#     4  11  24  43  64  91 124 156 204 258 306 362
#     4   9  20  39  59  84 122 162 206 255 304 365
#     4  10  23  43  65  88 124 171 213 255 310 375
#     4  10  21  35  56  89 120 154 204 255 304 361
#     4  11  24  39  59  88 122 158 195 238 302 372
#     4   9  18  36  57  79 114 154 192 236 296 361
#
# _framework density 19.753086
#
# number of rings (size 3 to 8) (size 9 to 14) (size 15 to 20)
#    0.000    2.000    1.250    1.500    1.750    5.250 
#    0.000    2.500    0.000    0.000    0.000    0.000 
#    0.000    0.000    0.000    0.000    0.000    0.000 
#
# Total GULP energy -356290.305665 kJ/mol
# GULP energy per Si atom -5567.036026 kJ/mol
# Density = 1.970813 g / cm^3
# Si number density = 19.753086 Si / 1000 Ang^3
#
#
#
# Elastic Constant Matrix: (Units=GPa)
#
#
# Indices 1 2 3 4 5 6 
#
# 1 82.2360 13.2517 26.8363 0.0000 0.0000 0.0000
# 2 13.2517 18.2380 -3.6786 0.0000 0.0000 0.0000
# 3 26.8363 -3.6786 -7.0499 0.0000 0.0000 0.0000
# 4 0.0000 0.0000 0.0000 22.4819 0.0000 0.0000
# 5 0.0000 0.0000 0.0000 0.0000 14.7889 0.0000
# 6 0.0000 0.0000 0.0000 0.0000 0.0000 18.6719
#
#
#
# Elastic Compliance Matrix: (Units=1/GPa)
#
#
# Indices 1 2 3 4 5 6 
#
# 1 0.005424 0.000202 0.020542 0.000000 0.000000 0.000000
# 2 0.000202 0.049617 -0.025120 0.000000 0.000000 0.000000
# 3 0.020542 -0.025120 -0.050543 0.000000 0.000000 0.000000
# 4 0.000000 0.000000 0.000000 0.044480 0.000000 0.000000
# 5 0.000000 0.000000 0.000000 0.000000 0.067618 0.000000
# 6 0.000000 0.000000 0.000000 0.000000 0.000000 0.053556
#
#
# Mechanical properties :
#
#
# Convention : Reuss Voigt Hill
#
# Bulk Modulus (GPa) = -235.01629 18.47143 -108.27243
# Shear Modulus (GPa) = 28.17115 14.98951 21.58033
#
# Velocity S-wave (km/s) = 3.78056 2.75770 3.30889
# Velocity P-wave (km/s) = 10.00892 4.41717 6.35087
#
# Compressibility (1/GPa) = -0.00425502
#
# Stress axis : x y z
#
# Youngs Moduli (GPa) = 184.36403 20.15448 -19.78494
#
# Poissons Ratio (x) = -0.00408 0.40642
# Poissons Ratio (y) = -0.03728 -0.49700
# Poissons Ratio (z) = -3.78719 0.50629
#
# Static dielectric constant tensor:
#      x y z
#    x 1.751450 0.000000 0.000000 
#    y 0.000000 1.701730 0.000000 
#    z 0.000000 0.000000 1.708740 
# 
# From -- ./inp_files/4624.got.cif
#   From: 2010.05.17/outbox.ucp.g08.bks.cvg/sg55_3_cif.got.tgz:4624.got - 2010.06.11 16:36:00.
