data_PCOD9429692
_publ_section_title
;
Structure prediction by ZEFSAII (Michael W. Deem and Ramdas Pophale) SiO2 
 PCOD9429692
Probable space group: P C C N
;
_chemical_formula_sum "Si O2"
_cell_formula_units_Z 56
_cell_length_a 5.579547
_cell_length_b 24.939457
_cell_length_c 18.303568
_cell_angle_alpha 90.000000
_cell_angle_beta 90.000000
_cell_angle_gamma 90.000000
_cell_volume 2546.957457
_symmetry_space_group_name_H-M "P C C N"
_symmetry_group_IT_number 56
_symmetry_cell_setting 'orthorhombic'
loop_
_space_group_symop_operation_xyz
x,y,z
1/2-x,1/2-y,z
1/2+x,-y,1/2-z
-x,1/2+y,1/2-z
-x,-y,-z
1/2+x,1/2+y,-z
1/2-x,y,1/2+z
x,1/2-y,1/2+z
loop_
_atom_site_type_symbol
_atom_site_label
_atom_site_fract_x
_atom_site_fract_y
_atom_site_fract_z
Si Si1 0.477912 0.944652 0.415385
Si Si2 0.808604 0.118123 0.494347
Si Si3 0.806756 0.952548 0.560140
Si Si4 0.998664 0.734029 0.707377
Si Si5 0.510427 0.116989 0.353241
Si Si6 0.699790 0.006555 0.291165
Si Si7 0.502635 0.775363 0.039495
O O1 0.326070 0.890923 0.429438
O O2 0.628377 0.947481 0.490734
O O3 0.660187 0.960211 0.352045
O O4 0.274849 0.990829 0.407842
O O5 0.630511 0.134526 0.429493
O O6 0.004433 0.163999 0.489618
O O7 0.931955 0.061978 0.469153
O O8 0.740295 0.909356 0.622458
O O9 0.250000 0.750000 0.743110
O O10 0.994462 0.670298 0.693479
O O11 0.997936 0.766153 0.628289
O O12 0.750000 0.750000 0.744638
O O13 0.660843 0.067045 0.321593
O O14 0.966436 0.001658 0.260069
O O15 0.250000 0.750000 0.014070
O O16 0.750000 0.750000 0.013929
#
# Coordination Sequence:
#
# PCOD9429692 Si02
#       7
#     8   8   8   8   8   8   8
#     4   9  21  35  54  85 112 155 199 237 294 357
#     4  11  19  31  61  85 125 158 183 241 303 376
#     4   9  18  32  54  85 118 150 185 231 297 371
#     4  10  18  30  50  83 123 145 182 228 290 371
#     4  10  21  35  56  88 120 161 190 243 313 359
#     4  11  27  44  60  81 118 162 213 261 294 350
#     4  10  19  31  47  82 127 153 179 215 284 367
#
# _framework density 21.987016000000001
#
# number of rings (size 3 to 8) (size 9 to 14) (size 15 to 20)
#    0.000    2.000    2.857    3.000    8.000    0.000 
#    0.000    0.000    0.000    0.000    0.000    4.000 
#    0.000    0.000    0.000    0.000    0.000    0.000 
#
# Total GULP energy -312122.907805 kJ/mol
# GULP energy per Si atom -5573.623354 kJ/mol
# Density = 2.193697 g / cm^3
# Si number density = 21.987016 Si / 1000 Ang^3
#
#
#
# Elastic Constant Matrix: (Units=GPa)
#
#
# Indices 1 2 3 4 5 6 
#
# 1 123.6889 17.6000 14.1898 0.0000 0.0000 0.0000
# 2 17.6000 68.5069 12.0103 0.0000 0.0000 0.0000
# 3 14.1898 12.0103 28.0220 0.0000 0.0000 0.0000
# 4 0.0000 0.0000 0.0000 9.5233 0.0000 0.0000
# 5 0.0000 0.0000 0.0000 0.0000 28.9074 0.0000
# 6 0.0000 0.0000 0.0000 0.0000 0.0000 35.0233
#
#
#
# Elastic Compliance Matrix: (Units=1/GPa)
#
#
# Indices 1 2 3 4 5 6 
#
# 1 0.008741 -0.001589 -0.003745 0.000000 0.000000 0.000000
# 2 -0.001589 0.016072 -0.006084 0.000000 0.000000 0.000000
# 3 -0.003745 -0.006084 0.040190 0.000000 0.000000 0.000000
# 4 0.000000 0.000000 0.000000 0.105006 0.000000 0.000000
# 5 0.000000 0.000000 0.000000 0.000000 0.034593 0.000000
# 6 0.000000 0.000000 0.000000 0.000000 0.000000 0.028552
#
#
# Mechanical properties :
#
#
# Convention : Reuss Voigt Hill
#
# Bulk Modulus (GPa) = 23.71524 34.20201 28.95863
# Shear Modulus (GPa) = 18.51539 26.45196 22.48367
#
# Velocity S-wave (km/s) = 2.90505 3.47230 3.20126
# Velocity P-wave (km/s) = 4.69701 5.62718 5.18300
#
# Compressibility (1/GPa) = 0.04216697
#
# Stress axis : x y z
#
# Youngs Moduli (GPa) = 114.40957 62.22046 24.88171
#
# Poissons Ratio (x) = 0.09887 0.09318
# Poissons Ratio (y) = 0.18179 0.15138
# Poissons Ratio (z) = 0.42846 0.37854
#
# Static dielectric constant tensor:
#      x y z
#    x 1.867480 0.000000 0.000000 
#    y 0.000000 1.898700 0.000000 
#    z 0.000000 0.000000 1.823710 
# 
# From -- ./inp_files/17630.got.cif
#   From: 2010.05.17/outbox.cif.g08.bks.cpg/sg56_9_cif.got.tgz:17630.got - 2010.06.03 13:42:01.
