data_PCOD9429141
_publ_section_title
;
Structure prediction by ZEFSAII (Michael W. Deem and Ramdas Pophale) SiO2 
 PCOD9429141
Probable space group: P B A M
;
_chemical_formula_sum "Si O2"
_cell_formula_units_Z 40
_cell_length_a 9.413659
_cell_length_b 10.103181
_cell_length_c 19.971816
_cell_angle_alpha 90.000000
_cell_angle_beta 90.000000
_cell_angle_gamma 90.000000
_cell_volume 1899.477494
_symmetry_space_group_name_H-M "P B A M"
_symmetry_group_IT_number 55
_symmetry_cell_setting 'orthorhombic'
loop_
_space_group_symop_operation_xyz
x,y,z
-x,-y,z
1/2+x,1/2-y,-z
1/2-x,1/2+y,-z
-x,-y,-z
x,y,-z
1/2-x,1/2+y,z
1/2+x,1/2-y,z
loop_
_atom_site_type_symbol
_atom_site_label
_atom_site_fract_x
_atom_site_fract_y
_atom_site_fract_z
Si Si1 0.704722 0.258881 0.339995
Si Si2 0.930253 0.641617 0.078249
Si Si3 0.457127 0.154292 0.576710
Si Si4 0.605803 0.612448 0.120236
Si Si5 0.659666 0.511862 0.729986
O O1 0.797702 0.317491 0.400418
O O2 0.550334 0.234652 0.370137
O O3 0.756457 0.118394 0.312871
O O4 0.719329 0.364907 0.280232
O O5 0.759320 0.636691 0.086536
O O6 0.000000 0.500000 0.095477
O O7 0.010236 0.755272 0.120048
O O8 0.961948 0.668426 0.000000
O O9 0.480782 0.195398 0.500000
O O10 0.500000 0.000000 0.581503
O O11 0.500000 0.500000 0.090159
O O12 0.646821 0.560582 0.194095
O O13 0.500000 0.500000 0.703375
#
# Coordination Sequence:
#
# PCOD9429141 Si02
#       5
#     8   8   8   8   8
#     4  12  23  45  66  97 133 179 222 283 341 411
#     4  11  25  45  72 103 139 183 232 289 350 412
#     4  11  24  42  66  99 134 175 229 287 348 408
#     4  11  26  45  68 106 140 183 233 285 349 421
#     4  11  26  42  67 100 137 176 226 276 346 409
#
# _framework density 21.058420999999999
#
# number of rings (size 3 to 8) (size 9 to 14) (size 15 to 20)
#    0.000    0.800    4.000    2.400    8.400    3.200 
#    0.000    1.000    0.000    0.000    0.000    0.000 
#    0.000    0.000    0.000    0.000    0.000    0.000 
#
# Total GULP energy -223438.219154 kJ/mol
# GULP energy per Si atom -5585.955479 kJ/mol
# Density = 2.101049 g / cm^3
# Si number density = 21.058421 Si / 1000 Ang^3
#
#
#
# Elastic Constant Matrix: (Units=GPa)
#
#
# Indices 1 2 3 4 5 6 
#
# 1 86.6521 23.6747 -0.3375 0.0000 0.0000 0.0000
# 2 23.6747 107.6481 30.9997 0.0000 0.0000 0.0000
# 3 -0.3375 30.9997 73.1269 0.0000 0.0000 0.0000
# 4 0.0000 0.0000 0.0000 23.4624 0.0000 0.0000
# 5 0.0000 0.0000 0.0000 0.0000 30.7819 0.0000
# 6 0.0000 0.0000 0.0000 0.0000 0.0000 26.5409
#
#
#
# Elastic Compliance Matrix: (Units=1/GPa)
#
#
# Indices 1 2 3 4 5 6 
#
# 1 0.012400 -0.003125 0.001382 0.000000 0.000000 0.000000
# 2 -0.003125 0.011369 -0.004834 0.000000 0.000000 0.000000
# 3 0.001382 -0.004834 0.015730 0.000000 0.000000 0.000000
# 4 0.000000 0.000000 0.000000 0.042621 0.000000 0.000000
# 5 0.000000 0.000000 0.000000 0.000000 0.032487 0.000000
# 6 0.000000 0.000000 0.000000 0.000000 0.000000 0.037678
#
#
# Mechanical properties :
#
#
# Convention : Reuss Voigt Hill
#
# Bulk Modulus (GPa) = 37.95777 41.78896 39.87337
# Shear Modulus (GPa) = 28.69937 30.36306 29.53122
#
# Velocity S-wave (km/s) = 3.69568 3.80129 3.74886
# Velocity P-wave (km/s) = 6.02286 6.25730 6.14120
#
# Compressibility (1/GPa) = 0.02634507
#
# Stress axis : x y z
#
# Youngs Moduli (GPa) = 80.64793 87.96004 63.57122
#
# Poissons Ratio (x) = 0.27487 -0.08785
# Poissons Ratio (y) = 0.25202 0.30729
# Poissons Ratio (z) = -0.11145 0.42518
#
# Static dielectric constant tensor:
#      x y z
#    x 1.753340 0.000000 0.000000 
#    y 0.000000 1.762060 0.000000 
#    z 0.000000 0.000000 1.739410 
# 
# From -- ./inp_files/23404.got.cif
#   From: 2010.05.17/outbox.cif.g08.bks.cpg/sg55_12_cif.got.tgz:23404.got - 2010.06.03 13:27:54.
