data_PCOD9429859
_publ_section_title
;
Structure prediction by ZEFSAII (Michael W. Deem and Ramdas Pophale) SiO2 
 PCOD9429859
Probable space group: P C C N
;
_chemical_formula_sum "Si O2"
_cell_formula_units_Z 36
_cell_length_a 8.739646
_cell_length_b 11.903906
_cell_length_c 18.707885
_cell_angle_alpha 90.000000
_cell_angle_beta 90.000000
_cell_angle_gamma 90.000000
_cell_volume 1946.292111
_symmetry_space_group_name_H-M "P C C N"
_symmetry_group_IT_number 56
_symmetry_cell_setting 'orthorhombic'
loop_
_space_group_symop_operation_xyz
x,y,z
1/2-x,1/2-y,z
1/2+x,-y,1/2-z
-x,1/2+y,1/2-z
-x,-y,-z
1/2+x,1/2+y,-z
1/2-x,y,1/2+z
x,1/2-y,1/2+z
loop_
_atom_site_type_symbol
_atom_site_label
_atom_site_fract_x
_atom_site_fract_y
_atom_site_fract_z
Si Si1 0.988471 0.132986 0.491709
Si Si2 0.989073 0.294382 0.297967
Si Si3 0.313125 0.596144 0.641493
Si Si4 0.250000 0.250000 0.399456
Si Si5 0.105337 0.166772 0.640395
O O1 0.137317 0.178412 0.449427
O O2 0.996840 0.183152 0.571098
O O3 0.845703 0.144699 0.438111
O O4 0.000000 0.000000 0.500000
O O5 0.850400 0.369229 0.327680
O O6 0.937312 0.165021 0.311422
O O7 0.138351 0.317568 0.346136
O O8 0.022222 0.312609 0.215307
O O9 0.338944 0.463125 0.640938
O O10 0.250000 0.250000 0.634699
#
# Coordination Sequence:
#
# PCOD9429859 Si02
#       5
#     8   8   8   4   8
#     4   9  19  37  59  83 119 157 198 254 302 358
#     4  10  21  38  60  86 120 161 197 246 307 368
#     4   9  22  40  59  86 126 159 197 252 309 358
#     4  10  18  36  60  78 116 164 198 234 316 360
#     4  11  21  35  64  92 117 156 210 254 296 361
#
# _framework density 18.496708999999999
#
# number of rings (size 3 to 8) (size 9 to 14) (size 15 to 20)
#    0.000    2.222    2.222    0.000    3.111    1.778 
#    0.000   13.333    4.889    0.000    0.000    0.000 
#    0.000    0.000    0.000    0.000    0.000    0.000 
#
# Total GULP energy -200546.101395 kJ/mol
# GULP energy per Si atom -5570.725039 kJ/mol
# Density = 1.845461 g / cm^3
# Si number density = 18.496709 Si / 1000 Ang^3
#
#
#
# Elastic Constant Matrix: (Units=GPa)
#
#
# Indices 1 2 3 4 5 6 
#
# 1 47.8590 26.7912 54.7581 0.0000 0.0000 0.0000
# 2 26.7912 100.8372 43.8572 0.0000 0.0000 0.0000
# 3 54.7581 43.8572 195.5886 0.0000 0.0000 0.0000
# 4 0.0000 0.0000 0.0000 17.2435 0.0000 0.0000
# 5 0.0000 0.0000 0.0000 0.0000 -7.1438 0.0000
# 6 0.0000 0.0000 0.0000 0.0000 0.0000 16.4354
#
#
#
# Elastic Compliance Matrix: (Units=1/GPa)
#
#
# Indices 1 2 3 4 5 6 
#
# 1 0.033097 -0.005278 -0.008082 0.000000 0.000000 0.000000
# 2 -0.005278 0.011830 -0.001175 0.000000 0.000000 0.000000
# 3 -0.008082 -0.001175 0.007639 0.000000 0.000000 0.000000
# 4 0.000000 0.000000 0.000000 0.057993 0.000000 0.000000
# 5 0.000000 0.000000 0.000000 0.000000 -0.139981 0.000000
# 6 0.000000 0.000000 0.000000 0.000000 0.000000 0.060844
#
#
# Mechanical properties :
#
#
# Convention : Reuss Voigt Hill
#
# Bulk Modulus (GPa) = 42.56210 66.12198 54.34204
# Shear Modulus (GPa) = 73.17922 19.89891 46.53907
#
# Velocity S-wave (km/s) = 6.29677 3.28351 5.02149
# Velocity P-wave (km/s) = 8.71357 7.08525 7.94126
#
# Compressibility (1/GPa) = 0.02349508
#
# Stress axis : x y z
#
# Youngs Moduli (GPa) = 30.21425 84.52819 130.90587
#
# Poissons Ratio (x) = 0.44615 1.05805
# Poissons Ratio (y) = 0.15947 0.15382
# Poissons Ratio (z) = 0.24421 0.09933
#
# Static dielectric constant tensor:
#      x y z
#    x 1.634430 0.000000 0.000000 
#    y 0.000000 1.632430 0.000000 
#    z 0.000000 0.000000 1.672320 
# 
# From -- ./inp_files/12040.got.cif
#   From: 2010.05.17/outbox.cif.g08.bks.cpg/sg56_7_cif.got.tgz:12040.got - 2010.06.03 13:42:01.
