data_PCOD9429272
_publ_section_title
;
Structure prediction by ZEFSAII (Michael W. Deem and Ramdas Pophale) SiO2 
 PCOD9429272
Probable space group: P B A M
;
_chemical_formula_sum "Si O2"
_cell_formula_units_Z 64
_cell_length_a 24.000000
_cell_length_b 15.000000
_cell_length_c 9.000000
_cell_angle_alpha 90.000000
_cell_angle_beta 90.000000
_cell_angle_gamma 90.000000
_cell_volume 3240.000000
_symmetry_space_group_name_H-M "P B A M"
_symmetry_group_IT_number 55
_symmetry_cell_setting 'orthorhombic'
loop_
_space_group_symop_operation_xyz
x,y,z
-x,-y,z
1/2+x,1/2-y,-z
1/2-x,1/2+y,-z
-x,-y,-z
x,y,-z
1/2-x,1/2+y,z
1/2+x,1/2-y,z
loop_
_atom_site_type_symbol
_atom_site_label
_atom_site_fract_x
_atom_site_fract_y
_atom_site_fract_z
Si Si1 0.873668 0.896994 0.821786
Si Si2 0.476015 0.905179 0.820801
Si Si3 0.747421 0.153868 0.180580
Si Si4 0.948810 0.255309 0.322628
Si Si5 0.665072 0.807345 0.820154
Si Si6 0.252476 0.547563 0.180026
Si Si7 0.624897 0.202978 0.819153
Si Si8 0.441431 0.448897 0.329393
O O1 0.896495 0.800767 0.769374
O O2 0.808557 0.900206 0.781386
O O3 0.901013 0.985985 0.759242
O O4 0.878811 0.900211 0.000000
O O5 0.507884 0.820282 0.756183
O O6 0.412457 0.882120 0.780354
O O7 0.500000 0.000000 0.768291
O O8 0.481076 0.904601 0.000000
O O9 0.795783 0.222949 0.215401
O O10 0.755982 0.053383 0.234749
O O11 0.687670 0.188631 0.232065
O O12 0.745415 0.151096 0.000000
O O13 0.956942 0.256520 0.500000
O O14 0.890157 0.295476 0.272505
O O15 0.949295 0.151724 0.272012
O O16 0.698443 0.896461 0.778166
O O17 0.654693 0.808427 0.000000
O O18 0.251489 0.544331 0.000000
O O19 0.625515 0.206910 0.000000
O O20 0.500000 0.500000 0.328332
O O21 0.421807 0.441902 0.500000
#
# Coordination Sequence:
#
# PCOD9429272 Si02
#       8
#     8   8   8   8   8   8   8   8
#     4  10  18  32  55  86 114 138 177 229 282 330
#     4  10  22  38  59  86 111 146 196 240 280 333
#     4   9  16  28  50  81 113 142 173 222 278 326
#     4  11  24  40  57  79 113 151 187 233 284 334
#     4  10  19  34  57  84 112 144 185 226 274 338
#     4   9  17  28  49  80 110 141 176 217 273 336
#     4   9  17  31  52  81 115 141 174 230 284 328
#     4  10  22  39  57  78 107 148 190 225 275 340
#
# _framework density 19.753086
#
# number of rings (size 3 to 8) (size 9 to 14) (size 15 to 20)
#    0.000    2.250    1.250    1.875    1.750    2.500 
#    0.000    0.625    0.000    1.500    0.000    0.000 
#    0.000    0.000    0.000    0.000    0.000    0.000 
#
# Total GULP energy -356797.876959 kJ/mol
# GULP energy per Si atom -5574.966827 kJ/mol
# Density = 1.970813 g / cm^3
# Si number density = 19.753086 Si / 1000 Ang^3
#
#
#
# Elastic Constant Matrix: (Units=GPa)
#
#
# Indices 1 2 3 4 5 6 
#
# 1 42.5167 -4.3706 0.2691 0.0000 0.0000 0.0000
# 2 -4.3706 46.0224 0.7033 0.0000 0.0000 0.0000
# 3 0.2691 0.7033 -4.8096 0.0000 0.0000 0.0000
# 4 0.0000 0.0000 0.0000 16.0837 0.0000 0.0000
# 5 0.0000 0.0000 0.0000 0.0000 45.8722 0.0000
# 6 0.0000 0.0000 0.0000 0.0000 0.0000 29.0460
#
#
#
# Elastic Compliance Matrix: (Units=1/GPa)
#
#
# Indices 1 2 3 4 5 6 
#
# 1 0.023739 0.002229 0.001654 0.000000 0.000000 0.000000
# 2 0.002229 0.021889 0.003326 0.000000 0.000000 0.000000
# 3 0.001654 0.003326 -0.207340 0.000000 0.000000 0.000000
# 4 0.000000 0.000000 0.000000 0.062175 0.000000 0.000000
# 5 0.000000 0.000000 0.000000 0.000000 0.021800 0.000000
# 6 0.000000 0.000000 0.000000 0.000000 0.000000 0.034428
#
#
# Mechanical properties :
#
#
# Convention : Reuss Voigt Hill
#
# Bulk Modulus (GPa) = -6.78915 8.54813 0.87949
# Shear Modulus (GPa) = -46.80540 24.00888 -11.39826
#
# Velocity S-wave (km/s) = -4.87306 3.49011 -2.40476
# Velocity P-wave (km/s) = 5.92509 4.53631 2.69524
#
# Compressibility (1/GPa) = -0.14729385
#
# Stress axis : x y z
#
# Youngs Moduli (GPa) = 42.12504 45.68415 -4.82299
#
# Poissons Ratio (x) = -0.10184 0.00798
# Poissons Ratio (y) = -0.09390 0.01604
# Poissons Ratio (z) = -0.06969 -0.15193
#
# Static dielectric constant tensor:
#      x y z
#    x 1.743640 0.000000 0.000000 
#    y 0.000000 1.705390 0.000000 
#    z 0.000000 0.000000 1.674990 
# 
# From -- ./inp_files/9730.got.cif
#   From: 2010.05.17/outbox.ucp.g08.bks.cvg/sg55_5_cif.got.tgz:9730.got - 2010.06.11 16:36:00.
