data_PCOD9429647
_publ_section_title
;
Structure prediction by ZEFSAII (Michael W. Deem and Ramdas Pophale) SiO2 
 PCOD9429647
Probable space group: P C C N
;
_chemical_formula_sum "Si O2"
_cell_formula_units_Z 48
_cell_length_a 16.732784
_cell_length_b 7.802821
_cell_length_c 16.754111
_cell_angle_alpha 90.000000
_cell_angle_beta 90.000000
_cell_angle_gamma 90.000000
_cell_volume 2187.465627
_symmetry_space_group_name_H-M "P C C N"
_symmetry_group_IT_number 56
_symmetry_cell_setting 'orthorhombic'
loop_
_space_group_symop_operation_xyz
x,y,z
1/2-x,1/2-y,z
1/2+x,-y,1/2-z
-x,1/2+y,1/2-z
-x,-y,-z
1/2+x,1/2+y,-z
1/2-x,y,1/2+z
x,1/2-y,1/2+z
loop_
_atom_site_type_symbol
_atom_site_label
_atom_site_fract_x
_atom_site_fract_y
_atom_site_fract_z
Si Si1 0.674847 0.373420 0.399506
Si Si2 0.269449 0.542301 0.435425
Si Si3 0.095994 0.416705 0.408346
Si Si4 0.528416 0.247074 0.003514
Si Si5 0.570378 0.422210 0.252577
Si Si6 0.573147 0.436086 0.657481
O O1 0.750000 0.250000 0.381257
O O2 0.703195 0.490453 0.473490
O O3 0.599705 0.275848 0.440060
O O4 0.638418 0.449838 0.319214
O O5 0.250000 0.750000 0.431834
O O6 0.189771 0.438467 0.419031
O O7 0.339053 0.508949 0.371566
O O8 0.053887 0.582603 0.448422
O O9 0.076911 0.434834 0.315696
O O10 0.053889 0.265852 0.456510
O O11 0.528077 0.109557 0.074309
O O12 0.483702 0.440351 0.292716
O O13 0.581958 0.238084 0.210050
#
# Coordination Sequence:
#
# PCOD9429647 Si02
#       6
#     8   8   8   8   8   8
#     4  10  19  33  56  89 110 149 212 251 288 360
#     4  10  17  37  57  88 116 157 215 245 287 366
#     4  10  18  34  56  88 118 159 197 254 302 356
#     4   9  18  34  58  81 121 161 199 241 303 368
#     4  11  22  35  59  93 123 149 203 258 312 345
#     4  10  22  38  60  90 123 163 200 257 301 366
#
# _framework density 21.943201999999999
#
# number of rings (size 3 to 8) (size 9 to 14) (size 15 to 20)
#    0.000    2.000    6.667    1.000    2.333    2.667 
#    0.000    0.000    0.000   11.000    0.000    0.000 
#    0.000    0.000    0.000    0.000    0.000    0.000 
#
# Total GULP energy -268203.364786 kJ/mol
# GULP energy per Si atom -5587.570100 kJ/mol
# Density = 2.189326 g / cm^3
# Si number density = 21.943202 Si / 1000 Ang^3
#
#
#
# Elastic Constant Matrix: (Units=GPa)
#
#
# Indices 1 2 3 4 5 6 
#
# 1 188.3352 37.1039 92.1829 0.0000 0.0000 0.0000
# 2 37.1039 56.1927 28.6183 0.0000 0.0000 0.0000
# 3 92.1829 28.6183 150.9322 0.0000 0.0000 0.0000
# 4 0.0000 0.0000 0.0000 16.5432 0.0000 0.0000
# 5 0.0000 0.0000 0.0000 0.0000 38.8373 0.0000
# 6 0.0000 0.0000 0.0000 0.0000 0.0000 32.3713
#
#
#
# Elastic Compliance Matrix: (Units=1/GPa)
#
#
# Indices 1 2 3 4 5 6 
#
# 1 0.008036 -0.003106 -0.004319 0.000000 0.000000 0.000000
# 2 -0.003106 0.020899 -0.002065 0.000000 0.000000 0.000000
# 3 -0.004319 -0.002065 0.009655 0.000000 0.000000 0.000000
# 4 0.000000 0.000000 0.000000 0.060448 0.000000 0.000000
# 5 0.000000 0.000000 0.000000 0.000000 0.025748 0.000000
# 6 0.000000 0.000000 0.000000 0.000000 0.000000 0.030892
#
#
# Mechanical properties :
#
#
# Convention : Reuss Voigt Hill
#
# Bulk Modulus (GPa) = 50.99905 79.03006 65.01456
# Shear Modulus (GPa) = 27.59466 33.38733 30.49099
#
# Velocity S-wave (km/s) = 3.55004 3.90492 3.73170
# Velocity P-wave (km/s) = 6.33211 7.51166 6.94697
#
# Compressibility (1/GPa) = 0.01960821
#
# Stress axis : x y z
#
# Youngs Moduli (GPa) = 124.44722 47.84934 103.57506
#
# Poissons Ratio (x) = 0.14864 0.44732
# Poissons Ratio (y) = 0.38658 0.21393
# Poissons Ratio (z) = 0.53746 0.09883
#
# Static dielectric constant tensor:
#      x y z
#    x 1.782300 0.000000 0.000000 
#    y 0.000000 1.915780 0.000000 
#    z 0.000000 0.000000 1.788710 
# 
# From -- ./inp_files/11625.got.cif
#   From: 2010.05.17/outbox.cif.g08.bks.cpg/sg56_6_cif.got.tgz:11625.got - 2010.06.03 13:42:01.
