data_PCOD9429508
_publ_section_title
;
Structure prediction by ZEFSAII (Michael W. Deem and Ramdas Pophale) SiO2 
 PCOD9429508
Probable space group: P C C N
;
_chemical_formula_sum "Si O2"
_cell_formula_units_Z 64
_cell_length_a 22.169740
_cell_length_b 29.516412
_cell_length_c 5.347149
_cell_angle_alpha 90.000000
_cell_angle_beta 90.000000
_cell_angle_gamma 90.000000
_cell_volume 3499.020200
_symmetry_space_group_name_H-M "P C C N"
_symmetry_group_IT_number 56
_symmetry_cell_setting 'orthorhombic'
loop_
_space_group_symop_operation_xyz
x,y,z
1/2-x,1/2-y,z
1/2+x,-y,1/2-z
-x,1/2+y,1/2-z
-x,-y,-z
1/2+x,1/2+y,-z
1/2-x,y,1/2+z
x,1/2-y,1/2+z
loop_
_atom_site_type_symbol
_atom_site_label
_atom_site_fract_x
_atom_site_fract_y
_atom_site_fract_z
Si Si1 0.533541 0.221858 0.056198
Si Si2 0.712843 0.660339 0.489007
Si Si3 0.186676 0.445525 0.941060
Si Si4 0.311267 0.877445 0.080041
Si Si5 0.169985 0.720378 0.996394
Si Si6 0.822747 0.517509 0.558953
Si Si7 0.594558 0.719859 0.546418
Si Si8 0.177150 0.586189 0.579230
O O1 0.531502 0.262095 0.845437
O O2 0.600264 0.203075 0.010039
O O3 0.471261 0.196749 0.992539
O O4 0.745356 0.671690 0.227751
O O5 0.701268 0.606354 0.498706
O O6 0.650216 0.686456 0.514435
O O7 0.250805 0.471956 0.914507
O O8 0.156193 0.451802 0.672621
O O9 0.152337 0.467991 0.172533
O O10 0.347102 0.898762 0.848205
O O11 0.249256 0.905595 0.109584
O O12 0.293614 0.826054 0.014993
O O13 0.342625 0.882272 0.348447
O O14 0.179345 0.750973 0.243274
O O15 0.833306 0.465602 0.491068
O O16 0.597515 0.756538 0.319241
#
# Coordination Sequence:
#
# PCOD9429508 Si02
#       8
#     8   8   8   8   8   8   8   8
#     4   8  16  32  51  66  82 108 155 202 230 255
#     4  12  21  32  45  67 100 125 149 188 222 262
#     4  10  16  27  41  63  82 116 144 188 212 250
#     4  10  18  30  43  64  94 118 151 187 226 262
#     4  10  19  32  49  67  87 119 155 194 231 263
#     4  10  16  28  46  58  84 119 155 174 220 257
#     4  10  21  35  49  66  90 126 159 187 223 269
#     4  10  19  30  43  65  94 124 145 185 222 273
#
# _framework density 18.290834
#
# number of rings (size 3 to 8) (size 9 to 14) (size 15 to 20)
#    0.000    2.000    2.500    5.250    0.000    1.500 
#    0.000    7.500    0.000    0.000    0.000    0.000 
#    0.000   11.000    0.000    0.000    0.000    0.000 
#
# Total GULP energy -356464.496977 kJ/mol
# GULP energy per Si atom -5569.757765 kJ/mol
# Density = 1.824920 g / cm^3
# Si number density = 18.290834 Si / 1000 Ang^3
#
#
#
# Elastic Constant Matrix: (Units=GPa)
#
#
# Indices 1 2 3 4 5 6 
#
# 1 46.7416 11.2185 -4.4322 0.0000 0.0000 0.0000
# 2 11.2185 21.8376 -7.0990 0.0000 0.0000 0.0000
# 3 -4.4322 -7.0990 108.2787 0.0000 0.0000 0.0000
# 4 0.0000 0.0000 0.0000 19.7317 0.0000 0.0000
# 5 0.0000 0.0000 0.0000 0.0000 4.0772 0.0000
# 6 0.0000 0.0000 0.0000 0.0000 0.0000 -0.6913
#
#
#
# Elastic Compliance Matrix: (Units=1/GPa)
#
#
# Indices 1 2 3 4 5 6 
#
# 1 0.024407 -0.012479 0.000181 0.000000 0.000000 0.000000
# 2 -0.012479 0.053171 0.002975 0.000000 0.000000 0.000000
# 3 0.000181 0.002975 0.009438 0.000000 0.000000 0.000000
# 4 0.000000 0.000000 0.000000 0.050680 0.000000 0.000000
# 5 0.000000 0.000000 0.000000 0.000000 0.245265 0.000000
# 6 0.000000 0.000000 0.000000 0.000000 0.000000 -1.446630
#
#
# Mechanical properties :
#
#
# Convention : Reuss Voigt Hill
#
# Bulk Modulus (GPa) = 14.62666 19.58139 17.10402
# Shear Modulus (GPa) = -4.89125 16.43490 5.77183
#
# Velocity S-wave (km/s) = -1.63706 3.00080 1.77832
# Velocity P-wave (km/s) = 2.10732 4.76815 3.68619
#
# Compressibility (1/GPa) = 0.06836831
#
# Stress axis : x y z
#
# Youngs Moduli (GPa) = 40.97258 18.80738 105.95591
#
# Poissons Ratio (x) = 0.23470 -0.01916
# Poissons Ratio (y) = 0.51131 -0.31523
# Poissons Ratio (z) = -0.00741 -0.05595
#
# Static dielectric constant tensor:
#      x y z
#    x 1.662600 0.000000 0.000000 
#    y 0.000000 1.617610 0.000000 
#    z 0.000000 0.000000 1.746460 
# 
# From -- ./inp_files/979.got.cif
#   From: 2010.05.17/outbox.cif.g08.bks.cpg/sg56_1_cif.got.tgz:979.got - 2010.06.03 13:42:01.
