data_PCOD9429836
_publ_section_title
;
Structure prediction by ZEFSAII (Michael W. Deem and Ramdas Pophale) SiO2 
 PCOD9429836
Probable space group: P C C N
;
_chemical_formula_sum "Si O2"
_cell_formula_units_Z 48
_cell_length_a 9.293824
_cell_length_b 15.250009
_cell_length_c 14.462586
_cell_angle_alpha 90.000000
_cell_angle_beta 90.000000
_cell_angle_gamma 90.000000
_cell_volume 2049.795325
_symmetry_space_group_name_H-M "P C C N"
_symmetry_group_IT_number 56
_symmetry_cell_setting 'orthorhombic'
loop_
_space_group_symop_operation_xyz
x,y,z
1/2-x,1/2-y,z
1/2+x,-y,1/2-z
-x,1/2+y,1/2-z
-x,-y,-z
1/2+x,1/2+y,-z
1/2-x,y,1/2+z
x,1/2-y,1/2+z
loop_
_atom_site_type_symbol
_atom_site_label
_atom_site_fract_x
_atom_site_fract_y
_atom_site_fract_z
Si Si1 0.105271 0.803655 0.723723
Si Si2 0.463135 0.013854 0.226419
Si Si3 0.897332 0.721009 0.382851
Si Si4 0.647518 0.494948 0.556702
Si Si5 0.122192 0.192802 0.422944
Si Si6 0.827966 0.977143 0.884404
O O1 0.250000 0.750000 0.717942
O O2 0.080971 0.909514 0.728813
O O3 0.026369 0.768277 0.813954
O O4 0.019606 0.784751 0.630949
O O5 0.588743 0.045102 0.153352
O O6 0.545286 0.025119 0.325436
O O7 0.309288 0.045642 0.184044
O O8 0.750000 0.750000 0.334164
O O9 0.904251 0.783086 0.471135
O O10 0.886205 0.619043 0.412228
O O11 0.500000 0.500000 0.500000
O O12 0.675511 0.594171 0.586950
O O13 0.766382 0.473696 0.477001
O O14 0.250000 0.250000 0.385640
#
# Coordination Sequence:
#
# PCOD9429836 Si02
#       6
#     8   8   8   8   8   8
#     4  10  22  37  54  84 119 149 189 236 298 349
#     4   9  21  35  59  82 114 156 183 237 294 345
#     4  10  19  34  60  88 107 151 197 242 281 343
#     4   9  17  34  57  81 115 150 187 235 289 342
#     4  10  18  35  59  86 110 152 197 238 284 344
#     4  10  18  37  57  82 117 145 195 234 287 348
#
# _framework density 23.416971
#
# number of rings (size 3 to 8) (size 9 to 14) (size 15 to 20)
#    0.000    2.333    3.333    0.500    0.000    2.000 
#    0.000    0.833   14.667    0.000    0.000    0.000 
#    0.000    0.000    0.000    0.000    0.000    0.000 
#
# Total GULP energy -267227.201418 kJ/mol
# GULP energy per Si atom -5567.233363 kJ/mol
# Density = 2.336367 g / cm^3
# Si number density = 23.416971 Si / 1000 Ang^3
#
#
#
# Elastic Constant Matrix: (Units=GPa)
#
#
# Indices 1 2 3 4 5 6 
#
# 1 103.3718 7.3182 30.6722 0.0000 0.0000 0.0000
# 2 7.3182 25.3269 -4.3310 0.0000 0.0000 0.0000
# 3 30.6722 -4.3310 68.5906 0.0000 0.0000 0.0000
# 4 0.0000 0.0000 0.0000 10.7937 0.0000 0.0000
# 5 0.0000 0.0000 0.0000 0.0000 51.5475 0.0000
# 6 0.0000 0.0000 0.0000 0.0000 0.0000 24.8093
#
#
#
# Elastic Compliance Matrix: (Units=1/GPa)
#
#
# Indices 1 2 3 4 5 6 
#
# 1 0.011596 -0.004284 -0.005456 0.000000 0.000000 0.000000
# 2 -0.004284 0.041497 0.004536 0.000000 0.000000 0.000000
# 3 -0.005456 0.004536 0.017305 0.000000 0.000000 0.000000
# 4 0.000000 0.000000 0.000000 0.092647 0.000000 0.000000
# 5 0.000000 0.000000 0.000000 0.000000 0.019400 0.000000
# 6 0.000000 0.000000 0.000000 0.000000 0.000000 0.040307
#
#
# Mechanical properties :
#
#
# Convention : Reuss Voigt Hill
#
# Bulk Modulus (GPa) = 16.66915 29.40090 23.03503
# Shear Modulus (GPa) = 19.75058 28.33876 24.04467
#
# Velocity S-wave (km/s) = 2.90734 3.48254 3.20786
# Velocity P-wave (km/s) = 4.28999 5.36222 4.85579
#
# Compressibility (1/GPa) = 0.05999105
#
# Stress axis : x y z
#
# Youngs Moduli (GPa) = 86.23693 24.09801 57.78525
#
# Poissons Ratio (x) = 0.10323 0.31527
# Poissons Ratio (y) = 0.36941 -0.26210
# Poissons Ratio (z) = 0.47050 -0.10930
#
# Static dielectric constant tensor:
#      x y z
#    x 1.889030 0.000000 0.000000 
#    y 0.000000 1.904470 0.000000 
#    z 0.000000 0.000000 1.958530 
# 
# From -- ./inp_files/10708.got.cif
#   From: 2010.05.17/outbox.cif.g08.bks.cpg/sg56_6_cif.got.tgz:10708.got - 2010.06.03 13:42:01.
