data_PCOD9429662
_publ_section_title
;
Structure prediction by ZEFSAII (Michael W. Deem and Ramdas Pophale) SiO2 
 PCOD9429662
Probable space group: P C C N
;
_chemical_formula_sum "Si O2"
_cell_formula_units_Z 64
_cell_length_a 34.602287
_cell_length_b 10.169699
_cell_length_c 7.131308
_cell_angle_alpha 90.000000
_cell_angle_beta 90.000000
_cell_angle_gamma 90.000000
_cell_volume 2509.470513
_symmetry_space_group_name_H-M "P C C N"
_symmetry_group_IT_number 56
_symmetry_cell_setting 'orthorhombic'
loop_
_space_group_symop_operation_xyz
x,y,z
1/2-x,1/2-y,z
1/2+x,-y,1/2-z
-x,1/2+y,1/2-z
-x,-y,-z
1/2+x,1/2+y,-z
1/2-x,y,1/2+z
x,1/2-y,1/2+z
loop_
_atom_site_type_symbol
_atom_site_label
_atom_site_fract_x
_atom_site_fract_y
_atom_site_fract_z
Si Si1 0.482409 0.834952 0.969860
Si Si2 0.645943 0.097125 0.815637
Si Si3 0.318466 0.252804 0.435623
Si Si4 0.123533 0.211206 0.679591
Si Si5 0.712594 0.464760 0.038155
Si Si6 0.933880 0.398816 0.698611
Si Si7 0.958363 0.669498 0.688116
Si Si8 0.700617 0.445249 0.613411
O O1 0.451102 0.911833 0.090453
O O2 0.519971 0.786963 0.083950
O O3 0.460309 0.705183 0.904386
O O4 0.503255 0.893809 0.789428
O O5 0.608670 0.161853 0.724662
O O6 0.629672 0.946757 0.828959
O O7 0.683349 0.095437 0.685779
O O8 0.665069 0.127159 0.014401
O O9 0.329242 0.242298 0.686859
O O10 0.367991 0.243436 0.437483
O O11 0.291378 0.123249 0.431607
O O12 0.301984 0.400116 0.442046
O O13 0.077561 0.232275 0.696249
O O14 0.755766 0.411401 0.057260
O O15 0.697129 0.433660 0.833665
O O16 0.938608 0.539763 0.599244
#
# Coordination Sequence:
#
# PCOD9429662 Si02
#       8
#     8   8   8   8   8   8   8   8
#     4  10  21  36  62  87 111 160 195 237 308 358
#     4   9  21  36  51  75 111 145 182 242 290 346
#     4  10  18  28  42  71 110 158 196 237 276 338
#     4   9  17  28  45  67 109 148 190 229 271 330
#     4  11  20  32  50  76 110 153 200 240 296 354
#     4  10  21  41  59  86 122 146 195 249 298 363
#     4  10  19  35  57  86 122 155 198 246 285 347
#     4  11  20  32  50  76 110 153 200 240 296 354
#
# _framework density 25.503388999999999
#
# number of rings (size 3 to 8) (size 9 to 14) (size 15 to 20)
#    0.000    2.000    2.500    1.875    0.000    1.000 
#    4.500    0.000    0.000    0.000    0.000    2.625 
#    0.000    0.000    0.000    0.000    0.000    0.000 
#
# Total GULP energy -356491.117272 kJ/mol
# GULP energy per Si atom -5570.173707 kJ/mol
# Density = 2.544534 g / cm^3
# Si number density = 25.503389 Si / 1000 Ang^3
#
#
#
# Elastic Constant Matrix: (Units=GPa)
#
#
# Indices 1 2 3 4 5 6 
#
# 1 151.9894 10.0134 28.8500 0.0000 0.0000 0.0000
# 2 10.0134 65.3896 0.3412 0.0000 0.0000 0.0000
# 3 28.8500 0.3412 84.5746 0.0000 0.0000 0.0000
# 4 0.0000 0.0000 0.0000 6.6557 0.0000 0.0000
# 5 0.0000 0.0000 0.0000 0.0000 43.6862 0.0000
# 6 0.0000 0.0000 0.0000 0.0000 0.0000 3.8001
#
#
#
# Elastic Compliance Matrix: (Units=1/GPa)
#
#
# Indices 1 2 3 4 5 6 
#
# 1 0.007110 -0.001076 -0.002421 0.000000 0.000000 0.000000
# 2 -0.001076 0.015456 0.000305 0.000000 0.000000 0.000000
# 3 -0.002421 0.000305 0.012648 0.000000 0.000000 0.000000
# 4 0.000000 0.000000 0.000000 0.150247 0.000000 0.000000
# 5 0.000000 0.000000 0.000000 0.000000 0.022891 0.000000
# 6 0.000000 0.000000 0.000000 0.000000 0.000000 0.263154
#
#
# Mechanical properties :
#
#
# Convention : Reuss Voigt Hill
#
# Bulk Modulus (GPa) = 34.68637 42.26252 38.47445
# Shear Modulus (GPa) = 10.25641 28.34500 19.30071
#
# Velocity S-wave (km/s) = 2.00756 3.33742 2.75397
# Velocity P-wave (km/s) = 4.35935 5.60878 5.02307
#
# Compressibility (1/GPa) = 0.02882977
#
# Stress axis : x y z
#
# Youngs Moduli (GPa) = 140.65013 64.69916 79.06088
#
# Poissons Ratio (x) = 0.06962 0.19140
# Poissons Ratio (y) = 0.15136 -0.02409
# Poissons Ratio (z) = 0.34051 -0.01972
#
# Static dielectric constant tensor:
#      x y z
#    x 1.966790 0.000000 0.000000 
#    y 0.000000 1.984590 0.000000 
#    z 0.000000 0.000000 2.890290 
# 
# From -- ./inp_files/5212.got.cif
#   From: 2010.05.17/outbox.cif.g08.bks.cpg/sg56_3_cif.got.tgz:5212.got - 2010.06.03 13:42:01.
