data_PCOD9429294
_publ_section_title
;
Structure prediction by ZEFSAII (Michael W. Deem and Ramdas Pophale) SiO2 
 PCOD9429294
Probable space group: P B A M
;
_chemical_formula_sum "Si O2"
_cell_formula_units_Z 56
_cell_length_a 15.000000
_cell_length_b 21.000000
_cell_length_c 9.000000
_cell_angle_alpha 90.000000
_cell_angle_beta 90.000000
_cell_angle_gamma 90.000000
_cell_volume 2835.000000
_symmetry_space_group_name_H-M "P B A M"
_symmetry_group_IT_number 55
_symmetry_cell_setting 'orthorhombic'
loop_
_space_group_symop_operation_xyz
x,y,z
-x,-y,z
1/2+x,1/2-y,-z
1/2-x,1/2+y,-z
-x,-y,-z
x,y,-z
1/2-x,1/2+y,z
1/2+x,1/2-y,z
loop_
_atom_site_type_symbol
_atom_site_label
_atom_site_fract_x
_atom_site_fract_y
_atom_site_fract_z
Si Si1 0.894935 0.495440 0.320677
Si Si2 0.434364 0.362390 0.822468
Si Si3 0.274242 0.446260 0.821451
Si Si4 0.203611 0.197684 0.678527
Si Si5 0.616736 0.425321 0.176340
Si Si6 0.885093 0.351463 0.319181
Si Si7 0.469975 0.758967 0.320067
O O1 0.889479 0.500922 0.500000
O O2 0.822504 0.543342 0.251403
O O3 0.868262 0.423711 0.272562
O O4 0.000000 0.500000 0.281678
O O5 0.337192 0.387225 0.773949
O O6 0.510352 0.417204 0.800384
O O7 0.472520 0.300580 0.739903
O O8 0.431417 0.350324 0.000000
O O9 0.335446 0.508474 0.787547
O O10 0.264258 0.443169 0.000000
O O11 0.206284 0.201027 0.500000
O O12 0.161548 0.130624 0.728713
O O13 0.305327 0.194898 0.731407
O O14 0.132045 0.249859 0.731050
O O15 0.631483 0.413541 0.000000
O O16 0.885064 0.352681 0.500000
O O17 0.979709 0.322874 0.272442
O O18 0.470773 0.756661 0.500000
#
# Coordination Sequence:
#
# PCOD9429294 Si02
#       7
#     8   8   8   8   8   8   8
#     4  10  21  37  55  76 101 134 176 219 260 304
#     4   9  18  32  49  74 109 136 160 204 255 307
#     4  10  19  32  52  76 103 137 168 204 255 306
#     4   9  16  29  50  71  96 130 166 208 254 300
#     4   9  16  28  49  75 100 130 166 199 243 305
#     4   9  17  33  53  73 100 130 166 214 258 300
#     4   9  18  32  50  74  99 131 173 211 254 306
#
# _framework density 19.753086
#
# number of rings (size 3 to 8) (size 9 to 14) (size 15 to 20)
#    0.000    2.714    1.429    0.429    0.000    2.571 
#    2.571    1.429    0.000    4.286    0.000    0.000 
#    0.000    0.000    0.000    0.000    0.000    0.000 
#
# Total GULP energy -312015.176816 kJ/mol
# GULP energy per Si atom -5571.699586 kJ/mol
# Density = 1.970813 g / cm^3
# Si number density = 19.753086 Si / 1000 Ang^3
#
#
#
# Elastic Constant Matrix: (Units=GPa)
#
#
# Indices 1 2 3 4 5 6 
#
# 1 104.0861 -3.6769 6.6927 0.0000 0.0000 0.0000
# 2 -3.6769 2.3580 -7.9233 0.0000 0.0000 0.0000
# 3 6.6927 -7.9233 -0.0384 0.0000 0.0000 0.0000
# 4 0.0000 0.0000 0.0000 12.4910 0.0000 0.0000
# 5 0.0000 0.0000 0.0000 0.0000 21.3184 0.0000
# 6 0.0000 0.0000 0.0000 0.0000 0.0000 32.0475
#
#
#
# Elastic Compliance Matrix: (Units=1/GPa)
#
#
# Indices 1 2 3 4 5 6 
#
# 1 0.010045 0.008495 -0.002133 0.000000 0.000000 0.000000
# 2 0.008495 0.007795 -0.127832 0.000000 0.000000 0.000000
# 3 -0.002133 -0.127832 -0.037053 0.000000 0.000000 0.000000
# 4 0.000000 0.000000 0.000000 0.080058 0.000000 0.000000
# 5 0.000000 0.000000 0.000000 0.000000 0.046908 0.000000
# 6 0.000000 0.000000 0.000000 0.000000 0.000000 0.031204
#
#
# Mechanical properties :
#
#
# Convention : Reuss Voigt Hill
#
# Bulk Modulus (GPa) = -3.81456 10.73229 3.45887
# Shear Modulus (GPa) = 16.97720 20.59225 18.78472
#
# Velocity S-wave (km/s) = 2.93485 3.23225 3.08714
# Velocity P-wave (km/s) = 3.09017 4.40170 3.80290
#
# Compressibility (1/GPa) = -0.26215341
#
# Stress axis : x y z
#
# Youngs Moduli (GPa) = 99.55517 128.28033 -26.98849
#
# Poissons Ratio (x) = -1.08973 -0.05757
# Poissons Ratio (y) = -0.84571 -3.44999
# Poissons Ratio (z) = 0.21237 16.39834
#
# Static dielectric constant tensor:
#      x y z
#    x 1.741430 0.000000 0.000000 
#    y 0.000000 1.705600 0.000000 
#    z 0.000000 0.000000 1.652850 
# 
# From -- ./inp_files/6052.got.cif
#   From: 2010.05.17/outbox.ucp.g08.bks.cvg/sg55_4_cif.got.tgz:6052.got - 2010.06.11 16:36:00.
