data_PCOD9429547
_publ_section_title
;
Structure prediction by ZEFSAII (Michael W. Deem and Ramdas Pophale) SiO2 
 PCOD9429547
Probable space group: P C C N
;
_chemical_formula_sum "Si O2"
_cell_formula_units_Z 44
_cell_length_a 9.054648
_cell_length_b 10.838971
_cell_length_c 17.310722
_cell_angle_alpha 90.000000
_cell_angle_beta 90.000000
_cell_angle_gamma 90.000000
_cell_volume 1698.927351
_symmetry_space_group_name_H-M "P C C N"
_symmetry_group_IT_number 56
_symmetry_cell_setting 'orthorhombic'
loop_
_space_group_symop_operation_xyz
x,y,z
1/2-x,1/2-y,z
1/2+x,-y,1/2-z
-x,1/2+y,1/2-z
-x,-y,-z
1/2+x,1/2+y,-z
1/2-x,y,1/2+z
x,1/2-y,1/2+z
loop_
_atom_site_type_symbol
_atom_site_label
_atom_site_fract_x
_atom_site_fract_y
_atom_site_fract_z
Si Si1 0.154835 0.992811 0.070333
Si Si2 0.322642 0.617221 0.707257
Si Si3 0.407864 0.229047 0.265426
Si Si4 0.329136 0.416348 0.915872
Si Si5 0.250000 0.750000 0.473430
Si Si6 0.617807 0.410208 0.651647
O O1 0.263145 0.977297 0.143296
O O2 0.981240 0.998386 0.090132
O O3 0.188352 0.863397 0.023944
O O4 0.182749 0.100416 0.008156
O O5 0.250000 0.750000 0.685026
O O6 0.492225 0.650000 0.722942
O O7 0.257181 0.588141 0.790281
O O8 0.250000 0.250000 0.228341
O O9 0.124118 0.318718 0.351724
O O10 0.492972 0.129887 0.212335
O O11 0.165952 0.468734 0.895570
O O12 0.370891 0.693978 0.414338
#
# Coordination Sequence:
#
# PCOD9429547 Si02
#       6
#     8   8   8   8   4   8
#     4  10  18  34  65  96 123 162 209 262 333 386
#     4  10  17  37  62  88 119 169 212 256 317 381
#     4  11  22  39  60  89 126 174 217 264 316 379
#     4  10  21  35  60  99 122 159 214 265 325 388
#     4  10  16  32  62  94 126 164 216 256 314 396
#     4  10  20  36  60  92 126 160 219 261 311 378
#
# _framework density 25.898693000000002
#
# number of rings (size 3 to 8) (size 9 to 14) (size 15 to 20)
#    0.000    1.818    7.273    0.000    0.000    1.455 
#    0.000    0.909    0.000   12.000    0.000    0.000 
#    0.000    0.000    0.000    0.000    0.000    0.000 
#
# Total GULP energy -245342.099736 kJ/mol
# GULP energy per Si atom -5575.956812 kJ/mol
# Density = 2.583975 g / cm^3
# Si number density = 25.898693 Si / 1000 Ang^3
#
#
#
# Elastic Constant Matrix: (Units=GPa)
#
#
# Indices 1 2 3 4 5 6 
#
# 1 141.1834 23.1837 27.1421 0.0000 0.0000 0.0000
# 2 23.1837 54.8116 33.1293 0.0000 0.0000 0.0000
# 3 27.1421 33.1293 110.7916 0.0000 0.0000 0.0000
# 4 0.0000 0.0000 0.0000 47.2209 0.0000 0.0000
# 5 0.0000 0.0000 0.0000 0.0000 123.3373 0.0000
# 6 0.0000 0.0000 0.0000 0.0000 0.0000 42.4405
#
#
#
# Elastic Compliance Matrix: (Units=1/GPa)
#
#
# Indices 1 2 3 4 5 6 
#
# 1 0.007723 -0.002591 -0.001117 0.000000 0.000000 0.000000
# 2 -0.002591 0.023139 -0.006284 0.000000 0.000000 0.000000
# 3 -0.001117 -0.006284 0.011179 0.000000 0.000000 0.000000
# 4 0.000000 0.000000 0.000000 0.021177 0.000000 0.000000
# 5 0.000000 0.000000 0.000000 0.000000 0.008108 0.000000
# 6 0.000000 0.000000 0.000000 0.000000 0.000000 0.023562
#
#
# Mechanical properties :
#
#
# Convention : Reuss Voigt Hill
#
# Bulk Modulus (GPa) = 45.34085 52.63297 48.98691
# Shear Modulus (GPa) = 40.90801 57.48849 49.19825
#
# Velocity S-wave (km/s) = 3.97865 4.71653 4.36322
# Velocity P-wave (km/s) = 6.21701 7.07302 6.65879
#
# Compressibility (1/GPa) = 0.02205517
#
# Stress axis : x y z
#
# Youngs Moduli (GPa) = 129.47828 43.21759 89.45544
#
# Poissons Ratio (x) = 0.11200 0.09994
# Poissons Ratio (y) = 0.33554 0.56215
# Poissons Ratio (z) = 0.14465 0.27159
#
# Static dielectric constant tensor:
#      x y z
#    x 2.106670 0.000000 0.000000 
#    y 0.000000 2.342750 0.000000 
#    z 0.000000 0.000000 2.049940 
# 
# From -- ./inp_files/14701.got.cif
#   From: 2010.05.17/outbox.cif.g08.bks.cpg/sg56_8_cif.got.tgz:14701.got - 2010.06.03 13:42:01.
