data_PCOD9429676
_publ_section_title
;
Structure prediction by ZEFSAII (Michael W. Deem and Ramdas Pophale) SiO2 
 PCOD9429676
Probable space group: P C C N
;
_chemical_formula_sum "Si O2"
_cell_formula_units_Z 48
_cell_length_a 14.645025
_cell_length_b 13.487970
_cell_length_c 9.212278
_cell_angle_alpha 90.000000
_cell_angle_beta 90.000000
_cell_angle_gamma 90.000000
_cell_volume 1819.716546
_symmetry_space_group_name_H-M "P C C N"
_symmetry_group_IT_number 56
_symmetry_cell_setting 'orthorhombic'
loop_
_space_group_symop_operation_xyz
x,y,z
1/2-x,1/2-y,z
1/2+x,-y,1/2-z
-x,1/2+y,1/2-z
-x,-y,-z
1/2+x,1/2+y,-z
1/2-x,y,1/2+z
x,1/2-y,1/2+z
loop_
_atom_site_type_symbol
_atom_site_label
_atom_site_fract_x
_atom_site_fract_y
_atom_site_fract_z
Si Si1 0.907882 0.018996 0.910389
Si Si2 0.328800 0.169326 0.464004
Si Si3 0.918190 0.744514 0.777930
Si Si4 0.923047 0.930505 0.603442
Si Si5 0.369066 0.886820 0.018316
Si Si6 0.630890 0.285700 0.782276
O O1 0.834525 0.939743 0.967441
O O2 0.938836 0.999940 0.744028
O O3 0.866939 0.129215 0.906302
O O4 0.000000 0.000000 0.000000
O O5 0.250000 0.250000 0.492712
O O6 0.409156 0.222853 0.557698
O O7 0.357047 0.159864 0.294986
O O8 0.879888 0.837377 0.684703
O O9 0.022908 0.730311 0.743673
O O10 0.018682 0.896093 0.533381
O O11 0.856767 0.994709 0.501659
O O12 0.335883 0.820052 0.153755
O O13 0.337530 0.829546 0.872492
#
# Coordination Sequence:
#
# PCOD9429676 Si02
#       6
#     8   8   8   8   8   8
#     4  10  19  32  49  76 102 143 190 242 287 340
#     4  11  22  35  51  75 112 152 190 230 285 351
#     4  10  18  32  51  72 104 145 191 229 279 338
#     4   8  17  29  45  67 105 140 176 230 289 340
#     4   9  17  28  43  71 104 137 175 224 295 341
#     4  10  18  29  50  74 104 142 178 238 289 340
#
# _framework density 26.377735000000001
#
# number of rings (size 3 to 8) (size 9 to 14) (size 15 to 20)
#    0.000    2.333    1.667    2.500    4.667    0.000 
#    0.000    0.000    0.000    0.000    0.000    1.167 
#    0.000    8.000    0.000    0.000    0.000    0.000 
#
# Total GULP energy -267613.852856 kJ/mol
# GULP energy per Si atom -5575.288601 kJ/mol
# Density = 2.631770 g / cm^3
# Si number density = 26.377735 Si / 1000 Ang^3
#
#
#
# Elastic Constant Matrix: (Units=GPa)
#
#
# Indices 1 2 3 4 5 6 
#
# 1 91.6905 25.6882 4.9966 0.0000 0.0000 0.0000
# 2 25.6882 69.4920 28.4175 0.0000 0.0000 0.0000
# 3 4.9966 28.4175 95.8539 0.0000 0.0000 0.0000
# 4 0.0000 0.0000 0.0000 46.7847 0.0000 0.0000
# 5 0.0000 0.0000 0.0000 0.0000 6.2131 0.0000
# 6 0.0000 0.0000 0.0000 0.0000 0.0000 19.8695
#
#
#
# Elastic Compliance Matrix: (Units=1/GPa)
#
#
# Indices 1 2 3 4 5 6 
#
# 1 0.012220 -0.004844 0.000799 0.000000 0.000000 0.000000
# 2 -0.004844 0.018296 -0.005172 0.000000 0.000000 0.000000
# 3 0.000799 -0.005172 0.011924 0.000000 0.000000 0.000000
# 4 0.000000 0.000000 0.000000 0.021375 0.000000 0.000000
# 5 0.000000 0.000000 0.000000 0.000000 0.160951 0.000000
# 6 0.000000 0.000000 0.000000 0.000000 0.000000 0.050328
#
#
# Mechanical properties :
#
#
# Convention : Reuss Voigt Hill
#
# Bulk Modulus (GPa) = 41.65501 41.69342 41.67422
# Shear Modulus (GPa) = 16.58220 27.76907 22.17563
#
# Velocity S-wave (km/s) = 2.51000 3.24813 2.90262
# Velocity P-wave (km/s) = 4.92200 5.46879 5.20259
#
# Compressibility (1/GPa) = 0.02400672
#
# Stress axis : x y z
#
# Youngs Moduli (GPa) = 81.83448 54.65824 83.86396
#
# Poissons Ratio (x) = 0.26476 -0.06701
# Poissons Ratio (y) = 0.39640 0.43370
# Poissons Ratio (z) = -0.06539 0.28267
#
# Static dielectric constant tensor:
#      x y z
#    x 2.114440 0.000000 0.000000 
#    y 0.000000 2.244800 0.000000 
#    z 0.000000 0.000000 2.110160 
# 
# From -- ./inp_files/4423.got.cif
#   From: 2010.05.17/outbox.cif.g08.bks.cpg/sg56_3_cif.got.tgz:4423.got - 2010.06.03 13:42:01.
