data_PCOD9429137
_publ_section_title
;
Structure prediction by ZEFSAII (Michael W. Deem and Ramdas Pophale) SiO2 
 PCOD9429137
Probable space group: P B A M
;
_chemical_formula_sum "Si O2"
_cell_formula_units_Z 24
_cell_length_a 8.937345
_cell_length_b 10.242752
_cell_length_c 10.978596
_cell_angle_alpha 90.000000
_cell_angle_beta 90.000000
_cell_angle_gamma 90.000000
_cell_volume 1005.013706
_symmetry_space_group_name_H-M "P B A M"
_symmetry_group_IT_number 55
_symmetry_cell_setting 'orthorhombic'
loop_
_space_group_symop_operation_xyz
x,y,z
-x,-y,z
1/2+x,1/2-y,-z
1/2-x,1/2+y,-z
-x,-y,-z
x,y,-z
1/2-x,1/2+y,z
1/2+x,1/2-y,z
loop_
_atom_site_type_symbol
_atom_site_label
_atom_site_fract_x
_atom_site_fract_y
_atom_site_fract_z
Si Si1 0.102943 0.686183 0.365992
Si Si2 0.586383 0.136398 0.130446
Si Si3 0.329477 0.456986 0.284962
O O1 0.038854 0.657445 0.500000
O O2 0.224446 0.574500 0.332978
O O3 0.173832 0.829495 0.369138
O O4 0.986375 0.694046 0.253243
O O5 0.756002 0.097265 0.160696
O O6 0.500000 0.000000 0.119814
O O7 0.574010 0.206821 0.000000
O O8 0.500000 0.500000 0.273565
#
# Coordination Sequence:
#
# PCOD9429137 Si02
#       3
#     8   8   8
#     4  11  24  43  68  99 136 177 221 272 331 395
#     4   9  21  42  65  92 129 172 218 269 326 388
#     4  11  24  41  66 100 135 173 221 276 332 392
#
# _framework density 23.880272999999999
#
# number of rings (size 3 to 8) (size 9 to 14) (size 15 to 20)
#    0.000    1.667    0.000    3.000    0.000   14.667 
#    0.000    6.667    0.000    0.000    0.000    0.000 
#    0.000    0.000    0.000    0.000    0.000    0.000 
#
# Total GULP energy -133972.984844 kJ/mol
# GULP energy per Si atom -5582.207702 kJ/mol
# Density = 2.382592 g / cm^3
# Si number density = 23.880273 Si / 1000 Ang^3
#
#
#
# Elastic Constant Matrix: (Units=GPa)
#
#
# Indices 1 2 3 4 5 6 
#
# 1 117.8461 51.9897 89.5279 0.0000 0.0000 0.0000
# 2 51.9897 123.8000 36.0099 0.0000 0.0000 0.0000
# 3 89.5279 36.0099 222.8431 0.0000 0.0000 0.0000
# 4 0.0000 0.0000 0.0000 5.6473 0.0000 0.0000
# 5 0.0000 0.0000 0.0000 0.0000 65.6947 0.0000
# 6 0.0000 0.0000 0.0000 0.0000 0.0000 33.6148
#
#
#
# Elastic Compliance Matrix: (Units=1/GPa)
#
#
# Indices 1 2 3 4 5 6 
#
# 1 0.014297 -0.004547 -0.005009 0.000000 0.000000 0.000000
# 2 -0.004547 0.009922 0.000223 0.000000 0.000000 0.000000
# 3 -0.005009 0.000223 0.006464 0.000000 0.000000 0.000000
# 4 0.000000 0.000000 0.000000 0.177077 0.000000 0.000000
# 5 0.000000 0.000000 0.000000 0.000000 0.015222 0.000000
# 6 0.000000 0.000000 0.000000 0.000000 0.000000 0.029749
#
#
# Mechanical properties :
#
#
# Convention : Reuss Voigt Hill
#
# Bulk Modulus (GPa) = 83.21191 91.06047 87.13619
# Shear Modulus (GPa) = 18.15527 40.12212 29.13869
#
# Velocity S-wave (km/s) = 2.76028 4.10339 3.49692
# Velocity P-wave (km/s) = 6.71416 7.78879 7.27136
#
# Compressibility (1/GPa) = 0.01201751
#
# Stress axis : x y z
#
# Youngs Moduli (GPa) = 69.94437 100.78542 154.70809
#
# Poissons Ratio (x) = 0.45827 0.77495
# Poissons Ratio (y) = 0.31804 -0.03457
# Poissons Ratio (z) = 0.35036 -0.02252
#
# Static dielectric constant tensor:
#      x y z
#    x 1.957560 0.000000 0.000000 
#    y 0.000000 1.918950 0.000000 
#    z 0.000000 0.000000 1.999140 
# 
# From -- ./inp_files/11486.got.cif
#   From: 2010.05.17/outbox.cif.g08.bks.cpg/sg55_6_cif.got.tgz:11486.got - 2010.06.03 13:27:54.
