data_PCOD9429067
_publ_section_title
;
Structure prediction by ZEFSAII (Michael W. Deem and Ramdas Pophale) SiO2 
 PCOD9429067
Probable space group: P B A M
;
_chemical_formula_sum "Si O2"
_cell_formula_units_Z 40
_cell_length_a 16.994026
_cell_length_b 9.535690
_cell_length_c 11.771099
_cell_angle_alpha 90.000000
_cell_angle_beta 90.000000
_cell_angle_gamma 90.000000
_cell_volume 1907.503812
_symmetry_space_group_name_H-M "P B A M"
_symmetry_group_IT_number 55
_symmetry_cell_setting 'orthorhombic'
loop_
_space_group_symop_operation_xyz
x,y,z
-x,-y,z
1/2+x,1/2-y,-z
1/2-x,1/2+y,-z
-x,-y,-z
x,y,-z
1/2-x,1/2+y,z
1/2+x,1/2-y,z
loop_
_atom_site_type_symbol
_atom_site_label
_atom_site_fract_x
_atom_site_fract_y
_atom_site_fract_z
Si Si1 0.808567 0.475139 0.238595
Si Si2 0.430322 0.831879 0.630873
Si Si3 0.575030 0.728911 0.240471
Si Si4 0.645070 0.476051 0.631788
Si Si5 0.978654 0.268253 0.000000
Si Si6 0.369852 0.949742 0.000000
O O1 0.864861 0.564888 0.320555
O O2 0.845003 0.318933 0.233202
O O3 0.722106 0.474681 0.289775
O O4 0.818292 0.541952 0.113623
O O5 0.448238 0.862670 0.500000
O O6 0.508441 0.829804 0.706702
O O7 0.396007 0.674516 0.637451
O O8 0.588778 0.597373 0.321146
O O9 0.544942 0.690218 0.115129
O O10 0.665822 0.504204 0.500000
O O11 0.925738 0.411315 0.000000
O O12 0.069098 0.320028 0.000000
#
# Coordination Sequence:
#
# PCOD9429067 Si02
#       6
#     8   8   8   8   4   4
#     4  11  22  39  65  90 118 159 209 254 304 366
#     4  11  23  39  61  89 121 162 208 253 304 362
#     4  11  22  40  65  90 119 164 208 250 306 368
#     4  11  25  42  57  86 133 166 194 255 321 362
#     4   9  18  37  63  92 121 151 195 261 308 345
#     4   9  18  37  62  91 123 150 191 261 314 343
#
# _framework density 20.969812999999998
#
# number of rings (size 3 to 8) (size 9 to 14) (size 15 to 20)
#    0.000    1.400    2.000    3.600    0.000    8.000 
#    0.000    7.000    0.000    0.000    0.000    0.000 
#    0.000    0.000    0.000    0.000    0.000    0.000 
#
# Total GULP energy -223797.171514 kJ/mol
# GULP energy per Si atom -5594.929288 kJ/mol
# Density = 2.092208 g / cm^3
# Si number density = 20.969813 Si / 1000 Ang^3
#
#
#
# Elastic Constant Matrix: (Units=GPa)
#
#
# Indices 1 2 3 4 5 6 
#
# 1 84.3844 4.0843 28.0393 0.0000 0.0000 0.0000
# 2 4.0843 65.0603 6.6101 0.0000 0.0000 0.0000
# 3 28.0393 6.6101 133.6930 0.0000 0.0000 0.0000
# 4 0.0000 0.0000 0.0000 17.4757 0.0000 0.0000
# 5 0.0000 0.0000 0.0000 0.0000 29.8477 0.0000
# 6 0.0000 0.0000 0.0000 0.0000 0.0000 22.2462
#
#
#
# Elastic Compliance Matrix: (Units=1/GPa)
#
#
# Indices 1 2 3 4 5 6 
#
# 1 0.012757 -0.000532 -0.002649 0.000000 0.000000 0.000000
# 2 -0.000532 0.015470 -0.000653 0.000000 0.000000 0.000000
# 3 -0.002649 -0.000653 0.008068 0.000000 0.000000 0.000000
# 4 0.000000 0.000000 0.000000 0.057222 0.000000 0.000000
# 5 0.000000 0.000000 0.000000 0.000000 0.033503 0.000000
# 6 0.000000 0.000000 0.000000 0.000000 0.000000 0.044952
#
#
# Mechanical properties :
#
#
# Convention : Reuss Voigt Hill
#
# Bulk Modulus (GPa) = 34.93326 40.06725 37.50026
# Shear Modulus (GPa) = 26.42956 30.20751 28.31853
#
# Velocity S-wave (km/s) = 3.55401 3.79954 3.67882
# Velocity P-wave (km/s) = 5.79105 6.19655 5.99723
#
# Compressibility (1/GPa) = 0.02862601
#
# Stress axis : x y z
#
# Youngs Moduli (GPa) = 78.39130 64.64078 123.95067
#
# Poissons Ratio (x) = 0.03437 0.32836
# Poissons Ratio (y) = 0.04168 0.08099
# Poissons Ratio (z) = 0.20767 0.04223
#
# Static dielectric constant tensor:
#      x y z
#    x 1.712080 0.000000 0.000000 
#    y 0.000000 1.754440 0.000000 
#    z 0.000000 0.000000 1.728810 
# 
# From -- ./inp_files/13969.got.cif
#   From: 2010.05.17/outbox.cif.g08.bks.cpg/sg55_7_cif.got.tgz:13969.got - 2010.06.03 13:27:54.
