data_PCOD9429831
_publ_section_title
;
Structure prediction by ZEFSAII (Michael W. Deem and Ramdas Pophale) SiO2 
 PCOD9429831
Probable space group: P C C N
;
_chemical_formula_sum "Si O2"
_cell_formula_units_Z 40
_cell_length_a 21.574319
_cell_length_b 5.052034
_cell_length_c 12.414115
_cell_angle_alpha 90.000000
_cell_angle_beta 90.000000
_cell_angle_gamma 90.000000
_cell_volume 1353.066448
_symmetry_space_group_name_H-M "P C C N"
_symmetry_group_IT_number 56
_symmetry_cell_setting 'orthorhombic'
loop_
_space_group_symop_operation_xyz
x,y,z
1/2-x,1/2-y,z
1/2+x,-y,1/2-z
-x,1/2+y,1/2-z
-x,-y,-z
1/2+x,1/2+y,-z
1/2-x,y,1/2+z
x,1/2-y,1/2+z
loop_
_atom_site_type_symbol
_atom_site_label
_atom_site_fract_x
_atom_site_fract_y
_atom_site_fract_z
Si Si1 0.918971 0.212851 0.764747
Si Si2 0.023383 0.213129 0.615462
Si Si3 0.619053 0.637597 0.029411
Si Si4 0.307035 0.095329 0.795745
Si Si5 0.307870 0.617906 0.522760
O O1 0.944777 0.455672 0.833280
O O2 0.951222 0.223864 0.646716
O O3 0.948118 0.957774 0.820378
O O4 0.846582 0.140583 0.757134
O O5 0.048656 0.271227 0.495475
O O6 0.642229 0.349127 0.996363
O O7 0.657736 0.843006 0.950826
O O8 0.641215 0.705742 0.150827
O O9 0.250000 0.250000 0.742219
O O10 0.280162 0.977167 0.907048
O O11 0.250000 0.750000 0.582327
#
# Coordination Sequence:
#
# PCOD9429831 Si02
#       5
#     8   8   8   8   8
#     4  10  23  40  64  85 130 170 209 264 317 382
#     4  10  22  43  59  90 125 170 213 260 321 376
#     4  10  20  35  63  87 119 158 209 256 311 373
#     4  10  22  38  64  93 124 162 211 261 321 376
#     4  10  18  35  56  86 119 156 192 256 314 365
#
# _framework density 29.562477000000001
#
# number of rings (size 3 to 8) (size 9 to 14) (size 15 to 20)
#    1.200    0.800    2.000    1.800    2.800    0.800 
#    0.000    6.000    0.000    1.200    0.000    0.000 
#    0.000    0.000    0.000    0.000    0.000    0.000 
#
# Total GULP energy -223856.906807 kJ/mol
# GULP energy per Si atom -5596.422670 kJ/mol
# Density = 2.949519 g / cm^3
# Si number density = 29.562477 Si / 1000 Ang^3
#
#
#
# Elastic Constant Matrix: (Units=GPa)
#
#
# Indices 1 2 3 4 5 6 
#
# 1 190.0019 53.4214 58.0242 0.0000 0.0000 0.0000
# 2 53.4214 222.3230 24.7121 0.0000 0.0000 0.0000
# 3 58.0242 24.7121 72.5157 0.0000 0.0000 0.0000
# 4 0.0000 0.0000 0.0000 32.4419 0.0000 0.0000
# 5 0.0000 0.0000 0.0000 0.0000 53.6373 0.0000
# 6 0.0000 0.0000 0.0000 0.0000 0.0000 41.2427
#
#
#
# Elastic Compliance Matrix: (Units=1/GPa)
#
#
# Indices 1 2 3 4 5 6 
#
# 1 0.007232 -0.001138 -0.005399 0.000000 0.000000 0.000000
# 2 -0.001138 0.004854 -0.000744 0.000000 0.000000 0.000000
# 3 -0.005399 -0.000744 0.018364 0.000000 0.000000 0.000000
# 4 0.000000 0.000000 0.000000 0.030824 0.000000 0.000000
# 5 0.000000 0.000000 0.000000 0.000000 0.018644 0.000000
# 6 0.000000 0.000000 0.000000 0.000000 0.000000 0.024247
#
#
# Mechanical properties :
#
#
# Convention : Reuss Voigt Hill
#
# Bulk Modulus (GPa) = 62.93826 84.12842 73.53334
# Shear Modulus (GPa) = 40.31581 48.70993 44.51287
#
# Velocity S-wave (km/s) = 3.69690 4.06358 3.88457
# Velocity P-wave (km/s) = 6.28959 7.10891 6.71176
#
# Compressibility (1/GPa) = 0.01588859
#
# Stress axis : x y z
#
# Youngs Moduli (GPa) = 138.28026 206.01583 54.45565
#
# Poissons Ratio (x) = 0.23436 0.29400
# Poissons Ratio (y) = 0.15731 0.04051
# Poissons Ratio (z) = 0.74655 0.15326
#
# Static dielectric constant tensor:
#      x y z
#    x 2.336790 0.000000 0.000000 
#    y 0.000000 2.292810 0.000000 
#    z 0.000000 0.000000 2.361860 
# 
# From -- ./inp_files/13164.got.cif
#   From: 2010.05.17/outbox.cif.g08.bks.cpg/sg56_7_cif.got.tgz:13164.got - 2010.06.03 13:42:01.
