data_PCOD9429843
_publ_section_title
;
Structure prediction by ZEFSAII (Michael W. Deem and Ramdas Pophale) SiO2 
 PCOD9429843
Probable space group: P C C N
;
_chemical_formula_sum "Si O2"
_cell_formula_units_Z 60
_cell_length_a 9.150006
_cell_length_b 17.059384
_cell_length_c 19.205036
_cell_angle_alpha 90.000000
_cell_angle_beta 90.000000
_cell_angle_gamma 90.000000
_cell_volume 2997.780633
_symmetry_space_group_name_H-M "P C C N"
_symmetry_group_IT_number 56
_symmetry_cell_setting 'orthorhombic'
loop_
_space_group_symop_operation_xyz
x,y,z
1/2-x,1/2-y,z
1/2+x,-y,1/2-z
-x,1/2+y,1/2-z
-x,-y,-z
1/2+x,1/2+y,-z
1/2-x,y,1/2+z
x,1/2-y,1/2+z
loop_
_atom_site_type_symbol
_atom_site_label
_atom_site_fract_x
_atom_site_fract_y
_atom_site_fract_z
Si Si1 0.354354 0.488732 0.667105
Si Si2 0.855241 0.682023 0.839624
Si Si3 0.831019 0.332182 0.095356
Si Si4 0.416812 0.613483 0.550521
Si Si5 0.250000 0.750000 0.132643
Si Si6 0.054272 0.275775 0.315629
Si Si7 0.307366 0.965135 0.802239
Si Si8 0.202616 0.369867 0.875201
O O1 0.288065 0.403946 0.651041
O O2 0.376601 0.539177 0.597851
O O3 0.261883 0.532103 0.726070
O O4 0.515957 0.469865 0.697831
O O5 0.750000 0.750000 0.863560
O O6 0.889476 0.693948 0.757907
O O7 0.007251 0.688235 0.879011
O O8 0.750000 0.250000 0.082473
O O9 0.762351 0.387955 0.154726
O O10 0.857723 0.385903 0.027438
O O11 0.333714 0.686749 0.585801
O O12 0.593357 0.623033 0.558842
O O13 0.381726 0.714114 0.177521
O O14 0.145203 0.322153 0.375564
O O15 0.101687 0.184724 0.324265
O O16 0.266020 0.045333 0.842815
#
# Coordination Sequence:
#
# PCOD9429843 Si02
#       8
#     8   8   8   8   4   8   8   8
#     4  10  22  37  66  94 121 163 206 261 312 383
#     4  11  22  40  63  91 130 159 206 264 320 378
#     4  11  26  43  60  89 129 171 209 261 321 374
#     4  10  22  42  60  87 123 171 212 250 307 385
#     4  10  22  34  66  88 122 164 206 256 308 382
#     4  10  18  35  61  99 120 154 203 262 310 367
#     4  10  21  38  62  94 123 160 208 265 317 371
#     4   9  18  36  64  87 124 158 202 258 302 375
#
# _framework density 20.014807000000001
#
# number of rings (size 3 to 8) (size 9 to 14) (size 15 to 20)
#    0.000    1.867    3.333    0.000    4.667    8.000 
#    4.800    0.000    0.000    2.400    0.000    0.000 
#    0.000    0.000    0.000    0.000    0.000    0.000 
#
# Total GULP energy -334745.860075 kJ/mol
# GULP energy per Si atom -5579.097668 kJ/mol
# Density = 1.996925 g / cm^3
# Si number density = 20.014807 Si / 1000 Ang^3
#
#
#
# Elastic Constant Matrix: (Units=GPa)
#
#
# Indices 1 2 3 4 5 6 
#
# 1 80.6765 26.0288 27.7600 0.0000 0.0000 0.0000
# 2 26.0288 92.5896 38.3758 0.0000 0.0000 0.0000
# 3 27.7600 38.3758 75.2031 0.0000 0.0000 0.0000
# 4 0.0000 0.0000 0.0000 -15.0605 0.0000 0.0000
# 5 0.0000 0.0000 0.0000 0.0000 15.0461 0.0000
# 6 0.0000 0.0000 0.0000 0.0000 0.0000 23.6641
#
#
#
# Elastic Compliance Matrix: (Units=1/GPa)
#
#
# Indices 1 2 3 4 5 6 
#
# 1 0.014598 -0.002372 -0.004178 0.000000 0.000000 0.000000
# 2 -0.002372 0.014083 -0.006311 0.000000 0.000000 0.000000
# 3 -0.004178 -0.006311 0.018060 0.000000 0.000000 0.000000
# 4 0.000000 0.000000 0.000000 -0.066399 0.000000 0.000000
# 5 0.000000 0.000000 0.000000 0.000000 0.066463 0.000000
# 6 0.000000 0.000000 0.000000 0.000000 0.000000 0.042258
#
#
# Mechanical properties :
#
#
# Convention : Reuss Voigt Hill
#
# Bulk Modulus (GPa) = 47.57636 48.08871 47.83254
# Shear Modulus (GPa) = 41.05387 15.15024 28.10205
#
# Velocity S-wave (km/s) = 4.53390 2.75426 3.75115
# Velocity P-wave (km/s) = 7.15755 5.84751 6.53544
#
# Compressibility (1/GPa) = 0.02101884
#
# Stress axis : x y z
#
# Youngs Moduli (GPa) = 68.50176 71.00842 55.37096
#
# Poissons Ratio (x) = 0.16844 0.23135
# Poissons Ratio (y) = 0.16249 0.34943
# Poissons Ratio (z) = 0.28621 0.44812
#
# Static dielectric constant tensor:
#      x y z
#    x 1.725110 0.000000 0.000000 
#    y 0.000000 1.760090 0.000000 
#    z 0.000000 0.000000 1.734580 
# 
# From -- ./inp_files/15132.got.cif
#   From: 2010.05.17/outbox.cif.g08.bks.cpg/sg56_8_cif.got.tgz:15132.got - 2010.06.03 13:42:01.
