data_PCOD9429304
_publ_section_title
;
Structure prediction by ZEFSAII (Michael W. Deem and Ramdas Pophale) SiO2 
 PCOD9429304
Probable space group: P B A M
;
_chemical_formula_sum "Si O2"
_cell_formula_units_Z 64
_cell_length_a 24.000000
_cell_length_b 15.000000
_cell_length_c 9.000000
_cell_angle_alpha 90.000000
_cell_angle_beta 90.000000
_cell_angle_gamma 90.000000
_cell_volume 3240.000000
_symmetry_space_group_name_H-M "P B A M"
_symmetry_group_IT_number 55
_symmetry_cell_setting 'orthorhombic'
loop_
_space_group_symop_operation_xyz
x,y,z
-x,-y,z
1/2+x,1/2-y,-z
1/2-x,1/2+y,-z
-x,-y,-z
x,y,-z
1/2-x,1/2+y,z
1/2+x,1/2-y,z
loop_
_atom_site_type_symbol
_atom_site_label
_atom_site_fract_x
_atom_site_fract_y
_atom_site_fract_z
Si Si1 0.833532 0.756850 0.178781
Si Si2 0.073291 0.383621 0.178795
Si Si3 0.739794 0.986659 0.329430
Si Si4 0.386395 0.059810 0.677486
Si Si5 0.353367 0.555073 0.823003
Si Si6 0.886522 0.134284 0.820492
Si Si7 0.541305 0.790526 0.821289
Si Si8 0.273212 0.307694 0.330426
O O1 0.871431 0.672338 0.215393
O O2 0.866904 0.845386 0.227245
O O3 0.772998 0.752647 0.252348
O O4 0.826798 0.758456 0.000000
O O5 0.077995 0.477423 0.259598
O O6 0.019044 0.327025 0.222916
O O7 0.071470 0.397111 0.000000
O O8 0.750218 0.956504 0.500000
O O9 0.678477 0.955788 0.283303
O O10 0.788830 0.956761 0.221101
O O11 0.745420 0.093830 0.331330
O O12 0.389937 0.062773 0.500000
O O13 0.411996 0.147223 0.749482
O O14 0.385055 0.467853 0.765225
O O15 0.359720 0.553920 0.000000
O O16 0.941434 0.189931 0.781784
O O17 0.831451 0.181496 0.754651
O O18 0.881242 0.134099 0.000000
O O19 0.544151 0.798149 0.000000
O O20 0.283336 0.279509 0.500000
#
# Coordination Sequence:
#
# PCOD9429304 Si02
#       8
#     8   8   8   8   8   8   8   8
#     4  10  20  34  54  81 109 140 180 221 266 318
#     4  10  21  38  57  78 109 145 183 225 269 321
#     4   9  19  34  50  75 109 140 172 212 264 319
#     4  11  22  36  54  80 111 143 180 224 273 323
#     4   9  19  34  54  79 108 141 177 217 264 318
#     4   9  19  37  56  77 108 142 179 222 268 318
#     4  10  22  38  56  78 106 145 187 225 270 322
#     4  10  19  33  53  77 107 140 175 217 266 320
#
# _framework density 19.753086
#
# number of rings (size 3 to 8) (size 9 to 14) (size 15 to 20)
#    0.000    2.250    1.250    1.125    1.750    4.500 
#    0.000    0.625    0.000    3.750    0.000    0.000 
#    0.000    7.000    0.000    0.000    0.000    0.000 
#
# Total GULP energy -356986.150912 kJ/mol
# GULP energy per Si atom -5577.908608 kJ/mol
# Density = 1.970813 g / cm^3
# Si number density = 19.753086 Si / 1000 Ang^3
#
#
#
# Elastic Constant Matrix: (Units=GPa)
#
#
# Indices 1 2 3 4 5 6 
#
# 1 -4.5806 -26.2723 -9.5082 0.0000 0.0000 0.0000
# 2 -26.2723 65.3881 3.0779 0.0000 0.0000 0.0000
# 3 -9.5082 3.0779 -3.4081 0.0000 0.0000 0.0000
# 4 0.0000 0.0000 0.0000 1.9152 0.0000 0.0000
# 5 0.0000 0.0000 0.0000 0.0000 10.4929 0.0000
# 6 0.0000 0.0000 0.0000 0.0000 0.0000 12.2550
#
#
#
# Elastic Compliance Matrix: (Units=1/GPa)
#
#
# Indices 1 2 3 4 5 6 
#
# 1 0.242705 0.124113 -0.565037 0.000000 0.000000 0.000000
# 2 0.124113 0.078138 -0.275697 0.000000 0.000000 0.000000
# 3 -0.565037 -0.275697 1.033994 0.000000 0.000000 0.000000
# 4 0.000000 0.000000 0.000000 0.522129 0.000000 0.000000
# 5 0.000000 0.000000 0.000000 0.000000 0.095303 0.000000
# 6 0.000000 0.000000 0.000000 0.000000 0.000000 0.081599
#
#
# Mechanical properties :
#
#
# Convention : Reuss Voigt Hill
#
# Bulk Modulus (GPa) = -12.75431 -0.88951 -6.82191
# Shear Modulus (GPa) = 1.44468 10.93942 6.19205
#
# Velocity S-wave (km/s) = 0.85613 2.35587 1.77244
# Velocity P-wave (km/s) = 2.34385 2.63607 0.85300
#
# Compressibility (1/GPa) = -0.07840487
#
# Stress axis : x y z
#
# Youngs Moduli (GPa) = 4.12022 12.79785 0.96712
#
# Poissons Ratio (x) = -1.58838 0.54646
# Poissons Ratio (y) = -0.51137 0.26663
# Poissons Ratio (z) = 2.32808 3.52833
#
# Static dielectric constant tensor:
#      x y z
#    x 1.657110 0.000000 0.000000 
#    y 0.000000 1.767680 0.000000 
#    z 0.000000 0.000000 1.667320 
# 
# From -- ./inp_files/9770.got.cif
#   From: 2010.05.17/outbox.ucp.g08.bks.cvg/sg55_5_cif.got.tgz:9770.got - 2010.06.11 16:36:00.
