data_PCOD9429386
_publ_section_title
;
Structure prediction by ZEFSAII (Michael W. Deem and Ramdas Pophale) SiO2 
 PCOD9429386
Probable space group: P B A M
;
_chemical_formula_sum "Si O2"
_cell_formula_units_Z 48
_cell_length_a 9.000000
_cell_length_b 30.000000
_cell_length_c 9.000000
_cell_angle_alpha 90.000000
_cell_angle_beta 90.000000
_cell_angle_gamma 90.000000
_cell_volume 2430.000000
_symmetry_space_group_name_H-M "P B A M"
_symmetry_group_IT_number 55
_symmetry_cell_setting 'orthorhombic'
loop_
_space_group_symop_operation_xyz
x,y,z
-x,-y,z
1/2+x,1/2-y,-z
1/2-x,1/2+y,-z
-x,-y,-z
x,y,-z
1/2-x,1/2+y,z
1/2+x,1/2-y,z
loop_
_atom_site_type_symbol
_atom_site_label
_atom_site_fract_x
_atom_site_fract_y
_atom_site_fract_z
Si Si1 0.164875 0.791999 0.319388
Si Si2 0.685593 0.394092 0.832756
Si Si3 0.699312 0.111658 0.678755
Si Si4 0.664277 0.292428 0.822062
Si Si5 0.456163 0.451190 0.323569
Si Si6 0.978080 0.449106 0.830515
O O1 0.157424 0.789834 0.500000
O O2 0.249890 0.838443 0.277416
O O3 0.246324 0.747904 0.255713
O O4 0.000480 0.793855 0.248844
O O5 0.730730 0.342699 0.801360
O O6 0.574690 0.412878 0.710757
O O7 0.809303 0.432547 0.837469
O O8 0.617772 0.392519 0.000000
O O9 0.700345 0.111770 0.500000
O O10 0.547364 0.091745 0.738474
O O11 0.808130 0.072128 0.734970
O O12 0.657688 0.284244 0.000000
O O13 0.500000 0.500000 0.262711
O O14 0.438884 0.456578 0.500000
O O15 0.000000 0.500000 0.772282
O O16 0.037294 0.449202 0.000000
#
# Coordination Sequence:
#
# PCOD9429386 Si02
#       6
#     8   8   8   8   8   8
#     4  11  24  43  65  92 124 160 204 255 312 373
#     4  10  22  39  59  87 120 156 200 248 300 359
#     4  10  22  39  59  88 121 155 200 249 301 362
#     4  11  24  42  64  92 123 160 206 256 311 371
#     4  10  20  36  60  88 119 156 198 247 299 355
#     4  10  22  39  59  87 124 164 205 250 300 357
#
# _framework density 19.753086
#
# number of rings (size 3 to 8) (size 9 to 14) (size 15 to 20)
#    0.000    1.667    1.667    2.000    2.333    4.000 
#    0.000    0.000    0.000    0.000    0.000    0.000 
#    0.000    0.000    0.000    0.000    0.000    0.000 
#
# Total GULP energy -267404.372780 kJ/mol
# GULP energy per Si atom -5570.924433 kJ/mol
# Density = 1.970813 g / cm^3
# Si number density = 19.753086 Si / 1000 Ang^3
#
#
#
# Elastic Constant Matrix: (Units=GPa)
#
#
# Indices 1 2 3 4 5 6 
#
# 1 33.6846 7.7338 5.9145 0.0000 0.0000 0.0000
# 2 7.7338 131.9809 20.9774 0.0000 0.0000 0.0000
# 3 5.9145 20.9774 19.3292 0.0000 0.0000 0.0000
# 4 0.0000 0.0000 0.0000 20.8232 0.0000 0.0000
# 5 0.0000 0.0000 0.0000 0.0000 17.3392 0.0000
# 6 0.0000 0.0000 0.0000 0.0000 0.0000 37.8716
#
#
#
# Elastic Compliance Matrix: (Units=1/GPa)
#
#
# Indices 1 2 3 4 5 6 
#
# 1 0.031388 -0.000378 -0.009194 0.000000 0.000000 0.000000
# 2 -0.000378 0.009161 -0.009826 0.000000 0.000000 0.000000
# 3 -0.009194 -0.009826 0.065213 0.000000 0.000000 0.000000
# 4 0.000000 0.000000 0.000000 0.048023 0.000000 0.000000
# 5 0.000000 0.000000 0.000000 0.000000 0.057673 0.000000
# 6 0.000000 0.000000 0.000000 0.000000 0.000000 0.026405
#
#
# Mechanical properties :
#
#
# Convention : Reuss Voigt Hill
#
# Bulk Modulus (GPa) = 14.93324 28.24958 21.59141
# Shear Modulus (GPa) = 16.72342 25.23140 20.97741
#
# Velocity S-wave (km/s) = 2.91284 3.57787 3.26234
# Velocity P-wave (km/s) = 4.34617 5.60362 5.01447
#
# Compressibility (1/GPa) = 0.06696472
#
# Stress axis : x y z
#
# Youngs Moduli (GPa) = 31.85896 109.16048 15.33441
#
# Poissons Ratio (x) = 0.04125 0.14099
# Poissons Ratio (y) = 0.01204 0.15068
# Poissons Ratio (z) = 0.29292 1.07265
#
# Static dielectric constant tensor:
#      x y z
#    x 1.794090 0.000000 0.000000 
#    y 0.000000 1.672670 0.000000 
#    z 0.000000 0.000000 1.700680 
# 
# From -- ./inp_files/2870.got.cif
#   From: 2010.05.17/outbox.ucp.g08.bks.cvg/sg55_2_cif.got.tgz:2870.got - 2010.06.11 16:36:00.
