data_PCOD9429429
_publ_section_title
;
Structure prediction by ZEFSAII (Michael W. Deem and Ramdas Pophale) SiO2 
 PCOD9429429
Probable space group: P B A M
;
_chemical_formula_sum "Si O2"
_cell_formula_units_Z 56
_cell_length_a 21.000000
_cell_length_b 15.000000
_cell_length_c 9.000000
_cell_angle_alpha 90.000000
_cell_angle_beta 90.000000
_cell_angle_gamma 90.000000
_cell_volume 2835.000000
_symmetry_space_group_name_H-M "P B A M"
_symmetry_group_IT_number 55
_symmetry_cell_setting 'orthorhombic'
loop_
_space_group_symop_operation_xyz
x,y,z
-x,-y,z
1/2+x,1/2-y,-z
1/2-x,1/2+y,-z
-x,-y,-z
x,y,-z
1/2-x,1/2+y,z
1/2+x,1/2-y,z
loop_
_atom_site_type_symbol
_atom_site_label
_atom_site_fract_x
_atom_site_fract_y
_atom_site_fract_z
Si Si1 0.048381 0.919770 0.825325
Si Si2 0.476968 0.231211 0.322590
Si Si3 0.755877 0.698999 0.177496
Si Si4 0.258317 0.011508 0.174202
Si Si5 0.886180 0.758685 0.675925
Si Si6 0.854726 0.336205 0.175343
Si Si7 0.362685 0.541677 0.670802
O O1 0.038078 0.830436 0.735491
O O2 0.114717 0.964282 0.780040
O O3 0.044266 0.901332 0.000000
O O4 0.000000 0.000000 0.787683
O O5 0.476452 0.230873 0.500000
O O6 0.549333 0.210075 0.273774
O O7 0.421091 0.171135 0.258940
O O8 0.756209 0.593279 0.209245
O O9 0.822266 0.733838 0.241140
O O10 0.695709 0.759434 0.228313
O O11 0.756759 0.709151 0.000000
O O12 0.323322 0.066422 0.190881
O O13 0.209925 0.057939 0.286876
O O14 0.239414 0.023527 0.000000
O O15 0.876969 0.744176 0.500000
O O16 0.897383 0.864602 0.696417
O O17 0.865400 0.319401 0.000000
O O18 0.371740 0.515339 0.500000
#
# Coordination Sequence:
#
# PCOD9429429 Si02
#       7
#     8   8   8   8   8   8   8
#     4  11  22  34  53  82 115 152 191 232 288 356
#     4  11  23  39  58  83 119 158 196 245 296 351
#     4  10  21  38  62  87 114 153 197 242 294 349
#     4  10  21  38  60  88 118 149 197 250 295 348
#     4  10  22  38  57  84 118 152 193 241 292 349
#     4  10  21  38  59  87 121 154 194 247 297 353
#     4  11  21  35  57  84 116 153 192 239 295 353
#
# _framework density 19.753086
#
# number of rings (size 3 to 8) (size 9 to 14) (size 15 to 20)
#    0.000    1.571    2.857    2.143    0.000    5.143 
#    0.000    0.714    0.000    4.286    0.000    0.000 
#    0.000    0.000    0.000    0.000    0.000    0.000 
#
# Total GULP energy -312408.867834 kJ/mol
# GULP energy per Si atom -5578.729783 kJ/mol
# Density = 1.970813 g / cm^3
# Si number density = 19.753086 Si / 1000 Ang^3
#
#
#
# Elastic Constant Matrix: (Units=GPa)
#
#
# Indices 1 2 3 4 5 6 
#
# 1 62.1990 -0.8945 -1.9745 0.0000 0.0000 0.0000
# 2 -0.8945 37.2971 10.2393 0.0000 0.0000 0.0000
# 3 -1.9745 10.2393 -30.9447 0.0000 0.0000 0.0000
# 4 0.0000 0.0000 0.0000 21.7609 0.0000 0.0000
# 5 0.0000 0.0000 0.0000 0.0000 35.8143 0.0000
# 6 0.0000 0.0000 0.0000 0.0000 0.0000 24.1812
#
#
#
# Elastic Compliance Matrix: (Units=1/GPa)
#
#
# Indices 1 2 3 4 5 6 
#
# 1 0.016060 0.000611 -0.000823 0.000000 0.000000 0.000000
# 2 0.000611 0.024602 0.008102 0.000000 0.000000 0.000000
# 3 -0.000823 0.008102 -0.029582 0.000000 0.000000 0.000000
# 4 0.000000 0.000000 0.000000 0.045954 0.000000 0.000000
# 5 0.000000 0.000000 0.000000 0.000000 0.027922 0.000000
# 6 0.000000 0.000000 0.000000 0.000000 0.000000 0.041354
#
#
# Mechanical properties :
#
#
# Convention : Reuss Voigt Hill
#
# Bulk Modulus (GPa) = 37.23007 9.25466 23.24236
# Shear Modulus (GPa) = 41.84688 20.43003 31.13846
#
# Velocity S-wave (km/s) = 4.60771 3.21950 3.97468
# Velocity P-wave (km/s) = 6.86998 4.30297 5.73202
#
# Compressibility (1/GPa) = 0.02686001
#
# Stress axis : x y z
#
# Youngs Moduli (GPa) = 62.26606 40.64674 -33.80381
#
# Poissons Ratio (x) = -0.02484 -0.02781
# Poissons Ratio (y) = -0.03804 0.27387
# Poissons Ratio (z) = 0.05122 -0.32930
#
# Static dielectric constant tensor:
#      x y z
#    x 1.757010 0.000000 0.000000 
#    y 0.000000 1.724310 0.000000 
#    z 0.000000 0.000000 1.667260 
# 
# From -- ./inp_files/6030.got.cif
#   From: 2010.05.17/outbox.ucp.g08.bks.cvg/sg55_4_cif.got.tgz:6030.got - 2010.06.11 16:36:00.
