data_PCOD9429911
_publ_section_title
;
Structure prediction by ZEFSAII (Michael W. Deem and Ramdas Pophale) SiO2 
 PCOD9429911
Probable space group: P C C N
;
_chemical_formula_sum "Si O2"
_cell_formula_units_Z 60
_cell_length_a 19.227005
_cell_length_b 9.392897
_cell_length_c 18.546786
_cell_angle_alpha 90.000000
_cell_angle_beta 90.000000
_cell_angle_gamma 90.000000
_cell_volume 3349.499060
_symmetry_space_group_name_H-M "P C C N"
_symmetry_group_IT_number 56
_symmetry_cell_setting 'orthorhombic'
loop_
_space_group_symop_operation_xyz
x,y,z
1/2-x,1/2-y,z
1/2+x,-y,1/2-z
-x,1/2+y,1/2-z
-x,-y,-z
1/2+x,1/2+y,-z
1/2-x,y,1/2+z
x,1/2-y,1/2+z
loop_
_atom_site_type_symbol
_atom_site_label
_atom_site_fract_x
_atom_site_fract_y
_atom_site_fract_z
Si Si1 0.401773 0.989550 0.856162
Si Si2 0.748766 0.079570 0.592615
Si Si3 0.781058 0.896071 0.464090
Si Si4 0.600488 0.773300 0.257609
Si Si5 0.750000 0.750000 0.825349
Si Si6 0.512108 0.220248 0.617474
Si Si7 0.102375 0.058695 0.872940
Si Si8 0.427388 0.189194 0.982873
O O1 0.319358 0.985112 0.873219
O O2 0.430523 0.831266 0.854629
O O3 0.413841 0.080502 0.784859
O O4 0.441138 0.072441 0.921127
O O5 0.750000 0.250000 0.598804
O O6 0.753584 0.028418 0.509217
O O7 0.678941 0.012291 0.625639
O O8 0.750000 0.750000 0.498522
O O9 0.758217 0.882344 0.381297
O O10 0.863430 0.876525 0.471654
O O11 0.680858 0.766672 0.280091
O O12 0.552497 0.768110 0.327863
O O13 0.588895 0.645974 0.200523
O O14 0.487139 0.266485 0.537935
O O15 0.545697 0.064632 0.617080
O O16 0.096893 0.171716 0.938314
#
# Coordination Sequence:
#
# PCOD9429911 Si02
#       8
#     8   8   8   8   4   8   8   8
#     4  10  23  37  59  86 113 150 190 232 280 335
#     4  11  20  37  60  87 114 140 186 244 290 323
#     4   9  17  33  61  84 108 135 186 235 275 319
#     4  11  23  37  59  82 114 154 196 225 272 339
#     4  10  18  38  62  80 106 150 196 234 268 328
#     4  12  21  39  57  84 121 150 180 235 287 334
#     4  11  22  37  59  86 113 150 190 233 278 335
#     4  10  20  37  60  86 107 146 195 231 276 339
#
# _framework density 17.913126999999999
#
# number of rings (size 3 to 8) (size 9 to 14) (size 15 to 20)
#    0.400    1.067    4.000    2.400    0.000    0.000 
#    0.000    0.000    2.933    0.000    0.000    0.000 
#    0.000    0.000    0.000    0.000    0.000    0.000 
#
# Total GULP energy -334623.831339 kJ/mol
# GULP energy per Si atom -5577.063856 kJ/mol
# Density = 1.787236 g / cm^3
# Si number density = 17.913127 Si / 1000 Ang^3
#
#
#
# Elastic Constant Matrix: (Units=GPa)
#
#
# Indices 1 2 3 4 5 6 
#
# 1 62.4357 2.8069 14.5103 0.0000 0.0000 0.0000
# 2 2.8069 79.6325 14.4974 0.0000 0.0000 0.0000
# 3 14.5103 14.4974 60.7385 0.0000 0.0000 0.0000
# 4 0.0000 0.0000 0.0000 7.2131 0.0000 0.0000
# 5 0.0000 0.0000 0.0000 0.0000 17.3620 0.0000
# 6 0.0000 0.0000 0.0000 0.0000 0.0000 23.3634
#
#
#
# Elastic Compliance Matrix: (Units=1/GPa)
#
#
# Indices 1 2 3 4 5 6 
#
# 1 0.016960 0.000146 -0.004087 0.000000 0.000000 0.000000
# 2 0.000146 0.013129 -0.003169 0.000000 0.000000 0.000000
# 3 -0.004087 -0.003169 0.018197 0.000000 0.000000 0.000000
# 4 0.000000 0.000000 0.000000 0.138637 0.000000 0.000000
# 5 0.000000 0.000000 0.000000 0.000000 0.057597 0.000000
# 6 0.000000 0.000000 0.000000 0.000000 0.000000 0.042802
#
#
# Mechanical properties :
#
#
# Convention : Reuss Voigt Hill
#
# Bulk Modulus (GPa) = 29.35346 29.60399 29.47872
# Shear Modulus (GPa) = 15.97977 20.98717 18.48347
#
# Velocity S-wave (km/s) = 2.99000 3.42659 3.21571
# Velocity P-wave (km/s) = 5.32374 5.67606 5.50272
#
# Compressibility (1/GPa) = 0.03406753
#
# Stress axis : x y z
#
# Youngs Moduli (GPa) = 58.96358 76.16486 54.95531
#
# Poissons Ratio (x) = -0.01113 0.22458
# Poissons Ratio (y) = -0.00862 0.17414
# Poissons Ratio (z) = 0.24096 0.24134
#
# Static dielectric constant tensor:
#      x y z
#    x 1.612950 0.000000 0.000000 
#    y 0.000000 1.600820 0.000000 
#    z 0.000000 0.000000 1.607560 
# 
# From -- ./inp_files/16659.got.cif
#   From: 2010.05.17/outbox.cif.g08.bks.cpg/sg56_9_cif.got.tgz:16659.got - 2010.06.03 13:42:01.
