data_PCOD9429987
_publ_section_title
;
Structure prediction by ZEFSAII (Michael W. Deem and Ramdas Pophale) SiO2 
 PCOD9429987
Probable space group: P C C N
;
_chemical_formula_sum "Si O2"
_cell_formula_units_Z 56
_cell_length_a 18.332478
_cell_length_b 7.042440
_cell_length_c 22.408429
_cell_angle_alpha 90.000000
_cell_angle_beta 90.000000
_cell_angle_gamma 90.000000
_cell_volume 2893.048660
_symmetry_space_group_name_H-M "P C C N"
_symmetry_group_IT_number 56
_symmetry_cell_setting 'orthorhombic'
loop_
_space_group_symop_operation_xyz
x,y,z
1/2-x,1/2-y,z
1/2+x,-y,1/2-z
-x,1/2+y,1/2-z
-x,-y,-z
1/2+x,1/2+y,-z
1/2-x,y,1/2+z
x,1/2-y,1/2+z
loop_
_atom_site_type_symbol
_atom_site_label
_atom_site_fract_x
_atom_site_fract_y
_atom_site_fract_z
Si Si1 0.940619 0.912445 0.427275
Si Si2 0.603481 0.997186 0.802153
Si Si3 0.312837 0.981613 0.310446
Si Si4 0.846959 0.569037 0.166671
Si Si5 0.454124 0.583562 0.877442
Si Si6 0.066066 0.303534 0.945369
Si Si7 0.965654 0.601863 0.257815
O O1 0.000316 0.756893 0.404968
O O2 0.888111 0.967794 0.372458
O O3 0.905732 0.829602 0.487357
O O4 0.986570 0.099710 0.443286
O O5 0.670050 0.052920 0.759519
O O6 0.571803 0.796011 0.778771
O O7 0.534786 0.129941 0.785886
O O8 0.329749 0.207138 0.320354
O O9 0.228957 0.959614 0.327706
O O10 0.373602 0.875759 0.350550
O O11 0.884130 0.583171 0.102052
O O12 0.905127 0.502531 0.216592
O O13 0.443058 0.411955 0.923520
O O14 0.500565 0.521087 0.818990
#
# Coordination Sequence:
#
# PCOD9429987 Si02
#       7
#     8   8   8   8   8   8   8
#     4  10  19  30  49  73  98 124 168 199 236 298
#     4   9  16  28  45  71  95 122 159 202 245 288
#     4   8  16  28  50  71  97 130 156 208 256 288
#     4   9  15  29  48  73  99 126 167 199 252 302
#     4   9  18  32  49  72  97 125 167 206 244 285
#     4  10  19  31  49  71  97 133 158 203 244 283
#     4   9  16  26  48  69  93 122 154 210 248 278
#
# _framework density 19.356743000000002
#
# number of rings (size 3 to 8) (size 9 to 14) (size 15 to 20)
#    0.000    2.857    1.429    1.286    0.000    0.000 
#    0.000    0.714    0.000   22.286    0.000    2.000 
#    0.000    0.000    0.000    0.000    0.000    0.000 
#
# Total GULP energy -312019.037754 kJ/mol
# GULP energy per Si atom -5571.768531 kJ/mol
# Density = 1.931269 g / cm^3
# Si number density = 19.356743 Si / 1000 Ang^3
#
#
#
# Elastic Constant Matrix: (Units=GPa)
#
#
# Indices 1 2 3 4 5 6 
#
# 1 77.4110 -1.0200 25.1043 0.0000 0.0000 0.0000
# 2 -1.0200 38.5486 6.4739 0.0000 0.0000 0.0000
# 3 25.1043 6.4739 128.8731 0.0000 0.0000 0.0000
# 4 0.0000 0.0000 0.0000 25.0493 0.0000 0.0000
# 5 0.0000 0.0000 0.0000 0.0000 15.6771 0.0000
# 6 0.0000 0.0000 0.0000 0.0000 0.0000 20.9843
#
#
#
# Elastic Compliance Matrix: (Units=1/GPa)
#
#
# Indices 1 2 3 4 5 6 
#
# 1 0.013815 0.000824 -0.002733 0.000000 0.000000 0.000000
# 2 0.000824 0.026211 -0.001477 0.000000 0.000000 0.000000
# 3 -0.002733 -0.001477 0.008366 0.000000 0.000000 0.000000
# 4 0.000000 0.000000 0.000000 0.039921 0.000000 0.000000
# 5 0.000000 0.000000 0.000000 0.000000 0.063787 0.000000
# 6 0.000000 0.000000 0.000000 0.000000 0.000000 0.047655
#
#
# Mechanical properties :
#
#
# Convention : Reuss Voigt Hill
#
# Bulk Modulus (GPa) = 24.02605 33.99433 29.01019
# Shear Modulus (GPa) = 22.68599 26.62712 24.65655
#
# Velocity S-wave (km/s) = 3.42715 3.71293 3.57290
# Velocity P-wave (km/s) = 5.30091 5.99844 5.66043
#
# Compressibility (1/GPa) = 0.04162149
#
# Stress axis : x y z
#
# Youngs Moduli (GPa) = 72.38458 38.15168 119.53028
#
# Poissons Ratio (x) = -0.03145 0.32663
# Poissons Ratio (y) = -0.05968 0.17658
# Poissons Ratio (z) = 0.19780 0.05636
#
# Static dielectric constant tensor:
#      x y z
#    x 1.669450 0.000000 0.000000 
#    y 0.000000 1.769810 0.000000 
#    z 0.000000 0.000000 1.705500 
# 
# From -- ./inp_files/18333.got.cif
#   From: 2010.05.17/outbox.cif.g08.bks.cpg/sg56_10_cif.got.tgz:18333.got - 2010.06.03 13:42:01.
