data_PCOD9429347
_publ_section_title
;
Structure prediction by ZEFSAII (Michael W. Deem and Ramdas Pophale) SiO2 
 PCOD9429347
Probable space group: P B A M
;
_chemical_formula_sum "Si O2"
_cell_formula_units_Z 56
_cell_length_a 9.000000
_cell_length_b 21.000000
_cell_length_c 15.000000
_cell_angle_alpha 90.000000
_cell_angle_beta 90.000000
_cell_angle_gamma 90.000000
_cell_volume 2835.000000
_symmetry_space_group_name_H-M "P B A M"
_symmetry_group_IT_number 55
_symmetry_cell_setting 'orthorhombic'
loop_
_space_group_symop_operation_xyz
x,y,z
-x,-y,z
1/2+x,1/2-y,-z
1/2-x,1/2+y,-z
-x,-y,-z
x,y,-z
1/2-x,1/2+y,z
1/2+x,1/2-y,z
loop_
_atom_site_type_symbol
_atom_site_label
_atom_site_fract_x
_atom_site_fract_y
_atom_site_fract_z
Si Si1 0.891613 0.561901 0.159097
Si Si2 0.126171 0.751539 0.722243
Si Si3 0.335621 0.523213 0.766056
Si Si4 0.667406 0.024749 0.593529
Si Si5 0.890814 0.654626 0.330281
Si Si6 0.364208 0.670181 0.183297
Si Si7 0.516512 0.703566 0.000000
Si Si8 0.634849 0.160767 0.000000
O O1 0.734126 0.525607 0.162357
O O2 0.912555 0.607218 0.245204
O O3 0.895494 0.613623 0.081898
O O4 0.000000 0.500000 0.155689
O O5 0.253002 0.796646 0.680649
O O6 0.216730 0.712747 0.798977
O O7 0.039401 0.698008 0.663663
O O8 0.995752 0.797481 0.758051
O O9 0.500000 0.500000 0.750012
O O10 0.245518 0.507950 0.676631
O O11 0.330681 0.597212 0.791658
O O12 0.740076 0.006267 0.500000
O O13 0.654597 0.101182 0.599204
O O14 0.500000 0.000000 0.594605
O O15 0.432363 0.675083 0.085424
O O16 0.693203 0.686711 0.000000
O O17 0.476203 0.778954 0.000000
#
# Coordination Sequence:
#
# PCOD9429347 Si02
#       8
#     8   8   8   8   8   8   4   4
#     4  11  23  39  59  81 115 158 200 244 292 350
#     4  10  20  34  58  81 112 153 193 234 282 341
#     4  11  22  38  61  88 118 150 189 243 298 345
#     4  10  21  39  63  87 114 151 192 234 284 352
#     4  10  19  37  58  85 113 148 191 233 284 345
#     4  11  21  36  55  83 112 152 195 236 289 344
#     4  12  24  37  57  81 117 154 195 250 296 346
#     4  12  25  41  57  85 116 154 205 248 296 352
#
# _framework density 19.753086
#
# number of rings (size 3 to 8) (size 9 to 14) (size 15 to 20)
#    0.000    1.286    0.000    9.643    0.000    2.000 
#    0.000    2.143    0.000    3.429    0.000    0.000 
#    0.000    0.000    0.000    0.000    0.000    0.000 
#
# Total GULP energy -312356.292963 kJ/mol
# GULP energy per Si atom -5577.790946 kJ/mol
# Density = 1.970813 g / cm^3
# Si number density = 19.753086 Si / 1000 Ang^3
#
#
#
# Elastic Constant Matrix: (Units=GPa)
#
#
# Indices 1 2 3 4 5 6 
#
# 1 87.7488 38.1665 3.7844 0.0000 0.0000 0.0000
# 2 38.1665 170.3312 36.8967 0.0000 0.0000 0.0000
# 3 3.7844 36.8967 66.8227 0.0000 0.0000 0.0000
# 4 0.0000 0.0000 0.0000 28.3027 0.0000 0.0000
# 5 0.0000 0.0000 0.0000 0.0000 -5.9528 0.0000
# 6 0.0000 0.0000 0.0000 0.0000 0.0000 47.8273
#
#
#
# Elastic Compliance Matrix: (Units=1/GPa)
#
#
# Indices 1 2 3 4 5 6 
#
# 1 0.012681 -0.003051 0.000966 0.000000 0.000000 0.000000
# 2 -0.003051 0.007402 -0.003915 0.000000 0.000000 0.000000
# 3 0.000966 -0.003915 0.017072 0.000000 0.000000 0.000000
# 4 0.000000 0.000000 0.000000 0.035332 0.000000 0.000000
# 5 0.000000 0.000000 0.000000 0.000000 -0.167989 0.000000
# 6 0.000000 0.000000 0.000000 0.000000 0.000000 0.020909
#
#
# Mechanical properties :
#
#
# Convention : Reuss Voigt Hill
#
# Bulk Modulus (GPa) = 39.74957 53.62200 46.68578
# Shear Modulus (GPa) = -92.23729 30.43912 -30.89908
#
# Velocity S-wave (km/s) = -6.84080 3.92979 -3.95937
# Velocity P-wave (km/s) = 6.49834 6.91347 1.66848
#
# Compressibility (1/GPa) = 0.02515751
#
# Stress axis : x y z
#
# Youngs Moduli (GPa) = 78.85516 135.08951 58.57646
#
# Poissons Ratio (x) = 0.41214 -0.05661
# Poissons Ratio (y) = 0.24058 0.22930
# Poissons Ratio (z) = -0.07620 0.52882
#
# Static dielectric constant tensor:
#      x y z
#    x 2.097660 0.000000 0.000000 
#    y 0.000000 1.673760 0.000000 
#    z 0.000000 0.000000 1.781730 
# 
# From -- ./inp_files/17698.got.cif
#   From: 2010.05.17/outbox.ucp.g08.bks.cvg/sg55_9_cif.got.tgz:17698.got - 2010.06.11 16:36:00.
