data_PCOD9429665
_publ_section_title
;
Structure prediction by ZEFSAII (Michael W. Deem and Ramdas Pophale) SiO2 
 PCOD9429665
Probable space group: P C C N
;
_chemical_formula_sum "Si O2"
_cell_formula_units_Z 52
_cell_length_a 19.625988
_cell_length_b 11.795585
_cell_length_c 9.111325
_cell_angle_alpha 90.000000
_cell_angle_beta 90.000000
_cell_angle_gamma 90.000000
_cell_volume 2109.271826
_symmetry_space_group_name_H-M "P C C N"
_symmetry_group_IT_number 56
_symmetry_cell_setting 'orthorhombic'
loop_
_space_group_symop_operation_xyz
x,y,z
1/2-x,1/2-y,z
1/2+x,-y,1/2-z
-x,1/2+y,1/2-z
-x,-y,-z
1/2+x,1/2+y,-z
1/2-x,y,1/2+z
x,1/2-y,1/2+z
loop_
_atom_site_type_symbol
_atom_site_label
_atom_site_fract_x
_atom_site_fract_y
_atom_site_fract_z
Si Si1 0.461027 0.169059 0.542927
Si Si2 0.039920 0.863542 0.523448
Si Si3 0.385585 0.672773 0.218894
Si Si4 0.663229 0.565925 0.834417
Si Si5 0.070306 0.513243 0.297813
Si Si6 0.775731 0.002709 0.106804
Si Si7 0.750000 0.250000 0.129218
O O1 0.469242 0.299715 0.503712
O O2 0.398606 0.152155 0.655458
O O3 0.527998 0.114622 0.620791
O O4 0.449603 0.096898 0.393628
O O5 0.076406 0.867245 0.366753
O O6 0.078552 0.765360 0.618777
O O7 0.045375 0.971502 0.629589
O O8 0.373224 0.555518 0.134878
O O9 0.315469 0.728394 0.271005
O O10 0.712506 0.543767 0.699443
O O11 0.710552 0.582584 0.975025
O O12 0.152748 0.516605 0.305087
O O13 0.758191 0.129793 0.048456
#
# Coordination Sequence:
#
# PCOD9429665 Si02
#       7
#     8   8   8   8   8   8   4
#     4  10  21  43  61  87 142 175 215 283 341 390
#     4  12  21  38  61  91 127 178 223 268 323 414
#     4  11  22  32  56  87 132 167 222 249 323 407
#     4  10  23  37  60  89 127 180 199 272 324 400
#     4  10  20  37  63  90 125 180 215 270 341 397
#     4  10  20  34  55  88 128 168 213 248 337 399
#     4  10  18  28  44  80 124 168 190 242 306 404
#
# _framework density 24.653058000000001
#
# number of rings (size 3 to 8) (size 9 to 14) (size 15 to 20)
#    0.000    1.538    3.077    3.692    4.308    3.077 
#    0.000    3.077    0.000    0.000    0.000   17.231 
#    0.000    0.000    0.000    0.000    0.000    0.000 
#
# Total GULP energy -290784.239371 kJ/mol
# GULP energy per Si atom -5592.004603 kJ/mol
# Density = 2.459695 g / cm^3
# Si number density = 24.653058 Si / 1000 Ang^3
#
#
#
# Elastic Constant Matrix: (Units=GPa)
#
#
# Indices 1 2 3 4 5 6 
#
# 1 96.5262 25.7363 34.8787 0.0000 0.0000 0.0000
# 2 25.7363 72.2833 19.6864 0.0000 0.0000 0.0000
# 3 34.8787 19.6864 96.8731 0.0000 0.0000 0.0000
# 4 0.0000 0.0000 0.0000 8.8118 0.0000 0.0000
# 5 0.0000 0.0000 0.0000 0.0000 39.3651 0.0000
# 6 0.0000 0.0000 0.0000 0.0000 0.0000 15.3447
#
#
#
# Elastic Compliance Matrix: (Units=1/GPa)
#
#
# Indices 1 2 3 4 5 6 
#
# 1 0.012678 -0.003462 -0.003861 0.000000 0.000000 0.000000
# 2 -0.003462 0.015591 -0.001922 0.000000 0.000000 0.000000
# 3 -0.003861 -0.001922 0.012103 0.000000 0.000000 0.000000
# 4 0.000000 0.000000 0.000000 0.113484 0.000000 0.000000
# 5 0.000000 0.000000 0.000000 0.000000 0.025403 0.000000
# 6 0.000000 0.000000 0.000000 0.000000 0.000000 0.065169
#
#
# Mechanical properties :
#
#
# Convention : Reuss Voigt Hill
#
# Bulk Modulus (GPa) = 45.69995 47.36505 46.53250
# Shear Modulus (GPa) = 18.50390 25.06306 21.78348
#
# Velocity S-wave (km/s) = 2.74263 3.19192 2.97577
# Velocity P-wave (km/s) = 5.34854 5.73052 5.54282
#
# Compressibility (1/GPa) = 0.02188186
#
# Stress axis : x y z
#
# Youngs Moduli (GPa) = 78.87531 64.14104 82.62094
#
# Poissons Ratio (x) = 0.22209 0.31901
# Poissons Ratio (y) = 0.27311 0.15877
# Poissons Ratio (z) = 0.30455 0.12326
#
# Static dielectric constant tensor:
#      x y z
#    x 2.019080 0.000000 0.000000 
#    y 0.000000 1.986880 0.000000 
#    z 0.000000 0.000000 1.982350 
# 
# From -- ./inp_files/4446.got.cif
#   From: 2010.05.17/outbox.cif.g08.bks.cpg/sg56_3_cif.got.tgz:4446.got - 2010.06.03 13:42:01.
