data_PCOD9429221
_publ_section_title
;
Structure prediction by ZEFSAII (Michael W. Deem and Ramdas Pophale) SiO2 
 PCOD9429221
Probable space group: P B A M
;
_chemical_formula_sum "Si O2"
_cell_formula_units_Z 56
_cell_length_a 6.973940
_cell_length_b 31.679041
_cell_length_c 13.261070
_cell_angle_alpha 90.000000
_cell_angle_beta 90.000000
_cell_angle_gamma 90.000000
_cell_volume 2929.738108
_symmetry_space_group_name_H-M "P B A M"
_symmetry_group_IT_number 55
_symmetry_cell_setting 'orthorhombic'
loop_
_space_group_symop_operation_xyz
x,y,z
-x,-y,z
1/2+x,1/2-y,-z
1/2-x,1/2+y,-z
-x,-y,-z
x,y,-z
1/2-x,1/2+y,z
1/2+x,1/2-y,z
loop_
_atom_site_type_symbol
_atom_site_label
_atom_site_fract_x
_atom_site_fract_y
_atom_site_fract_z
Si Si1 0.176739 0.555715 0.620895
Si Si2 0.447082 0.311909 0.000000
Si Si3 0.493191 0.212608 0.780044
Si Si4 0.061029 0.811067 0.220228
Si Si5 0.867116 0.124080 0.383484
Si Si6 0.227691 0.966682 0.378897
Si Si7 0.995194 0.713526 0.000000
Si Si8 0.589466 0.852438 0.616810
O O1 0.205093 0.556788 0.500000
O O2 0.295282 0.514863 0.658779
O O3 0.192802 0.604364 0.652874
O O4 0.952896 0.543908 0.636841
O O5 0.496985 0.329466 0.889522
O O6 0.526858 0.264087 0.000000
O O7 0.215481 0.306772 0.000000
O O8 0.508875 0.262947 0.764791
O O9 0.709116 0.195544 0.783635
O O10 0.409889 0.204149 0.892181
O O11 0.388911 0.186884 0.692125
O O12 0.030060 0.842249 0.312765
O O13 0.929667 0.126032 0.500000
O O14 0.880826 0.075695 0.345190
O O15 0.639078 0.135725 0.384265
O O16 0.197331 0.967842 0.500000
O O17 0.638714 0.842916 0.500000
#
# Coordination Sequence:
#
# PCOD9429221 Si02
#       8
#     8   4   8   8   8   8   4   8
#     4   7   9  14  25  41  61  83 105 130 159 188
#     4   8  14  24  36  48  61  81 111 141 164 186
#     4   9  16  25  36  49  66  88 112 137 163 191
#     4   9  16  25  36  49  66  88 112 137 163 191
#     4   8  13  20  30  46  67  88 109 133 162 195
#     4   7   9  14  25  41  61  83 105 130 159 188
#     4   8  14  24  36  48  61  81 111 141 164 186
#     4   8  13  20  30  46  67  88 109 133 162 195
#
# _framework density 19.114336000000002
#
# number of rings (size 3 to 8) (size 9 to 14) (size 15 to 20)
#    0.000    4.000    0.000    2.571    0.000    0.571 
#    0.000    0.000    0.000    0.000    0.000    1.000 
#    0.000    9.143    0.000    7.143    0.000   55.714 
#
# Total GULP energy -311797.274776 kJ/mol
# GULP energy per Si atom -5567.808478 kJ/mol
# Density = 1.907083 g / cm^3
# Si number density = 19.114336 Si / 1000 Ang^3
#
#
#
# Elastic Constant Matrix: (Units=GPa)
#
#
# Indices 1 2 3 4 5 6 
#
# 1 65.5065 19.5058 12.3709 0.0000 0.0000 0.0000
# 2 19.5058 133.7690 80.8377 0.0000 0.0000 0.0000
# 3 12.3709 80.8377 105.5822 0.0000 0.0000 0.0000
# 4 0.0000 0.0000 0.0000 -3.2391 0.0000 0.0000
# 5 0.0000 0.0000 0.0000 0.0000 -2.2222 0.0000
# 6 0.0000 0.0000 0.0000 0.0000 0.0000 32.0134
#
#
#
# Elastic Compliance Matrix: (Units=1/GPa)
#
#
# Indices 1 2 3 4 5 6 
#
# 1 0.015960 -0.002228 -0.000164 0.000000 0.000000 0.000000
# 2 -0.002228 0.014224 -0.010629 0.000000 0.000000 0.000000
# 3 -0.000164 -0.010629 0.017629 0.000000 0.000000 0.000000
# 4 0.000000 0.000000 0.000000 -0.308731 0.000000 0.000000
# 5 0.000000 0.000000 0.000000 0.000000 -0.450003 0.000000
# 6 0.000000 0.000000 0.000000 0.000000 0.000000 0.031237
#
#
# Mechanical properties :
#
#
# Convention : Reuss Voigt Hill
#
# Bulk Modulus (GPa) = 45.93537 58.92072 52.42805
# Shear Modulus (GPa) = -7.73532 18.11998 5.19233
#
# Velocity S-wave (km/s) = -2.01387 3.08227 1.64996
# Velocity P-wave (km/s) = 4.32163 6.59996 5.57835
#
# Compressibility (1/GPa) = 0.02176972
#
# Stress axis : x y z
#
# Youngs Moduli (GPa) = 62.65628 70.30485 56.72586
#
# Poissons Ratio (x) = 0.15664 0.00931
# Poissons Ratio (y) = 0.13960 0.60295
# Poissons Ratio (z) = 0.01028 0.74728
#
# Static dielectric constant tensor:
#      x y z
#    x 1.810400 0.000000 0.000000 
#    y 0.000000 1.686760 0.000000 
#    z 0.000000 0.000000 1.655800 
# 
# From -- ./inp_files/17915.got.cif
#   From: 2010.05.17/outbox.cif.g08.bks.cpg/sg55_9_cif.got.tgz:17915.got - 2010.06.03 13:27:54.
