data_PCOD9429135
_publ_section_title
;
Structure prediction by ZEFSAII (Michael W. Deem and Ramdas Pophale) SiO2 
 PCOD9429135
Probable space group: P B A M
;
_chemical_formula_sum "Si O2"
_cell_formula_units_Z 40
_cell_length_a 10.175090
_cell_length_b 9.288698
_cell_length_c 20.907134
_cell_angle_alpha 90.000000
_cell_angle_beta 90.000000
_cell_angle_gamma 90.000000
_cell_volume 1976.003025
_symmetry_space_group_name_H-M "P B A M"
_symmetry_group_IT_number 55
_symmetry_cell_setting 'orthorhombic'
loop_
_space_group_symop_operation_xyz
x,y,z
-x,-y,z
1/2+x,1/2-y,-z
1/2-x,1/2+y,-z
-x,-y,-z
x,y,-z
1/2-x,1/2+y,z
1/2+x,1/2-y,z
loop_
_atom_site_type_symbol
_atom_site_label
_atom_site_fract_x
_atom_site_fract_y
_atom_site_fract_z
Si Si1 0.993896 0.327218 0.072758
Si Si2 0.252457 0.789602 0.149631
Si Si3 0.652366 0.457223 0.230783
Si Si4 0.616607 0.105190 0.574298
Si Si5 0.357237 0.569110 0.621152
O O1 0.137675 0.278565 0.095108
O O2 0.000000 0.500000 0.074959
O O3 0.883776 0.268003 0.120743
O O4 0.965312 0.281517 0.000000
O O5 0.310972 0.701173 0.208747
O O6 0.229364 0.945548 0.179696
O O7 0.500000 0.500000 0.223924
O O8 0.682619 0.468471 0.305677
O O9 0.587042 0.139029 0.500000
O O10 0.633699 0.258807 0.609606
O O11 0.500000 0.000000 0.598942
O O12 0.748444 0.010357 0.578849
O O13 0.500000 0.500000 0.609394
#
# Coordination Sequence:
#
# PCOD9429135 Si02
#       5
#     8   8   8   8   8
#     4  11  24  41  64  96 128 165 213 265 325 386
#     4  12  22  43  64  92 125 170 209 267 319 382
#     4  11  24  41  64  92 129 162 216 261 319 378
#     4  11  24  43  68 100 135 172 217 269 331 389
#     4  11  24  43  65  97 131 176 222 272 322 393
#
# _framework density 20.242885999999999
#
# number of rings (size 3 to 8) (size 9 to 14) (size 15 to 20)
#    0.000    0.800    4.000    3.600    0.000    4.800 
#    3.600    1.000    0.000    0.000    0.000    0.000 
#    0.000    0.000    0.000    0.000    0.000    0.000 
#
# Total GULP energy -223382.903515 kJ/mol
# GULP energy per Si atom -5584.572588 kJ/mol
# Density = 2.019681 g / cm^3
# Si number density = 20.242886 Si / 1000 Ang^3
#
#
#
# Elastic Constant Matrix: (Units=GPa)
#
#
# Indices 1 2 3 4 5 6 
#
# 1 79.3703 23.4198 19.1635 0.0000 0.0000 0.0000
# 2 23.4198 82.3246 5.8195 0.0000 0.0000 0.0000
# 3 19.1635 5.8195 62.8815 0.0000 0.0000 0.0000
# 4 0.0000 0.0000 0.0000 15.3724 0.0000 0.0000
# 5 0.0000 0.0000 0.0000 0.0000 32.1919 0.0000
# 6 0.0000 0.0000 0.0000 0.0000 0.0000 25.7231
#
#
#
# Elastic Compliance Matrix: (Units=1/GPa)
#
#
# Indices 1 2 3 4 5 6 
#
# 1 0.014749 -0.003904 -0.004134 0.000000 0.000000 0.000000
# 2 -0.003904 0.013260 -0.000038 0.000000 0.000000 0.000000
# 3 -0.004134 -0.000038 0.017166 0.000000 0.000000 0.000000
# 4 0.000000 0.000000 0.000000 0.065052 0.000000 0.000000
# 5 0.000000 0.000000 0.000000 0.000000 0.031064 0.000000
# 6 0.000000 0.000000 0.000000 0.000000 0.000000 0.038876
#
#
# Mechanical properties :
#
#
# Convention : Reuss Voigt Hill
#
# Bulk Modulus (GPa) = 34.45201 35.70911 35.08056
# Shear Modulus (GPa) = 24.27286 26.40236 25.33761
#
# Velocity S-wave (km/s) = 3.46653 3.61540 3.54175
# Velocity P-wave (km/s) = 5.75141 5.92510 5.83890
#
# Compressibility (1/GPa) = 0.02902589
#
# Stress axis : x y z
#
# Youngs Moduli (GPa) = 67.80101 75.41360 58.25420
#
# Poissons Ratio (x) = 0.29439 0.24080
# Poissons Ratio (y) = 0.26467 0.00219
# Poissons Ratio (z) = 0.28026 0.00283
#
# Static dielectric constant tensor:
#      x y z
#    x 1.866430 0.000000 0.000000 
#    y 0.000000 1.684810 0.000000 
#    z 0.000000 0.000000 1.704420 
# 
# From -- ./inp_files/23402.got.cif
#   From: 2010.05.17/outbox.cif.g08.bks.cpg/sg55_12_cif.got.tgz:23402.got - 2010.06.03 13:27:54.
