data_PCOD9429735
_publ_section_title
;
Structure prediction by ZEFSAII (Michael W. Deem and Ramdas Pophale) SiO2 
 PCOD9429735
Probable space group: P C C N
;
_chemical_formula_sum "Si O2"
_cell_formula_units_Z 52
_cell_length_a 7.655345
_cell_length_b 17.223030
_cell_length_c 18.769295
_cell_angle_alpha 90.000000
_cell_angle_beta 90.000000
_cell_angle_gamma 90.000000
_cell_volume 2474.698448
_symmetry_space_group_name_H-M "P C C N"
_symmetry_group_IT_number 56
_symmetry_cell_setting 'orthorhombic'
loop_
_space_group_symop_operation_xyz
x,y,z
1/2-x,1/2-y,z
1/2+x,-y,1/2-z
-x,1/2+y,1/2-z
-x,-y,-z
1/2+x,1/2+y,-z
1/2-x,y,1/2+z
x,1/2-y,1/2+z
loop_
_atom_site_type_symbol
_atom_site_label
_atom_site_fract_x
_atom_site_fract_y
_atom_site_fract_z
Si Si1 0.765672 0.511420 0.964011
Si Si2 0.503055 0.300482 0.158393
Si Si3 0.493285 0.516774 0.246605
Si Si4 0.250000 0.750000 0.216539
Si Si5 0.676407 0.087882 0.836471
Si Si6 0.381524 0.959974 0.396315
Si Si7 0.113497 0.138878 0.634291
O O1 0.835741 0.440297 0.916769
O O2 0.568341 0.526842 0.935045
O O3 0.866470 0.586783 0.936030
O O4 0.757066 0.490117 0.046498
O O5 0.587805 0.270257 0.231801
O O6 0.621813 0.368951 0.125288
O O7 0.483444 0.219184 0.117188
O O8 0.308348 0.336755 0.161288
O O9 0.312955 0.532705 0.205844
O O10 0.506081 0.436258 0.291060
O O11 0.617565 0.507381 0.177146
O O12 0.528470 0.585983 0.303126
O O13 0.243896 0.827262 0.170101
#
# Coordination Sequence:
#
# PCOD9429735 Si02
#       7
#     8   8   8   4   8   8   8
#     4   8  17  32  53  75 104 137 180 214 261 326
#     4  10  19  32  53  78 106 140 176 221 271 317
#     4  10  18  32  54  79 101 134 180 219 265 316
#     4  12  20  32  50  82 106 134 174 224 268 320
#     4  10  20  32  53  77 104 138 172 223 267 318
#     4   9  16  31  54  78 101 140 179 217 263 328
#     4   9  18  33  54  79 106 137 178 226 266 313
#
# _framework density 21.012663
#
# number of rings (size 3 to 8) (size 9 to 14) (size 15 to 20)
#    0.000    2.462    3.077    0.923    0.000    0.000 
#    0.000    0.769    3.385   10.154    0.000    0.000 
#    0.000    0.000    0.000    0.000    0.000    0.000 
#
# Total GULP energy -289778.213279 kJ/mol
# GULP energy per Si atom -5572.657948 kJ/mol
# Density = 2.096484 g / cm^3
# Si number density = 21.012663 Si / 1000 Ang^3
#
#
#
# Elastic Constant Matrix: (Units=GPa)
#
#
# Indices 1 2 3 4 5 6 
#
# 1 46.7805 8.9187 6.1580 0.0000 0.0000 0.0000
# 2 8.9187 128.9656 34.3998 0.0000 0.0000 0.0000
# 3 6.1580 34.3998 93.3449 0.0000 0.0000 0.0000
# 4 0.0000 0.0000 0.0000 9.2671 0.0000 0.0000
# 5 0.0000 0.0000 0.0000 0.0000 14.6284 0.0000
# 6 0.0000 0.0000 0.0000 0.0000 0.0000 20.9968
#
#
#
# Elastic Compliance Matrix: (Units=1/GPa)
#
#
# Indices 1 2 3 4 5 6 
#
# 1 0.021742 -0.001243 -0.000976 0.000000 0.000000 0.000000
# 2 -0.001243 0.008670 -0.003113 0.000000 0.000000 0.000000
# 3 -0.000976 -0.003113 0.011925 0.000000 0.000000 0.000000
# 4 0.000000 0.000000 0.000000 0.107909 0.000000 0.000000
# 5 0.000000 0.000000 0.000000 0.000000 0.068360 0.000000
# 6 0.000000 0.000000 0.000000 0.000000 0.000000 0.047626
#
#
# Mechanical properties :
#
#
# Convention : Reuss Voigt Hill
#
# Bulk Modulus (GPa) = 31.57384 40.89375 36.23380
# Shear Modulus (GPa) = 17.39404 23.61943 20.50674
#
# Velocity S-wave (km/s) = 2.88025 3.35633 3.12737
# Velocity P-wave (km/s) = 5.11076 5.87569 5.50652
#
# Compressibility (1/GPa) = 0.03167179
#
# Stress axis : x y z
#
# Youngs Moduli (GPa) = 45.99410 115.33508 83.85987
#
# Poissons Ratio (x) = 0.14338 0.08186
# Poissons Ratio (y) = 0.05718 0.26107
# Poissons Ratio (z) = 0.04490 0.35906
#
# Static dielectric constant tensor:
#      x y z
#    x 1.918250 0.000000 0.000000 
#    y 0.000000 1.782360 0.000000 
#    z 0.000000 0.000000 1.737310 
# 
# From -- ./inp_files/18152.got.cif
#   From: 2010.05.17/outbox.cif.g08.bks.cpg/sg56_10_cif.got.tgz:18152.got - 2010.06.03 13:42:01.
