data_PCOD9429121
_publ_section_title
;
Structure prediction by ZEFSAII (Michael W. Deem and Ramdas Pophale) SiO2 
 PCOD9429121
Probable space group: P B A M
;
_chemical_formula_sum "Si O2"
_cell_formula_units_Z 34
_cell_length_a 20.056520
_cell_length_b 9.548290
_cell_length_c 7.772161
_cell_angle_alpha 90.000000
_cell_angle_beta 90.000000
_cell_angle_gamma 90.000000
_cell_volume 1488.411340
_symmetry_space_group_name_H-M "P B A M"
_symmetry_group_IT_number 55
_symmetry_cell_setting 'orthorhombic'
loop_
_space_group_symop_operation_xyz
x,y,z
-x,-y,z
1/2+x,1/2-y,-z
1/2-x,1/2+y,-z
-x,-y,-z
x,y,-z
1/2-x,1/2+y,z
1/2+x,1/2-y,z
loop_
_atom_site_type_symbol
_atom_site_label
_atom_site_fract_x
_atom_site_fract_y
_atom_site_fract_z
Si Si1 0.222169 0.974924 0.700566
Si Si2 0.581563 0.600949 0.198574
Si Si3 0.833133 0.726667 0.201389
Si Si4 0.519694 0.152778 0.208551
Si Si5 0.500000 0.500000 0.500000
O O1 0.223869 0.942574 0.500000
O O2 0.160617 0.891025 0.785022
O O3 0.290134 0.914371 0.777883
O O4 0.205887 0.139292 0.723861
O O5 0.539684 0.739250 0.247020
O O6 0.556989 0.496226 0.346054
O O7 0.566480 0.563189 0.000000
O O8 0.907529 0.699467 0.271365
O O9 0.840464 0.760127 0.000000
O O10 0.500000 0.000000 0.272894
O O11 0.523686 0.146628 0.000000
#
# Coordination Sequence:
#
# PCOD9429121 Si02
#       5
#     8   8   8   8   2
#     4  12  26  46  69 103 146 187 240 296 359 427
#     4  11  23  42  71 102 138 184 233 293 356 420
#     4  11  24  44  72 103 138 189 238 291 360 429
#     4   9  21  42  71 104 138 179 234 293 356 423
#     4  12  22  40  66  98 140 172 236 288 350 418
#
# _framework density 22.843149
#
# number of rings (size 3 to 8) (size 9 to 14) (size 15 to 20)
#    0.000    1.176    1.176    4.588    3.294    1.882 
#    2.118    0.588    0.000    0.000    0.000    0.000 
#    0.000    0.000    0.000    0.000    0.000    0.000 
#
# Total GULP energy -189574.918902 kJ/mol
# GULP energy per Si atom -5575.732909 kJ/mol
# Density = 2.279116 g / cm^3
# Si number density = 22.843149 Si / 1000 Ang^3
#
#
#
# Elastic Constant Matrix: (Units=GPa)
#
#
# Indices 1 2 3 4 5 6 
#
# 1 83.7125 50.1650 3.1815 0.0000 0.0000 0.0000
# 2 50.1650 130.3997 8.3395 0.0000 0.0000 0.0000
# 3 3.1815 8.3395 93.3426 0.0000 0.0000 0.0000
# 4 0.0000 0.0000 0.0000 14.1555 0.0000 0.0000
# 5 0.0000 0.0000 0.0000 0.0000 27.5878 0.0000
# 6 0.0000 0.0000 0.0000 0.0000 0.0000 39.8497
#
#
#
# Elastic Compliance Matrix: (Units=1/GPa)
#
#
# Indices 1 2 3 4 5 6 
#
# 1 0.015525 -0.005973 0.000004 0.000000 0.000000 0.000000
# 2 -0.005973 0.010011 -0.000691 0.000000 0.000000 0.000000
# 3 0.000004 -0.000691 0.010775 0.000000 0.000000 0.000000
# 4 0.000000 0.000000 0.000000 0.070644 0.000000 0.000000
# 5 0.000000 0.000000 0.000000 0.000000 0.036248 0.000000
# 6 0.000000 0.000000 0.000000 0.000000 0.000000 0.025094
#
#
# Mechanical properties :
#
#
# Convention : Reuss Voigt Hill
#
# Bulk Modulus (GPa) = 43.49329 47.86965 45.68147
# Shear Modulus (GPa) = 26.41619 32.70320 29.55970
#
# Velocity S-wave (km/s) = 3.40430 3.78781 3.60116
# Velocity P-wave (km/s) = 5.87654 6.33493 6.11003
#
# Compressibility (1/GPa) = 0.02299205
#
# Stress axis : x y z
#
# Youngs Moduli (GPa) = 64.41395 99.89422 92.80926
#
# Poissons Ratio (x) = 0.59663 -0.00042
# Poissons Ratio (y) = 0.38472 0.06411
# Poissons Ratio (z) = -0.00029 0.06901
#
# Static dielectric constant tensor:
#      x y z
#    x 1.907100 0.000000 0.000000 
#    y 0.000000 1.903640 0.000000 
#    z 0.000000 0.000000 1.835960 
# 
# From -- ./inp_files/8378.got.cif
#   From: 2010.05.17/outbox.cif.g08.bks.cpg/sg55_5_cif.got.tgz:8378.got - 2010.06.03 13:27:54.
