data_PCOD9429824
_publ_section_title
;
Structure prediction by ZEFSAII (Michael W. Deem and Ramdas Pophale) SiO2 
 PCOD9429824
Probable space group: P C C N
;
_chemical_formula_sum "Si O2"
_cell_formula_units_Z 56
_cell_length_a 15.067075
_cell_length_b 11.157180
_cell_length_c 14.405442
_cell_angle_alpha 90.000000
_cell_angle_beta 90.000000
_cell_angle_gamma 90.000000
_cell_volume 2421.642210
_symmetry_space_group_name_H-M "P C C N"
_symmetry_group_IT_number 56
_symmetry_cell_setting 'orthorhombic'
loop_
_space_group_symop_operation_xyz
x,y,z
1/2-x,1/2-y,z
1/2+x,-y,1/2-z
-x,1/2+y,1/2-z
-x,-y,-z
1/2+x,1/2+y,-z
1/2-x,y,1/2+z
x,1/2-y,1/2+z
loop_
_atom_site_type_symbol
_atom_site_label
_atom_site_fract_x
_atom_site_fract_y
_atom_site_fract_z
Si Si1 0.478576 0.993404 0.338024
Si Si2 0.694798 0.494184 0.285925
Si Si3 0.633464 0.136787 0.079437
Si Si4 0.432069 0.642152 0.028818
Si Si5 0.250000 0.250000 0.908820
Si Si6 0.733902 0.519401 0.970970
Si Si7 0.377471 0.081899 0.807199
Si Si8 0.250000 0.750000 0.764036
O O1 0.390890 0.010748 0.276539
O O2 0.463480 0.915227 0.430947
O O3 0.550777 0.924113 0.274526
O O4 0.506086 0.122012 0.382085
O O5 0.700638 0.552364 0.386620
O O6 0.783884 0.532696 0.232980
O O7 0.709966 0.353035 0.298956
O O8 0.590300 0.223153 0.002905
O O9 0.669359 0.211349 0.167809
O O10 0.586027 0.017070 0.118669
O O11 0.720504 0.078907 0.035288
O O12 0.352674 0.552234 0.059814
O O13 0.336590 0.201653 0.852902
O O14 0.282134 0.361321 0.971107
#
# Coordination Sequence:
#
# PCOD9429824 Si02
#       8
#     8   8   8   8   4   8   8   4
#     4  11  23  43  69 106 148 185 236 299 364 451
#     4  11  23  41  68 107 140 184 241 294 369 430
#     4  10  19  38  69 103 141 174 228 301 363 416
#     4  11  21  42  68 107 144 177 238 303 380 421
#     4  10  24  46  70  94 140 204 236 278 360 442
#     4  11  22  42  71 100 140 191 240 296 359 442
#     4  10  23  46  69 101 145 193 241 295 355 437
#     4  10  18  34  66  98 142 168 220 300 360 410
#
# _framework density 23.124803
#
# number of rings (size 3 to 8) (size 9 to 14) (size 15 to 20)
#    0.000    1.429    4.286    1.714    2.000    0.571 
#    5.143    7.143    0.000    0.000    0.000    0.000 
#    0.000    0.000    0.000    0.000    0.000    0.000 
#
# Total GULP energy -312438.979473 kJ/mol
# GULP energy per Si atom -5579.267491 kJ/mol
# Density = 2.307217 g / cm^3
# Si number density = 23.124803 Si / 1000 Ang^3
#
#
#
# Elastic Constant Matrix: (Units=GPa)
#
#
# Indices 1 2 3 4 5 6 
#
# 1 89.5753 26.1167 55.6597 0.0000 0.0000 0.0000
# 2 26.1167 115.3894 44.0608 0.0000 0.0000 0.0000
# 3 55.6597 44.0608 116.3883 0.0000 0.0000 0.0000
# 4 0.0000 0.0000 0.0000 18.5584 0.0000 0.0000
# 5 0.0000 0.0000 0.0000 0.0000 44.1915 0.0000
# 6 0.0000 0.0000 0.0000 0.0000 0.0000 18.7535
#
#
#
# Elastic Compliance Matrix: (Units=1/GPa)
#
#
# Indices 1 2 3 4 5 6 
#
# 1 0.015949 -0.000815 -0.007319 0.000000 0.000000 0.000000
# 2 -0.000815 0.010172 -0.003461 0.000000 0.000000 0.000000
# 3 -0.007319 -0.003461 0.013402 0.000000 0.000000 0.000000
# 4 0.000000 0.000000 0.000000 0.053884 0.000000 0.000000
# 5 0.000000 0.000000 0.000000 0.000000 0.022629 0.000000
# 6 0.000000 0.000000 0.000000 0.000000 0.000000 0.053324
#
#
# Mechanical properties :
#
#
# Convention : Reuss Voigt Hill
#
# Bulk Modulus (GPa) = 61.22300 63.66972 62.44636
# Shear Modulus (GPa) = 25.25325 29.33505 27.29415
#
# Velocity S-wave (km/s) = 3.30819 3.56554 3.43927
# Velocity P-wave (km/s) = 6.41285 6.67410 6.54478
#
# Compressibility (1/GPa) = 0.01633373
#
# Stress axis : x y z
#
# Youngs Moduli (GPa) = 62.69948 98.30503 74.61517
#
# Poissons Ratio (x) = 0.08015 0.54608
# Poissons Ratio (y) = 0.05112 0.25825
# Poissons Ratio (z) = 0.45887 0.34024
#
# Static dielectric constant tensor:
#      x y z
#    x 1.938250 0.000000 0.000000 
#    y 0.000000 1.981570 0.000000 
#    z 0.000000 0.000000 1.927890 
# 
# From -- ./inp_files/12307.got.cif
#   From: 2010.05.17/outbox.cif.g08.bks.cpg/sg56_7_cif.got.tgz:12307.got - 2010.06.03 13:42:01.
