data_PCOD9429139
_publ_section_title
;
Structure prediction by ZEFSAII (Michael W. Deem and Ramdas Pophale) SiO2 
 PCOD9429139
Probable space group: P B A M
;
_chemical_formula_sum "Si O2"
_cell_formula_units_Z 32
_cell_length_a 13.077005
_cell_length_b 6.662880
_cell_length_c 13.181183
_cell_angle_alpha 90.000000
_cell_angle_beta 90.000000
_cell_angle_gamma 90.000000
_cell_volume 1148.483264
_symmetry_space_group_name_H-M "P B A M"
_symmetry_group_IT_number 55
_symmetry_cell_setting 'orthorhombic'
loop_
_space_group_symop_operation_xyz
x,y,z
-x,-y,z
1/2+x,1/2-y,-z
1/2-x,1/2+y,-z
-x,-y,-z
x,y,-z
1/2-x,1/2+y,z
1/2+x,1/2-y,z
loop_
_atom_site_type_symbol
_atom_site_label
_atom_site_fract_x
_atom_site_fract_y
_atom_site_fract_z
Si Si1 0.597767 0.294879 0.110537
Si Si2 0.595949 0.879864 0.182465
Si Si3 0.166992 0.548530 0.390533
Si Si4 0.389730 0.599813 0.340319
O O1 0.472283 0.270383 0.115358
O O2 0.625439 0.395533 0.216979
O O3 0.643672 0.064401 0.119609
O O4 0.628120 0.370550 0.000000
O O5 0.500000 0.000000 0.228822
O O6 0.652000 0.826101 0.285457
O O7 0.134294 0.629937 0.500000
O O8 0.288623 0.512130 0.390978
O O9 0.114902 0.330919 0.377068
O O10 0.500000 0.500000 0.360449
#
# Coordination Sequence:
#
# PCOD9429139 Si02
#       4
#     8   8   8   8
#     4   8  16  37  65  93 133 175 210 272 338 389
#     4   7  16  34  63  96 130 168 218 277 316 400
#     4  11  24  42  66  95 135 181 229 280 343 404
#     4  11  26  45  66  98 139 171 227 293 329 412
#
# _framework density 27.862836000000001
#
# number of rings (size 3 to 8) (size 9 to 14) (size 15 to 20)
#    1.500    1.000    0.000    2.250    3.500    3.000 
#    0.000    6.250    0.000    0.000    0.000    0.000 
#    0.000    0.000    0.000    0.000    0.000    0.000 
#
# Total GULP energy -178256.608802 kJ/mol
# GULP energy per Si atom -5570.519025 kJ/mol
# Density = 2.779942 g / cm^3
# Si number density = 27.862836 Si / 1000 Ang^3
#
#
#
# Elastic Constant Matrix: (Units=GPa)
#
#
# Indices 1 2 3 4 5 6 
#
# 1 92.6226 5.4338 40.0141 0.0000 0.0000 0.0000
# 2 5.4338 71.7991 37.5692 0.0000 0.0000 0.0000
# 3 40.0141 37.5692 238.8435 0.0000 0.0000 0.0000
# 4 0.0000 0.0000 0.0000 20.4224 0.0000 0.0000
# 5 0.0000 0.0000 0.0000 0.0000 29.3627 0.0000
# 6 0.0000 0.0000 0.0000 0.0000 0.0000 38.1294
#
#
#
# Elastic Compliance Matrix: (Units=1/GPa)
#
#
# Indices 1 2 3 4 5 6 
#
# 1 0.011640 0.000152 -0.001974 0.000000 0.000000 0.000000
# 2 0.000152 0.015179 -0.002413 0.000000 0.000000 0.000000
# 3 -0.001974 -0.002413 0.004897 0.000000 0.000000 0.000000
# 4 0.000000 0.000000 0.000000 0.048966 0.000000 0.000000
# 5 0.000000 0.000000 0.000000 0.000000 0.034057 0.000000
# 6 0.000000 0.000000 0.000000 0.000000 0.000000 0.026226
#
#
# Mechanical properties :
#
#
# Convention : Reuss Voigt Hill
#
# Bulk Modulus (GPa) = 43.01784 63.25549 53.13666
# Shear Modulus (GPa) = 31.80977 38.93279 35.37128
#
# Velocity S-wave (km/s) = 3.38251 3.74211 3.56684
# Velocity P-wave (km/s) = 5.54326 6.43606 6.00627
#
# Compressibility (1/GPa) = 0.02324617
#
# Stress axis : x y z
#
# Youngs Moduli (GPa) = 85.90769 65.88103 204.20150
#
# Poissons Ratio (x) = -0.01001 0.40310
# Poissons Ratio (y) = -0.01306 0.49275
# Poissons Ratio (z) = 0.16959 0.15897
#
# Static dielectric constant tensor:
#      x y z
#    x 2.249480 0.000000 0.000000 
#    y 0.000000 2.569200 0.000000 
#    z 0.000000 0.000000 2.049110 
# 
# From -- ./inp_files/18046.got.cif
#   From: 2010.05.17/outbox.cif.g08.bks.cpg/sg55_10_cif.got.tgz:18046.got - 2010.06.03 13:27:54.
