data_PCOD9429028
_publ_section_title
;
Structure prediction by ZEFSAII (Michael W. Deem and Ramdas Pophale) SiO2 
 PCOD9429028
Probable space group: P B A M
;
_chemical_formula_sum "Si O2"
_cell_formula_units_Z 64
_cell_length_a 5.281360
_cell_length_b 27.137389
_cell_length_c 26.419981
_cell_angle_alpha 90.000000
_cell_angle_beta 90.000000
_cell_angle_gamma 90.000000
_cell_volume 3786.572992
_symmetry_space_group_name_H-M "P B A M"
_symmetry_group_IT_number 55
_symmetry_cell_setting 'orthorhombic'
loop_
_space_group_symop_operation_xyz
x,y,z
-x,-y,z
1/2+x,1/2-y,-z
1/2-x,1/2+y,-z
-x,-y,-z
x,y,-z
1/2-x,1/2+y,z
1/2+x,1/2-y,z
loop_
_atom_site_type_symbol
_atom_site_label
_atom_site_fract_x
_atom_site_fract_y
_atom_site_fract_z
Si Si1 0.045326 0.608000 0.596956
Si Si2 0.955145 0.055984 0.439733
Si Si3 0.483024 0.778860 0.592788
Si Si4 0.015041 0.279013 0.716251
Si Si5 0.999339 0.439874 0.058535
Si Si6 0.476255 0.893163 0.717740
Si Si7 0.000814 0.940129 0.881834
Si Si8 0.977011 0.940843 0.763836
O O1 0.326993 0.589862 0.584256
O O2 0.006805 0.664065 0.578337
O O3 0.006832 0.605625 0.657237
O O4 0.826181 0.574276 0.573069
O O5 0.989596 0.057126 0.500000
O O6 0.000000 0.000000 0.421907
O O7 0.224007 0.753089 0.576042
O O8 0.483743 0.778843 0.654514
O O9 0.765795 0.249766 0.732612
O O10 0.013345 0.335658 0.732837
O O11 0.748535 0.423860 0.088160
O O12 0.000000 0.500000 0.058396
O O13 0.248016 0.423839 0.088866
O O14 0.001088 0.424391 0.000000
O O15 0.209166 0.916276 0.733935
O O16 0.708749 0.922613 0.742466
O O17 0.997610 0.926536 0.822976
O O18 0.000000 0.000000 0.882842
O O19 0.000000 0.000000 0.759904
#
# Coordination Sequence:
#
# PCOD9429028 Si02
#       8
#     8   8   8   8   8   8   8   8
#     4  11  22  37  59  81 101 126 162 208 244 286
#     4  11  24  41  59  77  99 130 165 203 252 298
#     4   9  17  31  53  79 104 128 152 186 238 293
#     4   9  17  31  50  72  97 122 156 203 246 287
#     4   9  15  24  40  60  79 107 162 224 254 271
#     4  11  22  34  52  78 100 129 171 203 240 289
#     4   9  17  28  40  56  85 127 165 198 243 287
#     4  11  22  34  46  66 104 145 174 200 234 289
#
# _framework density 16.901827999999998
#
# number of rings (size 3 to 8) (size 9 to 14) (size 15 to 20)
#    0.000    2.000    0.000    4.500    0.000   11.500 
#    0.000    0.000    0.000    7.500    0.000    0.000 
#    0.000    0.000    0.000    0.000    0.000  157.500 
#
# Total GULP energy -357289.276706 kJ/mol
# GULP energy per Si atom -5582.644949 kJ/mol
# Density = 1.686336 g / cm^3
# Si number density = 16.901828 Si / 1000 Ang^3
#
#
#
# Elastic Constant Matrix: (Units=GPa)
#
#
# Indices 1 2 3 4 5 6 
#
# 1 73.0008 -4.1588 -6.1827 0.0000 0.0000 0.0000
# 2 -4.1588 60.1319 -2.3475 0.0000 0.0000 0.0000
# 3 -6.1827 -2.3475 36.8604 0.0000 0.0000 0.0000
# 4 0.0000 0.0000 0.0000 -13.6651 0.0000 0.0000
# 5 0.0000 0.0000 0.0000 0.0000 27.2810 0.0000
# 6 0.0000 0.0000 0.0000 0.0000 0.0000 27.3479
#
#
#
# Elastic Compliance Matrix: (Units=1/GPa)
#
#
# Indices 1 2 3 4 5 6 
#
# 1 0.013963 0.001060 0.002410 0.000000 0.000000 0.000000
# 2 0.001060 0.016752 0.001245 0.000000 0.000000 0.000000
# 3 0.002410 0.001245 0.027613 0.000000 0.000000 0.000000
# 4 0.000000 0.000000 0.000000 -0.073179 0.000000 0.000000
# 5 0.000000 0.000000 0.000000 0.000000 0.036656 0.000000
# 6 0.000000 0.000000 0.000000 0.000000 0.000000 0.036566
#
#
# Mechanical properties :
#
#
# Convention : Reuss Voigt Hill
#
# Bulk Modulus (GPa) = 14.75893 16.06834 15.41363
# Shear Modulus (GPa) = 69.90327 20.37157 45.13742
#
# Velocity S-wave (km/s) = 6.43803 3.47549 5.17336
# Velocity P-wave (km/s) = 8.00096 5.06289 6.69508
#
# Compressibility (1/GPa) = 0.06775559
#
# Stress axis : x y z
#
# Youngs Moduli (GPa) = 71.61825 59.69435 36.21511
#
# Poissons Ratio (x) = -0.06326 -0.08726
# Poissons Ratio (y) = -0.07590 -0.04507
# Poissons Ratio (z) = -0.17257 -0.07430
#
# Static dielectric constant tensor:
#      x y z
#    x 1.562560 0.000000 0.000000 
#    y 0.000000 1.556300 0.000000 
#    z 0.000000 0.000000 1.561900 
# 
# From -- ./inp_files/23376.got.cif
#   From: 2010.05.17/outbox.cif.g08.bks.cpg/sg55_12_cif.got.tgz:23376.got - 2010.06.03 13:27:54.
