data_PCOD9429378
_publ_section_title
;
Structure prediction by ZEFSAII (Michael W. Deem and Ramdas Pophale) SiO2 
 PCOD9429378
Probable space group: P B A M
;
_chemical_formula_sum "Si O2"
_cell_formula_units_Z 64
_cell_length_a 30.000000
_cell_length_b 12.000000
_cell_length_c 9.000000
_cell_angle_alpha 90.000000
_cell_angle_beta 90.000000
_cell_angle_gamma 90.000000
_cell_volume 3240.000000
_symmetry_space_group_name_H-M "P B A M"
_symmetry_group_IT_number 55
_symmetry_cell_setting 'orthorhombic'
loop_
_space_group_symop_operation_xyz
x,y,z
-x,-y,z
1/2+x,1/2-y,-z
1/2-x,1/2+y,-z
-x,-y,-z
x,y,-z
1/2-x,1/2+y,z
1/2+x,1/2-y,z
loop_
_atom_site_type_symbol
_atom_site_label
_atom_site_fract_x
_atom_site_fract_y
_atom_site_fract_z
Si Si1 0.070771 0.824289 0.322552
Si Si2 0.409293 0.575075 0.677412
Si Si3 0.080836 0.450421 0.827645
Si Si4 0.313499 0.596627 0.829139
Si Si5 0.177179 0.357733 0.165825
Si Si6 0.220896 0.553352 0.325608
Si Si7 0.023790 0.273482 0.678890
Si Si8 0.137320 0.666706 0.178354
O O1 0.075827 0.806624 0.500000
O O2 0.066961 0.956392 0.297934
O O3 0.114251 0.776826 0.240938
O O4 0.025804 0.761419 0.272382
O O5 0.401955 0.587475 0.500000
O O6 0.361347 0.572235 0.756214
O O7 0.441408 0.676240 0.725404
O O8 0.124034 0.369523 0.818161
O O9 0.041547 0.391142 0.739125
O O10 0.102440 0.567477 0.777723
O O11 0.067979 0.461577 0.000000
O O12 0.309390 0.730578 0.828606
O O13 0.270355 0.555026 0.741361
O O14 0.312705 0.557453 0.000000
O O15 0.200544 0.432360 0.288395
O O16 0.187818 0.403905 0.000000
O O17 0.221764 0.575827 0.500000
O O18 0.185508 0.636829 0.246403
O O19 0.023717 0.276028 0.500000
O O20 0.140525 0.667739 0.000000
#
# Coordination Sequence:
#
# PCOD9429378 Si02
#       8
#     8   8   8   8   8   8   8   8
#     4  10  22  39  58  84 121 161 199 243 294 351
#     4  10  21  38  59  85 119 155 197 246 295 347
#     4   9  18  35  58  83 112 146 191 242 289 342
#     4  11  22  38  61  87 116 151 194 240 289 349
#     4   9  19  37  58  81 112 150 188 233 287 342
#     4  11  23  38  60  88 116 149 191 239 294 352
#     4  10  20  35  59  88 117 154 197 243 296 349
#     4  10  22  41  60  82 116 157 197 242 298 353
#
# _framework density 19.753086
#
# number of rings (size 3 to 8) (size 9 to 14) (size 15 to 20)
#    0.000    2.000    1.250    3.000    0.000    7.500 
#    0.000    2.500    0.000    2.250    0.000    0.000 
#    0.000    0.000    0.000    0.000    0.000    0.000 
#
# Total GULP energy -357305.229982 kJ/mol
# GULP energy per Si atom -5582.894218 kJ/mol
# Density = 1.970813 g / cm^3
# Si number density = 19.753086 Si / 1000 Ang^3
#
#
#
# Elastic Constant Matrix: (Units=GPa)
#
#
# Indices 1 2 3 4 5 6 
#
# 1 83.2378 -9.3283 27.2455 0.0000 0.0000 0.0000
# 2 -9.3283 5.5378 4.3308 0.0000 0.0000 0.0000
# 3 27.2455 4.3308 54.4827 0.0000 0.0000 0.0000
# 4 0.0000 0.0000 0.0000 24.6235 0.0000 0.0000
# 5 0.0000 0.0000 0.0000 0.0000 9.3761 0.0000
# 6 0.0000 0.0000 0.0000 0.0000 0.0000 23.0185
#
#
#
# Elastic Compliance Matrix: (Units=1/GPa)
#
#
# Indices 1 2 3 4 5 6 
#
# 1 0.022637 0.050099 -0.015303 0.000000 0.000000 0.000000
# 2 0.050099 0.303424 -0.049173 0.000000 0.000000 0.000000
# 3 -0.015303 -0.049173 0.029916 0.000000 0.000000 0.000000
# 4 0.000000 0.000000 0.000000 0.040612 0.000000 0.000000
# 5 0.000000 0.000000 0.000000 0.000000 0.106654 0.000000
# 6 0.000000 0.000000 0.000000 0.000000 0.000000 0.043443
#
#
# Mechanical properties :
#
#
# Convention : Reuss Voigt Hill
#
# Bulk Modulus (GPa) = 3.05600 20.86160 11.95880
# Shear Modulus (GPa) = 7.30446 19.47098 13.38772
#
# Velocity S-wave (km/s) = 1.92507 3.14302 2.60619
# Velocity P-wave (km/s) = 2.54788 4.87397 3.88891
#
# Compressibility (1/GPa) = 0.32722504
#
# Stress axis : x y z
#
# Youngs Moduli (GPa) = 44.17516 3.29572 33.42731
#
# Poissons Ratio (x) = -0.16511 0.51153
# Poissons Ratio (y) = -2.21314 1.64371
# Poissons Ratio (z) = 0.67600 0.16206
#
# Static dielectric constant tensor:
#      x y z
#    x 1.672840 0.000000 0.000000 
#    y 0.000000 1.714100 0.000000 
#    z 0.000000 0.000000 1.686650 
# 
# From -- ./inp_files/10743.got.cif
#   From: 2010.05.17/outbox.ucp.g08.bks.cvg/sg55_6_cif.got.tgz:10743.got - 2010.06.11 16:36:00.
