data_PCOD9429190
_publ_section_title
;
Structure prediction by ZEFSAII (Michael W. Deem and Ramdas Pophale) SiO2 
 PCOD9429190
Probable space group: P B A M
;
_chemical_formula_sum "Si O2"
_cell_formula_units_Z 28
_cell_length_a 7.534257
_cell_length_b 19.028362
_cell_length_c 7.597319
_cell_angle_alpha 90.000000
_cell_angle_beta 90.000000
_cell_angle_gamma 90.000000
_cell_volume 1089.186369
_symmetry_space_group_name_H-M "P B A M"
_symmetry_group_IT_number 55
_symmetry_cell_setting 'orthorhombic'
loop_
_space_group_symop_operation_xyz
x,y,z
-x,-y,z
1/2+x,1/2-y,-z
1/2-x,1/2+y,-z
-x,-y,-z
x,y,-z
1/2-x,1/2+y,z
1/2+x,1/2-y,z
loop_
_atom_site_type_symbol
_atom_site_label
_atom_site_fract_x
_atom_site_fract_y
_atom_site_fract_z
Si Si1 0.670740 0.548419 0.296441
Si Si2 0.275996 0.809487 0.210199
Si Si3 0.667799 0.847094 0.306474
Si Si4 0.308385 0.039641 0.000000
O O1 0.500000 0.500000 0.254725
O O2 0.718536 0.539357 0.500000
O O3 0.633292 0.630813 0.260818
O O4 0.812926 0.523072 0.153038
O O5 0.455633 0.837441 0.296564
O O6 0.238039 0.731463 0.274025
O O7 0.295239 0.807394 0.000000
O O8 0.723044 0.872109 0.500000
O O9 0.713706 0.900836 0.153996
#
# Coordination Sequence:
#
# PCOD9429190 Si02
#       4
#     8   8   8   4
#     4  11  26  46  73 108 148 191 238 295 363 431
#     4  12  25  49  73 104 145 188 242 294 358 426
#     4  12  27  46  73 105 142 190 241 300 357 423
#     4  12  25  45  72 102 142 186 235 296 348 434
#
# _framework density 25.707262
#
# number of rings (size 3 to 8) (size 9 to 14) (size 15 to 20)
#    0.000    0.286    4.286    3.857    4.000    2.286 
#    0.000    2.857    0.000    0.000    0.000    0.000 
#    0.000    0.000    0.000    0.000    0.000    0.000 
#
# Total GULP energy -156108.254055 kJ/mol
# GULP energy per Si atom -5575.294788 kJ/mol
# Density = 2.564875 g / cm^3
# Si number density = 25.707262 Si / 1000 Ang^3
#
#
#
# Elastic Constant Matrix: (Units=GPa)
#
#
# Indices 1 2 3 4 5 6 
#
# 1 48.7602 10.4755 15.3143 0.0000 0.0000 0.0000
# 2 10.4755 213.4660 59.9917 0.0000 0.0000 0.0000
# 3 15.3143 59.9917 229.4608 0.0000 0.0000 0.0000
# 4 0.0000 0.0000 0.0000 14.1978 0.0000 0.0000
# 5 0.0000 0.0000 0.0000 0.0000 34.3040 0.0000
# 6 0.0000 0.0000 0.0000 0.0000 0.0000 38.9029
#
#
#
# Elastic Compliance Matrix: (Units=1/GPa)
#
#
# Indices 1 2 3 4 5 6 
#
# 1 0.021041 -0.000688 -0.001224 0.000000 0.000000 0.000000
# 2 -0.000688 0.005079 -0.001282 0.000000 0.000000 0.000000
# 3 -0.001224 -0.001282 0.004775 0.000000 0.000000 0.000000
# 4 0.000000 0.000000 0.000000 0.070433 0.000000 0.000000
# 5 0.000000 0.000000 0.000000 0.000000 0.029151 0.000000
# 6 0.000000 0.000000 0.000000 0.000000 0.000000 0.025705
#
#
# Mechanical properties :
#
#
# Convention : Reuss Voigt Hill
#
# Bulk Modulus (GPa) = 40.80754 73.69442 57.25098
# Shear Modulus (GPa) = 29.28404 44.54132 36.91268
#
# Velocity S-wave (km/s) = 3.37877 4.16701 3.79342
# Velocity P-wave (km/s) = 5.57941 7.20284 6.44247
#
# Compressibility (1/GPa) = 0.02450527
#
# Stress axis : x y z
#
# Youngs Moduli (GPa) = 47.52634 196.90406 209.42921
#
# Poissons Ratio (x) = 0.13556 0.25640
# Poissons Ratio (y) = 0.03272 0.26845
# Poissons Ratio (z) = 0.05819 0.25240
#
# Static dielectric constant tensor:
#      x y z
#    x 2.210150 0.000000 0.000000 
#    y 0.000000 2.010910 0.000000 
#    z 0.000000 0.000000 1.894110 
# 
# From -- ./inp_files/1854.got.cif
#   From: 2010.05.17/outbox.cif.g08.bks.cpg/sg55_1_cif.got.tgz:1854.got - 2010.06.03 13:27:54.
