data_PCOD9429477
_publ_section_title
;
Structure prediction by ZEFSAII (Michael W. Deem and Ramdas Pophale) SiO2 
 PCOD9429477
Probable space group: P B A M
;
_chemical_formula_sum "Si O2"
_cell_formula_units_Z 48
_cell_length_a 9.000000
_cell_length_b 15.000000
_cell_length_c 18.000000
_cell_angle_alpha 90.000000
_cell_angle_beta 90.000000
_cell_angle_gamma 90.000000
_cell_volume 2430.000000
_symmetry_space_group_name_H-M "P B A M"
_symmetry_group_IT_number 55
_symmetry_cell_setting 'orthorhombic'
loop_
_space_group_symop_operation_xyz
x,y,z
-x,-y,z
1/2+x,1/2-y,-z
1/2-x,1/2+y,-z
-x,-y,-z
x,y,-z
1/2-x,1/2+y,z
1/2+x,1/2-y,z
loop_
_atom_site_type_symbol
_atom_site_label
_atom_site_fract_x
_atom_site_fract_y
_atom_site_fract_z
Si Si1 0.149986 0.826570 0.299133
Si Si2 0.334065 0.011442 0.318138
Si Si3 0.621885 0.124738 0.913327
Si Si4 0.184844 0.556727 0.852197
Si Si5 0.633038 0.285776 0.203021
Si Si6 0.576375 0.401969 0.585993
O O1 0.266303 0.749355 0.273313
O O2 0.025833 0.815285 0.235086
O O3 0.041367 0.835928 0.372258
O O4 0.247765 0.917250 0.305662
O O5 0.359715 0.047691 0.234757
O O6 0.226081 0.075916 0.366347
O O7 0.500000 0.000000 0.351390
O O8 0.451746 0.092998 0.900687
O O9 0.636676 0.204645 0.855116
O O10 0.719463 0.040421 0.885190
O O11 0.648866 0.145022 0.000000
O O12 0.309280 0.630562 0.844231
O O13 0.500000 0.500000 0.584082
O O14 0.605090 0.375250 0.500000
#
# Coordination Sequence:
#
# PCOD9429477 Si02
#       6
#     8   8   8   8   8   8
#     4  11  23  39  65  95 129 173 223 276 327 401
#     4  11  20  37  68  97 133 175 225 273 332 410
#     4  11  24  41  62  94 134 173 222 285 347 398
#     4  11  20  38  65  92 126 175 224 269 331 402
#     4  12  23  40  67  95 127 176 232 279 334 408
#     4   9  20  39  65  98 133 170 218 278 337 386
#
# _framework density 19.753086
#
# number of rings (size 3 to 8) (size 9 to 14) (size 15 to 20)
#    0.000    1.167    6.667    1.000    0.000    1.667 
#    0.000    0.833    0.000    1.000    0.000    0.000 
#    0.000    0.000    0.000    0.000    0.000    0.000 
#
# Total GULP energy -267413.423867 kJ/mol
# GULP energy per Si atom -5571.112997 kJ/mol
# Density = 1.970813 g / cm^3
# Si number density = 19.753086 Si / 1000 Ang^3
#
#
#
# Elastic Constant Matrix: (Units=GPa)
#
#
# Indices 1 2 3 4 5 6 
#
# 1 109.8336 42.8778 28.1915 0.0000 0.0000 0.0000
# 2 42.8778 94.7137 31.6246 0.0000 0.0000 0.0000
# 3 28.1915 31.6246 125.7518 0.0000 0.0000 0.0000
# 4 0.0000 0.0000 0.0000 26.0871 0.0000 0.0000
# 5 0.0000 0.0000 0.0000 0.0000 24.2254 0.0000
# 6 0.0000 0.0000 0.0000 0.0000 0.0000 30.9393
#
#
#
# Elastic Compliance Matrix: (Units=1/GPa)
#
#
# Indices 1 2 3 4 5 6 
#
# 1 0.011267 -0.004648 -0.001357 0.000000 0.000000 0.000000
# 2 -0.004648 0.013443 -0.002339 0.000000 0.000000 0.000000
# 3 -0.001357 -0.002339 0.008845 0.000000 0.000000 0.000000
# 4 0.000000 0.000000 0.000000 0.038333 0.000000 0.000000
# 5 0.000000 0.000000 0.000000 0.000000 0.041279 0.000000
# 6 0.000000 0.000000 0.000000 0.000000 0.000000 0.032321
#
#
# Mechanical properties :
#
#
# Convention : Reuss Voigt Hill
#
# Bulk Modulus (GPa) = 59.28446 59.52076 59.40261
# Shear Modulus (GPa) = 29.79763 31.42405 30.61084
#
# Velocity S-wave (km/s) = 3.88816 3.99286 3.94086
# Velocity P-wave (km/s) = 7.08766 7.17322 7.13057
#
# Compressibility (1/GPa) = 0.01686783
#
# Stress axis : x y z
#
# Youngs Moduli (GPa) = 88.75125 74.38753 113.06349
#
# Poissons Ratio (x) = 0.34573 0.15344
# Poissons Ratio (y) = 0.41249 0.26443
# Poissons Ratio (z) = 0.12045 0.17398
#
# Static dielectric constant tensor:
#      x y z
#    x 1.726410 0.000000 0.000000 
#    y 0.000000 1.764360 0.000000 
#    z 0.000000 0.000000 1.675560 
# 
# From -- ./inp_files/20796.got.cif
#   From: 2010.05.17/outbox.ucp.g08.bks.cvg/sg55_11_cif.got.tgz:20796.got - 2010.06.11 16:36:00.
