data_PCOD9429504
_publ_section_title
;
Structure prediction by ZEFSAII (Michael W. Deem and Ramdas Pophale) SiO2 
 PCOD9429504
Probable space group: P C C N
;
_chemical_formula_sum "Si O2"
_cell_formula_units_Z 56
_cell_length_a 13.688951
_cell_length_b 30.206600
_cell_length_c 5.449372
_cell_angle_alpha 90.000000
_cell_angle_beta 90.000000
_cell_angle_gamma 90.000000
_cell_volume 2253.297161
_symmetry_space_group_name_H-M "P C C N"
_symmetry_group_IT_number 56
_symmetry_cell_setting 'orthorhombic'
loop_
_space_group_symop_operation_xyz
x,y,z
1/2-x,1/2-y,z
1/2+x,-y,1/2-z
-x,1/2+y,1/2-z
-x,-y,-z
1/2+x,1/2+y,-z
1/2-x,y,1/2+z
x,1/2-y,1/2+z
loop_
_atom_site_type_symbol
_atom_site_label
_atom_site_fract_x
_atom_site_fract_y
_atom_site_fract_z
Si Si1 0.686574 0.005193 0.250359
Si Si2 0.746695 0.151789 0.286278
Si Si3 0.311788 0.305949 0.242716
Si Si4 0.810605 0.906087 0.813079
Si Si5 0.442882 0.589626 0.223427
Si Si6 0.954639 0.122742 0.277751
Si Si7 0.022245 0.772939 0.769803
O O1 0.754505 0.011152 0.493716
O O2 0.600825 0.041055 0.261128
O O3 0.647499 0.955054 0.265166
O O4 0.750918 0.178261 0.536164
O O5 0.646507 0.124726 0.285353
O O6 0.835120 0.115673 0.285686
O O7 0.254375 0.301032 0.499232
O O8 0.351940 0.356594 0.231879
O O9 0.403854 0.273720 0.231055
O O10 0.726660 0.905952 0.596173
O O11 0.497308 0.603144 0.471477
O O12 0.494152 0.599358 0.966282
O O13 0.952738 0.175697 0.265309
O O14 0.054800 0.745403 0.532657
#
# Coordination Sequence:
#
# PCOD9429504 Si02
#       7
#     8   8   8   8   8   8   8
#     4  10  16  25  46  82 117 144 185 228 257 296
#     4   8  14  25  45  69  94 131 175 213 245 283
#     4  10  21  40  64  87 110 137 171 217 281 344
#     4   8  16  29  49  79 114 144 169 212 268 320
#     4  10  17  29  52  78 108 148 189 224 250 292
#     4  10  20  34  51  74 109 144 179 221 274 322
#     4  12  26  42  61  83 106 137 178 230 287 342
#
# _framework density 24.852471999999999
#
# number of rings (size 3 to 8) (size 9 to 14) (size 15 to 20)
#    0.000    2.286    0.000    5.143    0.000    1.714 
#    0.000    0.000    0.000   24.857    0.000    0.000 
#    0.000    0.000    0.000    0.000    0.000    0.000 
#
# Total GULP energy -312778.379085 kJ/mol
# GULP energy per Si atom -5585.328198 kJ/mol
# Density = 2.479591 g / cm^3
# Si number density = 24.852472 Si / 1000 Ang^3
#
#
#
# Elastic Constant Matrix: (Units=GPa)
#
#
# Indices 1 2 3 4 5 6 
#
# 1 34.8179 10.7329 14.5079 0.0000 0.0000 0.0000
# 2 10.7329 129.4930 33.1982 0.0000 0.0000 0.0000
# 3 14.5079 33.1982 247.3609 0.0000 0.0000 0.0000
# 4 0.0000 0.0000 0.0000 29.7488 0.0000 0.0000
# 5 0.0000 0.0000 0.0000 0.0000 19.5901 0.0000
# 6 0.0000 0.0000 0.0000 0.0000 0.0000 47.5227
#
#
#
# Elastic Compliance Matrix: (Units=1/GPa)
#
#
# Indices 1 2 3 4 5 6 
#
# 1 0.029985 -0.002107 -0.001476 0.000000 0.000000 0.000000
# 2 -0.002107 0.008146 -0.000970 0.000000 0.000000 0.000000
# 3 -0.001476 -0.000970 0.004259 0.000000 0.000000 0.000000
# 4 0.000000 0.000000 0.000000 0.033615 0.000000 0.000000
# 5 0.000000 0.000000 0.000000 0.000000 0.051046 0.000000
# 6 0.000000 0.000000 0.000000 0.000000 0.000000 0.021043
#
#
# Mechanical properties :
#
#
# Convention : Reuss Voigt Hill
#
# Bulk Modulus (GPa) = 30.04321 58.72777 44.38549
# Shear Modulus (GPa) = 29.70992 42.92118 36.31555
#
# Velocity S-wave (km/s) = 3.46128 4.16027 3.82677
# Velocity P-wave (km/s) = 5.29989 6.83806 6.11751
#
# Compressibility (1/GPa) = 0.03328539
#
# Stress axis : x y z
#
# Youngs Moduli (GPa) = 33.34966 122.76500 234.77626
#
# Poissons Ratio (x) = 0.25866 0.34650
# Poissons Ratio (y) = 0.07027 0.22765
# Poissons Ratio (z) = 0.04922 0.11904
#
# Static dielectric constant tensor:
#      x y z
#    x 2.089390 0.000000 0.000000 
#    y 0.000000 1.890800 0.000000 
#    z 0.000000 0.000000 2.098070 
# 
# From -- ./inp_files/587.got.cif
#   From: 2010.05.17/outbox.cif.g08.bks.cpg/sg56_1_cif.got.tgz:587.got - 2010.06.03 13:42:01.
