data_PCOD9429846
_publ_section_title
;
Structure prediction by ZEFSAII (Michael W. Deem and Ramdas Pophale) SiO2 
 PCOD9429846
Probable space group: P C C N
;
_chemical_formula_sum "Si O2"
_cell_formula_units_Z 44
_cell_length_a 11.248519
_cell_length_b 13.934320
_cell_length_c 14.568332
_cell_angle_alpha 90.000000
_cell_angle_beta 90.000000
_cell_angle_gamma 90.000000
_cell_volume 2283.447107
_symmetry_space_group_name_H-M "P C C N"
_symmetry_group_IT_number 56
_symmetry_cell_setting 'orthorhombic'
loop_
_space_group_symop_operation_xyz
x,y,z
1/2-x,1/2-y,z
1/2+x,-y,1/2-z
-x,1/2+y,1/2-z
-x,-y,-z
1/2+x,1/2+y,-z
1/2-x,y,1/2+z
x,1/2-y,1/2+z
loop_
_atom_site_type_symbol
_atom_site_label
_atom_site_fract_x
_atom_site_fract_y
_atom_site_fract_z
Si Si1 0.834599 0.844042 0.342061
Si Si2 0.358881 0.055979 0.552887
Si Si3 0.050501 0.717526 0.393422
Si Si4 0.105545 0.664852 0.588214
Si Si5 0.344830 0.334392 0.867914
Si Si6 0.250000 0.750000 0.245202
O O1 0.750000 0.750000 0.351480
O O2 0.767169 0.924916 0.398501
O O3 0.832991 0.871138 0.235227
O O4 0.963656 0.808877 0.376117
O O5 0.458623 0.127537 0.596454
O O6 0.337179 0.087647 0.447962
O O7 0.398971 0.947515 0.564332
O O8 0.118907 0.718892 0.490921
O O9 0.145016 0.711972 0.311193
O O10 0.196012 0.675346 0.671973
O O11 0.979005 0.703795 0.624030
O O12 0.250000 0.250000 0.884470
#
# Coordination Sequence:
#
# PCOD9429846 Si02
#       6
#     8   8   8   8   8   4
#     4   9  18  35  61  90 111 152 196 244 292 355
#     4  10  21  36  61  92 118 147 198 256 301 348
#     4  10  20  40  61  82 121 156 201 240 294 364
#     4  11  23  38  60  87 118 160 194 248 305 352
#     4  10  18  35  63  87 116 155 201 241 297 354
#     4  12  24  40  58  82 120 168 198 238 308 366
#
# _framework density 19.269112
#
# number of rings (size 3 to 8) (size 9 to 14) (size 15 to 20)
#    0.000    1.818    1.818    5.455    0.000    2.909 
#    0.000    0.000    0.000    3.273    0.000    0.000 
#    0.000    0.000    0.000    0.000    0.000    0.000 
#
# Total GULP energy -245198.880800 kJ/mol
# GULP energy per Si atom -5572.701836 kJ/mol
# Density = 1.922526 g / cm^3
# Si number density = 19.269112 Si / 1000 Ang^3
#
#
#
# Elastic Constant Matrix: (Units=GPa)
#
#
# Indices 1 2 3 4 5 6 
#
# 1 120.3381 40.3951 62.5384 0.0000 0.0000 0.0000
# 2 40.3951 46.5264 36.9454 0.0000 0.0000 0.0000
# 3 62.5384 36.9454 144.9014 0.0000 0.0000 0.0000
# 4 0.0000 0.0000 0.0000 -4.8033 0.0000 0.0000
# 5 0.0000 0.0000 0.0000 0.0000 45.1246 0.0000
# 6 0.0000 0.0000 0.0000 0.0000 0.0000 21.4801
#
#
#
# Elastic Compliance Matrix: (Units=1/GPa)
#
#
# Indices 1 2 3 4 5 6 
#
# 1 0.012947 -0.008531 -0.003413 0.000000 0.000000 0.000000
# 2 -0.008531 0.032571 -0.004623 0.000000 0.000000 0.000000
# 3 -0.003413 -0.004623 0.009553 0.000000 0.000000 0.000000
# 4 0.000000 0.000000 0.000000 -0.208190 0.000000 0.000000
# 5 0.000000 0.000000 0.000000 0.000000 0.022161 0.000000
# 6 0.000000 0.000000 0.000000 0.000000 0.000000 0.046555
#
#
# Mechanical properties :
#
#
# Convention : Reuss Voigt Hill
#
# Bulk Modulus (GPa) = 45.58322 65.72487 55.65405
# Shear Modulus (GPa) = -113.74318 23.81941 -44.96189
#
# Velocity S-wave (km/s) = -7.69135 3.51970 -4.83573
# Velocity P-wave (km/s) = 7.42754 7.12044 1.49461
#
# Compressibility (1/GPa) = 0.02193790
#
# Stress axis : x y z
#
# Youngs Moduli (GPa) = 77.23683 30.70244 104.68146
#
# Poissons Ratio (x) = 0.26192 0.35725
# Poissons Ratio (y) = 0.65891 0.48390
# Poissons Ratio (z) = 0.26359 0.14193
#
# Static dielectric constant tensor:
#      x y z
#    x 1.735400 0.000000 0.000000 
#    y 0.000000 1.653970 0.000000 
#    z 0.000000 0.000000 1.694630 
# 
# From -- ./inp_files/11563.got.cif
#   From: 2010.05.17/outbox.cif.g08.bks.cpg/sg56_6_cif.got.tgz:11563.got - 2010.06.03 13:42:01.
