data_PCOD9429056
_publ_section_title
;
Structure prediction by ZEFSAII (Michael W. Deem and Ramdas Pophale) SiO2 
 PCOD9429056
Probable space group: P B A M
;
_chemical_formula_sum "Si O2"
_cell_formula_units_Z 64
_cell_length_a 19.978078
_cell_length_b 9.463821
_cell_length_c 18.939075
_cell_angle_alpha 90.000000
_cell_angle_beta 90.000000
_cell_angle_gamma 90.000000
_cell_volume 3580.791102
_symmetry_space_group_name_H-M "P B A M"
_symmetry_group_IT_number 55
_symmetry_cell_setting 'orthorhombic'
loop_
_space_group_symop_operation_xyz
x,y,z
-x,-y,z
1/2+x,1/2-y,-z
1/2-x,1/2+y,-z
-x,-y,-z
x,y,-z
1/2-x,1/2+y,z
1/2+x,1/2-y,z
loop_
_atom_site_type_symbol
_atom_site_label
_atom_site_fract_x
_atom_site_fract_y
_atom_site_fract_z
Si Si1 0.482972 0.167787 0.726194
Si Si2 0.796059 0.497457 0.417776
Si Si3 0.554442 0.874921 0.424861
Si Si4 0.734883 0.259235 0.679989
Si Si5 0.608539 0.351120 0.226937
Si Si6 0.284267 0.394935 0.079773
Si Si7 0.639531 0.675911 0.220751
Si Si8 0.661952 0.296487 0.079161
O O1 0.460713 0.206111 0.646412
O O2 0.546538 0.263807 0.743380
O O3 0.418985 0.209152 0.773028
O O4 0.500000 0.000000 0.730428
O O5 0.774435 0.511182 0.500000
O O6 0.872301 0.442726 0.418983
O O7 0.790937 0.639839 0.373258
O O8 0.754065 0.387515 0.371338
O O9 0.550524 0.796781 0.500000
O O10 0.500000 0.000000 0.426909
O O11 0.676850 0.299831 0.735155
O O12 0.800314 0.210241 0.724428
O O13 0.608104 0.520702 0.235829
O O14 0.612251 0.315180 0.143757
O O15 0.328771 0.332868 0.142671
O O16 0.290858 0.564121 0.083681
O O17 0.209223 0.338647 0.089006
O O18 0.305282 0.353052 0.000000
O O19 0.632914 0.294249 0.000000
#
# Coordination Sequence:
#
# PCOD9429056 Si02
#       8
#     8   8   8   8   8   8   8   8
#     4  11  23  39  61  86 111 153 203 244 288 351
#     4  11  23  38  58  83 119 154 191 242 295 347
#     4   9  18  35  57  80 107 144 188 235 286 344
#     4  12  21  37  58  89 114 153 193 241 292 349
#     4  11  23  37  60  86 119 154 190 243 298 345
#     4   9  18  33  56  85 117 153 192 235 289 348
#     4  11  22  38  58  86 123 152 192 243 294 348
#     4   9  18  33  54  85 117 151 190 234 289 350
#
# _framework density 17.873145000000001
#
# number of rings (size 3 to 8) (size 9 to 14) (size 15 to 20)
#    0.000    1.625    3.750    2.250    0.000    1.000 
#    0.000    1.250    0.000    4.500    0.000    0.000 
#    0.000    0.000    0.000    0.000    0.000    0.000 
#
# Total GULP energy -356843.143825 kJ/mol
# GULP energy per Si atom -5575.674122 kJ/mol
# Density = 1.783246 g / cm^3
# Si number density = 17.873145 Si / 1000 Ang^3
#
#
#
# Elastic Constant Matrix: (Units=GPa)
#
#
# Indices 1 2 3 4 5 6 
#
# 1 56.1079 6.6140 6.4513 0.0000 0.0000 0.0000
# 2 6.6140 45.0959 24.1350 0.0000 0.0000 0.0000
# 3 6.4513 24.1350 60.8598 0.0000 0.0000 0.0000
# 4 0.0000 0.0000 0.0000 23.8801 0.0000 0.0000
# 5 0.0000 0.0000 0.0000 0.0000 23.3941 0.0000
# 6 0.0000 0.0000 0.0000 0.0000 0.0000 27.9009
#
#
#
# Elastic Compliance Matrix: (Units=1/GPa)
#
#
# Indices 1 2 3 4 5 6 
#
# 1 0.018195 -0.002077 -0.001105 0.000000 0.000000 0.000000
# 2 -0.002077 0.028387 -0.011037 0.000000 0.000000 0.000000
# 3 -0.001105 -0.011037 0.020925 0.000000 0.000000 0.000000
# 4 0.000000 0.000000 0.000000 0.041876 0.000000 0.000000
# 5 0.000000 0.000000 0.000000 0.000000 0.042746 0.000000
# 6 0.000000 0.000000 0.000000 0.000000 0.000000 0.035841
#
#
# Mechanical properties :
#
#
# Convention : Reuss Voigt Hill
#
# Bulk Modulus (GPa) = 25.59621 26.27379 25.93500
# Shear Modulus (GPa) = 21.79311 23.35924 22.57618
#
# Velocity S-wave (km/s) = 3.49567 3.61909 3.55792
# Velocity P-wave (km/s) = 5.53580 5.67414 5.60539
#
# Compressibility (1/GPa) = 0.03906828
#
# Stress axis : x y z
#
# Youngs Moduli (GPa) = 54.96108 35.22799 47.78917
#
# Poissons Ratio (x) = 0.07317 0.05280
# Poissons Ratio (y) = 0.11416 0.52745
# Poissons Ratio (z) = 0.06073 0.38881
#
# Static dielectric constant tensor:
#      x y z
#    x 1.583530 0.000000 0.000000 
#    y 0.000000 1.412040 0.000000 
#    z 0.000000 0.000000 1.649290 
# 
# From -- ./inp_files/21944.got.cif
#   From: 2010.05.17/outbox.cif.g08.bks.cpg/sg55_11_cif.got.tgz:21944.got - 2010.06.03 13:27:54.
