data_PCOD9429077
_publ_section_title
;
Structure prediction by ZEFSAII (Michael W. Deem and Ramdas Pophale) SiO2 
 PCOD9429077
Probable space group: P B A M
;
_chemical_formula_sum "Si O2"
_cell_formula_units_Z 52
_cell_length_a 16.076867
_cell_length_b 7.033346
_cell_length_c 17.480645
_cell_angle_alpha 90.000000
_cell_angle_beta 90.000000
_cell_angle_gamma 90.000000
_cell_volume 1976.609393
_symmetry_space_group_name_H-M "P B A M"
_symmetry_group_IT_number 55
_symmetry_cell_setting 'orthorhombic'
loop_
_space_group_symop_operation_xyz
x,y,z
-x,-y,z
1/2+x,1/2-y,-z
1/2-x,1/2+y,-z
-x,-y,-z
x,y,-z
1/2-x,1/2+y,z
1/2+x,1/2-y,z
loop_
_atom_site_type_symbol
_atom_site_label
_atom_site_fract_x
_atom_site_fract_y
_atom_site_fract_z
Si Si1 0.829876 0.230875 0.753811
Si Si2 0.122261 0.214518 0.418671
Si Si3 0.369184 0.461178 0.000000
Si Si4 0.673584 0.231188 0.870245
Si Si5 0.423901 0.640967 0.261162
Si Si6 0.313480 0.281909 0.416339
Si Si7 0.917221 0.384762 0.890000
O O1 0.751795 0.234453 0.812486
O O2 0.846778 0.008227 0.740215
O O3 0.827210 0.310494 0.667278
O O4 0.903100 0.329187 0.801393
O O5 0.080749 0.258978 0.500000
O O6 0.213568 0.307239 0.416665
O O7 0.075140 0.254135 0.340265
O O8 0.140579 0.986182 0.417926
O O9 0.335292 0.605959 0.932595
O O10 0.406708 0.312282 0.934780
O O11 0.593134 0.243690 0.814681
O O12 0.840411 0.526932 0.909320
O O13 0.500000 0.500000 0.258090
O O14 0.333488 0.191995 0.500000
O O15 0.000000 0.500000 0.910532
#
# Coordination Sequence:
#
# PCOD9429077 Si02
#       7
#     8   8   4   8   8   8   8
#     4  11  23  46  69 103 145 184 246 300 355 432
#     4   9  18  33  58  94 134 181 237 293 351 422
#     4  12  29  53  73 105 142 182 242 291 370 425
#     4  12  26  47  76 101 142 188 238 305 356 431
#     4  11  22  41  67  99 144 193 235 293 375 435
#     4   9  18  33  61  96 134 183 233 291 353 420
#     4  12  28  48  74 108 144 190 240 293 370 446
#
# _framework density 26.307675
#
# number of rings (size 3 to 8) (size 9 to 14) (size 15 to 20)
#    0.000    1.231    3.077    2.538    2.154    1.538 
#    0.000    0.000    0.000    0.462    0.000    0.000 
#    0.000    0.000    0.000    0.000    0.000    0.000 
#
# Total GULP energy -289642.461731 kJ/mol
# GULP energy per Si atom -5570.047341 kJ/mol
# Density = 2.624780 g / cm^3
# Si number density = 26.307675 Si / 1000 Ang^3
#
#
#
# Elastic Constant Matrix: (Units=GPa)
#
#
# Indices 1 2 3 4 5 6 
#
# 1 56.1020 3.2399 32.2647 0.0000 0.0000 0.0000
# 2 3.2399 79.9349 30.9354 0.0000 0.0000 0.0000
# 3 32.2647 30.9354 246.9641 0.0000 0.0000 0.0000
# 4 0.0000 0.0000 0.0000 25.9646 0.0000 0.0000
# 5 0.0000 0.0000 0.0000 0.0000 0.4553 0.0000
# 6 0.0000 0.0000 0.0000 0.0000 0.0000 70.3709
#
#
#
# Elastic Compliance Matrix: (Units=1/GPa)
#
#
# Indices 1 2 3 4 5 6 
#
# 1 0.019276 0.000203 -0.002544 0.000000 0.000000 0.000000
# 2 0.000203 0.013150 -0.001674 0.000000 0.000000 0.000000
# 3 -0.002544 -0.001674 0.004591 0.000000 0.000000 0.000000
# 4 0.000000 0.000000 0.000000 0.038514 0.000000 0.000000
# 5 0.000000 0.000000 0.000000 0.000000 2.196117 0.000000
# 6 0.000000 0.000000 0.000000 0.000000 0.000000 0.014210
#
#
# Mechanical properties :
#
#
# Convention : Reuss Voigt Hill
#
# Bulk Modulus (GPa) = 34.49687 57.32010 45.90849
# Shear Modulus (GPa) = 2.17056 40.46224 21.31640
#
# Velocity S-wave (km/s) = 0.90932 3.92604 2.84962
# Velocity P-wave (km/s) = 3.77410 6.51056 5.32124
#
# Compressibility (1/GPa) = 0.02898813
#
# Stress axis : x y z
#
# Youngs Moduli (GPa) = 51.87834 76.04750 217.81022
#
# Poissons Ratio (x) = -0.01545 0.55405
# Poissons Ratio (y) = -0.01054 0.36455
# Poissons Ratio (z) = 0.13197 0.12728
#
# Static dielectric constant tensor:
#      x y z
#    x 2.140110 0.000000 0.000000 
#    y 0.000000 2.110760 0.000000 
#    z 0.000000 0.000000 2.435980 
# 
# From -- ./inp_files/21768.got.cif
#   From: 2010.05.17/outbox.cif.g08.bks.cpg/sg55_11_cif.got.tgz:21768.got - 2010.06.03 13:27:54.
