data_PCOD9429520
_publ_section_title
;
Structure prediction by ZEFSAII (Michael W. Deem and Ramdas Pophale) SiO2 
 PCOD9429520
Probable space group: P C C N
;
_chemical_formula_sum "Si O2"
_cell_formula_units_Z 40
_cell_length_a 11.713331
_cell_length_b 23.721504
_cell_length_c 5.523260
_cell_angle_alpha 90.000000
_cell_angle_beta 90.000000
_cell_angle_gamma 90.000000
_cell_volume 1534.681028
_symmetry_space_group_name_H-M "P C C N"
_symmetry_group_IT_number 56
_symmetry_cell_setting 'orthorhombic'
loop_
_space_group_symop_operation_xyz
x,y,z
1/2-x,1/2-y,z
1/2+x,-y,1/2-z
-x,1/2+y,1/2-z
-x,-y,-z
1/2+x,1/2+y,-z
1/2-x,y,1/2+z
x,1/2-y,1/2+z
loop_
_atom_site_type_symbol
_atom_site_label
_atom_site_fract_x
_atom_site_fract_y
_atom_site_fract_z
Si Si1 0.065372 0.283278 0.026700
Si Si2 0.973210 0.564999 0.551781
Si Si3 0.762063 0.510176 0.083892
Si Si4 0.046455 0.400056 0.946084
Si Si5 0.297101 0.813785 0.932953
O O1 0.087505 0.253908 0.285905
O O2 0.932334 0.303562 0.028408
O O3 0.122050 0.344522 0.993730
O O4 0.835202 0.559410 0.580620
O O5 0.020831 0.587027 0.806439
O O6 0.000000 0.500000 0.500000
O O7 0.006892 0.602844 0.322325
O O8 0.753315 0.477927 0.833058
O O9 0.879829 0.543154 0.081818
O O10 0.250000 0.750000 0.914964
O O11 0.259937 0.839266 0.674436
#
# Coordination Sequence:
#
# PCOD9429520 Si02
#       5
#     8   8   8   8   8
#     4  12  21  33  55  82 114 155 193 228 269 333
#     4  10  19  36  62  83 104 143 192 232 285 338
#     4   8  16  32  55  77 101 144 177 216 271 340
#     4  10  21  35  55  88 115 144 189 227 280 341
#     4  10  16  30  49  72  94 144 198 220 270 324
#
# _framework density 26.064046000000001
#
# number of rings (size 3 to 8) (size 9 to 14) (size 15 to 20)
#    0.000    2.000    4.000    1.800    0.000    0.000 
#    0.000    0.000    0.000   54.000    0.000    0.000 
#    0.000    0.000    0.000    0.000    0.000    0.000 
#
# Total GULP energy -223225.661682 kJ/mol
# GULP energy per Si atom -5580.641542 kJ/mol
# Density = 2.600472 g / cm^3
# Si number density = 26.064046 Si / 1000 Ang^3
#
#
#
# Elastic Constant Matrix: (Units=GPa)
#
#
# Indices 1 2 3 4 5 6 
#
# 1 39.7988 -8.8231 -13.6805 0.0000 0.0000 0.0000
# 2 -8.8231 111.7364 42.7508 0.0000 0.0000 0.0000
# 3 -13.6805 42.7508 320.3877 0.0000 0.0000 0.0000
# 4 0.0000 0.0000 0.0000 14.3126 0.0000 0.0000
# 5 0.0000 0.0000 0.0000 0.0000 13.9837 0.0000
# 6 0.0000 0.0000 0.0000 0.0000 0.0000 17.5134
#
#
#
# Elastic Compliance Matrix: (Units=1/GPa)
#
#
# Indices 1 2 3 4 5 6 
#
# 1 0.025805 0.001703 0.000875 0.000000 0.000000 0.000000
# 2 0.001703 0.009544 -0.001201 0.000000 0.000000 0.000000
# 3 0.000875 -0.001201 0.003319 0.000000 0.000000 0.000000
# 4 0.000000 0.000000 0.000000 0.069868 0.000000 0.000000
# 5 0.000000 0.000000 0.000000 0.000000 0.071512 0.000000
# 6 0.000000 0.000000 0.000000 0.000000 0.000000 0.057099
#
#
# Mechanical properties :
#
#
# Convention : Reuss Voigt Hill
#
# Bulk Modulus (GPa) = 24.14257 56.93526 40.53891
# Shear Modulus (GPa) = 20.14509 39.27365 29.70937
#
# Velocity S-wave (km/s) = 2.78314 3.88598 3.37984
# Velocity P-wave (km/s) = 4.42840 6.48277 5.55144
#
# Compressibility (1/GPa) = 0.04142061
#
# Stress axis : x y z
#
# Youngs Moduli (GPa) = 38.75285 104.78332 301.31545
#
# Poissons Ratio (x) = -0.17844 -0.26353
# Poissons Ratio (y) = -0.06600 0.36179
# Poissons Ratio (z) = -0.03389 0.12581
#
# Static dielectric constant tensor:
#      x y z
#    x 2.223000 0.000000 0.000000 
#    y 0.000000 3.249950 0.000000 
#    z 0.000000 0.000000 2.240570 
# 
# From -- ./inp_files/469.got.cif
#   From: 2010.05.17/outbox.cif.g08.bks.cpg/sg56_1_cif.got.tgz:469.got - 2010.06.03 13:42:01.
