data_PCOD9429252
_publ_section_title
;
Structure prediction by ZEFSAII (Michael W. Deem and Ramdas Pophale) SiO2 
 PCOD9429252
Probable space group: P B A M
;
_chemical_formula_sum "Si O2"
_cell_formula_units_Z 56
_cell_length_a 13.771383
_cell_length_b 23.995100
_cell_length_c 9.223710
_cell_angle_alpha 90.000000
_cell_angle_beta 90.000000
_cell_angle_gamma 90.000000
_cell_volume 3047.935420
_symmetry_space_group_name_H-M "P B A M"
_symmetry_group_IT_number 55
_symmetry_cell_setting 'orthorhombic'
loop_
_space_group_symop_operation_xyz
x,y,z
-x,-y,z
1/2+x,1/2-y,-z
1/2-x,1/2+y,-z
-x,-y,-z
x,y,-z
1/2-x,1/2+y,z
1/2+x,1/2-y,z
loop_
_atom_site_type_symbol
_atom_site_label
_atom_site_fract_x
_atom_site_fract_y
_atom_site_fract_z
Si Si1 0.800218 0.227033 0.324745
Si Si2 0.693393 0.130763 0.166430
Si Si3 0.510153 0.659019 0.673599
Si Si4 0.291669 0.534694 0.670781
Si Si5 0.791463 0.838702 0.324720
Si Si6 0.105131 0.940281 0.166160
Si Si7 0.907204 0.535544 0.329643
O O1 0.792426 0.224498 0.500000
O O2 0.720678 0.185696 0.256222
O O3 0.905648 0.202500 0.284639
O O4 0.780588 0.290142 0.275556
O O5 0.792580 0.093889 0.167732
O O6 0.613376 0.091719 0.241338
O O7 0.669775 0.143417 0.000000
O O8 0.515441 0.651533 0.500000
O O9 0.402028 0.678155 0.710355
O O10 0.533023 0.599945 0.747355
O O11 0.318561 0.535961 0.500000
O O12 0.278634 0.597794 0.725156
O O13 0.370436 0.498434 0.757006
O O14 0.188819 0.502803 0.681921
O O15 0.782658 0.840797 0.500000
O O16 0.075566 0.947378 0.000000
O O17 0.920428 0.549205 0.500000
O O18 0.000000 0.500000 0.280801
#
# Coordination Sequence:
#
# PCOD9429252 Si02
#       7
#     8   8   8   8   8   8   8
#     4   9  17  32  51  70  94 124 161 204 239 282
#     4   9  17  30  49  70  93 127 163 198 241 287
#     4   9  17  31  51  72  94 125 162 197 240 291
#     4   9  17  31  49  69 100 131 158 200 248 295
#     4   9  18  32  49  73  99 126 161 200 245 290
#     4   9  17  30  49  72  97 124 158 196 237 288
#     4   9  17  30  48  74 100 127 164 206 250 294
#
# _framework density 18.373093000000001
#
# number of rings (size 3 to 8) (size 9 to 14) (size 15 to 20)
#    0.000    3.000    0.000    0.857    0.000    4.286 
#    2.571    5.000    0.000    0.000    0.000    0.000 
#    0.000    0.000    0.000    0.000    0.000    0.000 
#
# Total GULP energy -312153.401956 kJ/mol
# GULP energy per Si atom -5574.167892 kJ/mol
# Density = 1.833127 g / cm^3
# Si number density = 18.373093 Si / 1000 Ang^3
#
#
#
# Elastic Constant Matrix: (Units=GPa)
#
#
# Indices 1 2 3 4 5 6 
#
# 1 23.9031 8.9117 11.8261 0.0000 0.0000 0.0000
# 2 8.9117 112.9751 22.3455 0.0000 0.0000 0.0000
# 3 11.8261 22.3455 28.5393 0.0000 0.0000 0.0000
# 4 0.0000 0.0000 0.0000 0.9497 0.0000 0.0000
# 5 0.0000 0.0000 0.0000 0.0000 7.7606 0.0000
# 6 0.0000 0.0000 0.0000 0.0000 0.0000 25.6865
#
#
#
# Elastic Compliance Matrix: (Units=1/GPa)
#
#
# Indices 1 2 3 4 5 6 
#
# 1 0.052628 0.000192 -0.021958 0.000000 0.000000 0.000000
# 2 0.000192 0.010474 -0.008280 0.000000 0.000000 0.000000
# 3 -0.021958 -0.008280 0.050622 0.000000 0.000000 0.000000
# 4 0.000000 0.000000 0.000000 1.052983 0.000000 0.000000
# 5 0.000000 0.000000 0.000000 0.000000 0.128855 0.000000
# 6 0.000000 0.000000 0.000000 0.000000 0.000000 0.038931
#
#
# Mechanical properties :
#
#
# Convention : Reuss Voigt Hill
#
# Bulk Modulus (GPa) = 18.64618 27.95377 23.29998
# Shear Modulus (GPa) = 3.53991 15.03499 9.28745
#
# Velocity S-wave (km/s) = 1.38956 2.86373 2.25075
# Velocity P-wave (km/s) = 3.57004 5.11685 4.41176
#
# Compressibility (1/GPa) = 0.05363028
#
# Stress axis : x y z
#
# Youngs Moduli (GPa) = 19.00135 95.47285 19.75435
#
# Poissons Ratio (x) = -0.01831 0.43377
# Poissons Ratio (y) = -0.00364 0.16357
# Poissons Ratio (z) = 0.41723 0.79056
#
# Static dielectric constant tensor:
#      x y z
#    x 1.637880 0.000000 0.000000 
#    y 0.000000 1.634610 0.000000 
#    z 0.000000 0.000000 1.614920 
# 
# From -- ./inp_files/6145.got.cif
#   From: 2010.05.17/outbox.cif.g08.bks.cpg/sg55_4_cif.got.tgz:6145.got - 2010.06.03 13:27:54.
