data_PCOD9429724
_publ_section_title
;
Structure prediction by ZEFSAII (Michael W. Deem and Ramdas Pophale) SiO2 
 PCOD9429724
Probable space group: P C C N
;
_chemical_formula_sum "Si O2"
_cell_formula_units_Z 56
_cell_length_a 23.939960
_cell_length_b 14.241409
_cell_length_c 8.435601
_cell_angle_alpha 90.000000
_cell_angle_beta 90.000000
_cell_angle_gamma 90.000000
_cell_volume 2876.023360
_symmetry_space_group_name_H-M "P C C N"
_symmetry_group_IT_number 56
_symmetry_cell_setting 'orthorhombic'
loop_
_space_group_symop_operation_xyz
x,y,z
1/2-x,1/2-y,z
1/2+x,-y,1/2-z
-x,1/2+y,1/2-z
-x,-y,-z
1/2+x,1/2+y,-z
1/2-x,y,1/2+z
x,1/2-y,1/2+z
loop_
_atom_site_type_symbol
_atom_site_label
_atom_site_fract_x
_atom_site_fract_y
_atom_site_fract_z
Si Si1 0.828106 0.019087 0.127249
Si Si2 0.274419 0.021065 0.671451
Si Si3 0.952923 0.793873 0.779934
Si Si4 0.681657 0.620470 0.530167
Si Si5 0.994818 0.368263 0.039099
Si Si6 0.086595 0.988482 0.617307
Si Si7 0.627636 0.682155 0.055053
O O1 0.771890 0.036409 0.228512
O O2 0.883049 0.050646 0.224479
O O3 0.838944 0.906820 0.114796
O O4 0.812935 0.041056 0.944931
O O5 0.308911 0.086548 0.790259
O O6 0.236438 0.089441 0.564086
O O7 0.911142 0.721355 0.694672
O O8 0.977612 0.854200 0.636288
O O9 0.914646 0.843494 0.912104
O O10 0.998422 0.730203 0.870836
O O11 0.631612 0.557206 0.462302
O O12 0.666438 0.729156 0.513086
O O13 0.933696 0.407285 0.001621
O O14 0.031352 0.446182 0.133451
#
# Coordination Sequence:
#
# PCOD9429724 Si02
#       7
#     8   8   8   8   8   8   8
#     4  10  19  31  45  68 102 129 174 195 241 278
#     4   9  20  29  44  68  99 139 168 209 225 282
#     4  10  18  32  48  71  94 131 169 201 246 295
#     4  10  18  32  46  70 103 134 175 200 243 279
#     4  10  20  34  53  70  93 129 170 205 253 288
#     4  10  19  34  50  70  96 131 166 210 242 295
#     4  11  18  28  47  67  98 143 163 205 233 274
#
# _framework density 19.471332
#
# number of rings (size 3 to 8) (size 9 to 14) (size 15 to 20)
#    0.000    2.000    4.286    1.714    0.000    3.429 
#    0.000    3.571    0.000    0.000    0.000    0.000 
#    0.000   54.857    0.000    0.000    0.000    0.000 
#
# Total GULP energy -312055.535024 kJ/mol
# GULP energy per Si atom -5572.420268 kJ/mol
# Density = 1.942701 g / cm^3
# Si number density = 19.471332 Si / 1000 Ang^3
#
#
#
# Elastic Constant Matrix: (Units=GPa)
#
#
# Indices 1 2 3 4 5 6 
#
# 1 35.7487 2.6455 11.2789 0.0000 0.0000 0.0000
# 2 2.6455 10.9618 0.6338 0.0000 0.0000 0.0000
# 3 11.2789 0.6338 80.5485 0.0000 0.0000 0.0000
# 4 0.0000 0.0000 0.0000 15.3963 0.0000 0.0000
# 5 0.0000 0.0000 0.0000 0.0000 22.8280 0.0000
# 6 0.0000 0.0000 0.0000 0.0000 0.0000 16.3866
#
#
#
# Elastic Compliance Matrix: (Units=1/GPa)
#
#
# Indices 1 2 3 4 5 6 
#
# 1 0.029786 -0.006951 -0.004116 0.000000 0.000000 0.000000
# 2 -0.006951 0.092890 0.000242 0.000000 0.000000 0.000000
# 3 -0.004116 0.000242 0.012989 0.000000 0.000000 0.000000
# 4 0.000000 0.000000 0.000000 0.064951 0.000000 0.000000
# 5 0.000000 0.000000 0.000000 0.000000 0.043806 0.000000
# 6 0.000000 0.000000 0.000000 0.000000 0.000000 0.061026
#
#
# Mechanical properties :
#
#
# Convention : Reuss Voigt Hill
#
# Bulk Modulus (GPa) = 8.77069 17.37505 13.07287
# Shear Modulus (GPa) = 13.69483 18.43556 16.06520
#
# Velocity S-wave (km/s) = 2.65492 3.08036 2.87552
# Velocity P-wave (km/s) = 3.72992 4.64696 4.21347
#
# Compressibility (1/GPa) = 0.11401609
#
# Stress axis : x y z
#
# Youngs Moduli (GPa) = 33.57272 10.76548 76.98618
#
# Poissons Ratio (x) = 0.07483 0.31689
# Poissons Ratio (y) = 0.23335 -0.01866
# Poissons Ratio (z) = 0.13819 -0.00261
#
# Static dielectric constant tensor:
#      x y z
#    x 1.732350 0.000000 0.000000 
#    y 0.000000 1.660150 0.000000 
#    z 0.000000 0.000000 1.782490 
# 
# From -- ./inp_files/4539.got.cif
#   From: 2010.05.17/outbox.cif.g08.bks.cpg/sg56_3_cif.got.tgz:4539.got - 2010.06.03 13:42:01.
