data_PCOD9429201
_publ_section_title
;
Structure prediction by ZEFSAII (Michael W. Deem and Ramdas Pophale) SiO2 
 PCOD9429201
Probable space group: P B A M
;
_chemical_formula_sum "Si O2"
_cell_formula_units_Z 26
_cell_length_a 11.391055
_cell_length_b 15.182554
_cell_length_c 5.522819
_cell_angle_alpha 90.000000
_cell_angle_beta 90.000000
_cell_angle_gamma 90.000000
_cell_volume 955.145631
_symmetry_space_group_name_H-M "P B A M"
_symmetry_group_IT_number 55
_symmetry_cell_setting 'orthorhombic'
loop_
_space_group_symop_operation_xyz
x,y,z
-x,-y,z
1/2+x,1/2-y,-z
1/2-x,1/2+y,-z
-x,-y,-z
x,y,-z
1/2-x,1/2+y,z
1/2+x,1/2-y,z
loop_
_atom_site_type_symbol
_atom_site_label
_atom_site_fract_x
_atom_site_fract_y
_atom_site_fract_z
Si Si1 0.267012 0.091341 0.500000
Si Si2 0.630773 0.613782 0.000000
Si Si3 0.000000 0.500000 0.500000
Si Si4 0.642661 0.827993 0.000000
Si Si5 0.490190 0.390806 0.500000
Si Si6 0.627298 0.152503 0.000000
Si Si7 0.927685 0.701419 0.500000
O O1 0.295703 0.139905 0.244853
O O2 0.126293 0.082052 0.500000
O O3 0.354066 0.007304 0.500000
O O4 0.570762 0.584502 0.752175
O O5 0.626758 0.721905 0.000000
O O6 0.767236 0.583809 0.000000
O O7 0.009638 0.392825 0.500000
O O8 0.510459 0.872981 0.000000
O O9 0.487707 0.284026 0.500000
O O10 0.641702 0.204718 0.750560
#
# Coordination Sequence:
#
# PCOD9429201 Si02
#       7
#     4   4   2   4   4   4   4
#     4  12  26  40  71  93 147 163 229 277 344 382
#     4  12  23  38  67  90 138 173 233 259 343 391
#     4  12  24  44  68 108 130 178 216 300 316 406
#     4  12  21  42  58 102 125 180 213 284 332 391
#     4  12  23  44  61 103 132 183 212 279 326 415
#     4  12  22  40  61  95 130 181 212 283 324 416
#     4  12  23  41  64  97 137 168 225 267 359 365
#
# _framework density 27.220983
#
# number of rings (size 3 to 8) (size 9 to 14) (size 15 to 20)
#    0.000    0.000    6.154    4.615    0.000    2.462 
#    0.000    0.000    0.000    5.538    0.000    0.000 
#    0.000    0.000    0.000    0.000    0.000    0.000 
#
# Total GULP energy -145116.882727 kJ/mol
# GULP energy per Si atom -5581.418566 kJ/mol
# Density = 2.715903 g / cm^3
# Si number density = 27.220983 Si / 1000 Ang^3
#
#
#
# Elastic Constant Matrix: (Units=GPa)
#
#
# Indices 1 2 3 4 5 6 
#
# 1 203.9874 12.3111 108.5743 0.0000 0.0000 0.0000
# 2 12.3111 132.6920 40.2423 0.0000 0.0000 0.0000
# 3 108.5743 40.2423 333.7956 0.0000 0.0000 0.0000
# 4 0.0000 0.0000 0.0000 9.7895 0.0000 0.0000
# 5 0.0000 0.0000 0.0000 0.0000 180.3003 0.0000
# 6 0.0000 0.0000 0.0000 0.0000 0.0000 41.3027
#
#
#
# Elastic Compliance Matrix: (Units=1/GPa)
#
#
# Indices 1 2 3 4 5 6 
#
# 1 0.005929 0.000036 -0.001933 0.000000 0.000000 0.000000
# 2 0.000036 0.007822 -0.000955 0.000000 0.000000 0.000000
# 3 -0.001933 -0.000955 0.003740 0.000000 0.000000 0.000000
# 4 0.000000 0.000000 0.000000 0.102150 0.000000 0.000000
# 5 0.000000 0.000000 0.000000 0.000000 0.005546 0.000000
# 6 0.000000 0.000000 0.000000 0.000000 0.000000 0.024211
#
#
# Mechanical properties :
#
#
# Convention : Reuss Voigt Hill
#
# Bulk Modulus (GPa) = 84.83290 110.30338 97.56814
# Shear Modulus (GPa) = 31.44040 80.23501 55.83770
#
# Velocity S-wave (km/s) = 3.40222 5.43502 4.53401
# Velocity P-wave (km/s) = 6.83123 8.94401 7.95805
#
# Compressibility (1/GPa) = 0.01178788
#
# Stress axis : x y z
#
# Youngs Moduli (GPa) = 168.66649 127.83683 267.40412
#
# Poissons Ratio (x) = -0.00462 0.51685
# Poissons Ratio (y) = -0.00609 0.25532
# Poissons Ratio (z) = 0.32601 0.12206
#
# Static dielectric constant tensor:
#      x y z
#    x 2.164890 0.000000 0.000000 
#    y 0.000000 2.090020 0.000000 
#    z 0.000000 0.000000 2.137440 
# 
# From -- ./inp_files/466.got.cif
#   From: 2010.05.17/outbox.cif.g08.bks.cpg/sg55_1_cif.got.tgz:466.got - 2010.06.03 13:27:54.
