data_PCOD9429655
_publ_section_title
;
Structure prediction by ZEFSAII (Michael W. Deem and Ramdas Pophale) SiO2 
 PCOD9429655
Probable space group: P C C N
;
_chemical_formula_sum "Si O2"
_cell_formula_units_Z 48
_cell_length_a 28.577980
_cell_length_b 6.896537
_cell_length_c 9.568225
_cell_angle_alpha 90.000000
_cell_angle_beta 90.000000
_cell_angle_gamma 90.000000
_cell_volume 1885.792820
_symmetry_space_group_name_H-M "P C C N"
_symmetry_group_IT_number 56
_symmetry_cell_setting 'orthorhombic'
loop_
_space_group_symop_operation_xyz
x,y,z
1/2-x,1/2-y,z
1/2+x,-y,1/2-z
-x,1/2+y,1/2-z
-x,-y,-z
1/2+x,1/2+y,-z
1/2-x,y,1/2+z
x,1/2-y,1/2+z
loop_
_atom_site_type_symbol
_atom_site_label
_atom_site_fract_x
_atom_site_fract_y
_atom_site_fract_z
Si Si1 0.891617 0.026759 0.425989
Si Si2 0.040080 0.401277 0.299281
Si Si3 0.065278 0.949434 0.287008
Si Si4 0.105344 0.059490 0.025466
Si Si5 0.796295 0.571055 0.584032
Si Si6 0.287813 0.024841 0.086982
O O1 0.928777 0.038885 0.300233
O O2 0.915282 0.112384 0.564263
O O3 0.889635 0.789197 0.441993
O O4 0.837333 0.084871 0.417705
O O5 0.059250 0.183136 0.295170
O O6 0.054609 0.465241 0.454011
O O7 0.987121 0.387527 0.250003
O O8 0.103451 0.932433 0.164895
O O9 0.149601 0.008661 0.929504
O O10 0.795800 0.784222 0.511456
O O11 0.760291 0.453819 0.484891
O O12 0.781769 0.568804 0.747144
#
# Coordination Sequence:
#
# PCOD9429655 Si02
#       6
#     8   8   8   8   8   8
#     4   9  18  29  44  64  93 124 155 190 237 279
#     4  10  18  34  45  71  91 129 156 198 233 274
#     4  10  20  30  51  65  97 125 162 194 233 278
#     4   9  18  29  44  64  93 124 155 190 237 279
#     4  10  18  26  41  63  92 123 157 189 233 287
#     4  10  18  26  41  63  92 123 157 189 233 287
#
# _framework density 25.453488
#
# number of rings (size 3 to 8) (size 9 to 14) (size 15 to 20)
#    0.000    2.333    1.667    3.000    9.333    0.000 
#    0.000    0.000    0.000    0.000    0.000    0.000 
#    0.000    8.000    0.000    0.000    0.000    0.000 
#
# Total GULP energy -267978.611937 kJ/mol
# GULP energy per Si atom -5582.887749 kJ/mol
# Density = 2.539556 g / cm^3
# Si number density = 25.453488 Si / 1000 Ang^3
#
#
#
# Elastic Constant Matrix: (Units=GPa)
#
#
# Indices 1 2 3 4 5 6 
#
# 1 143.6401 -2.8980 17.1153 0.0000 0.0000 0.0000
# 2 -2.8980 61.1499 -18.2413 0.0000 0.0000 0.0000
# 3 17.1153 -18.2413 114.0204 0.0000 0.0000 0.0000
# 4 0.0000 0.0000 0.0000 4.7495 0.0000 0.0000
# 5 0.0000 0.0000 0.0000 0.0000 36.3918 0.0000
# 6 0.0000 0.0000 0.0000 0.0000 0.0000 29.1563
#
#
#
# Elastic Compliance Matrix: (Units=1/GPa)
#
#
# Indices 1 2 3 4 5 6 
#
# 1 0.007089 0.000019 -0.001061 0.000000 0.000000 0.000000
# 2 0.000019 0.017173 0.002744 0.000000 0.000000 0.000000
# 3 -0.001061 0.002744 0.009369 0.000000 0.000000 0.000000
# 4 0.000000 0.000000 0.000000 0.210547 0.000000 0.000000
# 5 0.000000 0.000000 0.000000 0.000000 0.027479 0.000000
# 6 0.000000 0.000000 0.000000 0.000000 0.000000 0.034298
#
#
# Mechanical properties :
#
#
# Convention : Reuss Voigt Hill
#
# Bulk Modulus (GPa) = 27.00067 34.52914 30.76491
# Shear Modulus (GPa) = 15.87838 35.58182 25.73010
#
# Velocity S-wave (km/s) = 2.50035 3.74293 3.18286
# Velocity P-wave (km/s) = 4.35506 5.68105 5.06166
#
# Compressibility (1/GPa) = 0.03703612
#
# Stress axis : x y z
#
# Youngs Moduli (GPa) = 141.07051 58.23138 106.73864
#
# Poissons Ratio (x) = -0.00113 0.11324
# Poissons Ratio (y) = -0.00274 -0.29294
# Poissons Ratio (z) = 0.14967 -0.15981
#
# Static dielectric constant tensor:
#      x y z
#    x 1.997640 0.000000 0.000000 
#    y 0.000000 2.119610 0.000000 
#    z 0.000000 0.000000 2.012120 
# 
# From -- ./inp_files/2919.got.cif
#   From: 2010.05.17/outbox.cif.g08.bks.cpg/sg56_2_cif.got.tgz:2919.got - 2010.06.03 13:42:01.
