data_PCOD9429944
_publ_section_title
;
Structure prediction by ZEFSAII (Michael W. Deem and Ramdas Pophale) SiO2 
 PCOD9429944
Probable space group: P C C N
;
_chemical_formula_sum "Si O2"
_cell_formula_units_Z 40
_cell_length_a 10.460534
_cell_length_b 9.594887
_cell_length_c 15.507636
_cell_angle_alpha 90.000000
_cell_angle_beta 90.000000
_cell_angle_gamma 90.000000
_cell_volume 1556.464854
_symmetry_space_group_name_H-M "P C C N"
_symmetry_group_IT_number 56
_symmetry_cell_setting 'orthorhombic'
loop_
_space_group_symop_operation_xyz
x,y,z
1/2-x,1/2-y,z
1/2+x,-y,1/2-z
-x,1/2+y,1/2-z
-x,-y,-z
1/2+x,1/2+y,-z
1/2-x,y,1/2+z
x,1/2-y,1/2+z
loop_
_atom_site_type_symbol
_atom_site_label
_atom_site_fract_x
_atom_site_fract_y
_atom_site_fract_z
Si Si1 0.421546 0.092210 0.071163
Si Si2 0.041634 0.053956 0.287410
Si Si3 0.113024 0.824520 0.962990
Si Si4 0.257372 0.411776 0.924343
Si Si5 0.888970 0.314738 0.330103
O O1 0.423387 0.021559 0.163551
O O2 0.494844 0.238074 0.074104
O O3 0.286854 0.090547 0.024251
O O4 0.500000 0.000000 0.000000
O O5 0.086231 0.968544 0.205582
O O6 0.155474 0.029593 0.356255
O O7 0.995713 0.212991 0.287173
O O8 0.250000 0.750000 0.942945
O O9 0.126136 0.980859 0.927104
O O10 0.099295 0.811906 0.066420
O O11 0.250000 0.250000 0.900560
O O12 0.750000 0.250000 0.307870
#
# Coordination Sequence:
#
# PCOD9429944 Si02
#       5
#     8   8   8   8   8
#     4  10  18  39  67  92 125 172 221 269 321 395
#     4  11  24  45  65  96 136 176 224 272 335 413
#     4  11  19  40  71  92 128 175 220 273 338 399
#     4  11  24  40  66 101 131 170 231 285 331 402
#     4  11  25  43  67 100 135 179 221 276 347 403
#
# _framework density 25.699262999999998
#
# number of rings (size 3 to 8) (size 9 to 14) (size 15 to 20)
#    0.000    1.200    8.000    1.200    2.800    4.000 
#    0.000    1.000    0.000    0.000    0.000    0.000 
#    0.000    0.000    0.000    0.000    0.000    0.000 
#
# Total GULP energy -223684.428464 kJ/mol
# GULP energy per Si atom -5592.110712 kJ/mol
# Density = 2.564077 g / cm^3
# Si number density = 25.699263 Si / 1000 Ang^3
#
#
#
# Elastic Constant Matrix: (Units=GPa)
#
#
# Indices 1 2 3 4 5 6 
#
# 1 61.6072 37.7269 10.4791 0.0000 0.0000 0.0000
# 2 37.7269 147.6320 15.7324 0.0000 0.0000 0.0000
# 3 10.4791 15.7324 60.9329 0.0000 0.0000 0.0000
# 4 0.0000 0.0000 0.0000 22.8684 0.0000 0.0000
# 5 0.0000 0.0000 0.0000 0.0000 21.3431 0.0000
# 6 0.0000 0.0000 0.0000 0.0000 0.0000 44.4503
#
#
#
# Elastic Compliance Matrix: (Units=1/GPa)
#
#
# Indices 1 2 3 4 5 6 
#
# 1 0.019508 -0.004759 -0.002126 0.000000 0.000000 0.000000
# 2 -0.004759 0.008126 -0.001280 0.000000 0.000000 0.000000
# 3 -0.002126 -0.001280 0.017108 0.000000 0.000000 0.000000
# 4 0.000000 0.000000 0.000000 0.043728 0.000000 0.000000
# 5 0.000000 0.000000 0.000000 0.000000 0.046854 0.000000
# 6 0.000000 0.000000 0.000000 0.000000 0.000000 0.022497
#
#
# Mechanical properties :
#
#
# Convention : Reuss Voigt Hill
#
# Bulk Modulus (GPa) = 35.19617 44.22763 39.71190
# Shear Modulus (GPa) = 27.23016 31.48127 29.35572
#
# Velocity S-wave (km/s) = 3.25863 3.50378 3.38343
# Velocity P-wave (km/s) = 5.28047 5.79790 5.54523
#
# Compressibility (1/GPa) = 0.02841219
#
# Stress axis : x y z
#
# Youngs Moduli (GPa) = 51.26226 123.06192 58.45363
#
# Poissons Ratio (x) = 0.58559 0.12429
# Poissons Ratio (y) = 0.24393 0.07480
# Poissons Ratio (z) = 0.10900 0.15748
#
# Static dielectric constant tensor:
#      x y z
#    x 2.117130 0.000000 0.000000 
#    y 0.000000 2.143690 0.000000 
#    z 0.000000 0.000000 1.984430 
# 
# From -- ./inp_files/15419.got.cif
#   From: 2010.05.17/outbox.cif.g08.bks.cpg/sg56_8_cif.got.tgz:15419.got - 2010.06.03 13:42:01.
