data_PCOD9429699
_publ_section_title
;
Structure prediction by ZEFSAII (Michael W. Deem and Ramdas Pophale) SiO2 
 PCOD9429699
Probable space group: P C C N
;
_chemical_formula_sum "Si O2"
_cell_formula_units_Z 44
_cell_length_a 11.877112
_cell_length_b 17.167208
_cell_length_c 9.011272
_cell_angle_alpha 90.000000
_cell_angle_beta 90.000000
_cell_angle_gamma 90.000000
_cell_volume 1837.369995
_symmetry_space_group_name_H-M "P C C N"
_symmetry_group_IT_number 56
_symmetry_cell_setting 'orthorhombic'
loop_
_space_group_symop_operation_xyz
x,y,z
1/2-x,1/2-y,z
1/2+x,-y,1/2-z
-x,1/2+y,1/2-z
-x,-y,-z
1/2+x,1/2+y,-z
1/2-x,y,1/2+z
x,1/2-y,1/2+z
loop_
_atom_site_type_symbol
_atom_site_label
_atom_site_fract_x
_atom_site_fract_y
_atom_site_fract_z
Si Si1 0.397542 0.735702 0.503174
Si Si2 0.133667 0.401926 0.324733
Si Si3 0.628762 0.362715 0.766252
Si Si4 0.535245 0.666539 0.766049
Si Si5 0.250000 0.250000 0.318038
Si Si6 0.178108 0.030377 0.130709
O O1 0.342007 0.795290 0.617967
O O2 0.341854 0.672771 0.393829
O O3 0.482248 0.685470 0.606369
O O4 0.456133 0.796901 0.390402
O O5 0.195574 0.325409 0.393810
O O6 0.206082 0.428477 0.182716
O O7 0.148829 0.464238 0.456648
O O8 0.006410 0.379480 0.282479
O O9 0.684769 0.443322 0.809184
O O10 0.648027 0.717173 0.776318
O O11 0.575755 0.578576 0.791646
#
# Coordination Sequence:
#
# PCOD9429699 Si02
#       6
#     8   8   8   8   4   8
#     4  10  20  37  60  89 121 168 208 254 293 387
#     4  11  23  38  63  95 137 161 201 260 315 389
#     4  11  23  43  63  95 125 167 212 255 326 365
#     4  10  19  32  55  92 125 163 193 245 314 376
#     4  10  18  30  56  90 132 150 196 238 330 372
#     4  11  25  39  60  95 131 168 200 259 322 380
#
# _framework density 23.947272999999999
#
# number of rings (size 3 to 8) (size 9 to 14) (size 15 to 20)
#    0.000    1.455    5.455    0.545    5.091    4.364 
#    0.000    0.000    0.000    3.273    0.000    0.000 
#    0.000    0.000    0.000    0.000    0.000    0.000 
#
# Total GULP energy -245929.855085 kJ/mol
# GULP energy per Si atom -5589.314888 kJ/mol
# Density = 2.389277 g / cm^3
# Si number density = 23.947273 Si / 1000 Ang^3
#
#
#
# Elastic Constant Matrix: (Units=GPa)
#
#
# Indices 1 2 3 4 5 6 
#
# 1 75.4688 25.1758 34.7168 0.0000 0.0000 0.0000
# 2 25.1758 68.4494 1.1786 0.0000 0.0000 0.0000
# 3 34.7168 1.1786 105.2415 0.0000 0.0000 0.0000
# 4 0.0000 0.0000 0.0000 38.3111 0.0000 0.0000
# 5 0.0000 0.0000 0.0000 0.0000 14.4363 0.0000
# 6 0.0000 0.0000 0.0000 0.0000 0.0000 24.0639
#
#
#
# Elastic Compliance Matrix: (Units=1/GPa)
#
#
# Indices 1 2 3 4 5 6 
#
# 1 0.018169 -0.006581 -0.005920 0.000000 0.000000 0.000000
# 2 -0.006581 0.016996 0.001980 0.000000 0.000000 0.000000
# 3 -0.005920 0.001980 0.011433 0.000000 0.000000 0.000000
# 4 0.000000 0.000000 0.000000 0.026102 0.000000 0.000000
# 5 0.000000 0.000000 0.000000 0.000000 0.069270 0.000000
# 6 0.000000 0.000000 0.000000 0.000000 0.000000 0.041556
#
#
# Mechanical properties :
#
#
# Convention : Reuss Voigt Hill
#
# Bulk Modulus (GPa) = 39.12799 41.25579 40.19189
# Shear Modulus (GPa) = 23.46488 27.90149 25.68318
#
# Velocity S-wave (km/s) = 3.13366 3.41709 3.27844
# Velocity P-wave (km/s) = 5.42843 5.73008 5.58129
#
# Compressibility (1/GPa) = 0.02555716
#
# Stress axis : x y z
#
# Youngs Moduli (GPa) = 55.03881 58.83866 87.46919
#
# Poissons Ratio (x) = 0.38720 0.51780
# Poissons Ratio (y) = 0.36219 -0.17323
# Poissons Ratio (z) = 0.32582 -0.11653
#
# Static dielectric constant tensor:
#      x y z
#    x 1.968190 0.000000 0.000000 
#    y 0.000000 1.930740 0.000000 
#    z 0.000000 0.000000 1.888620 
# 
# From -- ./inp_files/3314.got.cif
#   From: 2010.05.17/outbox.cif.g08.bks.cpg/sg56_2_cif.got.tgz:3314.got - 2010.06.03 13:42:01.
