data_PCOD9429651
_publ_section_title
;
Structure prediction by ZEFSAII (Michael W. Deem and Ramdas Pophale) SiO2 
 PCOD9429651
Probable space group: P C C N
;
_chemical_formula_sum "Si O2"
_cell_formula_units_Z 64
_cell_length_a 12.518577
_cell_length_b 14.145014
_cell_length_c 18.185501
_cell_angle_alpha 90.000000
_cell_angle_beta 90.000000
_cell_angle_gamma 90.000000
_cell_volume 3220.205717
_symmetry_space_group_name_H-M "P C C N"
_symmetry_group_IT_number 56
_symmetry_cell_setting 'orthorhombic'
loop_
_space_group_symop_operation_xyz
x,y,z
1/2-x,1/2-y,z
1/2+x,-y,1/2-z
-x,1/2+y,1/2-z
-x,-y,-z
1/2+x,1/2+y,-z
1/2-x,y,1/2+z
x,1/2-y,1/2+z
loop_
_atom_site_type_symbol
_atom_site_label
_atom_site_fract_x
_atom_site_fract_y
_atom_site_fract_z
Si Si1 0.824348 0.165413 0.067191
Si Si2 0.038667 0.147460 0.261069
Si Si3 0.209015 0.646982 0.261391
Si Si4 0.658526 0.830501 0.088133
Si Si5 0.561479 0.719687 0.960903
Si Si6 0.283171 0.028603 0.681537
Si Si7 0.143056 0.304208 0.188775
Si Si8 0.199147 0.034808 0.010073
O O1 0.750000 0.250000 0.036636
O O2 0.787277 0.143828 0.150169
O O3 0.943132 0.206673 0.067990
O O4 0.827856 0.066671 0.023921
O O5 0.100252 0.137204 0.338018
O O6 0.108798 0.086580 0.202419
O O7 0.049780 0.257056 0.235241
O O8 0.913679 0.126855 0.261765
O O9 0.250000 0.750000 0.238287
O O10 0.282198 0.567812 0.225290
O O11 0.750000 0.750000 0.102392
O O12 0.713668 0.915136 0.042574
O O13 0.573645 0.781551 0.033860
O O14 0.625670 0.774709 0.896306
O O15 0.609641 0.616942 0.980883
O O16 0.177420 0.089286 0.702573
O O17 0.270654 0.016747 0.594580
O O18 0.250000 0.250000 0.213136
#
# Coordination Sequence:
#
# PCOD9429651 Si02
#       8
#     8   8   8   8   8   8   8   8
#     4  11  25  43  61  89 134 180 216 265 324 398
#     4  11  22  40  65  96 129 169 220 263 332 388
#     4  11  26  45  62  89 136 178 219 269 323 391
#     4  10  21  37  64 100 125 155 215 286 323 381
#     4  11  19  40  68  92 124 169 210 266 335 371
#     4  11  22  39  67  95 125 172 220 274 323 394
#     4  10  17  37  66  91 119 161 209 263 321 380
#     4  11  21  39  66  94 125 162 220 271 322 388
#
# _framework density 19.874507000000001
#
# number of rings (size 3 to 8) (size 9 to 14) (size 15 to 20)
#    0.000    1.250    5.000    2.625    0.000    4.500 
#    2.250    1.250    0.000    0.000    0.000    0.000 
#    0.000    0.000    0.000    0.000    0.000    0.000 
#
# Total GULP energy -357085.142998 kJ/mol
# GULP energy per Si atom -5579.455359 kJ/mol
# Density = 1.982927 g / cm^3
# Si number density = 19.874507 Si / 1000 Ang^3
#
#
#
# Elastic Constant Matrix: (Units=GPa)
#
#
# Indices 1 2 3 4 5 6 
#
# 1 47.4505 22.3986 1.9347 0.0000 0.0000 0.0000
# 2 22.3986 98.3607 12.5422 0.0000 0.0000 0.0000
# 3 1.9347 12.5422 80.8398 0.0000 0.0000 0.0000
# 4 0.0000 0.0000 0.0000 20.9471 0.0000 0.0000
# 5 0.0000 0.0000 0.0000 0.0000 4.8675 0.0000
# 6 0.0000 0.0000 0.0000 0.0000 0.0000 19.2893
#
#
#
# Elastic Compliance Matrix: (Units=1/GPa)
#
#
# Indices 1 2 3 4 5 6 
#
# 1 0.023619 -0.005413 0.000275 0.000000 0.000000 0.000000
# 2 -0.005413 0.011613 -0.001672 0.000000 0.000000 0.000000
# 3 0.000275 -0.001672 0.012623 0.000000 0.000000 0.000000
# 4 0.000000 0.000000 0.000000 0.047739 0.000000 0.000000
# 5 0.000000 0.000000 0.000000 0.000000 0.205445 0.000000
# 6 0.000000 0.000000 0.000000 0.000000 0.000000 0.051842
#
#
# Mechanical properties :
#
#
# Convention : Reuss Voigt Hill
#
# Bulk Modulus (GPa) = 29.21200 33.37798 31.29499
# Shear Modulus (GPa) = 13.23053 21.67249 17.45151
#
# Velocity S-wave (km/s) = 2.58292 3.30580 2.96646
# Velocity P-wave (km/s) = 4.86060 5.60374 5.24535
#
# Compressibility (1/GPa) = 0.03423250
#
# Stress axis : x y z
#
# Youngs Moduli (GPa) = 42.33919 86.11316 79.22047
#
# Poissons Ratio (x) = 0.46617 -0.02176
# Poissons Ratio (y) = 0.22920 0.13247
# Poissons Ratio (z) = -0.01163 0.14399
#
# Static dielectric constant tensor:
#      x y z
#    x 1.719980 0.000000 0.000000 
#    y 0.000000 1.716730 0.000000 
#    z 0.000000 0.000000 1.701390 
# 
# From -- ./inp_files/15808.got.cif
#   From: 2010.05.17/outbox.cif.g08.bks.cpg/sg56_8_cif.got.tgz:15808.got - 2010.06.03 13:42:01.
