data_PCOD9429112
_publ_section_title
;
Structure prediction by ZEFSAII (Michael W. Deem and Ramdas Pophale) SiO2 
 PCOD9429112
Probable space group: P B A M
;
_chemical_formula_sum "Si O2"
_cell_formula_units_Z 40
_cell_length_a 9.584984
_cell_length_b 16.607164
_cell_length_c 11.093988
_cell_angle_alpha 90.000000
_cell_angle_beta 90.000000
_cell_angle_gamma 90.000000
_cell_volume 1765.934367
_symmetry_space_group_name_H-M "P B A M"
_symmetry_group_IT_number 55
_symmetry_cell_setting 'orthorhombic'
loop_
_space_group_symop_operation_xyz
x,y,z
-x,-y,z
1/2+x,1/2-y,-z
1/2-x,1/2+y,-z
-x,-y,-z
x,y,-z
1/2-x,1/2+y,z
1/2+x,1/2-y,z
loop_
_atom_site_type_symbol
_atom_site_label
_atom_site_fract_x
_atom_site_fract_y
_atom_site_fract_z
Si Si1 0.725533 0.553732 0.500000
Si Si2 0.058190 0.724615 0.141529
Si Si3 0.107250 0.424919 0.747062
Si Si4 0.156393 0.011504 0.140593
Si Si5 0.331937 0.677290 0.243586
Si Si6 0.413785 0.624091 0.500000
O O1 0.818963 0.574536 0.616418
O O2 0.577333 0.600516 0.500000
O O3 0.677121 0.459222 0.500000
O O4 0.205944 0.734481 0.206438
O O5 0.974803 0.654482 0.212236
O O6 0.963702 0.802741 0.160293
O O7 0.075875 0.705796 0.000000
O O8 0.236748 0.439993 0.837059
O O9 0.000000 0.500000 0.753378
O O10 0.217470 0.088149 0.209036
O O11 0.146716 0.028939 0.000000
O O12 0.000000 0.000000 0.190177
O O13 0.375829 0.674714 0.381590
#
# Coordination Sequence:
#
# PCOD9429112 Si02
#       6
#     4   8   8   8   8   4
#     4  11  23  43  75 110 143 182 236 304 359 426
#     4  12  28  48  71 104 150 191 241 300 363 430
#     4  12  24  43  73 105 142 189 239 297 366 421
#     4  11  23  41  69 102 137 184 248 299 357 432
#     4  12  27  47  72 103 144 194 238 296 366 424
#     4  11  24  47  75 104 146 183 244 299 353 434
#
# _framework density 22.650897000000001
#
# number of rings (size 3 to 8) (size 9 to 14) (size 15 to 20)
#    0.000    0.400    4.000    3.900    5.600    3.200 
#    0.000    0.000    0.000    0.000    0.000    0.000 
#    0.000    0.000    0.000    0.000    0.000    0.000 
#
# Total GULP energy -223907.995381 kJ/mol
# GULP energy per Si atom -5597.699885 kJ/mol
# Density = 2.259934 g / cm^3
# Si number density = 22.650897 Si / 1000 Ang^3
#
#
#
# Elastic Constant Matrix: (Units=GPa)
#
#
# Indices 1 2 3 4 5 6 
#
# 1 149.0031 17.2209 46.4230 0.0000 0.0000 0.0000
# 2 17.2209 39.5095 12.4969 0.0000 0.0000 0.0000
# 3 46.4230 12.4969 134.9326 0.0000 0.0000 0.0000
# 4 0.0000 0.0000 0.0000 -3.0051 0.0000 0.0000
# 5 0.0000 0.0000 0.0000 0.0000 26.4638 0.0000
# 6 0.0000 0.0000 0.0000 0.0000 0.0000 39.6718
#
#
#
# Elastic Compliance Matrix: (Units=1/GPa)
#
#
# Indices 1 2 3 4 5 6 
#
# 1 0.007771 -0.002618 -0.002431 0.000000 0.000000 0.000000
# 2 -0.002618 0.026956 -0.001596 0.000000 0.000000 0.000000
# 3 -0.002431 -0.001596 0.008395 0.000000 0.000000 0.000000
# 4 0.000000 0.000000 0.000000 -0.332768 0.000000 0.000000
# 5 0.000000 0.000000 0.000000 0.000000 0.037787 0.000000
# 6 0.000000 0.000000 0.000000 0.000000 0.000000 0.025207
#
#
# Mechanical properties :
#
#
# Convention : Reuss Voigt Hill
#
# Bulk Modulus (GPa) = 33.52052 52.85855 43.18954
# Shear Modulus (GPa) = -24.58013 29.11306 2.26646
#
# Velocity S-wave (km/s) = -3.29777 3.58899 1.00139
# Velocity P-wave (km/s) = 0.57490 6.36878 4.52171
#
# Compressibility (1/GPa) = 0.02983247
#
# Stress axis : x y z
#
# Youngs Moduli (GPa) = 128.67802 37.09706 119.11361
#
# Poissons Ratio (x) = 0.09713 0.28959
# Poissons Ratio (y) = 0.33692 0.19008
# Poissons Ratio (z) = 0.31284 0.05920
#
# Static dielectric constant tensor:
#      x y z
#    x 1.850330 0.000000 0.000000 
#    y 0.000000 1.851380 0.000000 
#    z 0.000000 0.000000 1.799390 
# 
# From -- ./inp_files/11905.got.cif
#   From: 2010.05.17/outbox.cif.g08.bks.cpg/sg55_6_cif.got.tgz:11905.got - 2010.06.03 13:27:54.
