data_PCOD9429499
_publ_section_title
;
Structure prediction by ZEFSAII (Michael W. Deem and Ramdas Pophale) SiO2 
 PCOD9429499
Probable space group: P C C N
;
_chemical_formula_sum "Si O2"
_cell_formula_units_Z 48
_cell_length_a 27.302846
_cell_length_b 11.733835
_cell_length_c 5.675470
_cell_angle_alpha 90.000000
_cell_angle_beta 90.000000
_cell_angle_gamma 90.000000
_cell_volume 1818.233808
_symmetry_space_group_name_H-M "P C C N"
_symmetry_group_IT_number 56
_symmetry_cell_setting 'orthorhombic'
loop_
_space_group_symop_operation_xyz
x,y,z
1/2-x,1/2-y,z
1/2+x,-y,1/2-z
-x,1/2+y,1/2-z
-x,-y,-z
1/2+x,1/2+y,-z
1/2-x,y,1/2+z
x,1/2-y,1/2+z
loop_
_atom_site_type_symbol
_atom_site_label
_atom_site_fract_x
_atom_site_fract_y
_atom_site_fract_z
Si Si1 0.909708 0.483965 0.564075
Si Si2 0.970570 0.252768 0.589253
Si Si3 0.197095 0.065424 0.522319
Si Si4 0.686144 0.917576 0.480090
Si Si5 0.307609 0.706286 0.504055
Si Si6 0.557168 0.494529 0.563154
O O1 0.938768 0.366652 0.587446
O O2 0.852365 0.479260 0.506698
O O3 0.931963 0.541529 0.325339
O O4 0.916610 0.538102 0.825810
O O5 0.998352 0.252474 0.338988
O O6 0.935226 0.142306 0.586012
O O7 0.177227 0.122443 0.285403
O O8 0.256146 0.060399 0.525192
O O9 0.185997 0.930465 0.512736
O O10 0.181379 0.131681 0.757023
O O11 0.250000 0.750000 0.502127
O O12 0.327740 0.747950 0.252527
O O13 0.500000 0.500000 0.500000
#
# Coordination Sequence:
#
# PCOD9429499 Si02
#       6
#     8   8   8   8   8   8
#     4  10  19  32  47  68  90 114 145 192 234 263
#     4   8  16  30  44  63  86 107 136 177 226 271
#     4  10  19  30  40  55  77 112 148 180 210 244
#     4  10  18  30  44  57  81 110 145 183 222 251
#     4  10  16  25  33  43  63  89 128 172 204 234
#     4  10  19  33  50  66  84 110 145 186 231 281
#
# _framework density 26.399246999999999
#
# number of rings (size 3 to 8) (size 9 to 14) (size 15 to 20)
#    0.000    2.333    0.000    6.500    0.000    0.000 
#    0.000   30.000    0.000    0.000    0.000    0.000 
#    0.000    0.000    0.000    0.000    0.000    0.000 
#
# Total GULP energy -267429.609637 kJ/mol
# GULP energy per Si atom -5571.450201 kJ/mol
# Density = 2.633916 g / cm^3
# Si number density = 26.399247 Si / 1000 Ang^3
#
#
#
# Elastic Constant Matrix: (Units=GPa)
#
#
# Indices 1 2 3 4 5 6 
#
# 1 49.3981 8.6086 5.1794 0.0000 0.0000 0.0000
# 2 8.6086 97.3733 33.6289 0.0000 0.0000 0.0000
# 3 5.1794 33.6289 376.8655 0.0000 0.0000 0.0000
# 4 0.0000 0.0000 0.0000 -83.1742 0.0000 0.0000
# 5 0.0000 0.0000 0.0000 0.0000 14.6756 0.0000
# 6 0.0000 0.0000 0.0000 0.0000 0.0000 -17.2148
#
#
#
# Elastic Compliance Matrix: (Units=1/GPa)
#
#
# Indices 1 2 3 4 5 6 
#
# 1 0.020566 -0.001775 -0.000124 0.000000 0.000000 0.000000
# 2 -0.001775 0.010750 -0.000935 0.000000 0.000000 0.000000
# 3 -0.000124 -0.000935 0.002739 0.000000 0.000000 0.000000
# 4 0.000000 0.000000 0.000000 -0.012023 0.000000 0.000000
# 5 0.000000 0.000000 0.000000 0.000000 0.068140 0.000000
# 6 0.000000 0.000000 0.000000 0.000000 0.000000 -0.058090
#
#
# Mechanical properties :
#
#
# Convention : Reuss Voigt Hill
#
# Bulk Modulus (GPa) = 35.22921 68.71897 51.97409
# Shear Modulus (GPa) = 105.90430 14.60534 60.25482
#
# Velocity S-wave (km/s) = 6.34062 2.35467 4.78268
# Velocity P-wave (km/s) = 8.18403 5.78618 7.08725
#
# Compressibility (1/GPa) = 0.02838554
#
# Stress axis : x y z
#
# Youngs Moduli (GPa) = 48.62371 93.02714 365.15131
#
# Poissons Ratio (x) = 0.16515 0.04536
# Poissons Ratio (y) = 0.08632 0.34135
# Poissons Ratio (z) = 0.00604 0.08696
#
# Static dielectric constant tensor:
#      x y z
#    x 2.044470 0.000000 0.000000 
#    y 0.000000 2.048200 0.000000 
#    z 0.000000 0.000000 2.208930 
# 
# From -- ./inp_files/1224.got.cif
#   From: 2010.05.17/outbox.cif.g08.bks.cpg/sg56_1_cif.got.tgz:1224.got - 2010.06.03 13:42:01.
