data_PCOD9429211
_publ_section_title
;
Structure prediction by ZEFSAII (Michael W. Deem and Ramdas Pophale) SiO2 
 PCOD9429211
Probable space group: P B A M
;
_chemical_formula_sum "Si O2"
_cell_formula_units_Z 44
_cell_length_a 11.257826
_cell_length_b 25.210659
_cell_length_c 7.609521
_cell_angle_alpha 90.000000
_cell_angle_beta 90.000000
_cell_angle_gamma 90.000000
_cell_volume 2159.713038
_symmetry_space_group_name_H-M "P B A M"
_symmetry_group_IT_number 55
_symmetry_cell_setting 'orthorhombic'
loop_
_space_group_symop_operation_xyz
x,y,z
-x,-y,z
1/2+x,1/2-y,-z
1/2-x,1/2+y,-z
-x,-y,-z
x,y,-z
1/2-x,1/2+y,z
1/2+x,1/2-y,z
loop_
_atom_site_type_symbol
_atom_site_label
_atom_site_fract_x
_atom_site_fract_y
_atom_site_fract_z
Si Si1 0.480415 0.452101 0.301158
Si Si2 0.153006 0.384996 0.704233
Si Si3 0.366706 0.119460 0.295833
Si Si4 0.247897 0.185486 0.000000
Si Si5 0.641465 0.997607 0.713556
Si Si6 0.243260 0.810193 0.000000
Si Si7 0.007757 0.867575 0.000000
O O1 0.472092 0.433559 0.500000
O O2 0.188999 0.444292 0.232027
O O3 0.594263 0.492659 0.280276
O O4 0.472836 0.406153 0.165827
O O5 0.190102 0.379178 0.500000
O O6 0.009999 0.381401 0.708641
O O7 0.205253 0.340594 0.830402
O O8 0.330494 0.126099 0.500000
O O9 0.317757 0.165025 0.171235
O O10 0.323443 0.061654 0.229349
O O11 0.231124 0.248287 0.000000
O O12 0.122170 0.156124 0.000000
O O13 0.647479 0.997630 0.500000
O O14 0.500000 0.000000 0.758047
O O15 0.103046 0.821131 0.000000
#
# Coordination Sequence:
#
# PCOD9429211 Si02
#       7
#     8   8   8   4   8   4   4
#     4   6  17  38  70  96 126 168 211 258 335 410
#     4   9  19  41  70  96 130 162 211 273 333 390
#     4   9  19  41  70  96 130 162 211 273 333 390
#     4  12  29  42  62  91 127 181 233 269 320 382
#     4   7  12  29  59  97 125 150 185 251 325 386
#     4  12  29  42  62  91 127 181 233 269 320 382
#     4  12  23  46  64  94 142 179 218 284 328 392
#
# _framework density 20.373076999999999
#
# number of rings (size 3 to 8) (size 9 to 14) (size 15 to 20)
#    1.091    2.000    0.000    3.000    2.545    2.909 
#    6.545    4.545    0.000    0.000    0.000    0.000 
#    0.000    0.000    0.000    0.000    0.000    0.000 
#
# Total GULP energy -245029.374928 kJ/mol
# GULP energy per Si atom -5568.849430 kJ/mol
# Density = 2.032671 g / cm^3
# Si number density = 20.373077 Si / 1000 Ang^3
#
#
#
# Elastic Constant Matrix: (Units=GPa)
#
#
# Indices 1 2 3 4 5 6 
#
# 1 47.4408 12.5562 17.1290 0.0000 0.0000 0.0000
# 2 12.5562 130.3975 51.6233 0.0000 0.0000 0.0000
# 3 17.1290 51.6233 93.5947 0.0000 0.0000 0.0000
# 4 0.0000 0.0000 0.0000 93.5401 0.0000 0.0000
# 5 0.0000 0.0000 0.0000 0.0000 -65.1137 0.0000
# 6 0.0000 0.0000 0.0000 0.0000 0.0000 15.4388
#
#
#
# Elastic Compliance Matrix: (Units=1/GPa)
#
#
# Indices 1 2 3 4 5 6 
#
# 1 0.022619 -0.000690 -0.003759 0.000000 0.000000 0.000000
# 2 -0.000690 0.009832 -0.005297 0.000000 0.000000 0.000000
# 3 -0.003759 -0.005297 0.014294 0.000000 0.000000 0.000000
# 4 0.000000 0.000000 0.000000 0.010691 0.000000 0.000000
# 5 0.000000 0.000000 0.000000 0.000000 -0.015358 0.000000
# 6 0.000000 0.000000 0.000000 0.000000 0.000000 0.064772
#
#
# Mechanical properties :
#
#
# Convention : Reuss Voigt Hill
#
# Bulk Modulus (GPa) = 36.69262 48.22776 42.46019
# Shear Modulus (GPa) = 36.92073 21.44802 29.18437
#
# Velocity S-wave (km/s) = 4.26165 3.24815 3.78894
# Velocity P-wave (km/s) = 6.50115 6.14744 6.32677
#
# Compressibility (1/GPa) = 0.02725344
#
# Stress axis : x y z
#
# Youngs Moduli (GPa) = 44.21114 101.70594 69.96012
#
# Poissons Ratio (x) = 0.07016 0.26298
# Poissons Ratio (y) = 0.03050 0.37057
# Poissons Ratio (z) = 0.16619 0.53872
#
# Static dielectric constant tensor:
#      x y z
#    x 1.939270 0.000000 0.000000 
#    y 0.000000 1.673050 0.000000 
#    z 0.000000 0.000000 1.703820 
# 
# From -- ./inp_files/2739.got.cif
#   From: 2010.05.17/outbox.cif.g08.bks.cpg/sg55_2_cif.got.tgz:2739.got - 2010.06.03 13:27:54.
