data_PCOD9429012
_publ_section_title
;
Structure prediction by ZEFSAII (Michael W. Deem and Ramdas Pophale) SiO2 
 PCOD9429012
Probable space group: P B A M
;
_chemical_formula_sum "Si O2"
_cell_formula_units_Z 40
_cell_length_a 13.780145
_cell_length_b 9.401255
_cell_length_c 13.415462
_cell_angle_alpha 90.000000
_cell_angle_beta 90.000000
_cell_angle_gamma 90.000000
_cell_volume 1737.981917
_symmetry_space_group_name_H-M "P B A M"
_symmetry_group_IT_number 55
_symmetry_cell_setting 'orthorhombic'
loop_
_space_group_symop_operation_xyz
x,y,z
-x,-y,z
1/2+x,1/2-y,-z
1/2-x,1/2+y,-z
-x,-y,-z
x,y,-z
1/2-x,1/2+y,z
1/2+x,1/2-y,z
loop_
_atom_site_type_symbol
_atom_site_label
_atom_site_fract_x
_atom_site_fract_y
_atom_site_fract_z
Si Si1 0.977516 0.158331 0.846336
Si Si2 0.837039 0.514491 0.389976
Si Si3 0.673721 0.703847 0.313057
Si Si4 0.402406 0.914496 0.823471
Si Si5 0.289296 0.175444 0.108082
O O1 0.929004 0.158312 0.735013
O O2 0.890494 0.238082 0.901301
O O3 0.072399 0.255162 0.854295
O O4 0.000000 0.000000 0.877865
O O5 0.870092 0.556553 0.500000
O O6 0.730404 0.579901 0.368701
O O7 0.836845 0.344645 0.378481
O O8 0.896953 0.572658 0.296173
O O9 0.738386 0.758198 0.216470
O O10 0.500000 0.000000 0.853226
O O11 0.315719 0.009400 0.869904
O O12 0.240036 0.186462 0.000000
#
# Coordination Sequence:
#
# PCOD9429012 Si02
#       5
#     8   8   8   8   8
#     4   9  19  35  55  81 118 144 177 234 285 319
#     4  11  21  37  58  78 108 150 192 230 283 340
#     4   9  22  37  53  83 111 146 185 233 274 336
#     4   9  18  36  56  83 107 148 184 232 279 327
#     4   8  17  35  58  82 112 145 183 224 278 338
#
# _framework density 23.0152
#
# number of rings (size 3 to 8) (size 9 to 14) (size 15 to 20)
#    1.200    1.600    2.000    0.600    2.800    4.400 
#    0.000    4.000    0.000    3.000    0.000    0.000 
#    0.000    0.000    0.000    0.000    0.000    0.000 
#
# Total GULP energy -222720.234291 kJ/mol
# GULP energy per Si atom -5568.005857 kJ/mol
# Density = 2.296282 g / cm^3
# Si number density = 23.015200 Si / 1000 Ang^3
#
#
#
# Elastic Constant Matrix: (Units=GPa)
#
#
# Indices 1 2 3 4 5 6 
#
# 1 33.5739 12.2732 -2.6212 0.0000 0.0000 0.0000
# 2 12.2732 139.9953 25.6385 0.0000 0.0000 0.0000
# 3 -2.6212 25.6385 100.7651 0.0000 0.0000 0.0000
# 4 0.0000 0.0000 0.0000 -22.7371 0.0000 0.0000
# 5 0.0000 0.0000 0.0000 0.0000 10.8072 0.0000
# 6 0.0000 0.0000 0.0000 0.0000 0.0000 22.4844
#
#
#
# Elastic Compliance Matrix: (Units=1/GPa)
#
#
# Indices 1 2 3 4 5 6 
#
# 1 0.031007 -0.003006 0.001571 0.000000 0.000000 0.000000
# 2 -0.003006 0.007784 -0.002059 0.000000 0.000000 0.000000
# 3 0.001571 -0.002059 0.010489 0.000000 0.000000 0.000000
# 4 0.000000 0.000000 0.000000 -0.043981 0.000000 0.000000
# 5 0.000000 0.000000 0.000000 0.000000 0.092531 0.000000
# 6 0.000000 0.000000 0.000000 0.000000 0.000000 0.044475
#
#
# Mechanical properties :
#
#
# Convention : Reuss Voigt Hill
#
# Bulk Modulus (GPa) = 23.64493 38.32394 30.98443
# Shear Modulus (GPa) = 30.60190 18.04715 24.32452
#
# Velocity S-wave (km/s) = 3.65038 2.80329 3.25451
# Velocity P-wave (km/s) = 5.29744 5.21207 5.25493
#
# Compressibility (1/GPa) = 0.04229237
#
# Stress axis : x y z
#
# Youngs Moduli (GPa) = 32.25119 128.47433 95.34020
#
# Poissons Ratio (x) = 0.38621 -0.14982
# Poissons Ratio (y) = 0.09695 0.19627
# Poissons Ratio (z) = -0.05068 0.26449
#
# Static dielectric constant tensor:
#      x y z
#    x 1.970110 0.000000 0.000000 
#    y 0.000000 1.895550 0.000000 
#    z 0.000000 0.000000 1.876300 
# 
# From -- ./inp_files/15210.got.cif
#   From: 2010.05.17/outbox.cif.g08.bks.cpg/sg55_8_cif.got.tgz:15210.got - 2010.06.03 13:27:54.
