data_PCOD9429833
_publ_section_title
;
Structure prediction by ZEFSAII (Michael W. Deem and Ramdas Pophale) SiO2 
 PCOD9429833
Probable space group: P C C N
;
_chemical_formula_sum "Si O2"
_cell_formula_units_Z 64
_cell_length_a 19.028053
_cell_length_b 19.509016
_cell_length_c 9.936425
_cell_angle_alpha 90.000000
_cell_angle_beta 90.000000
_cell_angle_gamma 90.000000
_cell_volume 3688.585682
_symmetry_space_group_name_H-M "P C C N"
_symmetry_group_IT_number 56
_symmetry_cell_setting 'orthorhombic'
loop_
_space_group_symop_operation_xyz
x,y,z
1/2-x,1/2-y,z
1/2+x,-y,1/2-z
-x,1/2+y,1/2-z
-x,-y,-z
1/2+x,1/2+y,-z
1/2-x,y,1/2+z
x,1/2-y,1/2+z
loop_
_atom_site_type_symbol
_atom_site_label
_atom_site_fract_x
_atom_site_fract_y
_atom_site_fract_z
Si Si1 0.015903 0.678123 0.162750
Si Si2 0.195975 0.530624 0.979199
Si Si3 0.376725 0.670579 0.423420
Si Si4 0.882265 0.324552 0.595458
Si Si5 0.947508 0.963792 0.606604
Si Si6 0.474005 0.475876 0.855051
Si Si7 0.821746 0.460324 0.703717
Si Si8 0.472487 0.832239 0.663640
O O1 0.963858 0.616973 0.123585
O O2 0.993935 0.757083 0.144717
O O3 0.047091 0.672947 0.312836
O O4 0.083060 0.668792 0.065550
O O5 0.201808 0.533714 0.141095
O O6 0.175522 0.606971 0.926236
O O7 0.130403 0.482574 0.939529
O O8 0.265473 0.508683 0.899764
O O9 0.350140 0.748198 0.402209
O O10 0.435528 0.661930 0.308361
O O11 0.832479 0.381786 0.656870
O O12 0.909850 0.339850 0.445753
O O13 0.000000 0.000000 0.500000
O O14 0.968662 0.997909 0.747851
O O15 0.398797 0.506468 0.814393
O O16 0.473904 0.393910 0.852592
O O17 0.500000 0.500000 0.000000
#
# Coordination Sequence:
#
# PCOD9429833 Si02
#       8
#     8   8   8   8   8   8   8   8
#     4  10  18  35  57  87 115 143 193 241 288 338
#     4  12  26  40  57  84 118 158 196 241 293 346
#     4  10  19  34  58  82 114 150 192 229 284 346
#     4  10  19  36  54  84 119 149 186 235 278 344
#     4  12  19  38  64  84 108 156 199 245 286 336
#     4  12  21  36  62  88 115 151 195 242 287 337
#     4  12  26  41  55  84 122 155 196 240 290 347
#     4  10  20  31  59  91 113 145 187 241 292 340
#
# _framework density 17.350822999999998
#
# number of rings (size 3 to 8) (size 9 to 14) (size 15 to 20)
#    0.000    1.000    7.500    0.000    3.500    0.500 
#    0.000    1.250    0.000    0.750    0.000    1.750 
#    0.000    0.000    0.000    0.000    0.000    0.000 
#
# Total GULP energy -357151.084101 kJ/mol
# GULP energy per Si atom -5580.485689 kJ/mol
# Density = 1.731133 g / cm^3
# Si number density = 17.350823 Si / 1000 Ang^3
#
#
#
# Elastic Constant Matrix: (Units=GPa)
#
#
# Indices 1 2 3 4 5 6 
#
# 1 45.0197 18.0858 6.7204 0.0000 0.0000 0.0000
# 2 18.0858 98.8369 8.5924 0.0000 0.0000 0.0000
# 3 6.7204 8.5924 77.7266 0.0000 0.0000 0.0000
# 4 0.0000 0.0000 0.0000 22.4048 0.0000 0.0000
# 5 0.0000 0.0000 0.0000 0.0000 22.8841 0.0000
# 6 0.0000 0.0000 0.0000 0.0000 0.0000 15.7092
#
#
#
# Elastic Compliance Matrix: (Units=1/GPa)
#
#
# Indices 1 2 3 4 5 6 
#
# 1 0.024174 -0.004283 -0.001617 0.000000 0.000000 0.000000
# 2 -0.004283 0.010975 -0.000843 0.000000 0.000000 0.000000
# 3 -0.001617 -0.000843 0.013099 0.000000 0.000000 0.000000
# 4 0.000000 0.000000 0.000000 0.044633 0.000000 0.000000
# 5 0.000000 0.000000 0.000000 0.000000 0.043698 0.000000
# 6 0.000000 0.000000 0.000000 0.000000 0.000000 0.063657
#
#
# Mechanical properties :
#
#
# Convention : Reuss Voigt Hill
#
# Bulk Modulus (GPa) = 28.76668 32.04227 30.40447
# Shear Modulus (GPa) = 22.19173 24.74527 23.46850
#
# Velocity S-wave (km/s) = 3.58019 3.78057 3.68174
# Velocity P-wave (km/s) = 5.80567 6.12897 5.96951
#
# Compressibility (1/GPa) = 0.03476245
#
# Stress axis : x y z
#
# Youngs Moduli (GPa) = 41.36598 91.11866 76.34425
#
# Poissons Ratio (x) = 0.39027 0.12343
# Poissons Ratio (y) = 0.17717 0.06435
# Poissons Ratio (z) = 0.06688 0.07680
#
# Static dielectric constant tensor:
#      x y z
#    x 1.572040 0.000000 0.000000 
#    y 0.000000 1.640450 0.000000 
#    z 0.000000 0.000000 1.607250 
# 
# From -- ./inp_files/4218.got.cif
#   From: 2010.05.17/outbox.cif.g08.bks.cpg/sg56_3_cif.got.tgz:4218.got - 2010.06.03 13:42:01.
