data_PCOD9429358
_publ_section_title
;
Structure prediction by ZEFSAII (Michael W. Deem and Ramdas Pophale) SiO2 
 PCOD9429358
Probable space group: P B A M
;
_chemical_formula_sum "Si O2"
_cell_formula_units_Z 40
_cell_length_a 9.000000
_cell_length_b 27.000000
_cell_length_c 9.000000
_cell_angle_alpha 90.000000
_cell_angle_beta 90.000000
_cell_angle_gamma 90.000000
_cell_volume 2187.000000
_symmetry_space_group_name_H-M "P B A M"
_symmetry_group_IT_number 55
_symmetry_cell_setting 'orthorhombic'
loop_
_space_group_symop_operation_xyz
x,y,z
-x,-y,z
1/2+x,1/2-y,-z
1/2-x,1/2+y,-z
-x,-y,-z
x,y,-z
1/2-x,1/2+y,z
1/2+x,1/2-y,z
loop_
_atom_site_type_symbol
_atom_site_label
_atom_site_fract_x
_atom_site_fract_y
_atom_site_fract_z
Si Si1 0.453710 0.322836 0.671384
Si Si2 0.065848 0.718581 0.167789
Si Si3 0.043819 0.553814 0.826668
Si Si4 0.806176 0.640657 0.162944
Si Si5 0.743779 0.867771 0.324464
O O1 0.471264 0.308797 0.500000
O O2 0.452095 0.272720 0.765958
O O3 0.304179 0.352008 0.703286
O O4 0.585733 0.359412 0.713393
O O5 0.166875 0.682274 0.264778
O O6 0.911229 0.688895 0.162697
O O7 0.125347 0.721259 0.000000
O O8 0.906591 0.592141 0.820955
O O9 0.000000 0.500000 0.766612
O O10 0.173876 0.583580 0.746712
O O11 0.084075 0.547649 0.000000
O O12 0.731525 0.638685 0.000000
O O13 0.723209 0.870235 0.500000
#
# Coordination Sequence:
#
# PCOD9429358 Si02
#       5
#     8   8   8   8   8
#     4  11  22  33  48  75 110 142 171 207 251 301
#     4  10  20  34  53  76 103 139 179 213 249 298
#     4   9  19  38  61  80  98 126 169 217 261 307
#     4   9  19  34  53  77 102 132 171 211 254 303
#     4  10  21  35  52  77 106 137 173 209 251 303
#
# _framework density 18.289895000000001
#
# number of rings (size 3 to 8) (size 9 to 14) (size 15 to 20)
#    0.000    2.200    0.000    4.200    0.000   10.800 
#    0.000    1.000    0.000    6.000    0.000    0.000 
#    0.000    0.000    0.000    0.000    0.000    0.000 
#
# Total GULP energy -222947.797453 kJ/mol
# GULP energy per Si atom -5573.694936 kJ/mol
# Density = 1.824827 g / cm^3
# Si number density = 18.289895 Si / 1000 Ang^3
#
#
#
# Elastic Constant Matrix: (Units=GPa)
#
#
# Indices 1 2 3 4 5 6 
#
# 1 38.7805 4.7978 19.9613 0.0000 0.0000 0.0000
# 2 4.7978 54.1101 19.4959 0.0000 0.0000 0.0000
# 3 19.9613 19.4959 -10.2298 0.0000 0.0000 0.0000
# 4 0.0000 0.0000 0.0000 48.5518 0.0000 0.0000
# 5 0.0000 0.0000 0.0000 0.0000 22.2715 0.0000
# 6 0.0000 0.0000 0.0000 0.0000 0.0000 -3.7677
#
#
#
# Elastic Compliance Matrix: (Units=1/GPa)
#
#
# Indices 1 2 3 4 5 6 
#
# 1 0.017355 -0.008146 0.018339 0.000000 0.000000 0.000000
# 2 -0.008146 0.014781 0.012274 0.000000 0.000000 0.000000
# 3 0.018339 0.012274 -0.038578 0.000000 0.000000 0.000000
# 4 0.000000 0.000000 0.000000 0.020597 0.000000 0.000000
# 5 0.000000 0.000000 0.000000 0.000000 0.044900 0.000000
# 6 0.000000 0.000000 0.000000 0.000000 0.000000 -0.265414
#
#
# Mechanical properties :
#
#
# Convention : Reuss Voigt Hill
#
# Bulk Modulus (GPa) = 25.98097 19.01897 22.49997
# Shear Modulus (GPa) = -20.96772 15.97151 -2.49811
#
# Velocity S-wave (km/s) = -3.38954 2.95827 -1.16996
# Velocity P-wave (km/s) = 1.04054 4.69997 3.24091
#
# Compressibility (1/GPa) = 0.03848971
#
# Stress axis : x y z
#
# Youngs Moduli (GPa) = 57.62177 67.65479 -25.92138
#
# Poissons Ratio (x) = 0.55113 0.47537
# Poissons Ratio (y) = 0.46940 0.31815
# Poissons Ratio (z) = -1.05671 -0.83038
#
# Static dielectric constant tensor:
#      x y z
#    x 1.692360 0.000000 0.000000 
#    y 0.000000 1.573950 0.000000 
#    z 0.000000 0.000000 1.623970 
# 
# From -- ./inp_files/2309.got.cif
#   From: 2010.05.17/outbox.ucp.g08.bks.cvg/sg55_2_cif.got.tgz:2309.got - 2010.06.11 16:36:00.
