data_PCOD9429207
_publ_section_title
;
Structure prediction by ZEFSAII (Michael W. Deem and Ramdas Pophale) SiO2 
 PCOD9429207
Probable space group: P B A M
;
_chemical_formula_sum "Si O2"
_cell_formula_units_Z 48
_cell_length_a 13.225966
_cell_length_b 8.559535
_cell_length_c 17.471849
_cell_angle_alpha 90.000000
_cell_angle_beta 90.000000
_cell_angle_gamma 90.000000
_cell_volume 1977.955159
_symmetry_space_group_name_H-M "P B A M"
_symmetry_group_IT_number 55
_symmetry_cell_setting 'orthorhombic'
loop_
_space_group_symop_operation_xyz
x,y,z
-x,-y,z
1/2+x,1/2-y,-z
1/2-x,1/2+y,-z
-x,-y,-z
x,y,-z
1/2-x,1/2+y,z
1/2+x,1/2-y,z
loop_
_atom_site_type_symbol
_atom_site_label
_atom_site_fract_x
_atom_site_fract_y
_atom_site_fract_z
Si Si1 0.634319 0.135213 0.825114
Si Si2 0.961419 0.160671 0.161745
Si Si3 0.196887 0.695224 0.762132
Si Si4 0.435925 0.156905 0.621934
Si Si5 0.910028 0.795904 0.500000
Si Si6 0.716944 0.983433 0.500000
Si Si7 0.814666 0.542602 0.000000
Si Si8 0.600023 0.685016 0.000000
O O1 0.518460 0.183488 0.813272
O O2 0.686243 0.272843 0.773811
O O3 0.671493 0.979293 0.784860
O O4 0.650926 0.116427 0.917472
O O5 0.843818 0.186032 0.173798
O O6 0.971063 0.160755 0.071738
O O7 0.000000 0.000000 0.195366
O O8 0.127094 0.737660 0.689798
O O9 0.514835 0.262471 0.572393
O O10 0.342555 0.093923 0.570723
O O11 0.500000 0.000000 0.642978
O O12 0.837729 0.949648 0.500000
O O13 0.822301 0.662017 0.500000
O O14 0.853424 0.362246 0.000000
O O15 0.693670 0.564864 0.000000
#
# Coordination Sequence:
#
# PCOD9429207 Si02
#       8
#     8   8   8   8   4   4   4   4
#     4  12  25  43  68  93 134 175 230 285 350 407
#     4  12  26  43  64  95 130 173 223 282 344 411
#     4  12  25  44  66  98 133 179 224 283 347 412
#     4   9  20  40  66  97 139 179 226 271 331 412
#     4   9  19  41  70 102 134 179 223 279 325 399
#     4   9  19  37  68 100 132 181 221 267 336 387
#     4  12  23  43  69  92 127 172 227 286 340 406
#     4  12  26  43  70  95 129 173 227 285 352 404
#
# _framework density 24.267486000000002
#
# number of rings (size 3 to 8) (size 9 to 14) (size 15 to 20)
#    0.000    1.000    3.333    4.250    2.333    4.667 
#    0.000    3.333    0.000    2.000    0.000    0.000 
#    0.000    0.000    0.000    0.000    0.000    0.000 
#
# Total GULP energy -267613.628084 kJ/mol
# GULP energy per Si atom -5575.283918 kJ/mol
# Density = 2.421225 g / cm^3
# Si number density = 24.267486 Si / 1000 Ang^3
#
#
#
# Elastic Constant Matrix: (Units=GPa)
#
#
# Indices 1 2 3 4 5 6 
#
# 1 78.9109 36.9396 5.0605 0.0000 0.0000 0.0000
# 2 36.9396 100.7250 4.6059 0.0000 0.0000 0.0000
# 3 5.0605 4.6059 74.8904 0.0000 0.0000 0.0000
# 4 0.0000 0.0000 0.0000 12.0906 0.0000 0.0000
# 5 0.0000 0.0000 0.0000 0.0000 12.5647 0.0000
# 6 0.0000 0.0000 0.0000 0.0000 0.0000 51.4990
#
#
#
# Elastic Compliance Matrix: (Units=1/GPa)
#
#
# Indices 1 2 3 4 5 6 
#
# 1 0.015335 -0.005592 -0.000692 0.000000 0.000000 0.000000
# 2 -0.005592 0.011995 -0.000360 0.000000 0.000000 0.000000
# 3 -0.000692 -0.000360 0.013422 0.000000 0.000000 0.000000
# 4 0.000000 0.000000 0.000000 0.082709 0.000000 0.000000
# 5 0.000000 0.000000 0.000000 0.000000 0.079588 0.000000
# 6 0.000000 0.000000 0.000000 0.000000 0.000000 0.019418
#
#
# Mechanical properties :
#
#
# Convention : Reuss Voigt Hill
#
# Bulk Modulus (GPa) = 36.41235 38.63760 37.52497
# Shear Modulus (GPa) = 20.41569 29.09220 24.75395
#
# Velocity S-wave (km/s) = 2.90363 3.46615 3.19728
# Velocity P-wave (km/s) = 5.12626 5.65464 5.39692
#
# Compressibility (1/GPa) = 0.02746321
#
# Stress axis : x y z
#
# Youngs Moduli (GPa) = 65.21161 83.36580 74.50593
#
# Poissons Ratio (x) = 0.46619 0.05158
# Poissons Ratio (y) = 0.36467 0.02681
# Poissons Ratio (z) = 0.04514 0.03000
#
# Static dielectric constant tensor:
#      x y z
#    x 1.839840 0.000000 0.000000 
#    y 0.000000 1.962940 0.000000 
#    z 0.000000 0.000000 2.108660 
# 
# From -- ./inp_files/21573.got.cif
#   From: 2010.05.17/outbox.cif.g08.bks.cpg/sg55_11_cif.got.tgz:21573.got - 2010.06.03 13:27:54.
