data_PCOD9429322
_publ_section_title
;
Structure prediction by ZEFSAII (Michael W. Deem and Ramdas Pophale) SiO2 
 PCOD9429322
Probable space group: P B A M
;
_chemical_formula_sum "Si O2"
_cell_formula_units_Z 56
_cell_length_a 15.000000
_cell_length_b 21.000000
_cell_length_c 9.000000
_cell_angle_alpha 90.000000
_cell_angle_beta 90.000000
_cell_angle_gamma 90.000000
_cell_volume 2835.000000
_symmetry_space_group_name_H-M "P B A M"
_symmetry_group_IT_number 55
_symmetry_cell_setting 'orthorhombic'
loop_
_space_group_symop_operation_xyz
x,y,z
-x,-y,z
1/2+x,1/2-y,-z
1/2-x,1/2+y,-z
-x,-y,-z
x,y,-z
1/2-x,1/2+y,z
1/2+x,1/2-y,z
loop_
_atom_site_type_symbol
_atom_site_label
_atom_site_fract_x
_atom_site_fract_y
_atom_site_fract_z
Si Si1 0.493078 0.817084 0.325081
Si Si2 0.688438 0.026390 0.667470
Si Si3 0.388227 0.519713 0.666420
Si Si4 0.990922 0.094668 0.826130
Si Si5 0.314609 0.835199 0.821792
Si Si6 0.879315 0.221225 0.175977
Si Si7 0.061060 0.561734 0.164974
O O1 0.480757 0.812526 0.500000
O O2 0.401191 0.799182 0.241591
O O3 0.578011 0.776983 0.271204
O O4 0.514529 0.888061 0.270814
O O5 0.650680 0.032859 0.500000
O O6 0.685220 0.094236 0.750259
O O7 0.788816 0.003577 0.657462
O O8 0.645296 0.969113 0.758417
O O9 0.417953 0.535605 0.500000
O O10 0.409841 0.580557 0.768604
O O11 0.436006 0.458074 0.736376
O O12 0.946277 0.162063 0.799641
O O13 0.984626 0.081217 0.000000
O O14 0.220933 0.800850 0.786361
O O15 0.321509 0.841258 0.000000
O O16 0.880703 0.236719 0.000000
O O17 0.000000 0.500000 0.150091
O O18 0.075926 0.589007 0.000000
#
# Coordination Sequence:
#
# PCOD9429322 Si02
#       7
#     8   8   8   8   8   8   8
#     4  12  26  43  66  94 127 163 203 260 319 377
#     4  11  22  36  60  92 125 159 200 252 308 368
#     4  10  20  33  53  86 125 160 196 248 309 360
#     4  10  19  34  58  86 117 158 207 251 296 356
#     4  11  22  41  68  93 121 161 209 254 305 372
#     4  10  23  43  66  91 123 167 215 260 307 372
#     4  11  23  40  65  92 121 160 202 254 312 369
#
# _framework density 19.753086
#
# number of rings (size 3 to 8) (size 9 to 14) (size 15 to 20)
#    0.000    1.286    2.857    4.286    0.000    4.571 
#    2.571    0.000    0.000    0.000    0.000    0.000 
#    0.000    0.000    0.000    0.000    0.000    0.000 
#
# Total GULP energy -312179.174275 kJ/mol
# GULP energy per Si atom -5574.628112 kJ/mol
# Density = 1.970813 g / cm^3
# Si number density = 19.753086 Si / 1000 Ang^3
#
#
#
# Elastic Constant Matrix: (Units=GPa)
#
#
# Indices 1 2 3 4 5 6 
#
# 1 78.9552 33.8207 35.8330 0.0000 0.0000 0.0000
# 2 33.8207 43.6334 22.2852 0.0000 0.0000 0.0000
# 3 35.8330 22.2852 62.7853 0.0000 0.0000 0.0000
# 4 0.0000 0.0000 0.0000 40.8969 0.0000 0.0000
# 5 0.0000 0.0000 0.0000 0.0000 -40.7876 0.0000
# 6 0.0000 0.0000 0.0000 0.0000 0.0000 19.8551
#
#
#
# Elastic Compliance Matrix: (Units=1/GPa)
#
#
# Indices 1 2 3 4 5 6 
#
# 1 0.021721 -0.012830 -0.007842 0.000000 0.000000 0.000000
# 2 -0.012830 0.035572 -0.005303 0.000000 0.000000 0.000000
# 3 -0.007842 -0.005303 0.022285 0.000000 0.000000 0.000000
# 4 0.000000 0.000000 0.000000 0.024452 0.000000 0.000000
# 5 0.000000 0.000000 0.000000 0.000000 -0.024517 0.000000
# 6 0.000000 0.000000 0.000000 0.000000 0.000000 0.050365
#
#
# Mechanical properties :
#
#
# Convention : Reuss Voigt Hill
#
# Bulk Modulus (GPa) = 36.19826 41.02795 38.61311
# Shear Modulus (GPa) = 26.17280 10.22189 18.19734
#
# Velocity S-wave (km/s) = 3.64400 2.27729 3.03849
# Velocity P-wave (km/s) = 6.00584 5.26595 5.64803
#
# Compressibility (1/GPa) = 0.02762563
#
# Stress axis : x y z
#
# Youngs Moduli (GPa) = 46.03933 28.11207 44.87231
#
# Poissons Ratio (x) = 0.36069 0.35190
# Poissons Ratio (y) = 0.59071 0.23797
# Poissons Ratio (z) = 0.36106 0.14909
#
# Static dielectric constant tensor:
#      x y z
#    x 1.777600 0.000000 0.000000 
#    y 0.000000 1.710110 0.000000 
#    z 0.000000 0.000000 1.716710 
# 
# From -- ./inp_files/6028.got.cif
#   From: 2010.05.17/outbox.ucp.g08.bks.cvg/sg55_4_cif.got.tgz:6028.got - 2010.06.11 16:36:00.
