data_PCOD9429113
_publ_section_title
;
Structure prediction by ZEFSAII (Michael W. Deem and Ramdas Pophale) SiO2 
 PCOD9429113
Probable space group: P B A M
;
_chemical_formula_sum "Si O2"
_cell_formula_units_Z 24
_cell_length_a 9.843601
_cell_length_b 10.494476
_cell_length_c 10.780015
_cell_angle_alpha 90.000000
_cell_angle_beta 90.000000
_cell_angle_gamma 90.000000
_cell_volume 1113.612573
_symmetry_space_group_name_H-M "P B A M"
_symmetry_group_IT_number 55
_symmetry_cell_setting 'orthorhombic'
loop_
_space_group_symop_operation_xyz
x,y,z
-x,-y,z
1/2+x,1/2-y,-z
1/2-x,1/2+y,-z
-x,-y,-z
x,y,-z
1/2-x,1/2+y,z
1/2+x,1/2-y,z
loop_
_atom_site_type_symbol
_atom_site_label
_atom_site_fract_x
_atom_site_fract_y
_atom_site_fract_z
Si Si1 0.107463 0.111882 0.500000
Si Si2 0.991029 0.152034 0.855469
Si Si3 0.903517 0.618151 0.500000
Si Si4 0.235133 0.250205 0.287672
O O1 0.204997 0.132219 0.381503
O O2 0.019317 0.244290 0.500000
O O3 0.000000 0.000000 0.500000
O O4 0.880233 0.218486 0.767690
O O5 0.132444 0.220644 0.824096
O O6 0.955814 0.166152 0.000000
O O7 0.000000 0.000000 0.829452
O O8 0.000000 0.500000 0.500000
O O9 0.813597 0.634100 0.376421
#
# Coordination Sequence:
#
# PCOD9429113 Si02
#       4
#     4   8   4   8
#     4   8  18  38  69  98 132 179 221 283 352 422
#     4  11  23  42  66  97 137 186 235 288 352 419
#     4   8  20  38  65 100 133 174 224 286 348 411
#     4   9  22  39  65  96 133 171 229 286 348 413
#
# _framework density 21.551480000000002
#
# number of rings (size 3 to 8) (size 9 to 14) (size 15 to 20)
#    2.000    0.333    0.000    2.000    0.000    8.000 
#    0.000   13.333    0.000    8.000    0.000    0.000 
#    0.000    0.000    0.000    0.000    0.000    0.000 
#
# Total GULP energy -133779.756908 kJ/mol
# GULP energy per Si atom -5574.156538 kJ/mol
# Density = 2.150243 g / cm^3
# Si number density = 21.551480 Si / 1000 Ang^3
#
#
#
# Elastic Constant Matrix: (Units=GPa)
#
#
# Indices 1 2 3 4 5 6 
#
# 1 85.7155 44.2316 33.4606 0.0000 0.0000 0.0000
# 2 44.2316 121.3934 25.7760 0.0000 0.0000 0.0000
# 3 33.4606 25.7760 118.4618 0.0000 0.0000 0.0000
# 4 0.0000 0.0000 0.0000 -17.8218 0.0000 0.0000
# 5 0.0000 0.0000 0.0000 0.0000 7.6587 0.0000
# 6 0.0000 0.0000 0.0000 0.0000 0.0000 47.9265
#
#
#
# Elastic Compliance Matrix: (Units=1/GPa)
#
#
# Indices 1 2 3 4 5 6 
#
# 1 0.015511 -0.004950 -0.003304 0.000000 0.000000 0.000000
# 2 -0.004950 0.010216 -0.000825 0.000000 0.000000 0.000000
# 3 -0.003304 -0.000825 0.009554 0.000000 0.000000 0.000000
# 4 0.000000 0.000000 0.000000 -0.056111 0.000000 0.000000
# 5 0.000000 0.000000 0.000000 0.000000 0.130571 0.000000
# 6 0.000000 0.000000 0.000000 0.000000 0.000000 0.020865
#
#
# Mechanical properties :
#
#
# Convention : Reuss Voigt Hill
#
# Bulk Modulus (GPa) = 58.39885 59.16744 58.78315
# Shear Modulus (GPa) = 32.36835 22.35951 27.36393
#
# Velocity S-wave (km/s) = 3.87965 3.22451 3.56715
# Velocity P-wave (km/s) = 6.87205 6.43249 6.65590
#
# Compressibility (1/GPa) = 0.01712362
#
# Stress axis : x y z
#
# Youngs Moduli (GPa) = 64.47189 97.88168 104.66523
#
# Poissons Ratio (x) = 0.48451 0.34582
# Poissons Ratio (y) = 0.31913 0.08633
# Poissons Ratio (z) = 0.21302 0.08073
#
# Static dielectric constant tensor:
#      x y z
#    x 1.804640 0.000000 0.000000 
#    y 0.000000 1.850820 0.000000 
#    z 0.000000 0.000000 1.812560 
# 
# From -- ./inp_files/11492.got.cif
#   From: 2010.05.17/outbox.cif.g08.bks.cpg/sg55_6_cif.got.tgz:11492.got - 2010.06.03 13:27:54.
