data_PCOD9429325
_publ_section_title
;
Structure prediction by ZEFSAII (Michael W. Deem and Ramdas Pophale) SiO2 
 PCOD9429325
Probable space group: P B A M
;
_chemical_formula_sum "Si O2"
_cell_formula_units_Z 64
_cell_length_a 12.000000
_cell_length_b 18.000000
_cell_length_c 15.000000
_cell_angle_alpha 90.000000
_cell_angle_beta 90.000000
_cell_angle_gamma 90.000000
_cell_volume 3240.000000
_symmetry_space_group_name_H-M "P B A M"
_symmetry_group_IT_number 55
_symmetry_cell_setting 'orthorhombic'
loop_
_space_group_symop_operation_xyz
x,y,z
-x,-y,z
1/2+x,1/2-y,-z
1/2-x,1/2+y,-z
-x,-y,-z
x,y,-z
1/2-x,1/2+y,z
1/2+x,1/2-y,z
loop_
_atom_site_type_symbol
_atom_site_label
_atom_site_fract_x
_atom_site_fract_y
_atom_site_fract_z
Si Si1 0.489676 0.889596 0.898604
Si Si2 0.705150 0.786627 0.099490
Si Si3 0.028849 0.367754 0.295278
Si Si4 0.206250 0.626189 0.393914
Si Si5 0.279709 0.386053 0.098314
Si Si6 0.233807 0.448539 0.605899
Si Si7 0.120864 0.199969 0.739800
Si Si8 0.571732 0.575407 0.738498
O O1 0.584599 0.825675 0.895144
O O2 0.501599 0.914169 0.794911
O O3 0.355161 0.880668 0.898518
O O4 0.511418 0.921434 0.000000
O O5 0.683295 0.699179 0.106004
O O6 0.796233 0.806719 0.174462
O O7 0.751144 0.802199 0.000000
O O8 0.915695 0.358439 0.351914
O O9 0.125437 0.410713 0.349213
O O10 0.077458 0.285289 0.270043
O O11 0.206671 0.640933 0.500000
O O12 0.229416 0.537930 0.380757
O O13 0.300763 0.673636 0.342588
O O14 0.343046 0.427695 0.177317
O O15 0.308796 0.415869 0.000000
O O16 0.234143 0.434191 0.500000
O O17 0.345585 0.418738 0.653823
O O18 0.015239 0.144028 0.745862
O O19 0.500000 0.500000 0.733280
#
# Coordination Sequence:
#
# PCOD9429325 Si02
#       8
#     8   8   8   8   8   8   8   8
#     4  10  19  34  62  95 130 170 213 263 324 386
#     4  10  20  37  64  98 135 178 221 267 324 388
#     4  12  23  41  73 100 133 168 225 283 335 388
#     4  11  26  47  68  95 130 173 224 282 339 404
#     4  10  21  38  62  95 133 174 221 270 322 388
#     4  11  25  48  72  94 125 176 230 275 340 412
#     4  12  25  40  65 103 139 173 221 277 332 396
#     4  12  25  43  66  95 133 182 221 267 341 405
#
# _framework density 19.753086
#
# number of rings (size 3 to 8) (size 9 to 14) (size 15 to 20)
#    0.000    1.000    5.000    1.500    1.750    3.500 
#    0.000    0.000    0.000    3.000    0.000    0.000 
#    0.000    0.000    0.000    0.000    0.000    0.000 
#
# Total GULP energy -356985.802994 kJ/mol
# GULP energy per Si atom -5577.903172 kJ/mol
# Density = 1.970813 g / cm^3
# Si number density = 19.753086 Si / 1000 Ang^3
#
#
#
# Elastic Constant Matrix: (Units=GPa)
#
#
# Indices 1 2 3 4 5 6 
#
# 1 84.5333 -2.3805 32.4305 0.0000 0.0000 0.0000
# 2 -2.3805 46.7684 11.5079 0.0000 0.0000 0.0000
# 3 32.4305 11.5079 157.4452 0.0000 0.0000 0.0000
# 4 0.0000 0.0000 0.0000 -88.4364 0.0000 0.0000
# 5 0.0000 0.0000 0.0000 0.0000 30.5770 0.0000
# 6 0.0000 0.0000 0.0000 0.0000 0.0000 29.3487
#
#
#
# Elastic Compliance Matrix: (Units=1/GPa)
#
#
# Indices 1 2 3 4 5 6 
#
# 1 0.012926 0.001337 -0.002760 0.000000 0.000000 0.000000
# 2 0.001337 0.021912 -0.001877 0.000000 0.000000 0.000000
# 3 -0.002760 -0.001877 0.007057 0.000000 0.000000 0.000000
# 4 0.000000 0.000000 0.000000 -0.011308 0.000000 0.000000
# 5 0.000000 0.000000 0.000000 0.000000 0.032704 0.000000
# 6 0.000000 0.000000 0.000000 0.000000 0.000000 0.034073
#
#
# Mechanical properties :
#
#
# Convention : Reuss Voigt Hill
#
# Bulk Modulus (GPa) = 28.33260 41.31808 34.82534
# Shear Modulus (GPa) = 43.20387 10.77714 26.99050
#
# Velocity S-wave (km/s) = 4.68182 2.33833 3.70049
# Velocity P-wave (km/s) = 6.60306 5.31536 5.99389
#
# Compressibility (1/GPa) = 0.03529503
#
# Stress axis : x y z
#
# Youngs Moduli (GPa) = 77.36183 45.63739 141.69988
#
# Poissons Ratio (x) = -0.06102 0.39113
# Poissons Ratio (y) = -0.10344 0.26597
# Poissons Ratio (z) = 0.21354 0.08566
#
# Static dielectric constant tensor:
#      x y z
#    x 1.661990 0.000000 0.000000 
#    y 0.000000 1.720460 0.000000 
#    z 0.000000 0.000000 1.734740 
# 
# From -- ./inp_files/18561.got.cif
#   From: 2010.05.17/outbox.ucp.g08.bks.cvg/sg55_10_cif.got.tgz:18561.got - 2010.06.11 16:36:00.
