data_PCOD9429853
_publ_section_title
;
Structure prediction by ZEFSAII (Michael W. Deem and Ramdas Pophale) SiO2 
 PCOD9429853
Probable space group: P C C N
;
_chemical_formula_sum "Si O2"
_cell_formula_units_Z 60
_cell_length_a 13.824394
_cell_length_b 16.379904
_cell_length_c 13.482697
_cell_angle_alpha 90.000000
_cell_angle_beta 90.000000
_cell_angle_gamma 90.000000
_cell_volume 3053.052199
_symmetry_space_group_name_H-M "P C C N"
_symmetry_group_IT_number 56
_symmetry_cell_setting 'orthorhombic'
loop_
_space_group_symop_operation_xyz
x,y,z
1/2-x,1/2-y,z
1/2+x,-y,1/2-z
-x,1/2+y,1/2-z
-x,-y,-z
1/2+x,1/2+y,-z
1/2-x,y,1/2+z
x,1/2-y,1/2+z
loop_
_atom_site_type_symbol
_atom_site_label
_atom_site_fract_x
_atom_site_fract_y
_atom_site_fract_z
Si Si1 0.923639 0.202004 0.826499
Si Si2 0.505575 0.627373 0.665501
Si Si3 0.663982 0.412423 0.466513
Si Si4 0.793209 0.937246 0.607280
Si Si5 0.586040 0.606063 0.054917
Si Si6 0.250000 0.750000 0.524835
Si Si7 0.520419 0.957301 0.367208
Si Si8 0.305036 0.942097 0.711743
O O1 0.842353 0.224253 0.908484
O O2 0.866603 0.138254 0.756251
O O3 0.965491 0.287714 0.790983
O O4 0.015934 0.158309 0.875928
O O5 0.445177 0.605912 0.566841
O O6 0.617982 0.621379 0.636495
O O7 0.492381 0.564880 0.755978
O O8 0.676416 0.497195 0.523284
O O9 0.713482 0.335111 0.523015
O O10 0.718302 0.417298 0.360017
O O11 0.699350 0.886767 0.574029
O O12 0.774733 0.996302 0.702140
O O13 0.562209 0.511756 0.083196
O O14 0.549789 0.615061 0.941753
O O15 0.617832 0.010532 0.357287
#
# Coordination Sequence:
#
# PCOD9429853 Si02
#       8
#     8   8   8   8   8   4   8   8
#     4   9  19  37  56  77 117 150 185 236 291 345
#     4  10  21  36  54  80 117 154 186 235 292 350
#     4  10  18  36  53  79 115 146 186 240 287 347
#     4  11  21  33  58  84 111 151 193 239 292 348
#     4  10  19  34  59  84 107 148 193 242 283 347
#     4   8  18  34  54  76 112 146 176 240 292 332
#     4   9  18  34  57  82 107 144 194 236 283 347
#     4   9  18  35  57  82 110 144 191 234 289 341
#
# _framework density 19.652463999999998
#
# number of rings (size 3 to 8) (size 9 to 14) (size 15 to 20)
#    0.000    2.400    1.333    1.200    1.867    0.533 
#    4.800    2.667    0.000    1.600    0.000    0.000 
#    0.000    0.000    0.000    0.000    0.000    0.000 
#
# Total GULP energy -334063.687864 kJ/mol
# GULP energy per Si atom -5567.728131 kJ/mol
# Density = 1.960773 g / cm^3
# Si number density = 19.652464 Si / 1000 Ang^3
#
#
#
# Elastic Constant Matrix: (Units=GPa)
#
#
# Indices 1 2 3 4 5 6 
#
# 1 61.4401 6.3038 14.1607 0.0000 0.0000 0.0000
# 2 6.3038 29.8190 -9.3832 0.0000 0.0000 0.0000
# 3 14.1607 -9.3832 34.1621 0.0000 0.0000 0.0000
# 4 0.0000 0.0000 0.0000 5.8450 0.0000 0.0000
# 5 0.0000 0.0000 0.0000 0.0000 18.9896 0.0000
# 6 0.0000 0.0000 0.0000 0.0000 0.0000 28.2788
#
#
#
# Elastic Compliance Matrix: (Units=1/GPa)
#
#
# Indices 1 2 3 4 5 6 
#
# 1 0.019321 -0.007230 -0.009995 0.000000 0.000000 0.000000
# 2 -0.007230 0.039413 0.013822 0.000000 0.000000 0.000000
# 3 -0.009995 0.013822 0.037212 0.000000 0.000000 0.000000
# 4 0.000000 0.000000 0.000000 0.171087 0.000000 0.000000
# 5 0.000000 0.000000 0.000000 0.000000 0.052660 0.000000
# 6 0.000000 0.000000 0.000000 0.000000 0.000000 0.035362
#
#
# Mechanical properties :
#
#
# Convention : Reuss Voigt Hill
#
# Bulk Modulus (GPa) = 11.21800 16.39821 13.80811
# Shear Modulus (GPa) = 12.76897 18.24534 15.50716
#
# Velocity S-wave (km/s) = 2.55176 3.05027 2.81209
# Velocity P-wave (km/s) = 3.79507 4.55716 4.19347
#
# Compressibility (1/GPa) = 0.08914244
#
# Stress axis : x y z
#
# Youngs Moduli (GPa) = 51.75614 25.37202 26.87331
#
# Poissons Ratio (x) = 0.18343 0.26859
# Poissons Ratio (y) = 0.37418 -0.37145
# Poissons Ratio (z) = 0.51729 -0.35070
#
# Static dielectric constant tensor:
#      x y z
#    x 1.731500 0.000000 0.000000 
#    y 0.000000 1.748970 0.000000 
#    z 0.000000 0.000000 1.690080 
# 
# From -- ./inp_files/11811.got.cif
#   From: 2010.05.17/outbox.cif.g08.bks.cpg/sg56_6_cif.got.tgz:11811.got - 2010.06.03 13:42:01.
