data_PCOD9429908
_publ_section_title
;
Structure prediction by ZEFSAII (Michael W. Deem and Ramdas Pophale) SiO2 
 PCOD9429908
Probable space group: P C C N
;
_chemical_formula_sum "Si O2"
_cell_formula_units_Z 64
_cell_length_a 16.650421
_cell_length_b 11.774067
_cell_length_c 17.249304
_cell_angle_alpha 90.000000
_cell_angle_beta 90.000000
_cell_angle_gamma 90.000000
_cell_volume 3381.608278
_symmetry_space_group_name_H-M "P C C N"
_symmetry_group_IT_number 56
_symmetry_cell_setting 'orthorhombic'
loop_
_space_group_symop_operation_xyz
x,y,z
1/2-x,1/2-y,z
1/2+x,-y,1/2-z
-x,1/2+y,1/2-z
-x,-y,-z
1/2+x,1/2+y,-z
1/2-x,y,1/2+z
x,1/2-y,1/2+z
loop_
_atom_site_type_symbol
_atom_site_label
_atom_site_fract_x
_atom_site_fract_y
_atom_site_fract_z
Si Si1 0.566046 0.907314 0.645942
Si Si2 0.036422 0.124106 0.133165
Si Si3 0.876287 0.515582 0.816188
Si Si4 0.976372 0.650896 0.945454
Si Si5 0.269328 0.119283 0.443696
Si Si6 0.276836 0.121500 0.629354
Si Si7 0.003119 0.669674 0.196094
Si Si8 0.398646 0.472161 0.408523
O O1 0.597355 0.942539 0.731608
O O2 0.643609 0.904048 0.591171
O O3 0.521100 0.787311 0.656497
O O4 0.506304 0.005473 0.618709
O O5 0.024898 0.215047 0.064955
O O6 0.130375 0.107640 0.147953
O O7 0.999557 0.179569 0.211236
O O8 0.918618 0.596515 0.879840
O O9 0.782255 0.533649 0.828960
O O10 0.913204 0.390005 0.827764
O O11 0.063031 0.593646 0.930261
O O12 0.938335 0.609755 0.025887
O O13 0.250000 0.250000 0.423474
O O14 0.268024 0.109394 0.536603
O O15 0.196536 0.042226 0.411605
O O16 0.250000 0.250000 0.650506
O O17 0.936627 0.575657 0.170571
#
# Coordination Sequence:
#
# PCOD9429908 Si02
#       8
#     8   8   8   8   8   8   8   8
#     4  11  23  37  57  88 122 150 188 246 302 346
#     4  11  23  38  59  85 120 155 187 240 301 351
#     4  10  20  36  60  82 112 152 197 239 285 351
#     4  10  18  38  60  84 111 153 195 236 287 344
#     4  11  21  35  55  89 117 145 196 249 286 336
#     4  11  20  36  59  85 114 150 196 242 290 342
#     4  10  21  38  56  84 115 151 195 235 292 352
#     4  10  20  34  62  85 112 149 198 242 278 337
#
# _framework density 18.925903999999999
#
# number of rings (size 3 to 8) (size 9 to 14) (size 15 to 20)
#    0.000    1.500    5.000    0.750    1.750    1.000 
#    0.000    1.250    0.000    4.500    0.000    0.000 
#    0.000    0.000    0.000    0.000    0.000    0.000 
#
# Total GULP energy -357433.203284 kJ/mol
# GULP energy per Si atom -5584.893801 kJ/mol
# Density = 1.888283 g / cm^3
# Si number density = 18.925904 Si / 1000 Ang^3
#
#
#
# Elastic Constant Matrix: (Units=GPa)
#
#
# Indices 1 2 3 4 5 6 
#
# 1 140.7796 81.0622 8.1479 0.0000 0.0000 0.0000
# 2 81.0622 97.5864 5.3777 0.0000 0.0000 0.0000
# 3 8.1479 5.3777 26.7300 0.0000 0.0000 0.0000
# 4 0.0000 0.0000 0.0000 16.5018 0.0000 0.0000
# 5 0.0000 0.0000 0.0000 0.0000 25.4155 0.0000
# 6 0.0000 0.0000 0.0000 0.0000 0.0000 31.1417
#
#
#
# Elastic Compliance Matrix: (Units=1/GPa)
#
#
# Indices 1 2 3 4 5 6 
#
# 1 0.013712 -0.011285 -0.001909 0.000000 0.000000 0.000000
# 2 -0.011285 0.019649 -0.000513 0.000000 0.000000 0.000000
# 3 -0.001909 -0.000513 0.038096 0.000000 0.000000 0.000000
# 4 0.000000 0.000000 0.000000 0.060600 0.000000 0.000000
# 5 0.000000 0.000000 0.000000 0.000000 0.039346 0.000000
# 6 0.000000 0.000000 0.000000 0.000000 0.000000 0.032111
#
#
# Mechanical properties :
#
#
# Convention : Reuss Voigt Hill
#
# Bulk Modulus (GPa) = 22.70518 50.47463 36.58991
# Shear Modulus (GPa) = 20.35748 25.97899 23.16824
#
# Velocity S-wave (km/s) = 3.28325 3.70897 3.50259
# Velocity P-wave (km/s) = 5.13770 6.71338 5.97768
#
# Compressibility (1/GPa) = 0.04404282
#
# Stress axis : x y z
#
# Youngs Moduli (GPa) = 72.93095 50.89202 26.24921
#
# Poissons Ratio (x) = 0.57430 0.05012
# Poissons Ratio (y) = 0.82300 0.01348
# Poissons Ratio (z) = 0.13925 0.02613
#
# Static dielectric constant tensor:
#      x y z
#    x 1.650620 0.000000 0.000000 
#    y 0.000000 1.653780 0.000000 
#    z 0.000000 0.000000 1.688360 
# 
# From -- ./inp_files/16351.got.cif
#   From: 2010.05.17/outbox.cif.g08.bks.cpg/sg56_9_cif.got.tgz:16351.got - 2010.06.03 13:42:01.
