data_PCOD9429187
_publ_section_title
;
Structure prediction by ZEFSAII (Michael W. Deem and Ramdas Pophale) SiO2 
 PCOD9429187
Probable space group: P B A M
;
_chemical_formula_sum "Si O2"
_cell_formula_units_Z 40
_cell_length_a 16.718879
_cell_length_b 9.788080
_cell_length_c 11.099682
_cell_angle_alpha 90.000000
_cell_angle_beta 90.000000
_cell_angle_gamma 90.000000
_cell_volume 1816.415510
_symmetry_space_group_name_H-M "P B A M"
_symmetry_group_IT_number 55
_symmetry_cell_setting 'orthorhombic'
loop_
_space_group_symop_operation_xyz
x,y,z
-x,-y,z
1/2+x,1/2-y,-z
1/2-x,1/2+y,-z
-x,-y,-z
x,y,-z
1/2-x,1/2+y,z
1/2+x,1/2-y,z
loop_
_atom_site_type_symbol
_atom_site_label
_atom_site_fract_x
_atom_site_fract_y
_atom_site_fract_z
Si Si1 0.184688 0.236741 0.500000
Si Si2 0.339613 0.676021 0.764106
Si Si3 0.737136 0.063093 0.858406
Si Si4 0.492641 0.345885 0.859716
Si Si5 0.342796 0.054744 0.500000
Si Si6 0.918448 0.416067 0.240003
O O1 0.141660 0.192464 0.376723
O O2 0.270073 0.161503 0.500000
O O3 0.191316 0.400382 0.500000
O O4 0.273777 0.789816 0.797500
O O5 0.305058 0.528727 0.797096
O O6 0.417079 0.708105 0.843288
O O7 0.654134 0.982303 0.834620
O O8 0.752516 0.076456 0.000000
O O9 0.500000 0.500000 0.810801
O O10 0.434717 0.240348 0.795011
O O11 0.470478 0.353174 0.000000
O O12 0.394023 0.072053 0.620525
O O13 0.000000 0.500000 0.218054
#
# Coordination Sequence:
#
# PCOD9429187 Si02
#       6
#     4   8   8   8   4   8
#     4  12  22  46  69 101 140 177 234 289 339 413
#     4  12  25  45  69 101 135 184 231 287 347 410
#     4  12  25  42  69 102 138 180 232 286 346 417
#     4  11  26  46  68  99 142 182 230 291 352 417
#     4  12  25  44  71 103 140 183 233 289 345 420
#     4  12  24  44  70 102 137 184 234 281 352 415
#
# _framework density 22.021394999999998
#
# number of rings (size 3 to 8) (size 9 to 14) (size 15 to 20)
#    0.000    0.200    6.000    2.700    2.800    3.200 
#    0.000    1.000    0.000    0.000    0.000    0.000 
#    0.000    0.000    0.000    0.000    0.000    0.000 
#
# Total GULP energy -224039.318554 kJ/mol
# GULP energy per Si atom -5600.982964 kJ/mol
# Density = 2.197127 g / cm^3
# Si number density = 22.021395 Si / 1000 Ang^3
#
#
#
# Elastic Constant Matrix: (Units=GPa)
#
#
# Indices 1 2 3 4 5 6 
#
# 1 42.8209 -13.0198 -23.0299 0.0000 0.0000 0.0000
# 2 -13.0198 84.4620 21.3839 0.0000 0.0000 0.0000
# 3 -23.0299 21.3839 107.6719 0.0000 0.0000 0.0000
# 4 0.0000 0.0000 0.0000 3.8887 0.0000 0.0000
# 5 0.0000 0.0000 0.0000 0.0000 35.0071 0.0000
# 6 0.0000 0.0000 0.0000 0.0000 0.0000 39.3181
#
#
#
# Elastic Compliance Matrix: (Units=1/GPa)
#
#
# Indices 1 2 3 4 5 6 
#
# 1 0.027023 0.002845 0.005215 0.000000 0.000000 0.000000
# 2 0.002845 0.012766 -0.001927 0.000000 0.000000 0.000000
# 3 0.005215 -0.001927 0.010786 0.000000 0.000000 0.000000
# 4 0.000000 0.000000 0.000000 0.257153 0.000000 0.000000
# 5 0.000000 0.000000 0.000000 0.000000 0.028566 0.000000
# 6 0.000000 0.000000 0.000000 0.000000 0.000000 0.025434
#
#
# Mechanical properties :
#
#
# Convention : Reuss Voigt Hill
#
# Bulk Modulus (GPa) = 15.91315 22.84703 19.38009
# Shear Modulus (GPa) = 13.49867 32.28416 22.89142
#
# Velocity S-wave (km/s) = 2.47853 3.83304 3.22764
# Velocity P-wave (km/s) = 3.92845 5.47604 4.76549
#
# Compressibility (1/GPa) = 0.06284109
#
# Stress axis : x y z
#
# Youngs Moduli (GPa) = 37.00571 78.33269 92.71669
#
# Poissons Ratio (x) = -0.22288 -0.48350
# Poissons Ratio (y) = -0.10529 0.17865
# Poissons Ratio (z) = -0.19298 0.15093
#
# Static dielectric constant tensor:
#      x y z
#    x 1.811940 0.000000 0.000000 
#    y 0.000000 1.819220 0.000000 
#    z 0.000000 0.000000 1.762290 
# 
# From -- ./inp_files/11904.got.cif
#   From: 2010.05.17/outbox.cif.g08.bks.cpg/sg55_6_cif.got.tgz:11904.got - 2010.06.03 13:27:54.
