data_PCOD9429431
_publ_section_title
;
Structure prediction by ZEFSAII (Michael W. Deem and Ramdas Pophale) SiO2 
 PCOD9429431
Probable space group: P B A M
;
_chemical_formula_sum "Si O2"
_cell_formula_units_Z 48
_cell_length_a 18.000000
_cell_length_b 15.000000
_cell_length_c 9.000000
_cell_angle_alpha 90.000000
_cell_angle_beta 90.000000
_cell_angle_gamma 90.000000
_cell_volume 2430.000000
_symmetry_space_group_name_H-M "P B A M"
_symmetry_group_IT_number 55
_symmetry_cell_setting 'orthorhombic'
loop_
_space_group_symop_operation_xyz
x,y,z
-x,-y,z
1/2+x,1/2-y,-z
1/2-x,1/2+y,-z
-x,-y,-z
x,y,-z
1/2-x,1/2+y,z
1/2+x,1/2-y,z
loop_
_atom_site_type_symbol
_atom_site_label
_atom_site_fract_x
_atom_site_fract_y
_atom_site_fract_z
Si Si1 0.415464 0.280091 0.823578
Si Si2 0.917326 0.524060 0.322384
Si Si3 0.668008 0.379403 0.829312
Si Si4 0.915341 0.031413 0.332295
Si Si5 0.571285 0.201579 0.827563
Si Si6 0.317297 0.143776 0.673968
O O1 0.414009 0.369695 0.730523
O O2 0.487569 0.222648 0.777322
O O3 0.345045 0.222640 0.778538
O O4 0.420614 0.297125 0.000000
O O5 0.920555 0.528960 0.500000
O O6 0.894987 0.619984 0.261580
O O7 0.861542 0.445467 0.283090
O O8 0.000000 0.500000 0.266405
O O9 0.624120 0.467428 0.784681
O O10 0.615639 0.293349 0.815895
O O11 0.732272 0.370558 0.709725
O O12 0.694858 0.383964 0.000000
O O13 0.883703 0.026029 0.500000
O O14 0.000000 0.000000 0.340502
O O15 0.568800 0.175623 0.000000
O O16 0.331414 0.162656 0.500000
#
# Coordination Sequence:
#
# PCOD9429431 Si02
#       6
#     8   8   8   8   8   8
#     4  11  22  39  64  93 123 161 206 256 310 369
#     4  10  21  38  62  90 121 158 201 250 306 363
#     4  11  24  43  63  90 128 166 205 256 313 369
#     4  11  23  39  64  95 124 161 208 257 311 372
#     4  10  22  38  62  92 121 157 205 252 303 364
#     4  11  24  42  62  91 128 164 205 256 312 371
#
# _framework density 19.753086
#
# number of rings (size 3 to 8) (size 9 to 14) (size 15 to 20)
#    0.000    1.333    3.333    2.000    0.000    5.667 
#    0.000    3.333    0.000    0.000    0.000    0.000 
#    0.000    0.000    0.000    0.000    0.000    0.000 
#
# Total GULP energy -267982.317283 kJ/mol
# GULP energy per Si atom -5582.964943 kJ/mol
# Density = 1.970813 g / cm^3
# Si number density = 19.753086 Si / 1000 Ang^3
#
#
#
# Elastic Constant Matrix: (Units=GPa)
#
#
# Indices 1 2 3 4 5 6 
#
# 1 30.7555 -6.4800 -4.8298 0.0000 0.0000 0.0000
# 2 -6.4800 89.8908 27.6247 0.0000 0.0000 0.0000
# 3 -4.8298 27.6247 31.7778 0.0000 0.0000 0.0000
# 4 0.0000 0.0000 0.0000 57.9909 0.0000 0.0000
# 5 0.0000 0.0000 0.0000 0.0000 30.9197 0.0000
# 6 0.0000 0.0000 0.0000 0.0000 0.0000 13.7163
#
#
#
# Elastic Compliance Matrix: (Units=1/GPa)
#
#
# Indices 1 2 3 4 5 6 
#
# 1 0.033397 0.001157 0.004071 0.000000 0.000000 0.000000
# 2 0.001157 0.015220 -0.013055 0.000000 0.000000 0.000000
# 3 0.004071 -0.013055 0.043436 0.000000 0.000000 0.000000
# 4 0.000000 0.000000 0.000000 0.017244 0.000000 0.000000
# 5 0.000000 0.000000 0.000000 0.000000 0.032342 0.000000
# 6 0.000000 0.000000 0.000000 0.000000 0.000000 0.072906
#
#
# Mechanical properties :
#
#
# Convention : Reuss Voigt Hill
#
# Bulk Modulus (GPa) = 13.08942 20.56155 16.82549
# Shear Modulus (GPa) = 19.55666 29.59931 24.57799
#
# Velocity S-wave (km/s) = 3.14993 3.87520 3.53123
# Velocity P-wave (km/s) = 4.45761 5.51859 5.01623
#
# Compressibility (1/GPa) = 0.07639758
#
# Stress axis : x y z
#
# Youngs Moduli (GPa) = 29.94246 65.70299 23.02230
#
# Poissons Ratio (x) = -0.07599 -0.09371
# Poissons Ratio (y) = -0.03463 0.30056
# Poissons Ratio (z) = -0.12188 0.85776
#
# Static dielectric constant tensor:
#      x y z
#    x 1.724440 0.000000 0.000000 
#    y 0.000000 1.669560 0.000000 
#    z 0.000000 0.000000 1.652150 
# 
# From -- ./inp_files/5603.got.cif
#   From: 2010.05.17/outbox.ucp.g08.bks.cvg/sg55_3_cif.got.tgz:5603.got - 2010.06.11 16:36:00.
