data_PCOD9429381
_publ_section_title
;
Structure prediction by ZEFSAII (Michael W. Deem and Ramdas Pophale) SiO2 
 PCOD9429381
Probable space group: P B A M
;
_chemical_formula_sum "Si O2"
_cell_formula_units_Z 48
_cell_length_a 9.000000
_cell_length_b 15.000000
_cell_length_c 18.000000
_cell_angle_alpha 90.000000
_cell_angle_beta 90.000000
_cell_angle_gamma 90.000000
_cell_volume 2430.000000
_symmetry_space_group_name_H-M "P B A M"
_symmetry_group_IT_number 55
_symmetry_cell_setting 'orthorhombic'
loop_
_space_group_symop_operation_xyz
x,y,z
-x,-y,z
1/2+x,1/2-y,-z
1/2-x,1/2+y,-z
-x,-y,-z
x,y,-z
1/2-x,1/2+y,z
1/2+x,1/2-y,z
loop_
_atom_site_type_symbol
_atom_site_label
_atom_site_fract_x
_atom_site_fract_y
_atom_site_fract_z
Si Si1 0.270048 0.616772 0.840113
Si Si2 0.543015 0.214104 0.177762
Si Si3 0.251217 0.870973 0.412225
Si Si4 0.038294 0.230630 0.647678
Si Si5 0.663785 0.456624 0.321837
Si Si6 0.658800 0.051421 0.085618
O O1 0.402637 0.688583 0.851059
O O2 0.271441 0.570827 0.758249
O O3 0.268314 0.530274 0.893236
O O4 0.120718 0.677985 0.843989
O O5 0.544030 0.231851 0.267207
O O6 0.648514 0.135008 0.143364
O O7 0.222293 0.885253 0.500000
O O8 0.399724 0.812473 0.400592
O O9 0.122336 0.807914 0.376067
O O10 0.248635 0.966343 0.368595
O O11 0.139206 0.140510 0.640427
O O12 0.500000 0.500000 0.310206
O O13 0.500000 0.000000 0.090016
O O14 0.679857 0.081580 0.000000
#
# Coordination Sequence:
#
# PCOD9429381 Si02
#       6
#     8   8   8   8   8   8
#     4  10  20  36  60  85 112 147 191 240 287 341
#     4  10  20  36  60  86 113 150 196 242 284 337
#     4  11  22  36  56  81 111 145 184 235 291 347
#     4  10  20  36  56  80 109 145 188 232 284 341
#     4   9  20  36  57  81 108 146 190 233 282 347
#     4   9  19  35  55  82 118 155 187 228 285 341
#
# _framework density 19.753086
#
# number of rings (size 3 to 8) (size 9 to 14) (size 15 to 20)
#    0.000    2.167    0.000    3.500    0.000    7.000 
#    0.000    2.500    0.000    8.500    0.000    0.000 
#    0.000    0.000    0.000    0.000    0.000    0.000 
#
# Total GULP energy -267639.379804 kJ/mol
# GULP energy per Si atom -5575.820413 kJ/mol
# Density = 1.970813 g / cm^3
# Si number density = 19.753086 Si / 1000 Ang^3
#
#
#
# Elastic Constant Matrix: (Units=GPa)
#
#
# Indices 1 2 3 4 5 6 
#
# 1 20.5721 15.7605 0.9472 0.0000 0.0000 0.0000
# 2 15.7605 135.1323 43.6644 0.0000 0.0000 0.0000
# 3 0.9472 43.6644 81.9129 0.0000 0.0000 0.0000
# 4 0.0000 0.0000 0.0000 32.8354 0.0000 0.0000
# 5 0.0000 0.0000 0.0000 0.0000 16.0089 0.0000
# 6 0.0000 0.0000 0.0000 0.0000 0.0000 41.6899
#
#
#
# Elastic Compliance Matrix: (Units=1/GPa)
#
#
# Indices 1 2 3 4 5 6 
#
# 1 0.054111 -0.007380 0.003308 0.000000 0.000000 0.000000
# 2 -0.007380 0.009947 -0.005217 0.000000 0.000000 0.000000
# 3 0.003308 -0.005217 0.014951 0.000000 0.000000 0.000000
# 4 0.000000 0.000000 0.000000 0.030455 0.000000 0.000000
# 5 0.000000 0.000000 0.000000 0.000000 0.062465 0.000000
# 6 0.000000 0.000000 0.000000 0.000000 0.000000 0.023987
#
#
# Mechanical properties :
#
#
# Convention : Reuss Voigt Hill
#
# Bulk Modulus (GPa) = 16.54771 39.81796 28.18283
# Shear Modulus (GPa) = 21.30964 29.92320 25.61642
#
# Velocity S-wave (km/s) = 3.28807 3.89635 3.60506
# Velocity P-wave (km/s) = 4.77605 6.35953 5.62380
#
# Compressibility (1/GPa) = 0.06043132
#
# Stress axis : x y z
#
# Youngs Moduli (GPa) = 18.48051 100.53755 66.88665
#
# Poissons Ratio (x) = 0.74196 -0.22128
# Poissons Ratio (y) = 0.13639 0.34893
# Poissons Ratio (z) = -0.06114 0.52448
#
# Static dielectric constant tensor:
#      x y z
#    x 1.752350 0.000000 0.000000 
#    y 0.000000 1.678460 0.000000 
#    z 0.000000 0.000000 1.697510 
# 
# From -- ./inp_files/20767.got.cif
#   From: 2010.05.17/outbox.ucp.g08.bks.cvg/sg55_11_cif.got.tgz:20767.got - 2010.06.11 16:36:00.
