data_PCOD9429837
_publ_section_title
;
Structure prediction by ZEFSAII (Michael W. Deem and Ramdas Pophale) SiO2 
 PCOD9429837
Probable space group: P C C N
;
_chemical_formula_sum "Si O2"
_cell_formula_units_Z 40
_cell_length_a 15.221479
_cell_length_b 12.326375
_cell_length_c 8.853716
_cell_angle_alpha 90.000000
_cell_angle_beta 90.000000
_cell_angle_gamma 90.000000
_cell_volume 1661.184292
_symmetry_space_group_name_H-M "P C C N"
_symmetry_group_IT_number 56
_symmetry_cell_setting 'orthorhombic'
loop_
_space_group_symop_operation_xyz
x,y,z
1/2-x,1/2-y,z
1/2+x,-y,1/2-z
-x,1/2+y,1/2-z
-x,-y,-z
1/2+x,1/2+y,-z
1/2-x,y,1/2+z
x,1/2-y,1/2+z
loop_
_atom_site_type_symbol
_atom_site_label
_atom_site_fract_x
_atom_site_fract_y
_atom_site_fract_z
Si Si1 0.375701 0.855336 0.702258
Si Si2 0.441286 0.213863 0.401358
Si Si3 0.720680 0.397944 0.518051
Si Si4 0.122871 0.110938 0.205502
Si Si5 0.185364 0.449663 0.233219
O O1 0.457870 0.788367 0.646877
O O2 0.339183 0.829454 0.868432
O O3 0.294495 0.847203 0.588375
O O4 0.400747 0.983790 0.703902
O O5 0.400406 0.329984 0.361331
O O6 0.425950 0.173876 0.571217
O O7 0.389128 0.127397 0.296539
O O8 0.662373 0.470217 0.403753
O O9 0.776006 0.476936 0.630259
O O10 0.227882 0.116080 0.180772
#
# Coordination Sequence:
#
# PCOD9429837 Si02
#       5
#     8   8   8   8   8
#     4  10  21  42  64  91 122 167 204 259 306 361
#     4  12  23  38  63  90 127 166 206 254 301 375
#     4   8  18  36  60  89 117 160 207 240 305 358
#     4  10  24  37  56  93 130 158 203 248 320 363
#     4  10  18  35  59  88 129 161 188 245 316 369
#
# _framework density 24.079205999999999
#
# number of rings (size 3 to 8) (size 9 to 14) (size 15 to 20)
#    0.000    2.400    4.000    1.200    5.600    2.400 
#    0.000    0.000    0.000    3.600    5.200    0.000 
#    0.000    0.000    0.000    0.000    0.000    0.000 
#
# Total GULP energy -223912.265516 kJ/mol
# GULP energy per Si atom -5597.806638 kJ/mol
# Density = 2.402440 g / cm^3
# Si number density = 24.079206 Si / 1000 Ang^3
#
#
#
# Elastic Constant Matrix: (Units=GPa)
#
#
# Indices 1 2 3 4 5 6 
#
# 1 48.4887 13.8650 -7.5351 0.0000 0.0000 0.0000
# 2 13.8650 66.7115 30.6467 0.0000 0.0000 0.0000
# 3 -7.5351 30.6467 101.5763 0.0000 0.0000 0.0000
# 4 0.0000 0.0000 0.0000 34.7202 0.0000 0.0000
# 5 0.0000 0.0000 0.0000 0.0000 35.1068 0.0000
# 6 0.0000 0.0000 0.0000 0.0000 0.0000 16.4584
#
#
#
# Elastic Compliance Matrix: (Units=1/GPa)
#
#
# Indices 1 2 3 4 5 6 
#
# 1 0.023043 -0.006471 0.003662 0.000000 0.000000 0.000000
# 2 -0.006471 0.019219 -0.006279 0.000000 0.000000 0.000000
# 3 0.003662 -0.006279 0.012011 0.000000 0.000000 0.000000
# 4 0.000000 0.000000 0.000000 0.028802 0.000000 0.000000
# 5 0.000000 0.000000 0.000000 0.000000 0.028484 0.000000
# 6 0.000000 0.000000 0.000000 0.000000 0.000000 0.060759
#
#
# Mechanical properties :
#
#
# Convention : Reuss Voigt Hill
#
# Bulk Modulus (GPa) = 27.70353 32.30331 30.00342
# Shear Modulus (GPa) = 24.68808 29.24375 26.96591
#
# Velocity S-wave (km/s) = 3.20548 3.48872 3.35010
# Velocity P-wave (km/s) = 5.02298 5.44727 5.23942
#
# Compressibility (1/GPa) = 0.03609648
#
# Stress axis : x y z
#
# Youngs Moduli (GPa) = 43.39742 52.03110 83.25829
#
# Poissons Ratio (x) = 0.33671 -0.30488
# Poissons Ratio (y) = 0.28084 0.52276
# Poissons Ratio (z) = -0.15891 0.32669
#
# Static dielectric constant tensor:
#      x y z
#    x 1.887360 0.000000 0.000000 
#    y 0.000000 1.947530 0.000000 
#    z 0.000000 0.000000 1.913770 
# 
# From -- ./inp_files/3218.got.cif
#   From: 2010.05.17/outbox.cif.g08.bks.cpg/sg56_2_cif.got.tgz:3218.got - 2010.06.03 13:42:01.
