data_PCOD9429098
_publ_section_title
;
Structure prediction by ZEFSAII (Michael W. Deem and Ramdas Pophale) SiO2 
 PCOD9429098
Probable space group: P B A M
;
_chemical_formula_sum "Si O2"
_cell_formula_units_Z 26
_cell_length_a 7.419407
_cell_length_b 17.166915
_cell_length_c 7.966281
_cell_angle_alpha 90.000000
_cell_angle_beta 90.000000
_cell_angle_gamma 90.000000
_cell_volume 1014.651902
_symmetry_space_group_name_H-M "P B A M"
_symmetry_group_IT_number 55
_symmetry_cell_setting 'orthorhombic'
loop_
_space_group_symop_operation_xyz
x,y,z
-x,-y,z
1/2+x,1/2-y,-z
1/2-x,1/2+y,-z
-x,-y,-z
x,y,-z
1/2-x,1/2+y,z
1/2+x,1/2-y,z
loop_
_atom_site_type_symbol
_atom_site_label
_atom_site_fract_x
_atom_site_fract_y
_atom_site_fract_z
Si Si1 0.226630 0.056683 0.311303
Si Si2 0.500000 0.500000 0.000000
Si Si3 0.936259 0.641921 0.191368
Si Si4 0.944311 0.197344 0.311384
O O1 0.201370 0.023453 0.500000
O O2 0.431128 0.084414 0.287544
O O3 0.105272 0.135656 0.300477
O O4 0.153687 0.009819 0.151218
O O5 0.023815 0.728518 0.195717
O O6 0.741069 0.654511 0.270886
O O7 0.920529 0.617508 0.000000
O O8 0.937126 0.228945 0.500000
#
# Coordination Sequence:
#
# PCOD9429098 Si02
#       4
#     8   2   8   8
#     4  11  25  46  69  97 134 175 222 274 327 391
#     4  12  26  48  70  94 124 186 234 274 314 382
#     4  12  23  37  65 102 137 169 211 267 337 403
#     4  11  23  39  64  99 137 171 209 267 340 401
#
# _framework density 25.624552000000001
#
# number of rings (size 3 to 8) (size 9 to 14) (size 15 to 20)
#    0.000    0.615    4.615    4.154    4.308    0.000 
#    0.000    3.077    0.000    5.538    0.000    0.000 
#    0.000    0.000    0.000    0.000    0.000    0.000 
#
# Total GULP energy -145340.208636 kJ/mol
# GULP energy per Si atom -5590.008024 kJ/mol
# Density = 2.556623 g / cm^3
# Si number density = 25.624552 Si / 1000 Ang^3
#
#
#
# Elastic Constant Matrix: (Units=GPa)
#
#
# Indices 1 2 3 4 5 6 
#
# 1 132.0964 47.9730 24.0047 0.0000 0.0000 0.0000
# 2 47.9730 84.4873 48.9015 0.0000 0.0000 0.0000
# 3 24.0047 48.9015 212.5474 0.0000 0.0000 0.0000
# 4 0.0000 0.0000 0.0000 29.2625 0.0000 0.0000
# 5 0.0000 0.0000 0.0000 0.0000 34.7057 0.0000
# 6 0.0000 0.0000 0.0000 0.0000 0.0000 45.6338
#
#
#
# Elastic Compliance Matrix: (Units=1/GPa)
#
#
# Indices 1 2 3 4 5 6 
#
# 1 0.009544 -0.005532 0.000195 0.000000 0.000000 0.000000
# 2 -0.005532 0.016861 -0.003254 0.000000 0.000000 0.000000
# 3 0.000195 -0.003254 0.005432 0.000000 0.000000 0.000000
# 4 0.000000 0.000000 0.000000 0.034173 0.000000 0.000000
# 5 0.000000 0.000000 0.000000 0.000000 0.028814 0.000000
# 6 0.000000 0.000000 0.000000 0.000000 0.000000 0.021914
#
#
# Mechanical properties :
#
#
# Convention : Reuss Voigt Hill
#
# Bulk Modulus (GPa) = 68.24401 74.54326 71.39364
# Shear Modulus (GPa) = 36.02192 42.47054 39.24623
#
# Velocity S-wave (km/s) = 3.75341 4.07555 3.91780
# Velocity P-wave (km/s) = 6.74346 7.16244 6.95610
#
# Compressibility (1/GPa) = 0.01465330
#
# Stress axis : x y z
#
# Youngs Moduli (GPa) = 104.77988 59.30888 184.10809
#
# Poissons Ratio (x) = 0.32809 -0.03588
# Poissons Ratio (y) = 0.57963 0.59918
# Poissons Ratio (z) = -0.02042 0.19302
#
# Static dielectric constant tensor:
#      x y z
#    x 1.987540 0.000000 0.000000 
#    y 0.000000 2.080560 0.000000 
#    z 0.000000 0.000000 1.920000 
# 
# From -- ./inp_files/1872.got.cif
#   From: 2010.05.17/outbox.cif.g08.bks.cpg/sg55_1_cif.got.tgz:1872.got - 2010.06.03 13:27:54.
