data_PCOD9429967
_publ_section_title
;
Structure prediction by ZEFSAII (Michael W. Deem and Ramdas Pophale) SiO2 
 PCOD9429967
Probable space group: P C C N
;
_chemical_formula_sum "Si O2"
_cell_formula_units_Z 32
_cell_length_a 7.582043
_cell_length_b 5.680914
_cell_length_c 32.045755
_cell_angle_alpha 90.000000
_cell_angle_beta 90.000000
_cell_angle_gamma 90.000000
_cell_volume 1380.304697
_symmetry_space_group_name_H-M "P C C N"
_symmetry_group_IT_number 56
_symmetry_cell_setting 'orthorhombic'
loop_
_space_group_symop_operation_xyz
x,y,z
1/2-x,1/2-y,z
1/2+x,-y,1/2-z
-x,1/2+y,1/2-z
-x,-y,-z
1/2+x,1/2+y,-z
1/2-x,y,1/2+z
x,1/2-y,1/2+z
loop_
_atom_site_type_symbol
_atom_site_label
_atom_site_fract_x
_atom_site_fract_y
_atom_site_fract_z
Si Si1 0.984085 0.598003 0.806142
Si Si2 0.458850 0.749529 0.977715
Si Si3 0.750000 0.250000 0.262819
Si Si4 0.051978 0.643431 0.387411
Si Si5 0.750000 0.750000 0.647418
O O1 0.080734 0.715718 0.766835
O O2 0.960300 0.767231 0.845662
O O3 0.134350 0.415474 0.822670
O O4 0.808506 0.467050 0.791442
O O5 0.250000 0.750000 0.973472
O O6 0.532680 0.724965 0.930560
O O7 0.500000 0.500000 0.000000
O O8 0.500000 0.000000 0.000000
O O9 0.250000 0.750000 0.385863
O O10 0.102131 0.370536 0.382009
#
# Coordination Sequence:
#
# PCOD9429967 Si02
#       5
#     8   8   4   8   4
#     4  11  23  42  62 101 127 184 224 294 336 422
#     4  11  25  45  74 108 144 188 236 296 360 439
#     4  12  24  42  68  90 140 170 238 278 348 404
#     4   9  21  40  70  95 134 183 236 276 362 428
#     4  10  18  42  70  92 128 180 238 280 344 422
#
# _framework density 23.183287
#
# number of rings (size 3 to 8) (size 9 to 14) (size 15 to 20)
#    0.000    1.500    3.750    2.250   10.500    0.000 
#    2.250    2.500    0.000    0.000    0.000    0.000 
#    0.000    0.000    0.000    0.000    0.000    0.000 
#
# Total GULP energy -178639.023814 kJ/mol
# GULP energy per Si atom -5582.469494 kJ/mol
# Density = 2.313052 g / cm^3
# Si number density = 23.183287 Si / 1000 Ang^3
#
#
#
# Elastic Constant Matrix: (Units=GPa)
#
#
# Indices 1 2 3 4 5 6 
#
# 1 73.3366 18.7025 50.6863 0.0000 0.0000 0.0000
# 2 18.7025 120.8600 95.2976 0.0000 0.0000 0.0000
# 3 50.6863 95.2976 201.8844 0.0000 0.0000 0.0000
# 4 0.0000 0.0000 0.0000 30.0351 0.0000 0.0000
# 5 0.0000 0.0000 0.0000 0.0000 21.3042 0.0000
# 6 0.0000 0.0000 0.0000 0.0000 0.0000 50.5013
#
#
#
# Elastic Compliance Matrix: (Units=1/GPa)
#
#
# Indices 1 2 3 4 5 6 
#
# 1 0.016597 0.001143 -0.004706 0.000000 0.000000 0.000000
# 2 0.001143 0.013258 -0.006545 0.000000 0.000000 0.000000
# 3 -0.004706 -0.006545 0.009225 0.000000 0.000000 0.000000
# 4 0.000000 0.000000 0.000000 0.033294 0.000000 0.000000
# 5 0.000000 0.000000 0.000000 0.000000 0.046939 0.000000
# 6 0.000000 0.000000 0.000000 0.000000 0.000000 0.019801
#
#
# Mechanical properties :
#
#
# Convention : Reuss Voigt Hill
#
# Bulk Modulus (GPa) = 53.01708 80.60596 66.81152
# Shear Modulus (GPa) = 30.18961 35.79444 32.99203
#
# Velocity S-wave (km/s) = 3.61254 3.93361 3.77649
# Velocity P-wave (km/s) = 6.34971 7.44819 6.92078
#
# Compressibility (1/GPa) = 0.01886185
#
# Stress axis : x y z
#
# Youngs Moduli (GPa) = 60.25146 75.42551 108.40653
#
# Poissons Ratio (x) = -0.08618 0.51020
# Poissons Ratio (y) = -0.06884 0.70955
# Poissons Ratio (z) = 0.28356 0.49368
#
# Static dielectric constant tensor:
#      x y z
#    x 1.806540 0.000000 0.000000 
#    y 0.000000 2.099290 0.000000 
#    z 0.000000 0.000000 1.886820 
# 
# From -- ./inp_files/22674.got.cif
#   From: 2010.05.17/outbox.cif.g08.bks.cpg/sg56_12_cif.got.tgz:22674.got - 2010.06.03 13:42:01.
