data_PCOD9429559
_publ_section_title
;
Structure prediction by ZEFSAII (Michael W. Deem and Ramdas Pophale) SiO2 
 PCOD9429559
Probable space group: P C C N
;
_chemical_formula_sum "Si O2"
_cell_formula_units_Z 60
_cell_length_a 14.623906
_cell_length_b 12.716772
_cell_length_c 16.110368
_cell_angle_alpha 90.000000
_cell_angle_beta 90.000000
_cell_angle_gamma 90.000000
_cell_volume 2996.027067
_symmetry_space_group_name_H-M "P C C N"
_symmetry_group_IT_number 56
_symmetry_cell_setting 'orthorhombic'
loop_
_space_group_symop_operation_xyz
x,y,z
1/2-x,1/2-y,z
1/2+x,-y,1/2-z
-x,1/2+y,1/2-z
-x,-y,-z
1/2+x,1/2+y,-z
1/2-x,y,1/2+z
x,1/2-y,1/2+z
loop_
_atom_site_type_symbol
_atom_site_label
_atom_site_fract_x
_atom_site_fract_y
_atom_site_fract_z
Si Si1 0.977956 0.401067 0.734123
Si Si2 0.316502 0.841051 0.143215
Si Si3 0.516359 0.261798 0.451528
Si Si4 0.250600 0.959693 0.486795
Si Si5 0.250000 0.750000 0.387562
Si Si6 0.070423 0.025837 0.385426
Si Si7 0.545366 0.207783 0.137438
Si Si8 0.936531 0.955716 0.073357
O O1 0.885428 0.393601 0.790481
O O2 0.998485 0.281958 0.705553
O O3 0.954856 0.475087 0.655915
O O4 0.063801 0.438113 0.789460
O O5 0.250000 0.750000 0.177981
O O6 0.382122 0.773047 0.083301
O O7 0.270626 0.928811 0.082635
O O8 0.475428 0.376943 0.433053
O O9 0.522489 0.242068 0.548864
O O10 0.463294 0.165367 0.410736
O O11 0.275103 0.849619 0.443264
O O12 0.161325 0.000666 0.437412
O O13 0.334680 0.034364 0.463953
O O14 0.154753 0.784138 0.345363
O O15 0.019963 0.913442 0.375553
O O16 0.000000 0.000000 0.000000
#
# Coordination Sequence:
#
# PCOD9429559 Si02
#       8
#     8   8   8   8   4   8   8   8
#     4  11  26  38  61 108 134 176 219 296 351 406
#     4  11  22  40  67 105 132 167 239 298 348 402
#     4  11  22  41  68  93 131 182 235 270 338 434
#     4  11  21  42  68  94 135 181 226 285 345 422
#     4  10  16  34  64  92 116 162 232 278 326 390
#     4  10  25  40  66  97 134 181 230 278 347 416
#     4  11  20  40  66  92 129 174 227 280 344 398
#     4  12  24  44  65  99 140 178 229 280 358 418
#
# _framework density 20.026522
#
# number of rings (size 3 to 8) (size 9 to 14) (size 15 to 20)
#    0.000    1.067    6.000    1.200    6.533    0.533 
#    2.400    0.000    0.000    0.000    3.467    0.000 
#    0.000    0.000    0.000    0.000    0.000    0.000 
#
# Total GULP energy -334392.777904 kJ/mol
# GULP energy per Si atom -5573.212965 kJ/mol
# Density = 1.998094 g / cm^3
# Si number density = 20.026522 Si / 1000 Ang^3
#
#
#
# Elastic Constant Matrix: (Units=GPa)
#
#
# Indices 1 2 3 4 5 6 
#
# 1 42.3040 26.9563 20.3756 0.0000 0.0000 0.0000
# 2 26.9563 109.0746 23.7884 0.0000 0.0000 0.0000
# 3 20.3756 23.7884 106.3146 0.0000 0.0000 0.0000
# 4 0.0000 0.0000 0.0000 36.3974 0.0000 0.0000
# 5 0.0000 0.0000 0.0000 0.0000 22.4934 0.0000
# 6 0.0000 0.0000 0.0000 0.0000 0.0000 30.0068
#
#
#
# Elastic Compliance Matrix: (Units=1/GPa)
#
#
# Indices 1 2 3 4 5 6 
#
# 1 0.029794 -0.006432 -0.004271 0.000000 0.000000 0.000000
# 2 -0.006432 0.011027 -0.001235 0.000000 0.000000 0.000000
# 3 -0.004271 -0.001235 0.010501 0.000000 0.000000 0.000000
# 4 0.000000 0.000000 0.000000 0.027475 0.000000 0.000000
# 5 0.000000 0.000000 0.000000 0.000000 0.044457 0.000000
# 6 0.000000 0.000000 0.000000 0.000000 0.000000 0.033326
#
#
# Mechanical properties :
#
#
# Convention : Reuss Voigt Hill
#
# Bulk Modulus (GPa) = 36.43400 44.43709 40.43554
# Shear Modulus (GPa) = 26.37092 30.21771 28.29431
#
# Velocity S-wave (km/s) = 3.63271 3.88865 3.76286
# Velocity P-wave (km/s) = 5.98563 6.51148 6.25409
#
# Compressibility (1/GPa) = 0.02744689
#
# Stress axis : x y z
#
# Youngs Moduli (GPa) = 33.56399 90.68816 95.23032
#
# Poissons Ratio (x) = 0.58328 0.40673
# Poissons Ratio (y) = 0.21587 0.11758
# Poissons Ratio (z) = 0.14335 0.11197
#
# Static dielectric constant tensor:
#      x y z
#    x 1.737380 0.000000 0.000000 
#    y 0.000000 1.738310 0.000000 
#    z 0.000000 0.000000 1.766720 
# 
# From -- ./inp_files/16314.got.cif
#   From: 2010.05.17/outbox.cif.g08.bks.cpg/sg56_9_cif.got.tgz:16314.got - 2010.06.03 13:42:01.
