data_PCOD9429558
_publ_section_title
;
Structure prediction by ZEFSAII (Michael W. Deem and Ramdas Pophale) SiO2 
 PCOD9429558
Probable space group: P C C N
;
_chemical_formula_sum "Si O2"
_cell_formula_units_Z 44
_cell_length_a 11.157327
_cell_length_b 11.206135
_cell_length_c 14.859357
_cell_angle_alpha 90.000000
_cell_angle_beta 90.000000
_cell_angle_gamma 90.000000
_cell_volume 1857.873023
_symmetry_space_group_name_H-M "P C C N"
_symmetry_group_IT_number 56
_symmetry_cell_setting 'orthorhombic'
loop_
_space_group_symop_operation_xyz
x,y,z
1/2-x,1/2-y,z
1/2+x,-y,1/2-z
-x,1/2+y,1/2-z
-x,-y,-z
1/2+x,1/2+y,-z
1/2-x,y,1/2+z
x,1/2-y,1/2+z
loop_
_atom_site_type_symbol
_atom_site_label
_atom_site_fract_x
_atom_site_fract_y
_atom_site_fract_z
Si Si1 0.040676 0.496132 0.321818
Si Si2 0.304621 0.059682 0.593138
Si Si3 0.750000 0.750000 0.777002
Si Si4 0.250352 0.891190 0.930650
Si Si5 0.573118 0.924964 0.158667
Si Si6 0.889626 0.717898 0.558049
O O1 0.127240 0.582773 0.376813
O O2 0.084689 0.369992 0.358852
O O3 0.899299 0.494161 0.343535
O O4 0.038395 0.536408 0.218825
O O5 0.216935 0.145344 0.650039
O O6 0.396285 0.141944 0.532751
O O7 0.250650 0.966443 0.523326
O O8 0.843210 0.830722 0.717797
O O9 0.250000 0.750000 0.944758
O O10 0.352340 0.959308 0.872161
O O11 0.541364 0.841000 0.073323
O O12 0.750000 0.750000 0.555744
#
# Coordination Sequence:
#
# PCOD9429558 Si02
#       6
#     8   8   4   8   8   8
#     4  10  23  36  62  87 114 155 208 245 301 351
#     4  10  19  37  64  86 112 161 200 247 297 353
#     4  10  16  34  62  90 112 146 212 246 284 350
#     4  11  22  40  58  87 128 157 192 248 319 355
#     4  11  21  35  62  90 118 159 203 253 295 358
#     4  11  17  36  61  81 115 153 208 235 290 360
#
# _framework density 23.682995999999999
#
# number of rings (size 3 to 8) (size 9 to 14) (size 15 to 20)
#    0.000    1.455    5.455    2.182    2.545    0.000 
#    0.000    3.636   16.000    6.545    0.000    0.000 
#    0.000    0.000    0.000    0.000    0.000    0.000 
#
# Total GULP energy -245010.777691 kJ/mol
# GULP energy per Si atom -5568.426766 kJ/mol
# Density = 2.362909 g / cm^3
# Si number density = 23.682996 Si / 1000 Ang^3
#
#
#
# Elastic Constant Matrix: (Units=GPa)
#
#
# Indices 1 2 3 4 5 6 
#
# 1 21.0515 16.4868 -15.0398 0.0000 0.0000 0.0000
# 2 16.4868 153.0207 29.9178 0.0000 0.0000 0.0000
# 3 -15.0398 29.9178 44.7263 0.0000 0.0000 0.0000
# 4 0.0000 0.0000 0.0000 34.5431 0.0000 0.0000
# 5 0.0000 0.0000 0.0000 0.0000 31.1980 0.0000
# 6 0.0000 0.0000 0.0000 0.0000 0.0000 33.4799
#
#
#
# Elastic Compliance Matrix: (Units=1/GPa)
#
#
# Indices 1 2 3 4 5 6 
#
# 1 0.093496 -0.018661 0.043921 0.000000 0.000000 0.000000
# 2 -0.018661 0.011243 -0.013795 0.000000 0.000000 0.000000
# 3 0.043921 -0.013795 0.046355 0.000000 0.000000 0.000000
# 4 0.000000 0.000000 0.000000 0.028949 0.000000 0.000000
# 5 0.000000 0.000000 0.000000 0.000000 0.032053 0.000000
# 6 0.000000 0.000000 0.000000 0.000000 0.000000 0.029869
#
#
# Mechanical properties :
#
#
# Convention : Reuss Voigt Hill
#
# Bulk Modulus (GPa) = 5.74632 31.28089 18.51361
# Shear Modulus (GPa) = 18.04779 32.33977 25.19378
#
# Velocity S-wave (km/s) = 2.76353 3.69931 3.26512
# Velocity P-wave (km/s) = 3.55168 5.61101 4.69563
#
# Compressibility (1/GPa) = 0.17402433
#
# Stress axis : x y z
#
# Youngs Moduli (GPa) = 10.69569 88.94589 21.57259
#
# Poissons Ratio (x) = 1.65979 -0.94750
# Poissons Ratio (y) = 0.19959 0.29760
# Poissons Ratio (z) = -0.46977 1.22703
#
# Static dielectric constant tensor:
#      x y z
#    x 1.906580 0.000000 0.000000 
#    y 0.000000 2.014490 0.000000 
#    z 0.000000 0.000000 2.102390 
# 
# From -- ./inp_files/15502.got.cif
#   From: 2010.05.17/outbox.cif.g08.bks.cpg/sg56_8_cif.got.tgz:15502.got - 2010.06.03 13:42:01.
