data_PCOD9429554
_publ_section_title
;
Structure prediction by ZEFSAII (Michael W. Deem and Ramdas Pophale) SiO2 
 PCOD9429554
Probable space group: P C C N
;
_chemical_formula_sum "Si O2"
_cell_formula_units_Z 36
_cell_length_a 15.473115
_cell_length_b 7.061175
_cell_length_c 13.554553
_cell_angle_alpha 90.000000
_cell_angle_beta 90.000000
_cell_angle_gamma 90.000000
_cell_volume 1480.948405
_symmetry_space_group_name_H-M "P C C N"
_symmetry_group_IT_number 56
_symmetry_cell_setting 'orthorhombic'
loop_
_space_group_symop_operation_xyz
x,y,z
1/2-x,1/2-y,z
1/2+x,-y,1/2-z
-x,1/2+y,1/2-z
-x,-y,-z
1/2+x,1/2+y,-z
1/2-x,y,1/2+z
x,1/2-y,1/2+z
loop_
_atom_site_type_symbol
_atom_site_label
_atom_site_fract_x
_atom_site_fract_y
_atom_site_fract_z
Si Si1 0.868519 0.953255 0.673058
Si Si2 0.187821 0.026792 0.762123
Si Si3 0.572493 0.746760 0.006988
Si Si4 0.989429 0.056537 0.163571
Si Si5 0.250000 0.250000 0.080440
O O1 0.775161 0.046341 0.686699
O O2 0.841234 0.733656 0.697188
O O3 0.908007 0.942154 0.563625
O O4 0.939747 0.994696 0.755204
O O5 0.213634 0.081032 0.650053
O O6 0.102471 0.907028 0.784522
O O7 0.522554 0.614016 0.085029
O O8 0.524283 0.728761 0.903019
O O9 0.669574 0.674031 0.981828
#
# Coordination Sequence:
#
# PCOD9429554 Si02
#       5
#     8   8   8   8   4
#     4   9  17  33  50  81 107 132 172 228 257 298
#     4   9  17  30  51  77 111 132 170 227 256 300
#     4  10  18  29  56  79 105 132 177 219 264 317
#     4  10  18  30  51  86 101 136 173 217 272 310
#     4  10  16  34  54  84 102 134 178 232 252 300
#
# _framework density 24.308744999999998
#
# number of rings (size 3 to 8) (size 9 to 14) (size 15 to 20)
#    0.000    2.667    4.444    2.667    0.000    0.000 
#    0.000    1.111    0.000    5.333   17.333    0.000 
#    0.000    0.000    0.000    0.000    0.000    0.000 
#
# Total GULP energy -200838.227156 kJ/mol
# GULP energy per Si atom -5578.839643 kJ/mol
# Density = 2.425342 g / cm^3
# Si number density = 24.308745 Si / 1000 Ang^3
#
#
#
# Elastic Constant Matrix: (Units=GPa)
#
#
# Indices 1 2 3 4 5 6 
#
# 1 222.9883 48.4037 83.2305 0.0000 0.0000 0.0000
# 2 48.4037 50.8046 23.3457 0.0000 0.0000 0.0000
# 3 83.2305 23.3457 140.8245 0.0000 0.0000 0.0000
# 4 0.0000 0.0000 0.0000 -0.9516 0.0000 0.0000
# 5 0.0000 0.0000 0.0000 0.0000 61.3130 0.0000
# 6 0.0000 0.0000 0.0000 0.0000 0.0000 28.9248
#
#
#
# Elastic Compliance Matrix: (Units=1/GPa)
#
#
# Indices 1 2 3 4 5 6 
#
# 1 0.006744 -0.004972 -0.003161 0.000000 0.000000 0.000000
# 2 -0.004972 0.024973 -0.001201 0.000000 0.000000 0.000000
# 3 -0.003161 -0.001201 0.009169 0.000000 0.000000 0.000000
# 4 0.000000 0.000000 0.000000 -1.050916 0.000000 0.000000
# 5 0.000000 0.000000 0.000000 0.000000 0.016310 0.000000
# 6 0.000000 0.000000 0.000000 0.000000 0.000000 0.034572
#
#
# Mechanical properties :
#
#
# Convention : Reuss Voigt Hill
#
# Bulk Modulus (GPa) = 45.01432 80.50857 62.76144
# Shear Modulus (GPa) = -5.35863 35.16642 14.90390
#
# Velocity S-wave (km/s) = -1.48633 3.80762 2.47879
# Velocity P-wave (km/s) = 3.95125 7.24719 5.83670
#
# Compressibility (1/GPa) = 0.02221515
#
# Stress axis : x y z
#
# Youngs Moduli (GPa) = 148.28149 40.04385 109.06716
#
# Poissons Ratio (x) = 0.19912 0.34481
# Poissons Ratio (y) = 0.73732 0.13100
# Poissons Ratio (z) = 0.46879 0.04810
#
# Static dielectric constant tensor:
#      x y z
#    x 2.015840 0.000000 0.000000 
#    y 0.000000 2.067670 0.000000 
#    z 0.000000 0.000000 1.993740 
# 
# From -- ./inp_files/11331.got.cif
#   From: 2010.05.17/outbox.cif.g08.bks.cpg/sg56_6_cif.got.tgz:11331.got - 2010.06.03 13:42:01.
