data_PCOD9429063
_publ_section_title
;
Structure prediction by ZEFSAII (Michael W. Deem and Ramdas Pophale) SiO2 
 PCOD9429063
Probable space group: P B A M
;
_chemical_formula_sum "Si O2"
_cell_formula_units_Z 48
_cell_length_a 8.277376
_cell_length_b 29.350192
_cell_length_c 8.225256
_cell_angle_alpha 90.000000
_cell_angle_beta 90.000000
_cell_angle_gamma 90.000000
_cell_volume 1998.264871
_symmetry_space_group_name_H-M "P B A M"
_symmetry_group_IT_number 55
_symmetry_cell_setting 'orthorhombic'
loop_
_space_group_symop_operation_xyz
x,y,z
-x,-y,z
1/2+x,1/2-y,-z
1/2-x,1/2+y,-z
-x,-y,-z
x,y,-z
1/2-x,1/2+y,z
1/2+x,1/2-y,z
loop_
_atom_site_type_symbol
_atom_site_label
_atom_site_fract_x
_atom_site_fract_y
_atom_site_fract_z
Si Si1 0.244801 0.477584 0.303951
Si Si2 0.086572 0.236330 0.812784
Si Si3 0.273397 0.317407 0.312192
Si Si4 0.063421 0.394299 0.813844
Si Si5 0.590335 0.433731 0.302772
Si Si6 0.743460 0.845206 0.689161
O O1 0.226604 0.477610 0.500000
O O2 0.106801 0.445935 0.231835
O O3 0.414747 0.452821 0.262376
O O4 0.275491 0.529389 0.248592
O O5 0.129428 0.280499 0.707801
O O6 0.233907 0.200580 0.789647
O O7 0.930383 0.208407 0.755125
O O8 0.072349 0.249832 0.000000
O O9 0.298424 0.329446 0.500000
O O10 0.219589 0.362380 0.217218
O O11 0.924998 0.371414 0.705613
O O12 0.013189 0.391040 0.000000
O O13 0.598369 0.433079 0.500000
O O14 0.628596 0.382967 0.249328
O O15 0.773230 0.834052 0.500000
#
# Coordination Sequence:
#
# PCOD9429063 Si02
#       6
#     8   8   8   8   8   8
#     4   9  17  36  62  88 115 152 199 250 301 360
#     4  12  25  43  65  94 127 157 190 244 305 354
#     4  12  25  44  67  91 118 158 204 244 287 354
#     4  12  25  40  57  86 123 160 199 251 308 355
#     4   8  17  34  61  89 115 149 199 252 298 350
#     4  11  22  39  61  88 120 162 207 247 291 355
#
# _framework density 24.020837
#
# number of rings (size 3 to 8) (size 9 to 14) (size 15 to 20)
#    0.000    1.333    0.000    8.000    0.000    2.000 
#    0.000    7.500    0.000    0.000    0.000    0.000 
#    0.000    0.000    0.000    0.000    0.000    0.000 
#
# Total GULP energy -268791.565828 kJ/mol
# GULP energy per Si atom -5599.824288 kJ/mol
# Density = 2.396616 g / cm^3
# Si number density = 24.020837 Si / 1000 Ang^3
#
#
#
# Elastic Constant Matrix: (Units=GPa)
#
#
# Indices 1 2 3 4 5 6 
#
# 1 62.0708 -13.7554 -9.3211 0.0000 0.0000 0.0000
# 2 -13.7554 88.5082 -2.3072 0.0000 0.0000 0.0000
# 3 -9.3211 -2.3072 63.1802 0.0000 0.0000 0.0000
# 4 0.0000 0.0000 0.0000 -25.0370 0.0000 0.0000
# 5 0.0000 0.0000 0.0000 0.0000 22.5456 0.0000
# 6 0.0000 0.0000 0.0000 0.0000 0.0000 37.2537
#
#
#
# Elastic Compliance Matrix: (Units=1/GPa)
#
#
# Indices 1 2 3 4 5 6 
#
# 1 0.017109 0.002727 0.002624 0.000000 0.000000 0.000000
# 2 0.002727 0.011744 0.000831 0.000000 0.000000 0.000000
# 3 0.002624 0.000831 0.016245 0.000000 0.000000 0.000000
# 4 0.000000 0.000000 0.000000 -0.039941 0.000000 0.000000
# 5 0.000000 0.000000 0.000000 0.000000 0.044355 0.000000
# 6 0.000000 0.000000 0.000000 0.000000 0.000000 0.026843
#
#
# Mechanical properties :
#
#
# Convention : Reuss Voigt Hill
#
# Bulk Modulus (GPa) = 17.40257 18.11022 17.75640
# Shear Modulus (GPa) = 60.13631 22.89530 41.51580
#
# Velocity S-wave (km/s) = 5.00893 3.09065 4.16182
# Velocity P-wave (km/s) = 6.38068 4.50465 5.52291
#
# Compressibility (1/GPa) = 0.05746277
#
# Stress axis : x y z
#
# Youngs Moduli (GPa) = 58.44866 85.15041 61.55668
#
# Poissons Ratio (x) = -0.23224 -0.16151
# Poissons Ratio (y) = -0.15941 -0.05117
# Poissons Ratio (z) = -0.15335 -0.07078
#
# Static dielectric constant tensor:
#      x y z
#    x 2.012550 0.000000 0.000000 
#    y 0.000000 1.895570 0.000000 
#    z 0.000000 0.000000 1.815470 
# 
# From -- ./inp_files/2806.got.cif
#   From: 2010.05.17/outbox.cif.g08.bks.cpg/sg55_2_cif.got.tgz:2806.got - 2010.06.03 13:27:54.
