data_PCOD9429522
_publ_section_title
;
Structure prediction by ZEFSAII (Michael W. Deem and Ramdas Pophale) SiO2 
 PCOD9429522
Probable space group: P C C N
;
_chemical_formula_sum "Si O2"
_cell_formula_units_Z 64
_cell_length_a 28.196772
_cell_length_b 18.994640
_cell_length_c 5.489288
_cell_angle_alpha 90.000000
_cell_angle_beta 90.000000
_cell_angle_gamma 90.000000
_cell_volume 2939.994220
_symmetry_space_group_name_H-M "P C C N"
_symmetry_group_IT_number 56
_symmetry_cell_setting 'orthorhombic'
loop_
_space_group_symop_operation_xyz
x,y,z
1/2-x,1/2-y,z
1/2+x,-y,1/2-z
-x,1/2+y,1/2-z
-x,-y,-z
1/2+x,1/2+y,-z
1/2-x,y,1/2+z
x,1/2-y,1/2+z
loop_
_atom_site_type_symbol
_atom_site_label
_atom_site_fract_x
_atom_site_fract_y
_atom_site_fract_z
Si Si1 0.536663 0.548625 0.859335
Si Si2 0.903222 0.085513 0.818228
Si Si3 0.131467 0.546954 0.179092
Si Si4 0.426027 0.273735 0.410077
Si Si5 0.219694 0.442216 0.181792
Si Si6 0.963260 0.220452 0.870710
Si Si7 0.941579 0.917924 0.359539
Si Si8 0.195897 0.279632 0.151895
O O1 0.580362 0.496416 0.814730
O O2 0.546461 0.602482 0.079710
O O3 0.500000 0.500000 0.000000
O O4 0.521021 0.570652 0.586428
O O5 0.874676 0.090211 0.070908
O O6 0.875420 0.093076 0.564694
O O7 0.947945 0.138935 0.830723
O O8 0.179419 0.501717 0.177314
O O9 0.089358 0.487897 0.173696
O O10 0.408982 0.227538 0.635416
O O11 0.482508 0.251435 0.382861
O O12 0.416941 0.351081 0.520112
O O13 0.250566 0.447674 0.933485
O O14 0.197596 0.363510 0.180180
O O15 0.942736 0.258612 0.632593
O O16 0.250000 0.250000 0.140281
O O17 0.175471 0.256525 0.892743
#
# Coordination Sequence:
#
# PCOD9429522 Si02
#       8
#     8   8   8   8   8   8   8   8
#     4  10  21  31  56  78  98 148 190 231 269 330
#     4  10  21  39  54  79 119 150 189 237 294 350
#     4  10  23  40  56  81 117 157 183 242 302 336
#     4  10  21  34  53  74 109 145 189 249 276 319
#     4  12  21  35  61  87 113 148 202 241 282 352
#     4  10  21  33  56  83 108 146 192 239 283 333
#     4  10  21  38  51  74 114 144 189 230 284 329
#     4  10  16  30  49  78 113 139 172 228 267 319
#
# _framework density 21.768749
#
# number of rings (size 3 to 8) (size 9 to 14) (size 15 to 20)
#    0.000    1.750    2.500    2.625    7.000    0.000 
#    0.000    1.250    0.000    0.000    0.000    0.000 
#    0.000   35.000    0.000    0.000    0.000    0.000 
#
# Total GULP energy -356486.943039 kJ/mol
# GULP energy per Si atom -5570.108485 kJ/mol
# Density = 2.171920 g / cm^3
# Si number density = 21.768749 Si / 1000 Ang^3
#
#
#
# Elastic Constant Matrix: (Units=GPa)
#
#
# Indices 1 2 3 4 5 6 
#
# 1 55.5141 10.0072 35.4661 0.0000 0.0000 0.0000
# 2 10.0072 46.7462 34.3679 0.0000 0.0000 0.0000
# 3 35.4661 34.3679 190.0332 0.0000 0.0000 0.0000
# 4 0.0000 0.0000 0.0000 37.4198 0.0000 0.0000
# 5 0.0000 0.0000 0.0000 0.0000 27.0748 0.0000
# 6 0.0000 0.0000 0.0000 0.0000 0.0000 7.0375
#
#
#
# Elastic Compliance Matrix: (Units=1/GPa)
#
#
# Indices 1 2 3 4 5 6 
#
# 1 0.020586 -0.001825 -0.003512 0.000000 0.000000 0.000000
# 2 -0.001825 0.024834 -0.004151 0.000000 0.000000 0.000000
# 3 -0.003512 -0.004151 0.006668 0.000000 0.000000 0.000000
# 4 0.000000 0.000000 0.000000 0.026724 0.000000 0.000000
# 5 0.000000 0.000000 0.000000 0.000000 0.036935 0.000000
# 6 0.000000 0.000000 0.000000 0.000000 0.000000 0.142095
#
#
# Mechanical properties :
#
#
# Convention : Reuss Voigt Hill
#
# Bulk Modulus (GPa) = 30.19916 50.21955 40.20936
# Shear Modulus (GPa) = 17.36980 28.46991 22.91986
#
# Velocity S-wave (km/s) = 2.82782 3.62032 3.24833
# Velocity P-wave (km/s) = 4.95630 6.37144 5.70790
#
# Compressibility (1/GPa) = 0.03311350
#
# Stress axis : x y z
#
# Youngs Moduli (GPa) = 48.57654 40.26660 149.96204
#
# Poissons Ratio (x) = 0.07349 0.52666
# Poissons Ratio (y) = 0.08865 0.62246
# Poissons Ratio (z) = 0.17060 0.16714
#
# Static dielectric constant tensor:
#      x y z
#    x 1.779900 0.000000 0.000000 
#    y 0.000000 1.853180 0.000000 
#    z 0.000000 0.000000 2.008330 
# 
# From -- ./inp_files/1376.got.cif
#   From: 2010.05.17/outbox.cif.g08.bks.cpg/sg56_1_cif.got.tgz:1376.got - 2010.06.03 13:42:01.
