data_PCOD9429570
_publ_section_title
;
Structure prediction by ZEFSAII (Michael W. Deem and Ramdas Pophale) SiO2 
 PCOD9429570
Probable space group: P C C N
;
_chemical_formula_sum "Si O2"
_cell_formula_units_Z 56
_cell_length_a 11.907826
_cell_length_b 14.518794
_cell_length_c 12.628300
_cell_angle_alpha 90.000000
_cell_angle_beta 90.000000
_cell_angle_gamma 90.000000
_cell_volume 2183.272346
_symmetry_space_group_name_H-M "P C C N"
_symmetry_group_IT_number 56
_symmetry_cell_setting 'orthorhombic'
loop_
_space_group_symop_operation_xyz
x,y,z
1/2-x,1/2-y,z
1/2+x,-y,1/2-z
-x,1/2+y,1/2-z
-x,-y,-z
1/2+x,1/2+y,-z
1/2-x,y,1/2+z
x,1/2-y,1/2+z
loop_
_atom_site_type_symbol
_atom_site_label
_atom_site_fract_x
_atom_site_fract_y
_atom_site_fract_z
Si Si1 0.750000 0.750000 0.734221
Si Si2 0.566556 0.022908 0.319227
Si Si3 0.750000 0.250000 0.536344
Si Si4 0.900590 0.902677 0.035025
Si Si5 0.009064 0.757874 0.421437
Si Si6 0.466938 0.160040 0.797041
Si Si7 0.819867 0.607544 0.919262
Si Si8 0.211302 0.603187 0.132366
O O1 0.643014 0.716535 0.665220
O O2 0.777838 0.665303 0.816052
O O3 0.443628 0.064082 0.349641
O O4 0.675575 0.086415 0.297296
O O5 0.587291 0.974326 0.434970
O O6 0.559866 0.946851 0.228094
O O7 0.861292 0.229770 0.598054
O O8 0.762409 0.339753 0.464263
O O9 0.771606 0.877991 0.012301
O O10 0.982341 0.817688 0.009899
O O11 0.968888 0.708486 0.316883
O O12 0.940743 0.849652 0.445702
O O13 0.596330 0.158220 0.837867
O O14 0.827271 0.499764 0.895889
#
# Coordination Sequence:
#
# PCOD9429570 Si02
#       8
#     4   8   4   8   8   8   8   8
#     4  10  16  38  64  92 118 168 224 260 310 396
#     4   9  17  34  62  92 122 163 210 260 331 388
#     4  12  26  42  58  86 136 178 212 272 330 382
#     4   9  14  31  67  96 116 155 211 268 315 381
#     4  10  20  39  63  94 124 173 221 264 320 393
#     4  10  21  39  65  93 125 172 219 266 326 398
#     4  10  18  37  70  96 126 162 219 276 323 381
#     4  11  23  41  60  94 137 170 208 277 335 381
#
# _framework density 25.649571000000002
#
# number of rings (size 3 to 8) (size 9 to 14) (size 15 to 20)
#    0.000    2.000    7.143    0.000    2.000    1.143 
#    7.714    1.429    3.143    0.000    0.000    0.000 
#    0.000    0.000    0.000    0.000    0.000    0.000 
#
# Total GULP energy -312424.957551 kJ/mol
# GULP energy per Si atom -5579.017099 kJ/mol
# Density = 2.559119 g / cm^3
# Si number density = 25.649571 Si / 1000 Ang^3
#
#
#
# Elastic Constant Matrix: (Units=GPa)
#
#
# Indices 1 2 3 4 5 6 
#
# 1 204.1364 33.8020 32.3842 0.0000 0.0000 0.0000
# 2 33.8020 115.5014 19.8004 0.0000 0.0000 0.0000
# 3 32.3842 19.8004 24.6119 0.0000 0.0000 0.0000
# 4 0.0000 0.0000 0.0000 16.9199 0.0000 0.0000
# 5 0.0000 0.0000 0.0000 0.0000 -18.2240 0.0000
# 6 0.0000 0.0000 0.0000 0.0000 0.0000 28.6418
#
#
#
# Elastic Compliance Matrix: (Units=1/GPa)
#
#
# Indices 1 2 3 4 5 6 
#
# 1 0.006214 -0.000484 -0.007788 0.000000 0.000000 0.000000
# 2 -0.000484 0.010081 -0.007474 0.000000 0.000000 0.000000
# 3 -0.007788 -0.007474 0.056890 0.000000 0.000000 0.000000
# 4 0.000000 0.000000 0.000000 0.059102 0.000000 0.000000
# 5 0.000000 0.000000 0.000000 0.000000 -0.054873 0.000000
# 6 0.000000 0.000000 0.000000 0.000000 0.000000 0.034914
#
#
# Mechanical properties :
#
#
# Convention : Reuss Voigt Hill
#
# Bulk Modulus (GPa) = 23.98340 57.35809 40.67074
# Shear Modulus (GPa) = 31.70246 22.68506 27.19376
#
# Velocity S-wave (km/s) = 3.51947 2.97715 3.25961
# Velocity P-wave (km/s) = 5.08786 5.85053 5.48247
#
# Compressibility (1/GPa) = 0.04169550
#
# Stress axis : x y z
#
# Youngs Moduli (GPa) = 160.92230 99.20009 17.57771
#
# Poissons Ratio (x) = 0.04797 0.13689
# Poissons Ratio (y) = 0.07782 0.13137
# Poissons Ratio (z) = 1.25319 0.74139
#
# Static dielectric constant tensor:
#      x y z
#    x 2.321930 0.000000 0.000000 
#    y 0.000000 2.041310 0.000000 
#    z 0.000000 0.000000 2.046360 
# 
# From -- ./inp_files/11726.got.cif
#   From: 2010.05.17/outbox.cif.g08.bks.cpg/sg56_6_cif.got.tgz:11726.got - 2010.06.03 13:42:01.
