data_PCOD9429235
_publ_section_title
;
Structure prediction by ZEFSAII (Michael W. Deem and Ramdas Pophale) SiO2 
 PCOD9429235
Probable space group: P B A M
;
_chemical_formula_sum "Si O2"
_cell_formula_units_Z 48
_cell_length_a 6.644317
_cell_length_b 33.665731
_cell_length_c 7.793183
_cell_angle_alpha 90.000000
_cell_angle_beta 90.000000
_cell_angle_gamma 90.000000
_cell_volume 1743.224287
_symmetry_space_group_name_H-M "P B A M"
_symmetry_group_IT_number 55
_symmetry_cell_setting 'orthorhombic'
loop_
_space_group_symop_operation_xyz
x,y,z
-x,-y,z
1/2+x,1/2-y,-z
1/2-x,1/2+y,-z
-x,-y,-z
x,y,-z
1/2-x,1/2+y,z
1/2+x,1/2-y,z
loop_
_atom_site_type_symbol
_atom_site_label
_atom_site_fract_x
_atom_site_fract_y
_atom_site_fract_z
Si Si1 0.251539 0.534217 0.201854
Si Si2 0.572570 0.134087 0.295556
Si Si3 0.959368 0.281825 0.804791
Si Si4 0.506548 0.695725 0.199996
Si Si5 0.607897 0.385371 0.204100
Si Si6 0.202429 0.448074 0.301790
O O1 0.404046 0.568798 0.264692
O O2 0.295125 0.487551 0.218273
O O3 0.038840 0.542277 0.292784
O O4 0.221065 0.541678 0.000000
O O5 0.574401 0.130531 0.500000
O O6 0.598404 0.181357 0.255219
O O7 0.345670 0.124123 0.232861
O O8 0.704299 0.096811 0.224484
O O9 0.735156 0.298145 0.807059
O O10 0.936487 0.238384 0.719268
O O11 0.022221 0.273177 0.000000
O O12 0.514010 0.651884 0.284413
O O13 0.574575 0.693139 0.000000
O O14 0.573241 0.383939 0.000000
O O15 0.259226 0.447524 0.500000
#
# Coordination Sequence:
#
# PCOD9429235 Si02
#       6
#     8   8   8   8   8   8
#     4   9  14  19  30  47  67  92 122 152 180 215
#     4   9  16  24  34  50  72  98 126 155 188 223
#     4   9  16  27  42  57  75 100 128 156 186 223
#     4   8  14  25  41  58  75  98 127 155 184 221
#     4   8  14  24  36  51  72  98 126 154 186 225
#     4   9  15  21  29  43  67  96 122 148 181 221
#
# _framework density 27.535183
#
# number of rings (size 3 to 8) (size 9 to 14) (size 15 to 20)
#    0.000    3.333    0.000    3.500    0.000    2.667 
#    0.000    3.333    0.000    0.000    0.000    0.000 
#    0.000    1.333    0.000   16.667    0.000   12.333 
#
# Total GULP energy -267966.407076 kJ/mol
# GULP energy per Si atom -5582.633481 kJ/mol
# Density = 2.747251 g / cm^3
# Si number density = 27.535183 Si / 1000 Ang^3
#
#
#
# Elastic Constant Matrix: (Units=GPa)
#
#
# Indices 1 2 3 4 5 6 
#
# 1 49.2788 45.3762 5.8940 0.0000 0.0000 0.0000
# 2 45.3762 320.3425 15.8811 0.0000 0.0000 0.0000
# 3 5.8940 15.8811 104.8859 0.0000 0.0000 0.0000
# 4 0.0000 0.0000 0.0000 -3.3609 0.0000 0.0000
# 5 0.0000 0.0000 0.0000 0.0000 16.0598 0.0000
# 6 0.0000 0.0000 0.0000 0.0000 0.0000 82.5814
#
#
#
# Elastic Compliance Matrix: (Units=1/GPa)
#
#
# Indices 1 2 3 4 5 6 
#
# 1 0.023406 -0.003275 -0.000819 0.000000 0.000000 0.000000
# 2 -0.003275 0.003603 -0.000362 0.000000 0.000000 0.000000
# 3 -0.000819 -0.000362 0.009635 0.000000 0.000000 0.000000
# 4 0.000000 0.000000 0.000000 -0.297542 0.000000 0.000000
# 5 0.000000 0.000000 0.000000 0.000000 0.062267 0.000000
# 6 0.000000 0.000000 0.000000 0.000000 0.000000 0.012109
#
#
# Mechanical properties :
#
#
# Convention : Reuss Voigt Hill
#
# Bulk Modulus (GPa) = 36.05827 67.64554 51.85190
# Shear Modulus (GPa) = -29.69745 46.21313 8.25784
#
# Velocity S-wave (km/s) = -3.28766 4.10119 1.73365
# Velocity P-wave (km/s) = 1.13482 6.85905 4.78324
#
# Compressibility (1/GPa) = 0.02773289
#
# Stress axis : x y z
#
# Youngs Moduli (GPa) = 42.72369 277.51089 103.78866
#
# Poissons Ratio (x) = 0.90880 0.08505
# Poissons Ratio (y) = 0.13991 0.03753
# Poissons Ratio (z) = 0.03501 0.10034
#
# Static dielectric constant tensor:
#      x y z
#    x 2.292730 0.000000 0.000000 
#    y 0.000000 2.337340 0.000000 
#    z 0.000000 0.000000 1.945640 
# 
# From -- ./inp_files/4363.got.cif
#   From: 2010.05.17/outbox.cif.g08.bks.cpg/sg55_3_cif.got.tgz:4363.got - 2010.06.03 13:27:54.
