data_PCOD9429039
_publ_section_title
;
Structure prediction by ZEFSAII (Michael W. Deem and Ramdas Pophale) SiO2 
 PCOD9429039
Probable space group: P B A M
;
_chemical_formula_sum "Si O2"
_cell_formula_units_Z 64
_cell_length_a 9.452321
_cell_length_b 16.555328
_cell_length_c 19.905618
_cell_angle_alpha 90.000000
_cell_angle_beta 90.000000
_cell_angle_gamma 90.000000
_cell_volume 3114.956003
_symmetry_space_group_name_H-M "P B A M"
_symmetry_group_IT_number 55
_symmetry_cell_setting 'orthorhombic'
loop_
_space_group_symop_operation_xyz
x,y,z
-x,-y,z
1/2+x,1/2-y,-z
1/2-x,1/2+y,-z
-x,-y,-z
x,y,-z
1/2-x,1/2+y,z
1/2+x,1/2-y,z
loop_
_atom_site_type_symbol
_atom_site_label
_atom_site_fract_x
_atom_site_fract_y
_atom_site_fract_z
Si Si1 0.593535 0.344071 0.719425
Si Si2 0.460812 0.788472 0.920829
Si Si3 0.231436 0.409145 0.855040
Si Si4 0.551711 0.384927 0.861424
Si Si5 0.603120 0.347543 0.572684
Si Si6 0.754813 0.173608 0.717587
Si Si7 0.329232 0.067471 0.923176
Si Si8 0.267509 0.321655 0.428123
O O1 0.617444 0.395105 0.786854
O O2 0.623040 0.385559 0.646871
O O3 0.685090 0.262129 0.723416
O O4 0.425951 0.322117 0.721941
O O5 0.317021 0.835939 0.903110
O O6 0.472805 0.710135 0.875126
O O7 0.582506 0.853410 0.904067
O O8 0.467905 0.768919 0.000000
O O9 0.398278 0.424074 0.863602
O O10 0.204619 0.380946 0.779165
O O11 0.151746 0.488900 0.878059
O O12 0.664732 0.410689 0.916046
O O13 0.626041 0.390217 0.500000
O O14 0.702489 0.268426 0.572381
O O15 0.438396 0.320091 0.572565
O O16 0.720742 0.140994 0.642767
O O17 0.363527 0.047985 0.000000
O O18 0.224501 0.359097 0.500000
#
# Coordination Sequence:
#
# PCOD9429039 Si02
#       8
#     8   8   8   8   8   8   8   8
#     4   9  17  28  46  73 101 132 170 213 253 296
#     4  11  23  39  58  79 102 132 172 216 261 315
#     4  11  22  37  55  77 108 140 172 215 261 313
#     4  11  22  36  57  81 105 135 173 216 262 312
#     4   8  13  22  37  61  96 132 161 199 250 296
#     4   9  17  29  47  72 103 137 172 211 254 301
#     4  11  25  41  57  78 104 135 172 216 269 321
#     4   8  13  22  38  63  96 131 168 205 245 293
#
# _framework density 20.546036000000001
#
# number of rings (size 3 to 8) (size 9 to 14) (size 15 to 20)
#    0.000    2.250    1.250    2.250    1.750    4.500 
#    0.000    0.000    0.000    0.000    0.000    0.875 
#    0.000    9.000    0.000    0.000    0.000    0.000 
#
# Total GULP energy -356794.669446 kJ/mol
# GULP energy per Si atom -5574.916710 kJ/mol
# Density = 2.049927 g / cm^3
# Si number density = 20.546036 Si / 1000 Ang^3
#
#
#
# Elastic Constant Matrix: (Units=GPa)
#
#
# Indices 1 2 3 4 5 6 
#
# 1 38.1561 7.2117 6.9550 0.0000 0.0000 0.0000
# 2 7.2117 30.9040 15.3489 0.0000 0.0000 0.0000
# 3 6.9550 15.3489 70.9700 0.0000 0.0000 0.0000
# 4 0.0000 0.0000 0.0000 14.5166 0.0000 0.0000
# 5 0.0000 0.0000 0.0000 0.0000 22.5978 0.0000
# 6 0.0000 0.0000 0.0000 0.0000 0.0000 16.2028
#
#
#
# Elastic Compliance Matrix: (Units=1/GPa)
#
#
# Indices 1 2 3 4 5 6 
#
# 1 0.027553 -0.005701 -0.001467 0.000000 0.000000 0.000000
# 2 -0.005701 0.037432 -0.007537 0.000000 0.000000 0.000000
# 3 -0.001467 -0.007537 0.015864 0.000000 0.000000 0.000000
# 4 0.000000 0.000000 0.000000 0.068887 0.000000 0.000000
# 5 0.000000 0.000000 0.000000 0.000000 0.044252 0.000000
# 6 0.000000 0.000000 0.000000 0.000000 0.000000 0.061718
#
#
# Mechanical properties :
#
#
# Convention : Reuss Voigt Hill
#
# Bulk Modulus (GPa) = 19.44045 22.11793 20.77919
# Shear Modulus (GPa) = 16.54193 18.03107 17.28650
#
# Velocity S-wave (km/s) = 2.84053 2.96563 2.90376
# Velocity P-wave (km/s) = 4.49896 4.74501 4.62362
#
# Compressibility (1/GPa) = 0.05143914
#
# Stress axis : x y z
#
# Youngs Moduli (GPa) = 36.29354 26.71518 63.03484
#
# Poissons Ratio (x) = 0.15230 0.09249
# Poissons Ratio (y) = 0.20691 0.47508
# Poissons Ratio (z) = 0.05325 0.20135
#
# Static dielectric constant tensor:
#      x y z
#    x 1.742820 0.000000 0.000000 
#    y 0.000000 1.724420 0.000000 
#    z 0.000000 0.000000 1.805320 
# 
# From -- ./inp_files/22725.got.cif
#   From: 2010.05.17/outbox.cif.g08.bks.cpg/sg55_12_cif.got.tgz:22725.got - 2010.06.03 13:27:54.
