data_PCOD9429538
_publ_section_title
;
Structure prediction by ZEFSAII (Michael W. Deem and Ramdas Pophale) SiO2 
 PCOD9429538
Probable space group: P C C N
;
_chemical_formula_sum "Si O2"
_cell_formula_units_Z 60
_cell_length_a 14.192968
_cell_length_b 12.285580
_cell_length_c 14.488098
_cell_angle_alpha 90.000000
_cell_angle_beta 90.000000
_cell_angle_gamma 90.000000
_cell_volume 2526.272897
_symmetry_space_group_name_H-M "P C C N"
_symmetry_group_IT_number 56
_symmetry_cell_setting 'orthorhombic'
loop_
_space_group_symop_operation_xyz
x,y,z
1/2-x,1/2-y,z
1/2+x,-y,1/2-z
-x,1/2+y,1/2-z
-x,-y,-z
1/2+x,1/2+y,-z
1/2-x,y,1/2+z
x,1/2-y,1/2+z
loop_
_atom_site_type_symbol
_atom_site_label
_atom_site_fract_x
_atom_site_fract_y
_atom_site_fract_z
Si Si1 0.063050 0.817801 0.582285
Si Si2 0.415245 0.953508 0.365255
Si Si3 0.585796 0.725562 0.420782
Si Si4 0.939473 0.284960 0.222253
Si Si5 0.681809 0.522642 0.454410
Si Si6 0.285825 0.944229 0.853683
Si Si7 0.390682 0.484863 0.079684
Si Si8 0.250000 0.750000 0.993372
O O1 0.038069 0.764815 0.678842
O O2 0.156796 0.752984 0.552874
O O3 0.984559 0.799185 0.505773
O O4 0.099504 0.942633 0.582086
O O5 0.416195 0.826607 0.335813
O O6 0.315243 0.991931 0.320699
O O7 0.519568 0.008456 0.351992
O O8 0.408372 0.972031 0.475663
O O9 0.532675 0.680199 0.330435
O O10 0.673683 0.647839 0.429880
O O11 0.605579 0.853183 0.420093
O O12 0.642110 0.122721 0.211505
O O13 0.671950 0.523106 0.567638
O O14 0.780880 0.483746 0.408723
O O15 0.257396 0.850758 0.926123
#
# Coordination Sequence:
#
# PCOD9429538 Si02
#       8
#     8   8   8   8   8   8   8   4
#     4  11  24  36  62  98 125 159 222 261 313 382
#     4   9  17  33  58  87 126 151 210 248 316 380
#     4  11  21  43  65  88 129 174 209 261 316 386
#     4  11  21  36  61  93 129 165 204 267 327 367
#     4  10  21  39  67  92 125 170 220 257 316 386
#     4  10  17  33  62  91 124 166 199 264 323 363
#     4   9  19  35  66  92 113 171 205 259 322 378
#     4  10  16  32  54  86 122 150 194 262 310 368
#
# _framework density 23.750402000000001
#
# number of rings (size 3 to 8) (size 9 to 14) (size 15 to 20)
#    0.000    1.867    4.000    1.600    1.867    1.067 
#    2.400    0.000   11.733    3.200    0.000    0.000 
#    0.000    0.000    0.000    0.000    0.000    0.000 
#
# Total GULP energy -334220.771006 kJ/mol
# GULP energy per Si atom -5570.346183 kJ/mol
# Density = 2.369635 g / cm^3
# Si number density = 23.750402 Si / 1000 Ang^3
#
#
#
# Elastic Constant Matrix: (Units=GPa)
#
#
# Indices 1 2 3 4 5 6 
#
# 1 85.2757 8.1828 38.2703 0.0000 0.0000 0.0000
# 2 8.1828 67.0733 11.7801 0.0000 0.0000 0.0000
# 3 38.2703 11.7801 85.1226 0.0000 0.0000 0.0000
# 4 0.0000 0.0000 0.0000 9.9193 0.0000 0.0000
# 5 0.0000 0.0000 0.0000 0.0000 0.9185 0.0000
# 6 0.0000 0.0000 0.0000 0.0000 0.0000 41.5487
#
#
#
# Elastic Compliance Matrix: (Units=1/GPa)
#
#
# Indices 1 2 3 4 5 6 
#
# 1 0.014718 -0.000649 -0.006527 0.000000 0.000000 0.000000
# 2 -0.000649 0.015309 -0.001827 0.000000 0.000000 0.000000
# 3 -0.006527 -0.001827 0.014935 0.000000 0.000000 0.000000
# 4 0.000000 0.000000 0.000000 0.100814 0.000000 0.000000
# 5 0.000000 0.000000 0.000000 0.000000 1.088702 0.000000
# 6 0.000000 0.000000 0.000000 0.000000 0.000000 0.024068
#
#
# Mechanical properties :
#
#
# Convention : Reuss Voigt Hill
#
# Bulk Modulus (GPa) = 37.09752 39.32645 38.21199
# Shear Modulus (GPa) = 3.88942 22.42654 13.15798
#
# Velocity S-wave (km/s) = 1.28108 3.07621 2.35630
# Velocity P-wave (km/s) = 4.22397 5.40478 4.85044
#
# Compressibility (1/GPa) = 0.02695598
#
# Stress axis : x y z
#
# Youngs Moduli (GPa) = 67.94242 65.32065 66.95584
#
# Poissons Ratio (x) = 0.04241 0.43705
# Poissons Ratio (y) = 0.04411 0.12231
# Poissons Ratio (z) = 0.44349 0.11932
#
# Static dielectric constant tensor:
#      x y z
#    x 2.178520 0.000000 0.000000 
#    y 0.000000 2.036730 0.000000 
#    z 0.000000 0.000000 1.966060 
# 
# From -- ./inp_files/12416.got.cif
#   From: 2010.05.17/outbox.cif.g08.bks.cpg/sg56_7_cif.got.tgz:12416.got - 2010.06.03 13:42:01.
