data_PCOD9429972
_publ_section_title
;
Structure prediction by ZEFSAII (Michael W. Deem and Ramdas Pophale) SiO2 
 PCOD9429972
Probable space group: P C C N
;
_chemical_formula_sum "Si O2"
_cell_formula_units_Z 36
_cell_length_a 9.478262
_cell_length_b 7.731836
_cell_length_c 18.122111
_cell_angle_alpha 90.000000
_cell_angle_beta 90.000000
_cell_angle_gamma 90.000000
_cell_volume 1328.067440
_symmetry_space_group_name_H-M "P C C N"
_symmetry_group_IT_number 56
_symmetry_cell_setting 'orthorhombic'
loop_
_space_group_symop_operation_xyz
x,y,z
1/2-x,1/2-y,z
1/2+x,-y,1/2-z
-x,1/2+y,1/2-z
-x,-y,-z
1/2+x,1/2+y,-z
1/2-x,y,1/2+z
x,1/2-y,1/2+z
loop_
_atom_site_type_symbol
_atom_site_label
_atom_site_fract_x
_atom_site_fract_y
_atom_site_fract_z
Si Si1 0.750000 0.250000 0.312681
Si Si2 0.647266 0.909187 0.232493
Si Si3 0.654667 0.991398 0.918466
Si Si4 0.530386 0.866565 0.376227
Si Si5 0.239902 0.953482 0.415809
O O1 0.802300 0.405661 0.262473
O O2 0.636073 0.337671 0.368678
O O3 0.750000 0.750000 0.252526
O O4 0.514464 0.876198 0.286782
O O5 0.664494 0.931090 0.145423
O O6 0.814984 0.937043 0.896821
O O7 0.549661 0.834278 0.899335
O O8 0.668869 0.022551 0.005160
O O9 0.409894 0.982421 0.413884
O O10 0.250000 0.750000 0.396554
#
# Coordination Sequence:
#
# PCOD9429972 Si02
#       5
#     4   8   8   8   8
#     4  10  18  44  70  96 142 188 236 294 362 436
#     4  11  23  45  68 101 144 193 244 300 370 444
#     4  10  21  46  69 103 145 192 244 300 370 439
#     4  10  23  46  71  99 148 197 237 304 379 431
#     4  12  26  42  70 112 143 188 255 305 368 449
#
# _framework density 27.107057999999999
#
# number of rings (size 3 to 8) (size 9 to 14) (size 15 to 20)
#    0.000    1.333    6.667    0.667    3.111    2.667 
#    0.000    0.000    0.000    0.000    0.000    0.000 
#    0.000    0.000    0.000    0.000    0.000    0.000 
#
# Total GULP energy -201392.939581 kJ/mol
# GULP energy per Si atom -5594.248322 kJ/mol
# Density = 2.704536 g / cm^3
# Si number density = 27.107058 Si / 1000 Ang^3
#
#
#
# Elastic Constant Matrix: (Units=GPa)
#
#
# Indices 1 2 3 4 5 6 
#
# 1 129.3834 34.4386 23.9225 0.0000 0.0000 0.0000
# 2 34.4386 154.4959 45.9466 0.0000 0.0000 0.0000
# 3 23.9225 45.9466 181.5894 0.0000 0.0000 0.0000
# 4 0.0000 0.0000 0.0000 46.7556 0.0000 0.0000
# 5 0.0000 0.0000 0.0000 0.0000 -3.0058 0.0000
# 6 0.0000 0.0000 0.0000 0.0000 0.0000 44.4746
#
#
#
# Elastic Compliance Matrix: (Units=1/GPa)
#
#
# Indices 1 2 3 4 5 6 
#
# 1 0.008292 -0.001648 -0.000676 0.000000 0.000000 0.000000
# 2 -0.001648 0.007327 -0.001637 0.000000 0.000000 0.000000
# 3 -0.000676 -0.001637 0.006010 0.000000 0.000000 0.000000
# 4 0.000000 0.000000 0.000000 0.021388 0.000000 0.000000
# 5 0.000000 0.000000 0.000000 0.000000 -0.332694 0.000000
# 6 0.000000 0.000000 0.000000 0.000000 0.000000 0.022485
#
#
# Mechanical properties :
#
#
# Convention : Reuss Voigt Hill
#
# Bulk Modulus (GPa) = 72.94278 74.89824 73.92051
# Shear Modulus (GPa) = -19.63074 41.72228 11.04577
#
# Velocity S-wave (km/s) = -2.69400 3.92748 2.02082
# Velocity P-wave (km/s) = 4.15821 6.94675 5.72486
#
# Compressibility (1/GPa) = 0.01370938
#
# Stress axis : x y z
#
# Youngs Moduli (GPa) = 120.59219 136.48717 166.38726
#
# Poissons Ratio (x) = 0.22487 0.11241
# Poissons Ratio (y) = 0.19868 0.27234
# Poissons Ratio (z) = 0.08147 0.22340
#
# Static dielectric constant tensor:
#      x y z
#    x 2.394260 0.000000 0.000000 
#    y 0.000000 2.140670 0.000000 
#    z 0.000000 0.000000 2.162710 
# 
# From -- ./inp_files/18562.got.cif
#   From: 2010.05.17/outbox.cif.g08.bks.cpg/sg56_10_cif.got.tgz:18562.got - 2010.06.03 13:42:01.
