data_PCOD9429518
_publ_section_title
;
Structure prediction by ZEFSAII (Michael W. Deem and Ramdas Pophale) SiO2 
 PCOD9429518
Probable space group: P C C N
;
_chemical_formula_sum "Si O2"
_cell_formula_units_Z 64
_cell_length_a 27.507511
_cell_length_b 20.706050
_cell_length_c 5.201806
_cell_angle_alpha 90.000000
_cell_angle_beta 90.000000
_cell_angle_gamma 90.000000
_cell_volume 2962.802517
_symmetry_space_group_name_H-M "P C C N"
_symmetry_group_IT_number 56
_symmetry_cell_setting 'orthorhombic'
loop_
_space_group_symop_operation_xyz
x,y,z
1/2-x,1/2-y,z
1/2+x,-y,1/2-z
-x,1/2+y,1/2-z
-x,-y,-z
1/2+x,1/2+y,-z
1/2-x,y,1/2+z
x,1/2-y,1/2+z
loop_
_atom_site_type_symbol
_atom_site_label
_atom_site_fract_x
_atom_site_fract_y
_atom_site_fract_z
Si Si1 0.436923 0.783180 0.093906
Si Si2 0.864824 0.711308 0.111384
Si Si3 0.022777 0.086010 0.060998
Si Si4 0.131758 0.901638 0.485777
Si Si5 0.587525 0.035220 0.511344
Si Si6 0.733155 0.825684 0.880839
Si Si7 0.194816 0.718284 0.939912
Si Si8 0.465902 0.154756 0.055054
O O1 0.426330 0.773772 0.392921
O O2 0.407965 0.844678 0.993042
O O3 0.493376 0.796570 0.043242
O O4 0.862547 0.771652 0.911351
O O5 0.818173 0.671962 0.020720
O O6 0.913895 0.677435 0.036018
O O7 0.023920 0.093441 0.369849
O O8 0.067277 0.037937 0.991239
O O9 0.031397 0.143959 0.858927
O O10 0.966412 0.068262 0.003405
O O11 0.119515 0.943914 0.235033
O O12 0.182110 0.857865 0.477404
O O13 0.118863 0.943293 0.739675
O O14 0.750000 0.750000 0.838459
O O15 0.732019 0.854558 0.598096
O O16 0.250000 0.750000 0.927092
O O17 0.172322 0.757516 0.175166
#
# Coordination Sequence:
#
# PCOD9429518 Si02
#       8
#     8   8   8   8   8   8   8   8
#     4  12  22  34  49  75 117 161 186 222 267 343
#     4  12  21  33  51  76 110 151 183 221 277 345
#     4  11  22  41  56  79 113 151 199 262 290 330
#     4  12  21  37  59  89 114 154 201 238 295 362
#     4  11  22  38  63  82 108 151 205 257 295 328
#     4  10  16  30  49  70 101 126 175 229 256 298
#     4  10  21  38  59  88 132 158 187 240 301 370
#     4  12  23  37  52  77 117 156 194 228 294 351
#
# _framework density 21.601168999999999
#
# number of rings (size 3 to 8) (size 9 to 14) (size 15 to 20)
#    0.000    0.750    5.000    5.250    0.000    2.000 
#    0.000    0.000    0.000    0.000    0.000    0.000 
#   75.000    0.000    0.000    0.000    0.000    0.000 
#
# Total GULP energy -356458.529184 kJ/mol
# GULP energy per Si atom -5569.664518 kJ/mol
# Density = 2.155200 g / cm^3
# Si number density = 21.601169 Si / 1000 Ang^3
#
#
#
# Elastic Constant Matrix: (Units=GPa)
#
#
# Indices 1 2 3 4 5 6 
#
# 1 90.5254 12.7223 4.0002 0.0000 0.0000 0.0000
# 2 12.7223 28.2484 16.2499 0.0000 0.0000 0.0000
# 3 4.0002 16.2499 134.7031 0.0000 0.0000 0.0000
# 4 0.0000 0.0000 0.0000 65.1787 0.0000 0.0000
# 5 0.0000 0.0000 0.0000 0.0000 41.1498 0.0000
# 6 0.0000 0.0000 0.0000 0.0000 0.0000 -76.8493
#
#
#
# Elastic Compliance Matrix: (Units=1/GPa)
#
#
# Indices 1 2 3 4 5 6 
#
# 1 0.011805 -0.005497 0.000313 0.000000 0.000000 0.000000
# 2 -0.005497 0.040599 -0.004734 0.000000 0.000000 0.000000
# 3 0.000313 -0.004734 0.007986 0.000000 0.000000 0.000000
# 4 0.000000 0.000000 0.000000 0.015342 0.000000 0.000000
# 5 0.000000 0.000000 0.000000 0.000000 0.024301 0.000000
# 6 0.000000 0.000000 0.000000 0.000000 0.000000 -0.013012
#
#
# Mechanical properties :
#
#
# Convention : Reuss Voigt Hill
#
# Bulk Modulus (GPa) = 24.65901 35.49129 30.07515
# Shear Modulus (GPa) = 41.53645 20.59616 31.06630
#
# Velocity S-wave (km/s) = 4.38982 3.09119 3.79644
# Velocity P-wave (km/s) = 6.09380 5.40431 5.75938
#
# Compressibility (1/GPa) = 0.04055313
#
# Stress axis : x y z
#
# Youngs Moduli (GPa) = 84.70782 24.63101 125.22556
#
# Poissons Ratio (x) = 0.13539 -0.03913
# Poissons Ratio (y) = 0.46560 0.59287
# Poissons Ratio (z) = -0.02647 0.11661
#
# Static dielectric constant tensor:
#      x y z
#    x 4.225730 0.000000 0.000000 
#    y 0.000000 1.847480 0.000000 
#    z 0.000000 0.000000 1.881810 
# 
# From -- ./inp_files/1266.got.cif
#   From: 2010.05.17/outbox.cif.g08.bks.cpg/sg56_1_cif.got.tgz:1266.got - 2010.06.03 13:42:01.
