data_PCOD9429996
_publ_section_title
;
Structure prediction by ZEFSAII (Michael W. Deem and Ramdas Pophale) SiO2 
 PCOD9429996
Probable space group: P C C N
;
_chemical_formula_sum "Si O2"
_cell_formula_units_Z 64
_cell_length_a 18.756796
_cell_length_b 5.595298
_cell_length_c 26.497183
_cell_angle_alpha 90.000000
_cell_angle_beta 90.000000
_cell_angle_gamma 90.000000
_cell_volume 2780.875730
_symmetry_space_group_name_H-M "P C C N"
_symmetry_group_IT_number 56
_symmetry_cell_setting 'orthorhombic'
loop_
_space_group_symop_operation_xyz
x,y,z
1/2-x,1/2-y,z
1/2+x,-y,1/2-z
-x,1/2+y,1/2-z
-x,-y,-z
1/2+x,1/2+y,-z
1/2-x,y,1/2+z
x,1/2-y,1/2+z
loop_
_atom_site_type_symbol
_atom_site_label
_atom_site_fract_x
_atom_site_fract_y
_atom_site_fract_z
Si Si1 0.165196 0.224434 0.091820
Si Si2 0.481596 0.209520 0.722269
Si Si3 0.445599 0.179893 0.908408
Si Si4 0.543750 0.724856 0.979311
Si Si5 0.557343 0.194278 0.616032
Si Si6 0.393993 0.723714 0.638079
Si Si7 0.168800 0.758699 0.748278
Si Si8 0.169955 0.241497 0.252415
O O1 0.250000 0.250000 0.089315
O O2 0.139761 0.477725 0.116639
O O3 0.141901 0.969577 0.117305
O O4 0.125745 0.209129 0.037574
O O5 0.503786 0.465085 0.746526
O O6 0.522412 0.179490 0.670560
O O7 0.396718 0.229736 0.715173
O O8 0.456140 0.129004 0.968294
O O9 0.410102 0.439955 0.899737
O O10 0.522677 0.213963 0.879594
O O11 0.404101 0.950225 0.887378
O O12 0.500000 0.500000 0.000000
O O13 0.506377 0.743624 0.924370
O O14 0.379753 0.729573 0.698374
O O15 0.250000 0.750000 0.728653
O O16 0.162386 0.513564 0.778817
O O17 0.160747 0.003784 0.779007
O O18 0.250000 0.250000 0.230241
#
# Coordination Sequence:
#
# PCOD9429996 Si02
#       8
#     8   8   8   8   8   8   8   8
#     4  12  24  34  49  78 117 158 190 227 285 345
#     4  12  25  42  60  87 126 156 196 250 301 356
#     4  11  20  35  61  86 115 151 198 242 272 336
#     4  10  21  39  59  86 118 151 199 240 281 341
#     4  11  21  37  59  89 115 154 194 233 295 345
#     4  12  20  34  49  75 118 155 190 218 276 333
#     4  10  19  31  51  81 119 154 187 225 279 361
#     4  10  21  37  58  84 112 151 193 237 293 362
#
# _framework density 23.014330999999999
#
# number of rings (size 3 to 8) (size 9 to 14) (size 15 to 20)
#    0.000    1.000    3.750    5.250    0.000    1.000 
#    0.000    0.000    0.000    0.000    0.000   11.375 
#    0.000    0.000    0.000    0.000    0.000    0.000 
#
# Total GULP energy -356367.703182 kJ/mol
# GULP energy per Si atom -5568.245362 kJ/mol
# Density = 2.296195 g / cm^3
# Si number density = 23.014331 Si / 1000 Ang^3
#
#
#
# Elastic Constant Matrix: (Units=GPa)
#
#
# Indices 1 2 3 4 5 6 
#
# 1 93.8091 18.9167 14.2146 0.0000 0.0000 0.0000
# 2 18.9167 261.6486 48.9107 0.0000 0.0000 0.0000
# 3 14.2146 48.9107 118.4033 0.0000 0.0000 0.0000
# 4 0.0000 0.0000 0.0000 32.9485 0.0000 0.0000
# 5 0.0000 0.0000 0.0000 0.0000 13.9592 0.0000
# 6 0.0000 0.0000 0.0000 0.0000 0.0000 21.7300
#
#
#
# Elastic Compliance Matrix: (Units=1/GPa)
#
#
# Indices 1 2 3 4 5 6 
#
# 1 0.010941 -0.000591 -0.001069 0.000000 0.000000 0.000000
# 2 -0.000591 0.004174 -0.001653 0.000000 0.000000 0.000000
# 3 -0.001069 -0.001653 0.009257 0.000000 0.000000 0.000000
# 4 0.000000 0.000000 0.000000 0.030350 0.000000 0.000000
# 5 0.000000 0.000000 0.000000 0.000000 0.071637 0.000000
# 6 0.000000 0.000000 0.000000 0.000000 0.000000 0.046019
#
#
# Mechanical properties :
#
#
# Convention : Reuss Voigt Hill
#
# Bulk Modulus (GPa) = 56.35495 70.88276 63.61886
# Shear Modulus (GPa) = 27.03861 39.84882 33.44371
#
# Velocity S-wave (km/s) = 3.43134 4.16562 3.81618
# Velocity P-wave (km/s) = 6.34341 7.34866 6.86446
#
# Compressibility (1/GPa) = 0.01774467
#
# Stress axis : x y z
#
# Youngs Moduli (GPa) = 91.39785 239.59670 108.02675
#
# Poissons Ratio (x) = 0.14163 0.11552
# Poissons Ratio (y) = 0.05403 0.17858
# Poissons Ratio (z) = 0.09773 0.39608
#
# Static dielectric constant tensor:
#      x y z
#    x 1.789790 0.000000 0.000000 
#    y 0.000000 2.058280 0.000000 
#    z 0.000000 0.000000 1.861510 
# 
# From -- ./inp_files/22579.got.cif
#   From: 2010.05.17/outbox.cif.g08.bks.cpg/sg56_12_cif.got.tgz:22579.got - 2010.06.03 13:42:01.
