data_PCOD9429360
_publ_section_title
;
Structure prediction by ZEFSAII (Michael W. Deem and Ramdas Pophale) SiO2 
 PCOD9429360
Probable space group: P B A M
;
_chemical_formula_sum "Si O2"
_cell_formula_units_Z 48
_cell_length_a 15.000000
_cell_length_b 15.000000
_cell_length_c 12.000000
_cell_angle_alpha 90.000000
_cell_angle_beta 90.000000
_cell_angle_gamma 90.000000
_cell_volume 2700.000000
_symmetry_space_group_name_H-M "P B A M"
_symmetry_group_IT_number 55
_symmetry_cell_setting 'orthorhombic'
loop_
_space_group_symop_operation_xyz
x,y,z
-x,-y,z
1/2+x,1/2-y,-z
1/2-x,1/2+y,-z
-x,-y,-z
x,y,-z
1/2-x,1/2+y,z
1/2+x,1/2-y,z
loop_
_atom_site_type_symbol
_atom_site_label
_atom_site_fract_x
_atom_site_fract_y
_atom_site_fract_z
Si Si1 0.106301 0.610109 0.624457
Si Si2 0.723401 0.033400 0.259656
Si Si3 0.001559 0.206831 0.124646
Si Si4 0.178188 0.781037 0.261150
Si Si5 0.465417 0.908793 0.174834
Si Si6 0.696189 0.362241 0.865682
O O1 0.071806 0.604408 0.500000
O O2 0.177643 0.530727 0.647171
O O3 0.151320 0.707205 0.645689
O O4 0.026418 0.598519 0.713156
O O5 0.778127 0.123065 0.292630
O O6 0.638273 0.074413 0.195709
O O7 0.774510 0.958409 0.184959
O O8 0.019840 0.313206 0.120302
O O9 0.093372 0.160723 0.163929
O O10 0.914172 0.195088 0.198969
O O11 0.982748 0.174047 0.000000
O O12 0.241984 0.718556 0.182478
O O13 0.500000 0.000000 0.119711
O O14 0.704464 0.363726 0.000000
#
# Coordination Sequence:
#
# PCOD9429360 Si02
#       6
#     8   8   8   8   8   8
#     4   9  20  37  57  84 109 135 184 236 283 336
#     4  10  20  34  55  80 109 145 181 226 274 326
#     4  10  20  34  53  78 113 152 186 223 269 322
#     4  10  20  36  56  78 114 147 183 227 279 325
#     4   9  18  33  55  80 107 140 181 233 284 311
#     4  10  21  35  53  81 114 149 190 228 264 321
#
# _framework density 17.777778000000001
#
# number of rings (size 3 to 8) (size 9 to 14) (size 15 to 20)
#    0.000    2.333    1.667    1.500    0.000    6.667 
#    0.000    1.667    0.000    0.000    0.000    4.667 
#    0.000    0.000    0.000    0.000    0.000    0.000 
#
# Total GULP energy -267257.117697 kJ/mol
# GULP energy per Si atom -5567.856619 kJ/mol
# Density = 1.773731 g / cm^3
# Si number density = 17.777778 Si / 1000 Ang^3
#
#
#
# Elastic Constant Matrix: (Units=GPa)
#
#
# Indices 1 2 3 4 5 6 
#
# 1 95.5794 35.2844 17.6477 0.0000 0.0000 0.0000
# 2 35.2844 119.6723 15.4755 0.0000 0.0000 0.0000
# 3 17.6477 15.4755 68.2419 0.0000 0.0000 0.0000
# 4 0.0000 0.0000 0.0000 3.7946 0.0000 0.0000
# 5 0.0000 0.0000 0.0000 0.0000 6.2036 0.0000
# 6 0.0000 0.0000 0.0000 0.0000 0.0000 44.7389
#
#
#
# Elastic Compliance Matrix: (Units=1/GPa)
#
#
# Indices 1 2 3 4 5 6 
#
# 1 0.012108 -0.003261 -0.002392 0.000000 0.000000 0.000000
# 2 -0.003261 0.009487 -0.001308 0.000000 0.000000 0.000000
# 3 -0.002392 -0.001308 0.015569 0.000000 0.000000 0.000000
# 4 0.000000 0.000000 0.000000 0.263536 0.000000 0.000000
# 5 0.000000 0.000000 0.000000 0.000000 0.161197 0.000000
# 6 0.000000 0.000000 0.000000 0.000000 0.000000 0.022352
#
#
# Mechanical properties :
#
#
# Convention : Reuss Voigt Hill
#
# Bulk Modulus (GPa) = 43.02464 46.70098 44.86281
# Shear Modulus (GPa) = 9.88306 25.28648 17.58477
#
# Velocity S-wave (km/s) = 2.36036 3.77552 3.14848
# Velocity P-wave (km/s) = 5.62870 6.73293 6.20543
#
# Compressibility (1/GPa) = 0.02324250
#
# Stress axis : x y z
#
# Youngs Moduli (GPa) = 82.59139 105.41103 64.23056
#
# Poissons Ratio (x) = 0.34370 0.15362
# Poissons Ratio (y) = 0.26930 0.08402
# Poissons Ratio (z) = 0.19754 0.13789
#
# Static dielectric constant tensor:
#      x y z
#    x 1.610890 0.000000 0.000000 
#    y 0.000000 1.605130 0.000000 
#    z 0.000000 0.000000 1.612720 
# 
# From -- ./inp_files/14119.got.cif
#   From: 2010.05.17/outbox.ucp.g08.bks.cvg/sg55_8_cif.got.tgz:14119.got - 2010.06.11 16:36:00.
