data_PCOD9429768
_publ_section_title
;
Structure prediction by ZEFSAII (Michael W. Deem and Ramdas Pophale) SiO2 
 PCOD9429768
Probable space group: P C C N
;
_chemical_formula_sum "Si O2"
_cell_formula_units_Z 64
_cell_length_a 8.746626
_cell_length_b 14.738037
_cell_length_c 22.936787
_cell_angle_alpha 90.000000
_cell_angle_beta 90.000000
_cell_angle_gamma 90.000000
_cell_volume 2956.737578
_symmetry_space_group_name_H-M "P C C N"
_symmetry_group_IT_number 56
_symmetry_cell_setting 'orthorhombic'
loop_
_space_group_symop_operation_xyz
x,y,z
1/2-x,1/2-y,z
1/2+x,-y,1/2-z
-x,1/2+y,1/2-z
-x,-y,-z
1/2+x,1/2+y,-z
1/2-x,y,1/2+z
x,1/2-y,1/2+z
loop_
_atom_site_type_symbol
_atom_site_label
_atom_site_fract_x
_atom_site_fract_y
_atom_site_fract_z
Si Si1 0.419988 0.791161 0.756822
Si Si2 0.806924 0.062231 0.048012
Si Si3 0.564018 0.234026 0.870102
Si Si4 0.464524 0.651514 0.849120
Si Si5 0.561253 0.409912 0.926199
Si Si6 0.264082 0.526442 0.280268
Si Si7 0.051718 0.032791 0.389012
Si Si8 0.244929 0.036617 0.153103
O O1 0.250000 0.750000 0.754389
O O2 0.489919 0.756321 0.696217
O O3 0.481949 0.746154 0.815772
O O4 0.390001 0.897329 0.763263
O O5 0.851532 0.139902 0.095536
O O6 0.646674 0.013216 0.059293
O O7 0.830655 0.095117 0.982570
O O8 0.931448 0.983267 0.060282
O O9 0.750000 0.250000 0.872565
O O10 0.496465 0.312194 0.910886
O O11 0.513110 0.134760 0.890516
O O12 0.386694 0.580479 0.802650
O O13 0.632674 0.617037 0.864553
O O14 0.654860 0.447884 0.870899
O O15 0.331937 0.471204 0.334029
O O16 0.236275 0.469597 0.222414
O O17 0.908750 0.968015 0.375876
#
# Coordination Sequence:
#
# PCOD9429768 Si02
#       8
#     8   8   8   8   8   8   8   8
#     4   9  16  31  56  83 121 159 204 244 297 364
#     4   9  22  40  58  86 114 159 203 246 314 363
#     4  11  19  35  58  93 117 155 201 253 307 354
#     4   9  19  33  57  81 114 162 197 235 304 374
#     4  10  20  39  63  80 117 158 203 252 303 376
#     4  10  18  33  54  87 120 160 202 251 303 364
#     4  11  22  35  59  90 123 152 207 258 300 365
#     4  11  18  33  56  83 119 157 197 247 308 358
#
# _framework density 21.645479000000002
#
# number of rings (size 3 to 8) (size 9 to 14) (size 15 to 20)
#    0.000    2.000    2.500    3.000    0.000    1.000 
#    0.000    3.750    2.750    0.000    0.000    0.000 
#    0.000    0.000    0.000    0.000    0.000    0.000 
#
# Total GULP energy -357261.441695 kJ/mol
# GULP energy per Si atom -5582.210026 kJ/mol
# Density = 2.159621 g / cm^3
# Si number density = 21.645479 Si / 1000 Ang^3
#
#
#
# Elastic Constant Matrix: (Units=GPa)
#
#
# Indices 1 2 3 4 5 6 
#
# 1 64.0356 6.3494 12.3484 0.0000 0.0000 0.0000
# 2 6.3494 55.5288 30.3702 0.0000 0.0000 0.0000
# 3 12.3484 30.3702 77.2885 0.0000 0.0000 0.0000
# 4 0.0000 0.0000 0.0000 21.2387 0.0000 0.0000
# 5 0.0000 0.0000 0.0000 0.0000 11.3646 0.0000
# 6 0.0000 0.0000 0.0000 0.0000 0.0000 17.4931
#
#
#
# Elastic Compliance Matrix: (Units=1/GPa)
#
#
# Indices 1 2 3 4 5 6 
#
# 1 0.016126 -0.000554 -0.002359 0.000000 0.000000 0.000000
# 2 -0.000554 0.022957 -0.008933 0.000000 0.000000 0.000000
# 3 -0.002359 -0.008933 0.016825 0.000000 0.000000 0.000000
# 4 0.000000 0.000000 0.000000 0.047084 0.000000 0.000000
# 5 0.000000 0.000000 0.000000 0.000000 0.087993 0.000000
# 6 0.000000 0.000000 0.000000 0.000000 0.000000 0.057165
#
#
# Mechanical properties :
#
#
# Convention : Reuss Voigt Hill
#
# Bulk Modulus (GPa) = 31.03802 32.77655 31.90729
# Shear Modulus (GPa) = 17.69406 19.87161 18.78283
#
# Velocity S-wave (km/s) = 2.86221 3.03322 2.94895
# Velocity P-wave (km/s) = 5.02925 5.23856 5.13497
#
# Compressibility (1/GPa) = 0.03221855
#
# Stress axis : x y z
#
# Youngs Moduli (GPa) = 62.01130 43.55879 59.43381
#
# Poissons Ratio (x) = 0.02412 0.14020
# Poissons Ratio (y) = 0.03434 0.53090
# Poissons Ratio (z) = 0.14628 0.38909
#
# Static dielectric constant tensor:
#      x y z
#    x 1.817350 0.000000 0.000000 
#    y 0.000000 1.822710 0.000000 
#    z 0.000000 0.000000 1.811160 
# 
# From -- ./inp_files/20715.got.cif
#   From: 2010.05.17/outbox.cif.g08.bks.cpg/sg56_11_cif.got.tgz:20715.got - 2010.06.03 13:42:01.
