data_PCOD9429576
_publ_section_title
;
Structure prediction by ZEFSAII (Michael W. Deem and Ramdas Pophale) SiO2 
 PCOD9429576
Probable space group: P C C N
;
_chemical_formula_sum "Si O2"
_cell_formula_units_Z 48
_cell_length_a 9.860918
_cell_length_b 26.924657
_cell_length_c 8.445276
_cell_angle_alpha 90.000000
_cell_angle_beta 90.000000
_cell_angle_gamma 90.000000
_cell_volume 2242.236274
_symmetry_space_group_name_H-M "P C C N"
_symmetry_group_IT_number 56
_symmetry_cell_setting 'orthorhombic'
loop_
_space_group_symop_operation_xyz
x,y,z
1/2-x,1/2-y,z
1/2+x,-y,1/2-z
-x,1/2+y,1/2-z
-x,-y,-z
1/2+x,1/2+y,-z
1/2-x,y,1/2+z
x,1/2-y,1/2+z
loop_
_atom_site_type_symbol
_atom_site_label
_atom_site_fract_x
_atom_site_fract_y
_atom_site_fract_z
Si Si1 0.489629 0.682364 0.053380
Si Si2 0.390686 0.517743 0.628098
Si Si3 0.529795 0.731798 0.336867
Si Si4 0.315332 0.185143 0.878335
Si Si5 0.647243 0.519236 0.041655
Si Si6 0.049007 0.399679 0.672609
O O1 0.451811 0.729898 0.948262
O O2 0.463059 0.633791 0.951046
O O3 0.439357 0.695983 0.227917
O O4 0.654232 0.682061 0.088597
O O5 0.500000 0.500000 0.500000
O O6 0.254925 0.520207 0.524606
O O7 0.454596 0.564397 0.721241
O O8 0.352305 0.479236 0.769202
O O9 0.620958 0.697689 0.450764
O O10 0.621256 0.770551 0.232004
O O11 0.369963 0.136081 0.792041
O O12 0.651606 0.569899 0.941834
O O13 0.500000 0.500000 0.000000
#
# Coordination Sequence:
#
# PCOD9429576 Si02
#       6
#     8   8   8   8   8   8
#     4  10  17  27  47  74 119 158 209 247 296 376
#     4  11  24  43  64  85 122 154 206 276 327 392
#     4   9  16  28  44  73 116 173 204 251 308 354
#     4  10  17  28  48  77 122 165 216 253 303 378
#     4  10  22  42  64  86 117 163 210 263 330 380
#     4  10  23  34  53  90 114 163 217 256 317 384
#
# _framework density 21.407198999999999
#
# number of rings (size 3 to 8) (size 9 to 14) (size 15 to 20)
#    0.000    2.000    0.000    7.000    4.667    1.333 
#    0.000    0.000    0.000    0.000    0.000    0.000 
#    0.000  256.000    0.000    0.000    0.000    0.000 
#
# Total GULP energy -267271.196820 kJ/mol
# GULP energy per Si atom -5568.149934 kJ/mol
# Density = 2.135848 g / cm^3
# Si number density = 21.407199 Si / 1000 Ang^3
#
#
#
# Elastic Constant Matrix: (Units=GPa)
#
#
# Indices 1 2 3 4 5 6 
#
# 1 49.1512 17.5060 27.4293 0.0000 0.0000 0.0000
# 2 17.5060 116.2802 58.4830 0.0000 0.0000 0.0000
# 3 27.4293 58.4830 162.0433 0.0000 0.0000 0.0000
# 4 0.0000 0.0000 0.0000 57.2000 0.0000 0.0000
# 5 0.0000 0.0000 0.0000 0.0000 21.7008 0.0000
# 6 0.0000 0.0000 0.0000 0.0000 0.0000 13.8083
#
#
#
# Elastic Compliance Matrix: (Units=1/GPa)
#
#
# Indices 1 2 3 4 5 6 
#
# 1 0.022779 -0.001821 -0.003199 0.000000 0.000000 0.000000
# 2 -0.001821 0.010653 -0.003536 0.000000 0.000000 0.000000
# 3 -0.003199 -0.003536 0.007989 0.000000 0.000000 0.000000
# 4 0.000000 0.000000 0.000000 0.017483 0.000000 0.000000
# 5 0.000000 0.000000 0.000000 0.000000 0.046081 0.000000
# 6 0.000000 0.000000 0.000000 0.000000 0.000000 0.072420
#
#
# Mechanical properties :
#
#
# Convention : Reuss Voigt Hill
#
# Bulk Modulus (GPa) = 41.13708 59.36794 50.25251
# Shear Modulus (GPa) = 24.67687 33.47892 29.07789
#
# Velocity S-wave (km/s) = 3.39888 3.95892 3.68954
# Velocity P-wave (km/s) = 5.88739 6.97784 6.45568
#
# Compressibility (1/GPa) = 0.02430897
#
# Stress axis : x y z
#
# Youngs Moduli (GPa) = 43.90028 93.87316 125.17198
#
# Poissons Ratio (x) = 0.17090 0.40040
# Poissons Ratio (y) = 0.07992 0.44267
# Poissons Ratio (z) = 0.14043 0.33198
#
# Static dielectric constant tensor:
#      x y z
#    x 1.764480 0.000000 0.000000 
#    y 0.000000 1.870130 0.000000 
#    z 0.000000 0.000000 1.898560 
# 
# From -- ./inp_files/2842.got.cif
#   From: 2010.05.17/outbox.cif.g08.bks.cpg/sg56_2_cif.got.tgz:2842.got - 2010.06.03 13:42:01.
