data_PCOD9429812
_publ_section_title
;
Structure prediction by ZEFSAII (Michael W. Deem and Ramdas Pophale) SiO2 
 PCOD9429812
Probable space group: P C C N
;
_chemical_formula_sum "Si O2"
_cell_formula_units_Z 64
_cell_length_a 20.235091
_cell_length_b 7.939206
_cell_length_c 17.329207
_cell_angle_alpha 90.000000
_cell_angle_beta 90.000000
_cell_angle_gamma 90.000000
_cell_volume 2783.946737
_symmetry_space_group_name_H-M "P C C N"
_symmetry_group_IT_number 56
_symmetry_cell_setting 'orthorhombic'
loop_
_space_group_symop_operation_xyz
x,y,z
1/2-x,1/2-y,z
1/2+x,-y,1/2-z
-x,1/2+y,1/2-z
-x,-y,-z
1/2+x,1/2+y,-z
1/2-x,y,1/2+z
x,1/2-y,1/2+z
loop_
_atom_site_type_symbol
_atom_site_label
_atom_site_fract_x
_atom_site_fract_y
_atom_site_fract_z
Si Si1 0.811844 0.976815 0.580927
Si Si2 0.187229 0.354245 0.071474
Si Si3 0.598754 0.955085 0.455775
Si Si4 0.327154 0.791299 0.652494
Si Si5 0.904210 0.109875 0.706787
Si Si6 0.336823 0.076719 0.387529
Si Si7 0.127712 0.451367 0.210416
Si Si8 0.023599 0.345008 0.685547
O O1 0.817964 0.005037 0.488782
O O2 0.735224 0.008680 0.601173
O O3 0.825856 0.778831 0.601500
O O4 0.868825 0.072426 0.626399
O O5 0.250000 0.250000 0.045340
O O6 0.126440 0.232905 0.055192
O O7 0.190618 0.381151 0.162203
O O8 0.610129 0.980711 0.547247
O O9 0.536280 0.942262 0.396480
O O10 0.647234 0.087360 0.414178
O O11 0.250000 0.750000 0.645533
O O12 0.342803 0.881485 0.733757
O O13 0.374738 0.628619 0.664877
O O14 0.950586 0.273222 0.697901
O O15 0.950655 0.966935 0.746011
O O16 0.358324 0.044024 0.300248
O O17 0.069010 0.322283 0.193778
#
# Coordination Sequence:
#
# PCOD9429812 Si02
#       8
#     8   8   8   8   8   8   8   8
#     4  10  19  35  62  98 130 171 221 282 334 403
#     4  10  18  34  60  90 126 166 216 270 334 398
#     4   9  20  39  60  91 133 175 217 271 341 402
#     4  11  23  38  60  94 134 174 220 277 348 404
#     4  11  22  42  66  98 136 178 233 278 334 405
#     4  10  19  37  63  98 132 171 222 279 344 405
#     4  11  22  36  62  94 122 175 225 268 338 396
#     4  10  22  40  70  95 132 184 222 280 326 406
#
# _framework density 22.988945999999999
#
# number of rings (size 3 to 8) (size 9 to 14) (size 15 to 20)
#    0.000    1.750    3.750    2.250    1.750    0.000 
#    2.250    6.250    0.000    2.250    0.000    0.000 
#    0.000    0.000    0.000    0.000    0.000    0.000 
#
# Total GULP energy -356633.198022 kJ/mol
# GULP energy per Si atom -5572.393719 kJ/mol
# Density = 2.293662 g / cm^3
# Si number density = 22.988946 Si / 1000 Ang^3
#
#
#
# Elastic Constant Matrix: (Units=GPa)
#
#
# Indices 1 2 3 4 5 6 
#
# 1 114.9723 36.6980 60.0718 0.0000 0.0000 0.0000
# 2 36.6980 44.3011 24.7016 0.0000 0.0000 0.0000
# 3 60.0718 24.7016 195.6504 0.0000 0.0000 0.0000
# 4 0.0000 0.0000 0.0000 -105.5121 0.0000 0.0000
# 5 0.0000 0.0000 0.0000 0.0000 8.9565 0.0000
# 6 0.0000 0.0000 0.0000 0.0000 0.0000 39.7628
#
#
#
# Elastic Compliance Matrix: (Units=1/GPa)
#
#
# Indices 1 2 3 4 5 6 
#
# 1 0.013167 -0.009308 -0.002868 0.000000 0.000000 0.000000
# 2 -0.009308 0.030863 -0.001039 0.000000 0.000000 0.000000
# 3 -0.002868 -0.001039 0.006123 0.000000 0.000000 0.000000
# 4 0.000000 0.000000 0.000000 -0.009478 0.000000 0.000000
# 5 0.000000 0.000000 0.000000 0.000000 0.111650 0.000000
# 6 0.000000 0.000000 0.000000 0.000000 0.000000 0.025149
#
#
# Mechanical properties :
#
#
# Convention : Reuss Voigt Hill
#
# Bulk Modulus (GPa) = 42.15214 66.42963 54.29089
# Shear Modulus (GPa) = 23.60591 4.20494 13.90543
#
# Velocity S-wave (km/s) = 3.20791 1.35392 2.46209
# Velocity P-wave (km/s) = 5.66538 5.60385 5.63470
#
# Compressibility (1/GPa) = 0.02372359
#
# Stress axis : x y z
#
# Youngs Moduli (GPa) = 75.94631 32.40147 163.32604
#
# Poissons Ratio (x) = 0.30161 0.46835
# Poissons Ratio (y) = 0.70694 0.16962
# Poissons Ratio (z) = 0.21778 0.03365
#
# Static dielectric constant tensor:
#      x y z
#    x 1.869650 0.000000 0.000000 
#    y 0.000000 2.033880 0.000000 
#    z 0.000000 0.000000 1.906490 
# 
# From -- ./inp_files/16867.got.cif
#   From: 2010.05.17/outbox.cif.g08.bks.cpg/sg56_9_cif.got.tgz:16867.got - 2010.06.03 13:42:01.
