data_PCOD9429179
_publ_section_title
;
Structure prediction by ZEFSAII (Michael W. Deem and Ramdas Pophale) SiO2 
 PCOD9429179
Probable space group: P B A M
;
_chemical_formula_sum "Si O2"
_cell_formula_units_Z 18
_cell_length_a 10.169935
_cell_length_b 8.772886
_cell_length_c 7.763227
_cell_angle_alpha 90.000000
_cell_angle_beta 90.000000
_cell_angle_gamma 90.000000
_cell_volume 692.632632
_symmetry_space_group_name_H-M "P B A M"
_symmetry_group_IT_number 55
_symmetry_cell_setting 'orthorhombic'
loop_
_space_group_symop_operation_xyz
x,y,z
-x,-y,z
1/2+x,1/2-y,-z
1/2-x,1/2+y,-z
-x,-y,-z
x,y,-z
1/2-x,1/2+y,z
1/2+x,1/2-y,z
loop_
_atom_site_type_symbol
_atom_site_label
_atom_site_fract_x
_atom_site_fract_y
_atom_site_fract_z
Si Si1 0.829543 0.605118 0.689574
Si Si2 0.000000 0.500000 0.000000
Si Si3 0.540769 0.675542 0.193947
O O1 0.824380 0.532771 0.500000
O O2 0.688416 0.672223 0.739986
O O3 0.883685 0.502737 0.843806
O O4 0.935474 0.741090 0.689491
O O5 0.500000 0.500000 0.179697
O O6 0.523995 0.749872 0.000000
#
# Coordination Sequence:
#
# PCOD9429179 Si02
#       3
#     8   2   8
#     4  12  27  46  75 108 143 191 244 297 360 429
#     4  12  26  48  72 102 146 190 238 302 354 430
#     4  11  25  48  75 105 148 191 239 299 362 427
#
# _framework density 25.987801999999999
#
# number of rings (size 3 to 8) (size 9 to 14) (size 15 to 20)
#    0.000    0.444    4.444    2.000    6.222    3.556 
#    0.000    0.000    0.000    0.000    0.000    0.000 
#    0.000    0.000    0.000    0.000    0.000    0.000 
#
# Total GULP energy -100604.861883 kJ/mol
# GULP energy per Si atom -5589.158993 kJ/mol
# Density = 2.592865 g / cm^3
# Si number density = 25.987802 Si / 1000 Ang^3
#
#
#
# Elastic Constant Matrix: (Units=GPa)
#
#
# Indices 1 2 3 4 5 6 
#
# 1 253.8061 32.0710 73.8665 0.0000 0.0000 0.0000
# 2 32.0710 60.1148 35.7534 0.0000 0.0000 0.0000
# 3 73.8665 35.7534 268.7437 0.0000 0.0000 0.0000
# 4 0.0000 0.0000 0.0000 16.7172 0.0000 0.0000
# 5 0.0000 0.0000 0.0000 0.0000 55.3563 0.0000
# 6 0.0000 0.0000 0.0000 0.0000 0.0000 53.6680
#
#
#
# Elastic Compliance Matrix: (Units=1/GPa)
#
#
# Indices 1 2 3 4 5 6 
#
# 1 0.004453 -0.001789 -0.000986 0.000000 0.000000 0.000000
# 2 -0.001789 0.018783 -0.002007 0.000000 0.000000 0.000000
# 3 -0.000986 -0.002007 0.004259 0.000000 0.000000 0.000000
# 4 0.000000 0.000000 0.000000 0.059819 0.000000 0.000000
# 5 0.000000 0.000000 0.000000 0.000000 0.018065 0.000000
# 6 0.000000 0.000000 0.000000 0.000000 0.000000 0.018633
#
#
# Mechanical properties :
#
#
# Convention : Reuss Voigt Hill
#
# Bulk Modulus (GPa) = 55.77058 96.22738 75.99898
# Shear Modulus (GPa) = 35.82866 54.54654 45.18760
#
# Velocity S-wave (km/s) = 3.71708 4.58638 4.17442
# Velocity P-wave (km/s) = 6.31895 8.07185 7.24858
#
# Compressibility (1/GPa) = 0.01793060
#
# Stress axis : x y z
#
# Youngs Moduli (GPa) = 224.56535 53.23926 234.79562
#
# Poissons Ratio (x) = 0.09526 0.23149
# Poissons Ratio (y) = 0.40182 0.47125
# Poissons Ratio (z) = 0.22140 0.10686
#
# Static dielectric constant tensor:
#      x y z
#    x 1.913950 0.000000 0.000000 
#    y 0.000000 1.386230 0.000000 
#    z 0.000000 0.000000 1.998690 
# 
# From -- ./inp_files/1488.got.cif
#   From: 2010.05.17/outbox.cif.g08.bks.cpg/sg55_1_cif.got.tgz:1488.got - 2010.06.03 13:27:54.
