data_PCOD9429546
_publ_section_title
;
Structure prediction by ZEFSAII (Michael W. Deem and Ramdas Pophale) SiO2 
 PCOD9429546
Probable space group: P C C N
;
_chemical_formula_sum "Si O2"
_cell_formula_units_Z 52
_cell_length_a 14.851933
_cell_length_b 9.283753
_cell_length_c 17.011351
_cell_angle_alpha 90.000000
_cell_angle_beta 90.000000
_cell_angle_gamma 90.000000
_cell_volume 2345.553613
_symmetry_space_group_name_H-M "P C C N"
_symmetry_group_IT_number 56
_symmetry_cell_setting 'orthorhombic'
loop_
_space_group_symop_operation_xyz
x,y,z
1/2-x,1/2-y,z
1/2+x,-y,1/2-z
-x,1/2+y,1/2-z
-x,-y,-z
1/2+x,1/2+y,-z
1/2-x,y,1/2+z
x,1/2-y,1/2+z
loop_
_atom_site_type_symbol
_atom_site_label
_atom_site_fract_x
_atom_site_fract_y
_atom_site_fract_z
Si Si1 0.399139 0.126848 0.138121
Si Si2 0.974956 0.316582 0.864792
Si Si3 0.250000 0.250000 0.517968
Si Si4 0.837916 0.672179 0.219598
Si Si5 0.981697 0.300642 0.542135
Si Si6 0.351045 0.992389 0.515496
Si Si7 0.820479 0.376678 0.315503
O O1 0.326894 0.177818 0.072661
O O2 0.369770 0.213547 0.214166
O O3 0.412594 0.957476 0.144987
O O4 0.494659 0.186742 0.107656
O O5 0.075555 0.344680 0.835422
O O6 0.982578 0.270946 0.955979
O O7 0.921369 0.190735 0.818662
O O8 0.207121 0.384785 0.475538
O O9 0.750000 0.750000 0.185064
O O10 0.815887 0.519464 0.262024
O O11 0.059319 0.423539 0.546865
O O12 0.885518 0.375910 0.545622
O O13 0.305849 0.925759 0.593031
O O14 0.750000 0.250000 0.295342
#
# Coordination Sequence:
#
# PCOD9429546 Si02
#       7
#     8   8   4   8   8   8   8
#     4  11  20  40  65  90 121 166 213 260 308 383
#     4  11  24  37  62  97 125 163 208 265 326 377
#     4  10  16  32  62  86 118 158 202 256 302 366
#     4  12  23  42  61  88 126 171 211 263 317 380
#     4   9  19  36  60  87 123 156 201 260 315 376
#     4   9  17  33  57  90 117 152 199 254 309 360
#     4  11  21  37  65  95 120 159 220 265 305 380
#
# _framework density 22.169606000000002
#
# number of rings (size 3 to 8) (size 9 to 14) (size 15 to 20)
#    0.000    1.538    3.846    3.231    0.000    0.000 
#    5.538    0.000    0.000    0.000    0.000    0.000 
#    0.000    0.000    0.000    0.000    0.000    0.000 
#
# Total GULP energy -290358.027799 kJ/mol
# GULP energy per Si atom -5583.808227 kJ/mol
# Density = 2.211915 g / cm^3
# Si number density = 22.169606 Si / 1000 Ang^3
#
#
#
# Elastic Constant Matrix: (Units=GPa)
#
#
# Indices 1 2 3 4 5 6 
#
# 1 104.9916 58.1560 26.5218 0.0000 0.0000 0.0000
# 2 58.1560 142.7065 30.3647 0.0000 0.0000 0.0000
# 3 26.5218 30.3647 40.1408 0.0000 0.0000 0.0000
# 4 0.0000 0.0000 0.0000 3.9696 0.0000 0.0000
# 5 0.0000 0.0000 0.0000 0.0000 6.2300 0.0000
# 6 0.0000 0.0000 0.0000 0.0000 0.0000 60.2776
#
#
#
# Elastic Compliance Matrix: (Units=1/GPa)
#
#
# Indices 1 2 3 4 5 6 
#
# 1 0.013272 -0.004222 -0.005575 0.000000 0.000000 0.000000
# 2 -0.004222 0.009695 -0.004544 0.000000 0.000000 0.000000
# 3 -0.005575 -0.004544 0.032033 0.000000 0.000000 0.000000
# 4 0.000000 0.000000 0.000000 0.251913 0.000000 0.000000
# 5 0.000000 0.000000 0.000000 0.000000 0.160514 0.000000
# 6 0.000000 0.000000 0.000000 0.000000 0.000000 0.016590
#
#
# Mechanical properties :
#
#
# Convention : Reuss Voigt Hill
#
# Bulk Modulus (GPa) = 37.99785 57.54712 47.77248
# Shear Modulus (GPa) = 9.58826 25.61521 17.60174
#
# Velocity S-wave (km/s) = 2.08191 3.40283 2.82078
# Velocity P-wave (km/s) = 4.79124 6.43841 5.67490
#
# Compressibility (1/GPa) = 0.02631728
#
# Stress axis : x y z
#
# Youngs Moduli (GPa) = 75.34897 103.14673 31.21775
#
# Poissons Ratio (x) = 0.43551 0.17403
# Poissons Ratio (y) = 0.31814 0.14185
# Poissons Ratio (z) = 0.42006 0.46870
#
# Static dielectric constant tensor:
#      x y z
#    x 1.887360 0.000000 0.000000 
#    y 0.000000 1.890670 0.000000 
#    z 0.000000 0.000000 1.788850 
# 
# From -- ./inp_files/19059.got.cif
#   From: 2010.05.17/outbox.cif.g08.bks.cpg/sg56_10_cif.got.tgz:19059.got - 2010.06.03 13:42:01.
