data_PCOD9429705
_publ_section_title
;
Structure prediction by ZEFSAII (Michael W. Deem and Ramdas Pophale) SiO2 
 PCOD9429705
Probable space group: P C C N
;
_chemical_formula_sum "Si O2"
_cell_formula_units_Z 64
_cell_length_a 22.175901
_cell_length_b 20.217981
_cell_length_c 5.737618
_cell_angle_alpha 90.000000
_cell_angle_beta 90.000000
_cell_angle_gamma 90.000000
_cell_volume 2572.472190
_symmetry_space_group_name_H-M "P C C N"
_symmetry_group_IT_number 56
_symmetry_cell_setting 'orthorhombic'
loop_
_space_group_symop_operation_xyz
x,y,z
1/2-x,1/2-y,z
1/2+x,-y,1/2-z
-x,1/2+y,1/2-z
-x,-y,-z
1/2+x,1/2+y,-z
1/2-x,y,1/2+z
x,1/2-y,1/2+z
loop_
_atom_site_type_symbol
_atom_site_label
_atom_site_fract_x
_atom_site_fract_y
_atom_site_fract_z
Si Si1 0.517993 0.100398 0.928620
Si Si2 0.591247 0.332713 0.040809
Si Si3 0.596923 0.592706 0.891120
Si Si4 0.720212 0.335115 0.085427
Si Si5 0.737787 0.485252 0.560622
Si Si6 0.390181 0.956756 0.764711
Si Si7 0.528486 0.803931 0.698537
Si Si8 0.352043 0.277673 0.249925
O O1 0.499777 0.164452 0.073971
O O2 0.546819 0.046454 0.097398
O O3 0.569915 0.121627 0.751840
O O4 0.458731 0.085516 0.784193
O O5 0.654449 0.300842 0.103938
O O6 0.610442 0.383684 0.839776
O O7 0.530678 0.294620 0.964173
O O8 0.614323 0.516442 0.923157
O O9 0.645533 0.643008 0.778298
O O10 0.569752 0.634823 0.102864
O O11 0.752574 0.319435 0.330758
O O12 0.723881 0.416535 0.075915
O O13 0.749368 0.519180 0.311364
O O14 0.667118 0.467421 0.571923
O O15 0.577212 0.746827 0.746854
O O16 0.328074 0.253643 0.503981
#
# Coordination Sequence:
#
# PCOD9429705 Si02
#       8
#     8   8   8   8   8   8   8   8
#     4  10  19  33  48  75 109 150 178 218 271 325
#     4  10  20  31  50  75 110 148 187 218 272 336
#     4  10  21  34  50  77 107 149 184 224 276 324
#     4  10  18  31  50  72 104 147 180 222 267 318
#     4  10  19  34  50  72 104 151 179 222 267 314
#     4  11  21  31  50  77 114 147 186 217 271 344
#     4   9  20  34  51  73 104 143 183 233 270 319
#     4  10  19  38  57  72 102 139 182 232 265 309
#
# _framework density 24.878793000000002
#
# number of rings (size 3 to 8) (size 9 to 14) (size 15 to 20)
#    0.000    2.000    3.750    1.875    1.750    5.500 
#    0.000    0.000    0.000    0.000    0.000    0.000 
#    0.000   54.000    0.000    0.000    0.000    0.000 
#
# Total GULP energy -357002.476894 kJ/mol
# GULP energy per Si atom -5578.163701 kJ/mol
# Density = 2.482217 g / cm^3
# Si number density = 24.878793 Si / 1000 Ang^3
#
#
#
# Elastic Constant Matrix: (Units=GPa)
#
#
# Indices 1 2 3 4 5 6 
#
# 1 71.6541 -6.6454 28.5376 0.0000 0.0000 0.0000
# 2 -6.6454 75.8753 -16.1328 0.0000 0.0000 0.0000
# 3 28.5376 -16.1328 145.4192 0.0000 0.0000 0.0000
# 4 0.0000 0.0000 0.0000 91.5843 0.0000 0.0000
# 5 0.0000 0.0000 0.0000 0.0000 63.4351 0.0000
# 6 0.0000 0.0000 0.0000 0.0000 0.0000 16.2981
#
#
#
# Elastic Compliance Matrix: (Units=1/GPa)
#
#
# Indices 1 2 3 4 5 6 
#
# 1 0.015177 0.000713 -0.002899 0.000000 0.000000 0.000000
# 2 0.000713 0.013531 0.001361 0.000000 0.000000 0.000000
# 3 -0.002899 0.001361 0.007597 0.000000 0.000000 0.000000
# 4 0.000000 0.000000 0.000000 0.010919 0.000000 0.000000
# 5 0.000000 0.000000 0.000000 0.000000 0.015764 0.000000
# 6 0.000000 0.000000 0.000000 0.000000 0.000000 0.061357
#
#
# Mechanical properties :
#
#
# Convention : Reuss Voigt Hill
#
# Bulk Modulus (GPa) = 28.85637 33.82971 31.34304
# Shear Modulus (GPa) = 36.35134 53.40944 44.88039
#
# Velocity S-wave (km/s) = 3.82663 4.63837 4.25191
# Velocity P-wave (km/s) = 5.58105 6.50487 6.06058
#
# Compressibility (1/GPa) = 0.03465440
#
# Stress axis : x y z
#
# Youngs Moduli (GPa) = 65.89032 73.90224 131.63690
#
# Poissons Ratio (x) = -0.05268 0.38165
# Poissons Ratio (y) = -0.04697 -0.17920
# Poissons Ratio (z) = 0.19103 -0.10060
#
# Static dielectric constant tensor:
#      x y z
#    x 2.036500 0.000000 0.000000 
#    y 0.000000 2.103390 0.000000 
#    z 0.000000 0.000000 2.100230 
# 
# From -- ./inp_files/1288.got.cif
#   From: 2010.05.17/outbox.cif.g08.bks.cpg/sg56_1_cif.got.tgz:1288.got - 2010.06.03 13:42:01.
