data_PCOD9429527
_publ_section_title
;
Structure prediction by ZEFSAII (Michael W. Deem and Ramdas Pophale) SiO2 
 PCOD9429527
Probable space group: P C C N
;
_chemical_formula_sum "Si O2"
_cell_formula_units_Z 32
_cell_length_a 36.429113
_cell_length_b 6.462241
_cell_length_c 5.084854
_cell_angle_alpha 90.000000
_cell_angle_beta 90.000000
_cell_angle_gamma 90.000000
_cell_volume 1197.044333
_symmetry_space_group_name_H-M "P C C N"
_symmetry_group_IT_number 56
_symmetry_cell_setting 'orthorhombic'
loop_
_space_group_symop_operation_xyz
x,y,z
1/2-x,1/2-y,z
1/2+x,-y,1/2-z
-x,1/2+y,1/2-z
-x,-y,-z
1/2+x,1/2+y,-z
1/2-x,y,1/2+z
x,1/2-y,1/2+z
loop_
_atom_site_type_symbol
_atom_site_label
_atom_site_fract_x
_atom_site_fract_y
_atom_site_fract_z
Si Si1 0.989007 0.114578 0.769945
Si Si2 0.235095 0.982669 0.053695
Si Si3 0.080900 0.115300 0.137534
Si Si4 0.345078 0.889059 0.734236
O O1 0.998137 0.158892 0.091078
O O2 0.073013 0.201104 0.846258
O O3 0.000000 0.000000 0.500000
O O4 0.944755 0.078698 0.792710
O O5 0.250000 0.750000 0.997929
O O6 0.235231 0.068637 0.759328
O O7 0.195121 0.980080 0.178465
O O8 0.122778 0.048583 0.171851
O O9 0.348440 0.801086 0.027941
#
# Coordination Sequence:
#
# PCOD9429527 Si02
#       4
#     8   8   8   8
#     4  12  24  44  71 101 131 167 212 256 307 369
#     4  10  16  30  52  89 110 144 197 265 309 364
#     4  12  26  44  61  90 133 173 208 255 316 371
#     4  12  21  36  63  91 117 155 214 266 310 371
#
# _framework density 26.732512
#
# number of rings (size 3 to 8) (size 9 to 14) (size 15 to 20)
#    0.000    0.500    5.000    6.750    0.000    0.000 
#    0.000    0.000    0.000    4.500    0.000    0.000 
#    0.000    0.000    0.000    0.000    0.000    0.000 
#
# Total GULP energy -178573.934934 kJ/mol
# GULP energy per Si atom -5580.435467 kJ/mol
# Density = 2.667167 g / cm^3
# Si number density = 26.732512 Si / 1000 Ang^3
#
#
#
# Elastic Constant Matrix: (Units=GPa)
#
#
# Indices 1 2 3 4 5 6 
#
# 1 134.6393 12.7534 24.1891 0.0000 0.0000 0.0000
# 2 12.7534 85.8686 44.1122 0.0000 0.0000 0.0000
# 3 24.1891 44.1122 234.4586 0.0000 0.0000 0.0000
# 4 0.0000 0.0000 0.0000 -6.2782 0.0000 0.0000
# 5 0.0000 0.0000 0.0000 0.0000 34.6063 0.0000
# 6 0.0000 0.0000 0.0000 0.0000 0.0000 53.4659
#
#
#
# Elastic Compliance Matrix: (Units=1/GPa)
#
#
# Indices 1 2 3 4 5 6 
#
# 1 0.007618 -0.000805 -0.000634 0.000000 0.000000 0.000000
# 2 -0.000805 0.012977 -0.002358 0.000000 0.000000 0.000000
# 3 -0.000634 -0.002358 0.004774 0.000000 0.000000 0.000000
# 4 0.000000 0.000000 0.000000 -0.159282 0.000000 0.000000
# 5 0.000000 0.000000 0.000000 0.000000 0.028896 0.000000
# 6 0.000000 0.000000 0.000000 0.000000 0.000000 0.018704
#
#
# Mechanical properties :
#
#
# Convention : Reuss Voigt Hill
#
# Bulk Modulus (GPa) = 56.26773 68.56400 62.41586
# Shear Modulus (GPa) = -68.68868 41.28626 -13.70121
#
# Velocity S-wave (km/s) = -5.07450 3.93418 -2.26637
# Velocity P-wave (km/s) = 3.63868 6.80741 4.06822
#
# Compressibility (1/GPa) = 0.01777218
#
# Stress axis : x y z
#
# Youngs Moduli (GPa) = 131.27632 77.06001 209.45399
#
# Poissons Ratio (x) = 0.06207 0.13287
# Poissons Ratio (y) = 0.10574 0.49398
# Poissons Ratio (z) = 0.08328 0.18174
#
# Static dielectric constant tensor:
#      x y z
#    x 1.996380 0.000000 0.000000 
#    y 0.000000 -27.307070 0.000000 
#    z 0.000000 0.000000 2.046330 
# 
# From -- ./inp_files/1308.got.cif
#   From: 2010.05.17/outbox.cif.g08.bks.cpg/sg56_1_cif.got.tgz:1308.got - 2010.06.03 13:42:01.
