data_PCOD9429338
_publ_section_title
;
Structure prediction by ZEFSAII (Michael W. Deem and Ramdas Pophale) SiO2 
 PCOD9429338
Probable space group: P B A M
;
_chemical_formula_sum "Si O2"
_cell_formula_units_Z 48
_cell_length_a 15.000000
_cell_length_b 18.000000
_cell_length_c 9.000000
_cell_angle_alpha 90.000000
_cell_angle_beta 90.000000
_cell_angle_gamma 90.000000
_cell_volume 2430.000000
_symmetry_space_group_name_H-M "P B A M"
_symmetry_group_IT_number 55
_symmetry_cell_setting 'orthorhombic'
loop_
_space_group_symop_operation_xyz
x,y,z
-x,-y,z
1/2+x,1/2-y,-z
1/2-x,1/2+y,-z
-x,-y,-z
x,y,-z
1/2-x,1/2+y,z
1/2+x,1/2-y,z
loop_
_atom_site_type_symbol
_atom_site_label
_atom_site_fract_x
_atom_site_fract_y
_atom_site_fract_z
Si Si1 0.728506 0.498915 0.322877
Si Si2 0.404305 0.022528 0.824856
Si Si3 0.052099 0.922405 0.670608
Si Si4 0.604571 0.823450 0.329636
Si Si5 0.303583 0.675148 0.671809
Si Si6 0.972717 0.785197 0.172306
O O1 0.738125 0.499699 0.500000
O O2 0.821453 0.518044 0.248710
O O3 0.651332 0.555735 0.282679
O O4 0.702662 0.412923 0.287653
O O5 0.394825 0.108035 0.781933
O O6 0.500000 0.000000 0.764524
O O7 0.402036 0.011032 0.000000
O O8 0.052004 0.892784 0.500000
O O9 0.006452 0.866951 0.783398
O O10 0.000000 0.000000 0.665528
O O11 0.591398 0.848744 0.500000
O O12 0.704588 0.791708 0.323295
O O13 0.529927 0.768082 0.276306
O O14 0.335431 0.677951 0.500000
O O15 0.370249 0.716265 0.779872
O O16 0.985783 0.768567 0.000000
#
# Coordination Sequence:
#
# PCOD9429338 Si02
#       6
#     8   8   8   8   8   8
#     4   9  18  34  59  85 109 147 193 235 274 327
#     4  10  21  38  60  86 118 151 183 232 295 345
#     4  10  19  36  59  83 115 152 192 233 275 332
#     4  10  22  41  63  83 109 151 200 239 276 336
#     4   9  18  37  61  82 106 146 193 232 278 335
#     4  12  24  36  56  87 121 152 184 234 296 347
#
# _framework density 19.753086
#
# number of rings (size 3 to 8) (size 9 to 14) (size 15 to 20)
#    0.000    2.000    1.667    3.500    0.000    5.667 
#    3.000    0.000    0.000    0.000    0.000    0.000 
#    0.000    0.000    0.000    0.000    0.000    0.000 
#
# Total GULP energy -267691.714704 kJ/mol
# GULP energy per Si atom -5576.910723 kJ/mol
# Density = 1.970813 g / cm^3
# Si number density = 19.753086 Si / 1000 Ang^3
#
#
#
# Elastic Constant Matrix: (Units=GPa)
#
#
# Indices 1 2 3 4 5 6 
#
# 1 117.0815 4.1418 14.8817 0.0000 0.0000 0.0000
# 2 4.1418 -12.0431 -19.6666 0.0000 0.0000 0.0000
# 3 14.8817 -19.6666 -32.3197 0.0000 0.0000 0.0000
# 4 0.0000 0.0000 0.0000 18.7340 0.0000 0.0000
# 5 0.0000 0.0000 0.0000 0.0000 19.2251 0.0000
# 6 0.0000 0.0000 0.0000 0.0000 0.0000 21.3823
#
#
#
# Elastic Compliance Matrix: (Units=1/GPa)
#
#
# Indices 1 2 3 4 5 6 
#
# 1 0.002262 -0.146453 0.090159 0.000000 0.000000 0.000000
# 2 -0.146453 -3.693760 2.180230 0.000000 0.000000 0.000000
# 3 0.090159 2.180230 -1.316104 0.000000 0.000000 0.000000
# 4 0.000000 0.000000 0.000000 0.053379 0.000000 0.000000
# 5 0.000000 0.000000 0.000000 0.000000 0.052015 0.000000
# 6 0.000000 0.000000 0.000000 0.000000 0.000000 0.046768
#
#
# Mechanical properties :
#
#
# Convention : Reuss Voigt Hill
#
# Bulk Modulus (GPa) = -1.31626 7.93694 3.31034
# Shear Modulus (GPa) = -0.53438 16.75908 8.11235
#
# Velocity S-wave (km/s) = -0.52069 2.91594 2.02874
# Velocity P-wave (km/s) = 1.01454 3.91966 2.67717
#
# Compressibility (1/GPa) = -0.75973046
#
# Stress axis : x y z
#
# Youngs Moduli (GPa) = 442.05376 -0.27073 -0.75982
#
# Poissons Ratio (x) = -0.03965 0.06850
# Poissons Ratio (y) = 64.73996 1.65658
# Poissons Ratio (z) = -39.85492 0.59025
#
# Static dielectric constant tensor:
#      x y z
#    x 1.740820 0.000000 0.000000 
#    y 0.000000 1.720560 0.000000 
#    z 0.000000 0.000000 1.656130 
# 
# From -- ./inp_files/5681.got.cif
#   From: 2010.05.17/outbox.ucp.g08.bks.cvg/sg55_3_cif.got.tgz:5681.got - 2010.06.11 16:36:00.
