data_PCOD9429008
_publ_section_title
;
Structure prediction by ZEFSAII (Michael W. Deem and Ramdas Pophale) SiO2 
 PCOD9429008
Probable space group: P B A M
;
_chemical_formula_sum "Si O2"
_cell_formula_units_Z 64
_cell_length_a 19.024178
_cell_length_b 9.943828
_cell_length_c 17.097103
_cell_angle_alpha 90.000000
_cell_angle_beta 90.000000
_cell_angle_gamma 90.000000
_cell_volume 3234.312897
_symmetry_space_group_name_H-M "P B A M"
_symmetry_group_IT_number 55
_symmetry_cell_setting 'orthorhombic'
loop_
_space_group_symop_operation_xyz
x,y,z
-x,-y,z
1/2+x,1/2-y,-z
1/2-x,1/2+y,-z
-x,-y,-z
x,y,-z
1/2-x,1/2+y,z
1/2+x,1/2-y,z
loop_
_atom_site_type_symbol
_atom_site_label
_atom_site_fract_x
_atom_site_fract_y
_atom_site_fract_z
Si Si1 0.408104 0.744168 0.271037
Si Si2 0.259738 0.489045 0.410730
Si Si3 0.813090 0.141891 0.847490
Si Si4 0.576046 0.480662 0.619764
Si Si5 0.423585 0.026806 0.794183
Si Si6 0.255684 0.740575 0.305237
Si Si7 0.053207 0.829756 0.770733
Si Si8 0.294802 0.068590 0.909386
O O1 0.422654 0.675336 0.354133
O O2 0.413188 0.903929 0.265060
O O3 0.327220 0.708391 0.257788
O O4 0.469038 0.679778 0.216979
O O5 0.236047 0.510365 0.500000
O O6 0.345983 0.489507 0.412071
O O7 0.235018 0.604408 0.349824
O O8 0.234064 0.349020 0.374087
O O9 0.792487 0.187041 0.758977
O O10 0.897235 0.127112 0.842212
O O11 0.790993 0.270516 0.898859
O O12 0.771449 0.011790 0.874895
O O13 0.500000 0.500000 0.580179
O O14 0.569180 0.574803 0.697321
O O15 0.500000 0.000000 0.831794
O O16 0.427033 0.173261 0.755142
O O17 0.361392 0.025529 0.856680
O O18 0.303758 0.035015 0.000000
#
# Coordination Sequence:
#
# PCOD9429008 Si02
#       8
#     8   8   8   8   8   8   8   8
#     4   9  18  32  53  82 107 135 182 234 274 317
#     4  11  23  36  53  82 115 145 178 227 283 331
#     4  11  21  36  59  81 108 144 189 229 270 328
#     4   9  18  33  53  78 107 140 179 224 272 327
#     4   9  18  33  53  78 107 140 179 224 272 327
#     4  11  21  36  59  81 108 144 189 229 270 328
#     4   9  18  32  53  82 107 135 182 234 274 317
#     4  11  23  36  53  82 115 145 178 227 283 331
#
# _framework density 19.787818000000001
#
# number of rings (size 3 to 8) (size 9 to 14) (size 15 to 20)
#    0.000    2.000    2.500    1.500    3.500    0.500 
#    0.000    0.000    0.000    0.000    0.000    1.750 
#    0.000    0.000    0.000    0.000    0.000    0.000 
#
# Total GULP energy -356425.161431 kJ/mol
# GULP energy per Si atom -5569.143147 kJ/mol
# Density = 1.974278 g / cm^3
# Si number density = 19.787818 Si / 1000 Ang^3
#
#
#
# Elastic Constant Matrix: (Units=GPa)
#
#
# Indices 1 2 3 4 5 6 
#
# 1 82.3215 14.2549 21.3305 0.0000 0.0000 0.0000
# 2 14.2549 98.2401 43.5746 0.0000 0.0000 0.0000
# 3 21.3305 43.5746 66.7532 0.0000 0.0000 0.0000
# 4 0.0000 0.0000 0.0000 7.8340 0.0000 0.0000
# 5 0.0000 0.0000 0.0000 0.0000 -47.0147 0.0000
# 6 0.0000 0.0000 0.0000 0.0000 0.0000 28.6223
#
#
#
# Elastic Compliance Matrix: (Units=1/GPa)
#
#
# Indices 1 2 3 4 5 6 
#
# 1 0.013244 -0.000063 -0.004191 0.000000 0.000000 0.000000
# 2 -0.000063 0.014328 -0.009333 0.000000 0.000000 0.000000
# 3 -0.004191 -0.009333 0.022412 0.000000 0.000000 0.000000
# 4 0.000000 0.000000 0.000000 0.127649 0.000000 0.000000
# 5 0.000000 0.000000 0.000000 0.000000 -0.021270 0.000000
# 6 0.000000 0.000000 0.000000 0.000000 0.000000 0.034938
#
#
# Mechanical properties :
#
#
# Convention : Reuss Voigt Hill
#
# Bulk Modulus (GPa) = 43.83894 45.07053 44.45473
# Shear Modulus (GPa) = 22.11623 9.09863 15.60743
#
# Velocity S-wave (km/s) = 3.34678 2.14664 2.81150
# Velocity P-wave (km/s) = 6.09403 5.38242 5.74925
#
# Compressibility (1/GPa) = 0.02281077
#
# Stress axis : x y z
#
# Youngs Moduli (GPa) = 75.50392 69.79433 44.61908
#
# Poissons Ratio (x) = 0.00438 0.18701
# Poissons Ratio (y) = 0.00474 0.41642
# Poissons Ratio (z) = 0.31645 0.65137
#
# Static dielectric constant tensor:
#      x y z
#    x 1.802940 0.000000 0.000000 
#    y 0.000000 1.715450 0.000000 
#    z 0.000000 0.000000 1.669390 
# 
# From -- ./inp_files/21983.got.cif
#   From: 2010.05.17/outbox.cif.g08.bks.cpg/sg55_11_cif.got.tgz:21983.got - 2010.06.03 13:27:54.
