data_PCOD9429282
_publ_section_title
;
Structure prediction by ZEFSAII (Michael W. Deem and Ramdas Pophale) SiO2 
 PCOD9429282
Probable space group: P B A M
;
_chemical_formula_sum "Si O2"
_cell_formula_units_Z 48
_cell_length_a 15.000000
_cell_length_b 9.000000
_cell_length_c 18.000000
_cell_angle_alpha 90.000000
_cell_angle_beta 90.000000
_cell_angle_gamma 90.000000
_cell_volume 2430.000000
_symmetry_space_group_name_H-M "P B A M"
_symmetry_group_IT_number 55
_symmetry_cell_setting 'orthorhombic'
loop_
_space_group_symop_operation_xyz
x,y,z
-x,-y,z
1/2+x,1/2-y,-z
1/2-x,1/2+y,-z
-x,-y,-z
x,y,-z
1/2-x,1/2+y,z
1/2+x,1/2-y,z
loop_
_atom_site_type_symbol
_atom_site_label
_atom_site_fract_x
_atom_site_fract_y
_atom_site_fract_z
Si Si1 0.522424 0.176826 0.915774
Si Si2 0.679979 0.129298 0.190722
Si Si3 0.044335 0.663655 0.651849
Si Si4 0.867444 0.279419 0.193964
Si Si5 0.780360 0.462987 0.415571
Si Si6 0.642411 0.259835 0.352127
O O1 0.616478 0.191309 0.874083
O O2 0.442383 0.245614 0.868138
O O3 0.500000 0.000000 0.916529
O O4 0.525519 0.230391 0.000000
O O5 0.782606 0.174775 0.183736
O O6 0.646137 0.202048 0.267579
O O7 0.666083 0.951535 0.192321
O O8 0.084651 0.733088 0.726467
O O9 0.128987 0.630349 0.599963
O O10 0.000000 0.500000 0.667463
O O11 0.960971 0.760726 0.624004
O O12 0.751954 0.445126 0.500000
O O13 0.700894 0.406368 0.363065
O O14 0.807049 0.631881 0.398551
#
# Coordination Sequence:
#
# PCOD9429282 Si02
#       6
#     8   8   8   8   8   8
#     4   9  19  35  58  86 116 150 189 231 276 329
#     4  11  19  34  61  84 111 151 191 230 272 338
#     4  10  18  34  59  79 104 144 191 222 264 333
#     4  11  19  35  59  85 113 145 190 233 275 329
#     4  11  23  36  56  84 113 143 184 236 284 327
#     4  11  20  37  59  80 110 149 187 230 277 334
#
# _framework density 19.753086
#
# number of rings (size 3 to 8) (size 9 to 14) (size 15 to 20)
#    0.000    1.500    6.667    1.000    0.000    4.333 
#    0.000    1.667    0.000    3.000    0.000    0.000 
#    0.000    0.000    0.000    0.000    0.000    0.000 
#
# Total GULP energy -268098.668370 kJ/mol
# GULP energy per Si atom -5585.388924 kJ/mol
# Density = 1.970813 g / cm^3
# Si number density = 19.753086 Si / 1000 Ang^3
#
#
#
# Elastic Constant Matrix: (Units=GPa)
#
#
# Indices 1 2 3 4 5 6 
#
# 1 94.6735 12.2782 -0.3943 0.0000 0.0000 0.0000
# 2 12.2782 11.5117 5.9565 0.0000 0.0000 0.0000
# 3 -0.3943 5.9565 74.5324 0.0000 0.0000 0.0000
# 4 0.0000 0.0000 0.0000 7.8245 0.0000 0.0000
# 5 0.0000 0.0000 0.0000 0.0000 22.7812 0.0000
# 6 0.0000 0.0000 0.0000 0.0000 0.0000 35.4617
#
#
#
# Elastic Compliance Matrix: (Units=1/GPa)
#
#
# Indices 1 2 3 4 5 6 
#
# 1 0.012355 -0.013781 0.001167 0.000000 0.000000 0.000000
# 2 -0.013781 0.105987 -0.008543 0.000000 0.000000 0.000000
# 3 0.001167 -0.008543 0.014106 0.000000 0.000000 0.000000
# 4 0.000000 0.000000 0.000000 0.127804 0.000000 0.000000
# 5 0.000000 0.000000 0.000000 0.000000 0.043896 0.000000
# 6 0.000000 0.000000 0.000000 0.000000 0.000000 0.028199
#
#
# Mechanical properties :
#
#
# Convention : Reuss Voigt Hill
#
# Bulk Modulus (GPa) = 11.09476 24.04427 17.56951
# Shear Modulus (GPa) = 12.35462 24.07195 18.21329
#
# Velocity S-wave (km/s) = 2.50362 3.49469 3.03982
# Velocity P-wave (km/s) = 3.73984 5.33692 4.60809
#
# Compressibility (1/GPa) = 0.09013265
#
# Stress axis : x y z
#
# Youngs Moduli (GPa) = 80.94048 9.43511 70.89228
#
# Poissons Ratio (x) = 0.13003 -0.08271
# Poissons Ratio (y) = 1.11545 0.60565
# Poissons Ratio (z) = -0.09444 0.08061
#
# Static dielectric constant tensor:
#      x y z
#    x 1.692690 0.000000 0.000000 
#    y 0.000000 1.714380 0.000000 
#    z 0.000000 0.000000 1.693930 
# 
# From -- ./inp_files/21488.got.cif
#   From: 2010.05.17/outbox.ucp.g08.bks.cvg/sg55_11_cif.got.tgz:21488.got - 2010.06.11 16:36:00.
