data_PCOD9429594
_publ_section_title
;
Structure prediction by ZEFSAII (Michael W. Deem and Ramdas Pophale) SiO2 
 PCOD9429594
Probable space group: P C C N
;
_chemical_formula_sum "Si O2"
_cell_formula_units_Z 48
_cell_length_a 7.133711
_cell_length_b 18.466582
_cell_length_c 15.612010
_cell_angle_alpha 90.000000
_cell_angle_beta 90.000000
_cell_angle_gamma 90.000000
_cell_volume 2056.652183
_symmetry_space_group_name_H-M "P C C N"
_symmetry_group_IT_number 56
_symmetry_cell_setting 'orthorhombic'
loop_
_space_group_symop_operation_xyz
x,y,z
1/2-x,1/2-y,z
1/2+x,-y,1/2-z
-x,1/2+y,1/2-z
-x,-y,-z
1/2+x,1/2+y,-z
1/2-x,y,1/2+z
x,1/2-y,1/2+z
loop_
_atom_site_type_symbol
_atom_site_label
_atom_site_fract_x
_atom_site_fract_y
_atom_site_fract_z
Si Si1 0.477073 0.175675 0.603730
Si Si2 0.518716 0.662368 0.398084
Si Si3 0.007319 0.431523 0.747470
Si Si4 0.554256 0.907562 0.730866
Si Si5 0.630547 0.673611 0.076880
Si Si6 0.512924 0.925646 0.055677
O O1 0.532003 0.256838 0.626432
O O2 0.248209 0.166260 0.600785
O O3 0.561794 0.122714 0.673985
O O4 0.510262 0.169340 0.502485
O O5 0.468534 0.607867 0.323147
O O6 0.441072 0.635044 0.488642
O O7 0.222841 0.409582 0.757279
O O8 0.932796 0.430823 0.846723
O O9 0.001350 0.511458 0.707857
O O10 0.521250 0.843254 0.664215
O O11 0.750000 0.750000 0.078204
O O12 0.774966 0.605507 0.067934
O O13 0.500000 0.000000 0.000000
#
# Coordination Sequence:
#
# PCOD9429594 Si02
#       6
#     8   8   8   8   8   8
#     4   9  17  30  50  76 105 132 175 229 274 298
#     4   9  16  29  50  76 104 133 174 229 258 304
#     4  10  21  33  52  81 108 143 177 227 272 326
#     4  10  21  32  52  81 110 140 180 223 275 321
#     4  10  19  32  53  82 107 134 184 234 274 315
#     4  10  17  30  50  77 103 138 179 209 264 331
#
# _framework density 23.338901
#
# number of rings (size 3 to 8) (size 9 to 14) (size 15 to 20)
#    0.000    2.333    5.000    0.000    7.000    0.667 
#    0.000    0.000    0.000    1.000    0.000    4.667 
#    0.000    0.000    0.000    0.000    0.000    0.000 
#
# Total GULP energy -267294.858940 kJ/mol
# GULP energy per Si atom -5568.642895 kJ/mol
# Density = 2.328578 g / cm^3
# Si number density = 23.338901 Si / 1000 Ang^3
#
#
#
# Elastic Constant Matrix: (Units=GPa)
#
#
# Indices 1 2 3 4 5 6 
#
# 1 61.5260 4.0405 2.4113 0.0000 0.0000 0.0000
# 2 4.0405 124.9661 73.8544 0.0000 0.0000 0.0000
# 3 2.4113 73.8544 166.7147 0.0000 0.0000 0.0000
# 4 0.0000 0.0000 0.0000 51.0306 0.0000 0.0000
# 5 0.0000 0.0000 0.0000 0.0000 -11.4385 0.0000
# 6 0.0000 0.0000 0.0000 0.0000 0.0000 11.7112
#
#
#
# Elastic Compliance Matrix: (Units=1/GPa)
#
#
# Indices 1 2 3 4 5 6 
#
# 1 0.016288 -0.000525 -0.000003 0.000000 0.000000 0.000000
# 2 -0.000525 0.010857 -0.004802 0.000000 0.000000 0.000000
# 3 -0.000003 -0.004802 0.008126 0.000000 0.000000 0.000000
# 4 0.000000 0.000000 0.000000 0.019596 0.000000 0.000000
# 5 0.000000 0.000000 0.000000 0.000000 -0.087424 0.000000
# 6 0.000000 0.000000 0.000000 0.000000 0.000000 0.085388
#
#
# Mechanical properties :
#
#
# Convention : Reuss Voigt Hill
#
# Bulk Modulus (GPa) = 40.63281 57.09101 48.86191
# Shear Modulus (GPa) = 69.74045 28.45404 49.09724
#
# Velocity S-wave (km/s) = 5.47234 3.49545 4.59155
# Velocity P-wave (km/s) = 7.57472 6.38793 7.00650
#
# Compressibility (1/GPa) = 0.02461066
#
# Stress axis : x y z
#
# Youngs Moduli (GPa) = 61.39538 92.10505 123.06706
#
# Poissons Ratio (x) = 0.04834 0.00038
# Poissons Ratio (y) = 0.03222 0.59098
# Poissons Ratio (z) = 0.00019 0.44230
#
# Static dielectric constant tensor:
#      x y z
#    x 1.954810 0.000000 0.000000 
#    y 0.000000 1.826920 0.000000 
#    z 0.000000 0.000000 2.000940 
# 
# From -- ./inp_files/11751.got.cif
#   From: 2010.05.17/outbox.cif.g08.bks.cpg/sg56_6_cif.got.tgz:11751.got - 2010.06.03 13:42:01.
