data_PCOD9429468
_publ_section_title
;
Structure prediction by ZEFSAII (Michael W. Deem and Ramdas Pophale) SiO2 
 PCOD9429468
Probable space group: P B A M
;
_chemical_formula_sum "Si O2"
_cell_formula_units_Z 48
_cell_length_a 30.000000
_cell_length_b 9.000000
_cell_length_c 9.000000
_cell_angle_alpha 90.000000
_cell_angle_beta 90.000000
_cell_angle_gamma 90.000000
_cell_volume 2430.000000
_symmetry_space_group_name_H-M "P B A M"
_symmetry_group_IT_number 55
_symmetry_cell_setting 'orthorhombic'
loop_
_space_group_symop_operation_xyz
x,y,z
-x,-y,z
1/2+x,1/2-y,-z
1/2-x,1/2+y,-z
-x,-y,-z
x,y,-z
1/2-x,1/2+y,z
1/2+x,1/2-y,z
loop_
_atom_site_type_symbol
_atom_site_label
_atom_site_fract_x
_atom_site_fract_y
_atom_site_fract_z
Si Si1 0.783554 0.116529 0.819124
Si Si2 0.120502 0.024990 0.177604
Si Si3 0.945297 0.776636 0.332852
Si Si4 0.300183 0.058664 0.679419
Si Si5 0.594342 0.955283 0.331963
Si Si6 0.458995 0.295311 0.175418
O O1 0.829482 0.026183 0.779968
O O2 0.791014 0.279443 0.750118
O O3 0.737989 0.046560 0.752315
O O4 0.780595 0.122651 0.000000
O O5 0.079753 0.913018 0.215687
O O6 0.100067 0.168414 0.254062
O O7 0.121233 0.040704 0.000000
O O8 0.947572 0.837837 0.500000
O O9 0.935355 0.602401 0.340040
O O10 0.992723 0.808565 0.253658
O O11 0.294466 0.058947 0.500000
O O12 0.353013 0.022226 0.707833
O O13 0.594782 0.888427 0.500000
O O14 0.566974 0.853775 0.219243
O O15 0.467167 0.306294 0.000000
#
# Coordination Sequence:
#
# PCOD9429468 Si02
#       6
#     8   8   8   8   8   8
#     4  11  24  44  67  95 127 165 208 259 317 376
#     4  10  23  42  62  89 125 162 205 256 310 368
#     4  11  24  39  60  92 127 164 209 255 307 369
#     4  11  24  43  67  95 126 165 209 259 316 377
#     4  10  23  42  62  89 126 163 203 255 310 367
#     4  11  22  40  64  90 123 163 210 257 309 368
#
# _framework density 19.753086
#
# number of rings (size 3 to 8) (size 9 to 14) (size 15 to 20)
#    0.000    1.333    1.667    3.000    2.333    8.667 
#    0.000    0.000    0.000    0.000    0.000    0.000 
#    0.000    0.000    0.000    0.000    0.000    0.000 
#
# Total GULP energy -267717.729066 kJ/mol
# GULP energy per Si atom -5577.452689 kJ/mol
# Density = 1.970813 g / cm^3
# Si number density = 19.753086 Si / 1000 Ang^3
#
#
#
# Elastic Constant Matrix: (Units=GPa)
#
#
# Indices 1 2 3 4 5 6 
#
# 1 104.3728 -7.3053 24.8873 0.0000 0.0000 0.0000
# 2 -7.3053 31.1188 10.0875 0.0000 0.0000 0.0000
# 3 24.8873 10.0875 -1.5672 0.0000 0.0000 0.0000
# 4 0.0000 0.0000 0.0000 26.0330 0.0000 0.0000
# 5 0.0000 0.0000 0.0000 0.0000 204.7373 0.0000
# 6 0.0000 0.0000 0.0000 0.0000 0.0000 34.9659
#
#
#
# Elastic Compliance Matrix: (Units=1/GPa)
#
#
# Indices 1 2 3 4 5 6 
#
# 1 0.003903 -0.006212 0.021990 0.000000 0.000000 0.000000
# 2 -0.006212 0.020300 0.032012 0.000000 0.000000 0.000000
# 3 0.021990 0.032012 -0.082827 0.000000 0.000000 0.000000
# 4 0.000000 0.000000 0.000000 0.038413 0.000000 0.000000
# 5 0.000000 0.000000 0.000000 0.000000 0.004884 0.000000
# 6 0.000000 0.000000 0.000000 0.000000 0.000000 0.028599
#
#
# Mechanical properties :
#
#
# Convention : Reuss Voigt Hill
#
# Bulk Modulus (GPa) = 27.06009 21.02927 24.04468
# Shear Modulus (GPa) = -71.43962 60.23091 -5.60435
#
# Velocity S-wave (km/s) = -6.02037 5.52794 -1.68623
# Velocity P-wave (km/s) = 5.88197 7.17031 2.89964
#
# Compressibility (1/GPa) = 0.03695480
#
# Stress axis : x y z
#
# Youngs Moduli (GPa) = 256.23084 49.26182 -12.07337
#
# Poissons Ratio (x) = 0.30603 0.26550
# Poissons Ratio (y) = 1.59176 0.38649
# Poissons Ratio (z) = -5.63460 -1.57695
#
# Static dielectric constant tensor:
#      x y z
#    x 1.646960 0.000000 0.000000 
#    y 0.000000 1.843090 0.000000 
#    z 0.000000 0.000000 1.688140 
# 
# From -- ./inp_files/2837.got.cif
#   From: 2010.05.17/outbox.ucp.g08.bks.cvg/sg55_2_cif.got.tgz:2837.got - 2010.06.11 16:36:00.
