data_PCOD9429467
_publ_section_title
;
Structure prediction by ZEFSAII (Michael W. Deem and Ramdas Pophale) SiO2 
 PCOD9429467
Probable space group: P B A M
;
_chemical_formula_sum "Si O2"
_cell_formula_units_Z 48
_cell_length_a 18.000000
_cell_length_b 15.000000
_cell_length_c 9.000000
_cell_angle_alpha 90.000000
_cell_angle_beta 90.000000
_cell_angle_gamma 90.000000
_cell_volume 2430.000000
_symmetry_space_group_name_H-M "P B A M"
_symmetry_group_IT_number 55
_symmetry_cell_setting 'orthorhombic'
loop_
_space_group_symop_operation_xyz
x,y,z
-x,-y,z
1/2+x,1/2-y,-z
1/2-x,1/2+y,-z
-x,-y,-z
x,y,-z
1/2-x,1/2+y,z
1/2+x,1/2-y,z
loop_
_atom_site_type_symbol
_atom_site_label
_atom_site_fract_x
_atom_site_fract_y
_atom_site_fract_z
Si Si1 0.748039 0.167350 0.327212
Si Si2 0.516161 0.898176 0.823290
Si Si3 0.062812 0.069669 0.824425
Si Si4 0.414643 0.757161 0.671816
Si Si5 0.832636 0.334783 0.677851
Si Si6 0.732446 0.482787 0.826591
O O1 0.759776 0.142311 0.500000
O O2 0.673410 0.226097 0.320614
O O3 0.812502 0.234083 0.275674
O O4 0.742157 0.078472 0.232569
O O5 0.451158 0.834123 0.769229
O O6 0.589808 0.864913 0.743431
O O7 0.500000 0.000000 0.781568
O O8 0.525153 0.893596 0.000000
O O9 0.062936 0.161259 0.734227
O O10 0.143998 0.026181 0.808496
O O11 0.051477 0.089380 0.000000
O O12 0.000000 0.000000 0.776719
O O13 0.437706 0.766075 0.500000
O O14 0.832782 0.336660 0.500000
O O15 0.772146 0.404317 0.737397
O O16 0.750986 0.473080 0.000000
#
# Coordination Sequence:
#
# PCOD9429467 Si02
#       6
#     8   8   8   8   8   8
#     4  10  23  41  63  91 125 162 204 256 311 370
#     4  11  25  43  64  93 127 165 209 259 315 374
#     4  10  23  42  62  90 127 168 211 259 312 372
#     4  11  23  42  66  94 126 168 210 255 315 373
#     4  11  23  42  65  93 126 163 209 259 312 372
#     4  11  23  39  64  94 125 165 209 258 315 370
#
# _framework density 19.753086
#
# number of rings (size 3 to 8) (size 9 to 14) (size 15 to 20)
#    0.000    1.333    1.667    3.000    2.333    7.667 
#    0.000    0.000    0.000    0.000    0.000    0.000 
#    0.000    0.000    0.000    0.000    0.000    0.000 
#
# Total GULP energy -268328.772528 kJ/mol
# GULP energy per Si atom -5590.182761 kJ/mol
# Density = 1.970813 g / cm^3
# Si number density = 19.753086 Si / 1000 Ang^3
#
#
#
# Elastic Constant Matrix: (Units=GPa)
#
#
# Indices 1 2 3 4 5 6 
#
# 1 28.5247 -2.9110 8.7775 0.0000 0.0000 0.0000
# 2 -2.9110 89.7610 22.6514 0.0000 0.0000 0.0000
# 3 8.7775 22.6514 25.7125 0.0000 0.0000 0.0000
# 4 0.0000 0.0000 0.0000 21.8094 0.0000 0.0000
# 5 0.0000 0.0000 0.0000 0.0000 29.6068 0.0000
# 6 0.0000 0.0000 0.0000 0.0000 0.0000 27.0894
#
#
#
# Elastic Compliance Matrix: (Units=1/GPa)
#
#
# Indices 1 2 3 4 5 6 
#
# 1 0.041832 0.006378 -0.019899 0.000000 0.000000 0.000000
# 2 0.006378 0.015298 -0.015654 0.000000 0.000000 0.000000
# 3 -0.019899 -0.015654 0.059475 0.000000 0.000000 0.000000
# 4 0.000000 0.000000 0.000000 0.045852 0.000000 0.000000
# 5 0.000000 0.000000 0.000000 0.000000 0.033776 0.000000
# 6 0.000000 0.000000 0.000000 0.000000 0.000000 0.036915
#
#
# Mechanical properties :
#
#
# Convention : Reuss Voigt Hill
#
# Bulk Modulus (GPa) = 17.16597 22.33711 19.75154
# Shear Modulus (GPa) = 16.08158 23.39981 19.74070
#
# Velocity S-wave (km/s) = 2.85639 3.44556 3.16472
# Velocity P-wave (km/s) = 4.42581 5.21171 4.83475
#
# Compressibility (1/GPa) = 0.05825479
#
# Stress axis : x y z
#
# Youngs Moduli (GPa) = 23.90539 65.36862 16.81380
#
# Poissons Ratio (x) = -0.41693 0.33458
# Poissons Ratio (y) = -0.15247 0.26320
# Poissons Ratio (z) = 0.47569 1.02328
#
# Static dielectric constant tensor:
#      x y z
#    x 8.412780 0.000000 0.000000 
#    y 0.000000 1.650000 0.000000 
#    z 0.000000 0.000000 1.661930 
# 
# From -- ./inp_files/7408.got.cif
#   From: 2010.05.17/outbox.ucp.g08.bks.cvg/sg55_4_cif.got.tgz:7408.got - 2010.06.11 16:36:00.
