data_PCOD9429726
_publ_section_title
;
Structure prediction by ZEFSAII (Michael W. Deem and Ramdas Pophale) SiO2 
 PCOD9429726
Probable space group: P C C N
;
_chemical_formula_sum "Si O2"
_cell_formula_units_Z 48
_cell_length_a 21.586845
_cell_length_b 19.445009
_cell_length_c 5.445312
_cell_angle_alpha 90.000000
_cell_angle_beta 90.000000
_cell_angle_gamma 90.000000
_cell_volume 2285.704536
_symmetry_space_group_name_H-M "P C C N"
_symmetry_group_IT_number 56
_symmetry_cell_setting 'orthorhombic'
loop_
_space_group_symop_operation_xyz
x,y,z
1/2-x,1/2-y,z
1/2+x,-y,1/2-z
-x,1/2+y,1/2-z
-x,-y,-z
1/2+x,1/2+y,-z
1/2-x,y,1/2+z
x,1/2-y,1/2+z
loop_
_atom_site_type_symbol
_atom_site_label
_atom_site_fract_x
_atom_site_fract_y
_atom_site_fract_z
Si Si1 0.025317 0.214470 0.689381
Si Si2 0.492414 0.404397 0.361145
Si Si3 0.283382 0.652002 0.884417
Si Si4 0.091224 0.977660 0.324549
Si Si5 0.421364 0.839977 0.520885
Si Si6 0.733961 0.503069 0.600545
O O1 0.048707 0.256969 0.450587
O O2 0.036129 0.136193 0.594547
O O3 0.950961 0.206567 0.761627
O O4 0.440443 0.451640 0.238551
O O5 0.548729 0.452434 0.449998
O O6 0.525864 0.349423 0.186038
O O7 0.255875 0.673773 0.623016
O O8 0.274507 0.568121 0.888643
O O9 0.353643 0.676328 0.919608
O O10 0.086480 0.916441 0.131423
O O11 0.161860 0.984871 0.401021
O O12 0.751917 0.540739 0.353091
#
# Coordination Sequence:
#
# PCOD9429726 Si02
#       6
#     8   8   8   8   8   8
#     4  11  23  41  58  77 104 147 196 237 284 328
#     4  10  21  35  55  86 114 150 175 243 283 347
#     4  10  19  30  51  77 102 146 185 221 271 335
#     4  10  20  32  53  89 120 144 183 220 293 346
#     4  11  20  34  60  79 113 147 194 231 285 342
#     4  10  18  32  49  74 111 154 175 212 258 345
#
# _framework density 21.00009
#
# number of rings (size 3 to 8) (size 9 to 14) (size 15 to 20)
#    0.000    1.667    5.000    2.500    2.333    0.000 
#    0.000    0.000    0.000    3.000    0.000    0.000 
#    0.000    4.000    0.000    0.000    0.000    0.000 
#
# Total GULP energy -267478.163215 kJ/mol
# GULP energy per Si atom -5572.461734 kJ/mol
# Density = 2.095229 g / cm^3
# Si number density = 21.000090 Si / 1000 Ang^3
#
#
#
# Elastic Constant Matrix: (Units=GPa)
#
#
# Indices 1 2 3 4 5 6 
#
# 1 37.0690 20.3093 16.4753 0.0000 0.0000 0.0000
# 2 20.3093 50.5746 16.4066 0.0000 0.0000 0.0000
# 3 16.4753 16.4066 141.7497 0.0000 0.0000 0.0000
# 4 0.0000 0.0000 0.0000 26.8020 0.0000 0.0000
# 5 0.0000 0.0000 0.0000 0.0000 16.9394 0.0000
# 6 0.0000 0.0000 0.0000 0.0000 0.0000 9.9216
#
#
#
# Elastic Compliance Matrix: (Units=1/GPa)
#
#
# Indices 1 2 3 4 5 6 
#
# 1 0.035465 -0.013408 -0.002570 0.000000 0.000000 0.000000
# 2 -0.013408 0.025613 -0.001406 0.000000 0.000000 0.000000
# 3 -0.002570 -0.001406 0.007516 0.000000 0.000000 0.000000
# 4 0.000000 0.000000 0.000000 0.037311 0.000000 0.000000
# 5 0.000000 0.000000 0.000000 0.000000 0.059034 0.000000
# 6 0.000000 0.000000 0.000000 0.000000 0.000000 0.100790
#
#
# Mechanical properties :
#
#
# Convention : Reuss Voigt Hill
#
# Bulk Modulus (GPa) = 29.56326 37.30841 33.43583
# Shear Modulus (GPa) = 16.03732 22.47941 19.25837
#
# Velocity S-wave (km/s) = 2.76647 3.27531 3.03159
# Velocity P-wave (km/s) = 4.93079 5.66639 5.31134
#
# Compressibility (1/GPa) = 0.03382577
#
# Stress axis : x y z
#
# Youngs Moduli (GPa) = 28.19683 39.04238 133.04648
#
# Poissons Ratio (x) = 0.52348 0.34195
# Poissons Ratio (y) = 0.37806 0.18709
# Poissons Ratio (z) = 0.07247 0.05490
#
# Static dielectric constant tensor:
#      x y z
#    x 1.725680 0.000000 0.000000 
#    y 0.000000 -1.983410 0.000000 
#    z 0.000000 0.000000 1.879310 
# 
# From -- ./inp_files/870.got.cif
#   From: 2010.05.17/outbox.cif.g08.bks.cpg/sg56_1_cif.got.tgz:870.got - 2010.06.03 13:42:01.
