data_PCOD9429758
_publ_section_title
;
Structure prediction by ZEFSAII (Michael W. Deem and Ramdas Pophale) SiO2 
 PCOD9429758
Probable space group: P C C N
;
_chemical_formula_sum "Si O2"
_cell_formula_units_Z 48
_cell_length_a 23.918476
_cell_length_b 5.344941
_cell_length_c 15.147697
_cell_angle_alpha 90.000000
_cell_angle_beta 90.000000
_cell_angle_gamma 90.000000
_cell_volume 1936.524650
_symmetry_space_group_name_H-M "P C C N"
_symmetry_group_IT_number 56
_symmetry_cell_setting 'orthorhombic'
loop_
_space_group_symop_operation_xyz
x,y,z
1/2-x,1/2-y,z
1/2+x,-y,1/2-z
-x,1/2+y,1/2-z
-x,-y,-z
1/2+x,1/2+y,-z
1/2-x,y,1/2+z
x,1/2-y,1/2+z
loop_
_atom_site_type_symbol
_atom_site_label
_atom_site_fract_x
_atom_site_fract_y
_atom_site_fract_z
Si Si1 0.873600 0.663260 0.168733
Si Si2 0.313241 0.673918 0.781069
Si Si3 0.549594 0.865470 0.334104
Si Si4 0.353862 0.316549 0.018655
Si Si5 0.337670 0.817951 0.073699
Si Si6 0.528304 0.122935 0.914073
O O1 0.848512 0.384154 0.167188
O O2 0.922984 0.632964 0.238482
O O3 0.887081 0.756978 0.070665
O O4 0.831811 0.887026 0.201059
O O5 0.250000 0.750000 0.799282
O O6 0.323819 0.716210 0.676289
O O7 0.603256 0.846972 0.400107
O O8 0.520150 0.598769 0.343786
O O9 0.515727 0.103599 0.372353
O O10 0.321723 0.577662 0.017188
O O11 0.315157 0.080535 0.039094
O O12 0.405230 0.848979 0.065718
O O13 0.500000 0.000000 0.000000
#
# Coordination Sequence:
#
# PCOD9429758 Si02
#       6
#     8   8   8   8   8   8
#     4  12  21  40  64  85 117 164 203 253 308 371
#     4  12  23  40  62  86 121 160 205 262 307 369
#     4  10  19  37  58  87 122 155 202 237 306 361
#     4  10  20  35  64  84 115 160 199 248 301 365
#     4  10  19  40  57  88 123 159 201 243 314 367
#     4  10  18  32  61  90 118 156 200 243 293 362
#
# _framework density 24.786669
#
# number of rings (size 3 to 8) (size 9 to 14) (size 15 to 20)
#    0.000    1.333    6.667    2.000    0.000    0.000 
#    0.000    5.000    0.000   16.000    0.000    0.000 
#    0.000    0.000    0.000    0.000    0.000    0.000 
#
# Total GULP energy -268160.088287 kJ/mol
# GULP energy per Si atom -5586.668506 kJ/mol
# Density = 2.473025 g / cm^3
# Si number density = 24.786669 Si / 1000 Ang^3
#
#
#
# Elastic Constant Matrix: (Units=GPa)
#
#
# Indices 1 2 3 4 5 6 
#
# 1 71.6212 11.0566 14.1882 0.0000 0.0000 0.0000
# 2 11.0566 225.2587 14.3412 0.0000 0.0000 0.0000
# 3 14.1882 14.3412 92.7235 0.0000 0.0000 0.0000
# 4 0.0000 0.0000 0.0000 36.3109 0.0000 0.0000
# 5 0.0000 0.0000 0.0000 0.0000 4.1897 0.0000
# 6 0.0000 0.0000 0.0000 0.0000 0.0000 25.7878
#
#
#
# Elastic Compliance Matrix: (Units=1/GPa)
#
#
# Indices 1 2 3 4 5 6 
#
# 1 0.014472 -0.000575 -0.002126 0.000000 0.000000 0.000000
# 2 -0.000575 0.004506 -0.000609 0.000000 0.000000 0.000000
# 3 -0.002126 -0.000609 0.011204 0.000000 0.000000 0.000000
# 4 0.000000 0.000000 0.000000 0.027540 0.000000 0.000000
# 5 0.000000 0.000000 0.000000 0.000000 0.238678 0.000000
# 6 0.000000 0.000000 0.000000 0.000000 0.000000 0.038778
#
#
# Mechanical properties :
#
#
# Convention : Reuss Voigt Hill
#
# Bulk Modulus (GPa) = 42.43835 52.08615 47.26225
# Shear Modulus (GPa) = 14.29993 36.59218 25.44606
#
# Velocity S-wave (km/s) = 2.40452 3.84641 3.20754
# Velocity P-wave (km/s) = 4.98674 6.38639 5.72946
#
# Compressibility (1/GPa) = 0.02356359
#
# Stress axis : x y z
#
# Youngs Moduli (GPa) = 69.09801 221.90975 89.25233
#
# Poissons Ratio (x) = 0.12760 0.18971
# Poissons Ratio (y) = 0.03973 0.05435
# Poissons Ratio (z) = 0.14687 0.13514
#
# Static dielectric constant tensor:
#      x y z
#    x 1.935330 0.000000 0.000000 
#    y 0.000000 2.096560 0.000000 
#    z 0.000000 0.000000 2.004000 
# 
# From -- ./inp_files/13431.got.cif
#   From: 2010.05.17/outbox.cif.g08.bks.cpg/sg56_7_cif.got.tgz:13431.got - 2010.06.03 13:42:01.
