data_PCOD9429219
_publ_section_title
;
Structure prediction by ZEFSAII (Michael W. Deem and Ramdas Pophale) SiO2 
 PCOD9429219
Probable space group: P B A M
;
_chemical_formula_sum "Si O2"
_cell_formula_units_Z 40
_cell_length_a 6.986607
_cell_length_b 26.809280
_cell_length_c 9.872182
_cell_angle_alpha 90.000000
_cell_angle_beta 90.000000
_cell_angle_gamma 90.000000
_cell_volume 1849.117967
_symmetry_space_group_name_H-M "P B A M"
_symmetry_group_IT_number 55
_symmetry_cell_setting 'orthorhombic'
loop_
_space_group_symop_operation_xyz
x,y,z
-x,-y,z
1/2+x,1/2-y,-z
1/2-x,1/2+y,-z
-x,-y,-z
x,y,-z
1/2-x,1/2+y,z
1/2+x,1/2-y,z
loop_
_atom_site_type_symbol
_atom_site_label
_atom_site_fract_x
_atom_site_fract_y
_atom_site_fract_z
Si Si1 0.544746 0.708136 0.346299
Si Si2 0.218693 0.986985 0.164395
Si Si3 0.178317 0.593075 0.156868
Si Si4 0.865190 0.121206 0.156983
Si Si5 0.399612 0.180452 0.653687
O O1 0.622732 0.710580 0.500000
O O2 0.655962 0.669339 0.251916
O O3 0.329808 0.687929 0.354101
O O4 0.531460 0.765197 0.297384
O O5 0.242588 0.929335 0.203589
O O6 0.662370 0.964198 0.207052
O O7 0.228950 0.987172 0.000000
O O8 0.000000 0.000000 0.202345
O O9 0.407045 0.606308 0.157690
O O10 0.075226 0.634696 0.245511
O O11 0.117899 0.595005 0.000000
O O12 0.818690 0.132180 0.000000
O O13 0.467054 0.170665 0.500000
#
# Coordination Sequence:
#
# PCOD9429219 Si02
#       5
#     8   8   8   8   8
#     4   9  17  28  40  55  77 103 128 155 188 223
#     4   7  10  18  33  53  76  99 120 146 186 229
#     4   8  13  22  37  56  77 100 125 153 186 225
#     4   8  13  22  37  56  77 100 125 153 186 225
#     4   9  17  28  40  55  77 103 128 155 188 223
#
# _framework density 21.631934000000001
#
# number of rings (size 3 to 8) (size 9 to 14) (size 15 to 20)
#    0.000    3.800    0.000    2.400    0.000    0.800 
#    0.000    1.000    0.000    6.000    0.000    1.400 
#    0.000   11.200    0.000    0.000    0.000    0.000 
#
# Total GULP energy -223139.181299 kJ/mol
# GULP energy per Si atom -5578.479532 kJ/mol
# Density = 2.158270 g / cm^3
# Si number density = 21.631934 Si / 1000 Ang^3
#
#
#
# Elastic Constant Matrix: (Units=GPa)
#
#
# Indices 1 2 3 4 5 6 
#
# 1 69.7921 31.8140 10.2003 0.0000 0.0000 0.0000
# 2 31.8140 240.5634 99.1633 0.0000 0.0000 0.0000
# 3 10.2003 99.1633 61.7852 0.0000 0.0000 0.0000
# 4 0.0000 0.0000 0.0000 -185.4453 0.0000 0.0000
# 5 0.0000 0.0000 0.0000 0.0000 -0.5349 0.0000
# 6 0.0000 0.0000 0.0000 0.0000 0.0000 42.6011
#
#
#
# Elastic Compliance Matrix: (Units=1/GPa)
#
#
# Indices 1 2 3 4 5 6 
#
# 1 0.015342 -0.002910 0.002138 0.000000 0.000000 0.000000
# 2 -0.002910 0.012836 -0.020120 0.000000 0.000000 0.000000
# 3 0.002138 -0.020120 0.048125 0.000000 0.000000 0.000000
# 4 0.000000 0.000000 0.000000 -0.005392 0.000000 0.000000
# 5 0.000000 0.000000 0.000000 0.000000 -1.869536 0.000000
# 6 0.000000 0.000000 0.000000 0.000000 0.000000 0.023474
#
#
# Mechanical properties :
#
#
# Convention : Reuss Voigt Hill
#
# Bulk Modulus (GPa) = 28.97080 72.72178 50.84629
# Shear Modulus (GPa) = -2.90384 -13.27830 -8.09107
#
# Velocity S-wave (km/s) = -1.15987 -2.48024 -1.93609
# Velocity P-wave (km/s) = 3.40998 5.04863 4.30793
#
# Compressibility (1/GPa) = 0.03451751
#
# Stress axis : x y z
#
# Youngs Moduli (GPa) = 65.17865 77.90795 20.77938
#
# Poissons Ratio (x) = 0.22674 -0.04443
# Poissons Ratio (y) = 0.18969 0.41809
# Poissons Ratio (z) = -0.13936 1.56753
#
# Static dielectric constant tensor:
#      x y z
#    x 1.922560 0.000000 0.000000 
#    y 0.000000 1.791360 0.000000 
#    z 0.000000 0.000000 1.726930 
# 
# From -- ./inp_files/4156.got.cif
#   From: 2010.05.17/outbox.cif.g08.bks.cpg/sg55_3_cif.got.tgz:4156.got - 2010.06.03 13:27:54.
