data_PCOD9429731
_publ_section_title
;
Structure prediction by ZEFSAII (Michael W. Deem and Ramdas Pophale) SiO2 
 PCOD9429731
Probable space group: P C C N
;
_chemical_formula_sum "Si O2"
_cell_formula_units_Z 52
_cell_length_a 20.153278
_cell_length_b 5.838657
_cell_length_c 20.857786
_cell_angle_alpha 90.000000
_cell_angle_beta 90.000000
_cell_angle_gamma 90.000000
_cell_volume 2454.295583
_symmetry_space_group_name_H-M "P C C N"
_symmetry_group_IT_number 56
_symmetry_cell_setting 'orthorhombic'
loop_
_space_group_symop_operation_xyz
x,y,z
1/2-x,1/2-y,z
1/2+x,-y,1/2-z
-x,1/2+y,1/2-z
-x,-y,-z
1/2+x,1/2+y,-z
1/2-x,y,1/2+z
x,1/2-y,1/2+z
loop_
_atom_site_type_symbol
_atom_site_label
_atom_site_fract_x
_atom_site_fract_y
_atom_site_fract_z
Si Si1 0.717717 0.500637 0.969922
Si Si2 0.142077 0.087721 0.326507
Si Si3 0.733220 0.001160 0.826359
Si Si4 0.368130 0.469638 0.920900
Si Si5 0.906155 0.905619 0.286936
Si Si6 0.750000 0.250000 0.147560
Si Si7 0.464788 0.694984 0.825999
O O1 0.750000 0.750000 0.990133
O O2 0.726225 0.502286 0.893388
O O3 0.750000 0.250000 0.987455
O O4 0.645480 0.507067 0.003687
O O5 0.145429 0.217110 0.394094
O O6 0.128863 0.262920 0.269650
O O7 0.209003 0.946810 0.317158
O O8 0.079158 0.922499 0.328204
O O9 0.750000 0.750000 0.798582
O O10 0.652851 0.003672 0.830176
O O11 0.750000 0.250000 0.797699
O O12 0.308689 0.622348 0.890595
O O13 0.435726 0.547507 0.885415
O O14 0.958031 0.753955 0.326310
O O15 0.947569 0.085178 0.243566
#
# Coordination Sequence:
#
# PCOD9429731 Si02
#       7
#     8   8   8   8   8   4   8
#     4  10  20  39  65  90 122 164 217 278 340 382
#     4  10  21  34  54  88 128 164 209 258 334 390
#     4  10  25  43  65  96 124 178 222 275 337 402
#     4  10  20  34  59  91 123 159 215 274 333 391
#     4  11  22  41  62  85 137 175 224 262 332 411
#     4  10  18  32  52  92 118 156 204 268 328 384
#     4  10  22  37  60  91 124 179 211 269 325 398
#
# _framework density 21.187344
#
# number of rings (size 3 to 8) (size 9 to 14) (size 15 to 20)
#    0.000    1.846    2.308    1.385    4.308    3.692 
#    5.538    0.000    0.000    7.385    0.000    0.000 
#    0.000    0.000    0.000    0.000    0.000    0.000 
#
# Total GULP energy -289558.253074 kJ/mol
# GULP energy per Si atom -5568.427944 kJ/mol
# Density = 2.113912 g / cm^3
# Si number density = 21.187344 Si / 1000 Ang^3
#
#
#
# Elastic Constant Matrix: (Units=GPa)
#
#
# Indices 1 2 3 4 5 6 
#
# 1 97.9744 18.3066 12.7523 0.0000 0.0000 0.0000
# 2 18.3066 119.2983 13.2558 0.0000 0.0000 0.0000
# 3 12.7523 13.2558 49.8462 0.0000 0.0000 0.0000
# 4 0.0000 0.0000 0.0000 14.3478 0.0000 0.0000
# 5 0.0000 0.0000 0.0000 0.0000 10.6429 0.0000
# 6 0.0000 0.0000 0.0000 0.0000 0.0000 31.7185
#
#
#
# Elastic Compliance Matrix: (Units=1/GPa)
#
#
# Indices 1 2 3 4 5 6 
#
# 1 0.010777 -0.001388 -0.002388 0.000000 0.000000 0.000000
# 2 -0.001388 0.008816 -0.001989 0.000000 0.000000 0.000000
# 3 -0.002388 -0.001989 0.021202 0.000000 0.000000 0.000000
# 4 0.000000 0.000000 0.000000 0.069697 0.000000 0.000000
# 5 0.000000 0.000000 0.000000 0.000000 0.093959 0.000000
# 6 0.000000 0.000000 0.000000 0.000000 0.000000 0.031527
#
#
# Mechanical properties :
#
#
# Convention : Reuss Voigt Hill
#
# Bulk Modulus (GPa) = 34.17202 39.52760 36.84981
# Shear Modulus (GPa) = 19.43526 26.19546 22.81536
#
# Velocity S-wave (km/s) = 3.03199 3.52002 3.28508
# Velocity P-wave (km/s) = 5.33112 5.93443 5.64085
#
# Compressibility (1/GPa) = 0.02926371
#
# Stress axis : x y z
#
# Youngs Moduli (GPa) = 92.79034 113.42430 47.16610
#
# Poissons Ratio (x) = 0.15748 0.11263
# Poissons Ratio (y) = 0.12883 0.09383
# Poissons Ratio (z) = 0.22157 0.22564
#
# Static dielectric constant tensor:
#      x y z
#    x 1.779350 0.000000 0.000000 
#    y 0.000000 1.848350 0.000000 
#    z 0.000000 0.000000 1.818120 
# 
# From -- ./inp_files/19454.got.cif
#   From: 2010.05.17/outbox.cif.g08.bks.cpg/sg56_10_cif.got.tgz:19454.got - 2010.06.03 13:42:01.
