data_PCOD9429101
_publ_section_title
;
Structure prediction by ZEFSAII (Michael W. Deem and Ramdas Pophale) SiO2 
 PCOD9429101
Probable space group: P B A M
;
_chemical_formula_sum "Si O2"
_cell_formula_units_Z 48
_cell_length_a 13.706747
_cell_length_b 8.635254
_cell_length_c 17.218966
_cell_angle_alpha 90.000000
_cell_angle_beta 90.000000
_cell_angle_gamma 90.000000
_cell_volume 2038.058199
_symmetry_space_group_name_H-M "P B A M"
_symmetry_group_IT_number 55
_symmetry_cell_setting 'orthorhombic'
loop_
_space_group_symop_operation_xyz
x,y,z
-x,-y,z
1/2+x,1/2-y,-z
1/2-x,1/2+y,-z
-x,-y,-z
x,y,-z
1/2-x,1/2+y,z
1/2+x,1/2-y,z
loop_
_atom_site_type_symbol
_atom_site_label
_atom_site_fract_x
_atom_site_fract_y
_atom_site_fract_z
Si Si1 0.976282 0.662851 0.333531
Si Si2 0.127783 0.858611 0.591879
Si Si3 0.968737 0.257107 0.000000
Si Si4 0.340199 0.560857 0.000000
Si Si5 0.038266 0.752158 0.169150
Si Si6 0.665688 0.448598 0.166659
Si Si7 0.784883 0.840087 0.673436
O O1 0.862693 0.699423 0.324715
O O2 0.000000 0.500000 0.372762
O O3 0.021335 0.806410 0.380486
O O4 0.027347 0.661157 0.248871
O O5 0.134082 0.871692 0.500000
O O6 0.194196 0.719519 0.625177
O O7 0.165711 0.013293 0.632338
O O8 0.950686 0.328676 0.085024
O O9 0.080760 0.198760 0.000000
O O10 0.903419 0.098667 0.000000
O O11 0.286193 0.565658 0.081934
O O12 0.935081 0.848117 0.165529
O O13 0.124623 0.878166 0.178056
O O14 0.730406 0.392417 0.237707
#
# Coordination Sequence:
#
# PCOD9429101 Si02
#       7
#     8   8   4   4   8   8   8
#     4  11  23  40  63  91 125 163 203 250 307 371
#     4  12  26  43  65  91 119 155 204 259 315 376
#     4   7  10  18  41  77 117 150 191 243 280 335
#     4   7  10  18  42  81 113 148 195 236 284 340
#     4   8  13  26  49  83 117 154 199 239 289 349
#     4   8  13  26  52  82 116 155 195 241 290 351
#     4  11  23  42  65  90 122 160 200 252 311 372
#
# _framework density 23.551831
#
# number of rings (size 3 to 8) (size 9 to 14) (size 15 to 20)
#    0.000    2.500    1.667    4.000    0.000    2.333 
#    0.000    0.417    0.000    2.000    0.000    2.333 
#    0.000    0.000    0.000    0.000    0.000    0.000 
#
# Total GULP energy -268232.733579 kJ/mol
# GULP energy per Si atom -5588.181950 kJ/mol
# Density = 2.349823 g / cm^3
# Si number density = 23.551831 Si / 1000 Ang^3
#
#
#
# Elastic Constant Matrix: (Units=GPa)
#
#
# Indices 1 2 3 4 5 6 
#
# 1 50.5715 7.4814 16.4471 0.0000 0.0000 0.0000
# 2 7.4814 75.3542 14.0731 0.0000 0.0000 0.0000
# 3 16.4471 14.0731 173.3485 0.0000 0.0000 0.0000
# 4 0.0000 0.0000 0.0000 6.2541 0.0000 0.0000
# 5 0.0000 0.0000 0.0000 0.0000 27.3690 0.0000
# 6 0.0000 0.0000 0.0000 0.0000 0.0000 22.5018
#
#
#
# Elastic Compliance Matrix: (Units=1/GPa)
#
#
# Indices 1 2 3 4 5 6 
#
# 1 0.020618 -0.001708 -0.001818 0.000000 0.000000 0.000000
# 2 -0.001708 0.013616 -0.000943 0.000000 0.000000 0.000000
# 3 -0.001818 -0.000943 0.006018 0.000000 0.000000 0.000000
# 4 0.000000 0.000000 0.000000 0.159896 0.000000 0.000000
# 5 0.000000 0.000000 0.000000 0.000000 0.036538 0.000000
# 6 0.000000 0.000000 0.000000 0.000000 0.000000 0.044441
#
#
# Mechanical properties :
#
#
# Convention : Reuss Voigt Hill
#
# Bulk Modulus (GPa) = 31.93380 41.69752 36.81566
# Shear Modulus (GPa) = 16.63885 28.64314 22.64099
#
# Velocity S-wave (km/s) = 2.66085 3.49115 3.10389
# Velocity P-wave (km/s) = 4.79881 5.83043 5.33959
#
# Compressibility (1/GPa) = 0.03131478
#
# Stress axis : x y z
#
# Youngs Moduli (GPa) = 48.50200 73.44094 166.17465
#
# Poissons Ratio (x) = 0.12540 0.30203
# Poissons Ratio (y) = 0.08282 0.15677
# Poissons Ratio (z) = 0.08816 0.06929
#
# Static dielectric constant tensor:
#      x y z
#    x 1.901310 0.000000 0.000000 
#    y 0.000000 1.891230 0.000000 
#    z 0.000000 0.000000 1.891190 
# 
# From -- ./inp_files/20853.got.cif
#   From: 2010.05.17/outbox.cif.g08.bks.cpg/sg55_11_cif.got.tgz:20853.got - 2010.06.03 13:27:54.
