data_PCOD9429406
_publ_section_title
;
Structure prediction by ZEFSAII (Michael W. Deem and Ramdas Pophale) SiO2 
 PCOD9429406
Probable space group: P B A M
;
_chemical_formula_sum "Si O2"
_cell_formula_units_Z 64
_cell_length_a 30.000000
_cell_length_b 12.000000
_cell_length_c 9.000000
_cell_angle_alpha 90.000000
_cell_angle_beta 90.000000
_cell_angle_gamma 90.000000
_cell_volume 3240.000000
_symmetry_space_group_name_H-M "P B A M"
_symmetry_group_IT_number 55
_symmetry_cell_setting 'orthorhombic'
loop_
_space_group_symop_operation_xyz
x,y,z
-x,-y,z
1/2+x,1/2-y,-z
1/2-x,1/2+y,-z
-x,-y,-z
x,y,-z
1/2-x,1/2+y,z
1/2+x,1/2-y,z
loop_
_atom_site_type_symbol
_atom_site_label
_atom_site_fract_x
_atom_site_fract_y
_atom_site_fract_z
Si Si1 0.935731 0.452227 0.672242
Si Si2 0.290994 0.809168 0.174402
Si Si3 0.947198 0.700157 0.678457
Si Si4 0.032845 0.773785 0.822631
Si Si5 0.387322 0.430314 0.178800
Si Si6 0.310008 0.255192 0.824401
Si Si7 0.139120 0.162973 0.322663
Si Si8 0.670828 0.974917 0.329900
O O1 0.949500 0.433045 0.500000
O O2 0.954766 0.571504 0.724461
O O3 0.947062 0.343846 0.766739
O O4 0.882700 0.470342 0.673368
O O5 0.238165 0.809008 0.198131
O O6 0.314649 0.706649 0.256902
O O7 0.311415 0.923185 0.234270
O O8 0.299663 0.797460 0.000000
O O9 0.950496 0.702466 0.500000
O O10 0.898444 0.745160 0.717816
O O11 0.984319 0.778005 0.750428
O O12 0.065815 0.873671 0.778434
O O13 0.029806 0.773034 0.000000
O O14 0.349151 0.340271 0.216499
O O15 0.376421 0.545817 0.256904
O O16 0.386912 0.445717 0.000000
O O17 0.312802 0.142110 0.733155
O O18 0.315216 0.229326 0.000000
O O19 0.141703 0.156965 0.500000
O O20 0.684866 0.991532 0.500000
#
# Coordination Sequence:
#
# PCOD9429406 Si02
#       8
#     8   8   8   8   8   8   8   8
#     4  10  20  38  61  87 124 162 195 241 305 363
#     4  11  24  41  65  92 125 166 204 248 305 367
#     4  10  22  41  61  85 122 161 197 246 308 369
#     4  11  23  38  61  92 121 154 203 254 298 358
#     4  10  23  43  62  86 123 162 202 251 304 363
#     4  10  23  43  64  89 124 165 206 245 302 369
#     4  11  24  43  64  89 121 160 208 255 303 361
#     4  11  22  39  65  95 126 158 203 255 301 355
#
# _framework density 19.753086
#
# number of rings (size 3 to 8) (size 9 to 14) (size 15 to 20)
#    0.000    1.500    2.500    1.875    1.750    6.500 
#    0.000    2.500    0.000    0.000    0.000    0.000 
#    0.000    0.000    0.000    0.000    0.000    0.000 
#
# Total GULP energy -357708.336391 kJ/mol
# GULP energy per Si atom -5589.192756 kJ/mol
# Density = 1.970813 g / cm^3
# Si number density = 19.753086 Si / 1000 Ang^3
#
#
#
# Elastic Constant Matrix: (Units=GPa)
#
#
# Indices 1 2 3 4 5 6 
#
# 1 39.5260 -10.3301 19.6864 0.0000 0.0000 0.0000
# 2 -10.3301 46.6373 10.3589 0.0000 0.0000 0.0000
# 3 19.6864 10.3589 10.5876 0.0000 0.0000 0.0000
# 4 0.0000 0.0000 0.0000 68.3445 0.0000 0.0000
# 5 0.0000 0.0000 0.0000 0.0000 24.3123 0.0000
# 6 0.0000 0.0000 0.0000 0.0000 0.0000 6.8894
#
#
#
# Elastic Compliance Matrix: (Units=1/GPa)
#
#
# Indices 1 2 3 4 5 6 
#
# 1 -0.047468 -0.038480 0.125909 0.000000 0.000000 0.000000
# 2 -0.038480 -0.003799 0.075267 0.000000 0.000000 0.000000
# 3 0.125909 0.075267 -0.213303 0.000000 0.000000 0.000000
# 4 0.000000 0.000000 0.000000 0.014632 0.000000 0.000000
# 5 0.000000 0.000000 0.000000 0.000000 0.041131 0.000000
# 6 0.000000 0.000000 0.000000 0.000000 0.000000 0.145150
#
#
# Mechanical properties :
#
#
# Convention : Reuss Voigt Hill
#
# Bulk Modulus (GPa) = 16.44175 15.13127 15.78651
# Shear Modulus (GPa) = -13.55847 25.04496 5.74324
#
# Velocity S-wave (km/s) = -2.62276 3.56462 1.70699
# Velocity P-wave (km/s) = 0.91111 4.96174 3.44882
#
# Compressibility (1/GPa) = 0.06082076
#
# Stress axis : x y z
#
# Youngs Moduli (GPa) = -21.06703 -263.21921 -4.68816
#
# Poissons Ratio (x) = -10.12876 0.59028
# Poissons Ratio (y) = -0.81067 0.35286
# Poissons Ratio (z) = 2.65253 19.81159
#
# Static dielectric constant tensor:
#      x y z
#    x 1.710630 0.000000 0.000000 
#    y 0.000000 1.657890 0.000000 
#    z 0.000000 0.000000 1.663870 
# 
# From -- ./inp_files/10732.got.cif
#   From: 2010.05.17/outbox.ucp.g08.bks.cvg/sg55_6_cif.got.tgz:10732.got - 2010.06.11 16:36:00.
