data_PCOD9429303
_publ_section_title
;
Structure prediction by ZEFSAII (Michael W. Deem and Ramdas Pophale) SiO2 
 PCOD9429303
Probable space group: P B A M
;
_chemical_formula_sum "Si O2"
_cell_formula_units_Z 56
_cell_length_a 15.000000
_cell_length_b 9.000000
_cell_length_c 21.000000
_cell_angle_alpha 90.000000
_cell_angle_beta 90.000000
_cell_angle_gamma 90.000000
_cell_volume 2835.000000
_symmetry_space_group_name_H-M "P B A M"
_symmetry_group_IT_number 55
_symmetry_cell_setting 'orthorhombic'
loop_
_space_group_symop_operation_xyz
x,y,z
-x,-y,z
1/2+x,1/2-y,-z
1/2-x,1/2+y,-z
-x,-y,-z
x,y,-z
1/2-x,1/2+y,z
1/2+x,1/2-y,z
loop_
_atom_site_type_symbol
_atom_site_label
_atom_site_fract_x
_atom_site_fract_y
_atom_site_fract_z
Si Si1 0.328119 0.645536 0.571312
Si Si2 0.857405 0.774272 0.860193
Si Si3 0.795007 0.462227 0.078309
Si Si4 0.321865 0.634903 0.285009
Si Si5 0.634161 0.706958 0.570106
Si Si6 0.543321 0.835542 0.158306
Si Si7 0.870170 0.217117 0.288030
O O1 0.363845 0.695613 0.500000
O O2 0.359054 0.687481 0.644464
O O3 0.339101 0.467344 0.570637
O O4 0.225326 0.697944 0.570340
O O5 0.799495 0.902572 0.894349
O O6 0.815189 0.623337 0.890150
O O7 0.851009 0.791667 0.782640
O O8 0.963576 0.762544 0.871696
O O9 0.872887 0.359265 0.110519
O O10 0.797985 0.464146 0.000000
O O11 0.217409 0.678043 0.287384
O O12 0.341604 0.457322 0.280888
O O13 0.590237 0.734074 0.500000
O O14 0.589590 0.732856 0.639775
O O15 0.573344 0.766666 0.226340
O O16 0.500000 0.000000 0.168897
#
# Coordination Sequence:
#
# PCOD9429303 Si02
#       7
#     8   8   8   8   8   8   8
#     4   8  14  25  43  76 113 149 198 244 289 341
#     4  11  23  41  64  92 122 156 195 244 297 355
#     4  11  24  44  67  91 120 156 197 241 298 362
#     4  10  19  32  59  85 120 163 199 249 296 347
#     4   8  14  25  45  74 112 157 198 245 296 343
#     4  10  24  40  63  91 120 159 196 245 301 359
#     4  10  19  34  56  88 123 159 207 251 298 354
#
# _framework density 19.753086
#
# number of rings (size 3 to 8) (size 9 to 14) (size 15 to 20)
#    0.000    2.286    1.429    1.286    2.000    3.714 
#    0.000    0.000    0.000    3.000    0.000    4.000 
#    0.000    0.000    0.000    0.000    0.000    0.000 
#
# Total GULP energy -311820.017233 kJ/mol
# GULP energy per Si atom -5568.214593 kJ/mol
# Density = 1.970813 g / cm^3
# Si number density = 19.753086 Si / 1000 Ang^3
#
#
#
# Elastic Constant Matrix: (Units=GPa)
#
#
# Indices 1 2 3 4 5 6 
#
# 1 56.2529 17.7659 25.1340 0.0000 0.0000 0.0000
# 2 17.7659 39.0961 35.6157 0.0000 0.0000 0.0000
# 3 25.1340 35.6157 205.0160 0.0000 0.0000 0.0000
# 4 0.0000 0.0000 0.0000 37.7625 0.0000 0.0000
# 5 0.0000 0.0000 0.0000 0.0000 12.8119 0.0000
# 6 0.0000 0.0000 0.0000 0.0000 0.0000 19.9903
#
#
#
# Elastic Compliance Matrix: (Units=1/GPa)
#
#
# Indices 1 2 3 4 5 6 
#
# 1 0.020957 -0.008533 -0.001087 0.000000 0.000000 0.000000
# 2 -0.008533 0.033861 -0.004836 0.000000 0.000000 0.000000
# 3 -0.001087 -0.004836 0.005851 0.000000 0.000000 0.000000
# 4 0.000000 0.000000 0.000000 0.026481 0.000000 0.000000
# 5 0.000000 0.000000 0.000000 0.000000 0.078052 0.000000
# 6 0.000000 0.000000 0.000000 0.000000 0.000000 0.050024
#
#
# Mechanical properties :
#
#
# Convention : Reuss Voigt Hill
#
# Bulk Modulus (GPa) = 31.48909 50.82178 41.15544
# Shear Modulus (GPa) = 19.62888 28.90289 24.26589
#
# Velocity S-wave (km/s) = 3.15574 3.82934 3.50874
# Velocity P-wave (km/s) = 5.40872 6.73322 6.10698
#
# Compressibility (1/GPa) = 0.03175703
#
# Stress axis : x y z
#
# Youngs Moduli (GPa) = 47.71564 29.53214 170.90844
#
# Poissons Ratio (x) = 0.25201 0.18576
# Poissons Ratio (y) = 0.40717 0.82657
# Poissons Ratio (z) = 0.05186 0.14283
#
# Static dielectric constant tensor:
#      x y z
#    x 1.703790 0.000000 0.000000 
#    y 0.000000 1.693330 0.000000 
#    z 0.000000 0.000000 1.745620 
# 
# From -- ./inp_files/22964.got.cif
#   From: 2010.05.17/outbox.ucp.g08.bks.cvg/sg55_12_cif.got.tgz:22964.got - 2010.06.11 16:36:00.
