data_PCOD9429296
_publ_section_title
;
Structure prediction by ZEFSAII (Michael W. Deem and Ramdas Pophale) SiO2 
 PCOD9429296
Probable space group: P B A M
;
_chemical_formula_sum "Si O2"
_cell_formula_units_Z 64
_cell_length_a 15.000000
_cell_length_b 24.000000
_cell_length_c 9.000000
_cell_angle_alpha 90.000000
_cell_angle_beta 90.000000
_cell_angle_gamma 90.000000
_cell_volume 3240.000000
_symmetry_space_group_name_H-M "P B A M"
_symmetry_group_IT_number 55
_symmetry_cell_setting 'orthorhombic'
loop_
_space_group_symop_operation_xyz
x,y,z
-x,-y,z
1/2+x,1/2-y,-z
1/2-x,1/2+y,-z
-x,-y,-z
x,y,-z
1/2-x,1/2+y,z
1/2+x,1/2-y,z
loop_
_atom_site_type_symbol
_atom_site_label
_atom_site_fract_x
_atom_site_fract_y
_atom_site_fract_z
Si Si1 0.014775 0.734393 0.170716
Si Si2 0.433642 0.882703 0.823204
Si Si3 0.794675 0.538236 0.676907
Si Si4 0.229876 0.164575 0.178773
Si Si5 0.806918 0.232909 0.675708
Si Si6 0.137762 0.889339 0.321324
Si Si7 0.042703 0.138014 0.829364
Si Si8 0.128566 0.572437 0.822781
O O1 0.097457 0.740680 0.280890
O O2 0.969587 0.794760 0.170832
O O3 0.952310 0.682333 0.207785
O O4 0.047818 0.723966 0.000000
O O5 0.357690 0.911178 0.728119
O O6 0.525553 0.915440 0.790124
O O7 0.415051 0.888388 0.000000
O O8 0.796028 0.533170 0.500000
O O9 0.696029 0.557719 0.725057
O O10 0.831636 0.481978 0.747341
O O11 0.237685 0.226045 0.246013
O O12 0.314729 0.127028 0.218326
O O13 0.142324 0.131046 0.229484
O O14 0.225017 0.169495 0.000000
O O15 0.792621 0.233225 0.500000
O O16 0.814771 0.168785 0.728481
O O17 0.135403 0.887296 0.500000
O O18 0.038083 0.888052 0.260390
O O19 0.037025 0.119135 0.000000
O O20 0.136192 0.565439 0.000000
#
# Coordination Sequence:
#
# PCOD9429296 Si02
#       8
#     8   8   8   8   8   8   8   8
#     4   9  17  33  53  80 114 145 177 219 271 325
#     4  10  20  35  56  83 113 148 182 221 280 336
#     4  11  24  39  56  79 109 147 192 237 275 321
#     4  10  20  36  57  84 115 144 179 230 280 325
#     4  10  19  32  53  80 110 147 183 217 269 331
#     4   9  21  40  55  76 114 150 182 229 282 325
#     4   9  19  34  58  86 111 143 186 228 272 329
#     4  10  21  39  58  78 111 148 183 226 279 332
#
# _framework density 19.753086
#
# number of rings (size 3 to 8) (size 9 to 14) (size 15 to 20)
#    0.000    2.250    1.250    1.125    1.750    5.000 
#    0.000    0.625    0.000    3.750    0.000    0.000 
#    0.000    0.000    0.000    0.000    0.000    0.000 
#
# Total GULP energy -357115.276796 kJ/mol
# GULP energy per Si atom -5579.926200 kJ/mol
# Density = 1.970813 g / cm^3
# Si number density = 19.753086 Si / 1000 Ang^3
#
#
#
# Elastic Constant Matrix: (Units=GPa)
#
#
# Indices 1 2 3 4 5 6 
#
# 1 54.5058 -20.6910 7.3181 0.0000 0.0000 0.0000
# 2 -20.6910 5.5080 -1.2126 0.0000 0.0000 0.0000
# 3 7.3181 -1.2126 1.3576 0.0000 0.0000 0.0000
# 4 0.0000 0.0000 0.0000 16.9607 0.0000 0.0000
# 5 0.0000 0.0000 0.0000 0.0000 53.2827 0.0000
# 6 0.0000 0.0000 0.0000 0.0000 0.0000 4.7944
#
#
#
# Elastic Compliance Matrix: (Units=1/GPa)
#
#
# Indices 1 2 3 4 5 6 
#
# 1 -0.033090 -0.105848 0.083832 0.000000 0.000000 0.000000
# 2 -0.105848 -0.112595 0.470012 0.000000 0.000000 0.000000
# 3 0.083832 0.470012 0.704512 0.000000 0.000000 0.000000
# 4 0.000000 0.000000 0.000000 0.058960 0.000000 0.000000
# 5 0.000000 0.000000 0.000000 0.000000 0.018768 0.000000
# 6 0.000000 0.000000 0.000000 0.000000 0.000000 0.208578
#
#
# Mechanical properties :
#
#
# Convention : Reuss Voigt Hill
#
# Bulk Modulus (GPa) = 0.68737 3.57783 2.13260
# Shear Modulus (GPa) = 11.51865 20.07135 15.79500
#
# Velocity S-wave (km/s) = 2.41743 3.19111 2.83083
# Velocity P-wave (km/s) = 2.85319 3.92336 3.43027
#
# Compressibility (1/GPa) = 1.45482102
#
# Stress axis : x y z
#
# Youngs Moduli (GPa) = -30.22073 -8.88137 1.41942
#
# Poissons Ratio (x) = -0.94007 -0.11899
# Poissons Ratio (y) = -3.19879 -0.66715
# Poissons Ratio (z) = 2.53347 4.17436
#
# Static dielectric constant tensor:
#      x y z
#    x 1.739600 0.000000 0.000000 
#    y 0.000000 1.690870 0.000000 
#    z 0.000000 0.000000 1.663750 
# 
# From -- ./inp_files/6655.got.cif
#   From: 2010.05.17/outbox.ucp.g08.bks.cvg/sg55_4_cif.got.tgz:6655.got - 2010.06.11 16:36:00.
