data_PCOD9429783
_publ_section_title
;
Structure prediction by ZEFSAII (Michael W. Deem and Ramdas Pophale) SiO2 
 PCOD9429783
Probable space group: P C C N
;
_chemical_formula_sum "Si O2"
_cell_formula_units_Z 60
_cell_length_a 11.530191
_cell_length_b 14.227708
_cell_length_c 18.684316
_cell_angle_alpha 90.000000
_cell_angle_beta 90.000000
_cell_angle_gamma 90.000000
_cell_volume 3065.128235
_symmetry_space_group_name_H-M "P C C N"
_symmetry_group_IT_number 56
_symmetry_cell_setting 'orthorhombic'
loop_
_space_group_symop_operation_xyz
x,y,z
1/2-x,1/2-y,z
1/2+x,-y,1/2-z
-x,1/2+y,1/2-z
-x,-y,-z
1/2+x,1/2+y,-z
1/2-x,y,1/2+z
x,1/2-y,1/2+z
loop_
_atom_site_type_symbol
_atom_site_label
_atom_site_fract_x
_atom_site_fract_y
_atom_site_fract_z
Si Si1 0.334668 0.957289 0.700986
Si Si2 0.750000 0.750000 0.202741
Si Si3 0.009429 0.783885 0.230216
Si Si4 0.454994 0.960505 0.926075
Si Si5 0.522289 0.062756 0.647764
Si Si6 0.418268 0.903788 0.183751
Si Si7 0.111405 0.755774 0.385911
Si Si8 0.251738 0.453955 0.852829
O O1 0.440813 0.884404 0.707740
O O2 0.219343 0.906785 0.674542
O O3 0.387891 0.034613 0.647832
O O4 0.294014 0.001803 0.776941
O O5 0.870934 0.773516 0.244347
O O6 0.766326 0.656514 0.156000
O O7 0.037175 0.702369 0.172522
O O8 0.085978 0.768641 0.301338
O O9 0.446441 0.847637 0.921083
O O10 0.528058 0.012757 0.863381
O O11 0.326497 0.998639 0.912345
O O12 0.500000 0.000000 0.000000
O O13 0.546199 0.079980 0.733186
O O14 0.552981 0.154588 0.601681
O O15 0.617611 0.984031 0.630767
O O16 0.250000 0.750000 0.398111
#
# Coordination Sequence:
#
# PCOD9429783 Si02
#       8
#     8   4   8   8   8   8   8   8
#     4  11  19  34  59  92 130 152 192 274 323 375
#     4  12  22  32  62  96 134 156 190 262 342 394
#     4  11  19  33  61  96 127 160 198 270 327 379
#     4  12  24  42  63  87 130 175 217 251 296 396
#     4  10  18  33  62  90 122 150 196 274 326 372
#     4  10  21  35  56  93 123 159 208 251 320 366
#     4  11  20  37  61  89 120 163 213 257 322 380
#     4  11  20  37  58  92 125 164 206 253 327 379
#
# _framework density 19.575039
#
# number of rings (size 3 to 8) (size 9 to 14) (size 15 to 20)
#    0.000    1.067    6.667    2.800    1.867    0.000 
#    0.000    1.333    2.933    0.800    0.000    0.000 
#    0.000    0.000    0.000    0.000    0.000    0.000 
#
# Total GULP energy -334233.124010 kJ/mol
# GULP energy per Si atom -5570.552067 kJ/mol
# Density = 1.953049 g / cm^3
# Si number density = 19.575039 Si / 1000 Ang^3
#
#
#
# Elastic Constant Matrix: (Units=GPa)
#
#
# Indices 1 2 3 4 5 6 
#
# 1 94.1141 40.9675 15.1101 0.0000 0.0000 0.0000
# 2 40.9675 125.0602 11.8091 0.0000 0.0000 0.0000
# 3 15.1101 11.8091 22.0877 0.0000 0.0000 0.0000
# 4 0.0000 0.0000 0.0000 -2.1264 0.0000 0.0000
# 5 0.0000 0.0000 0.0000 0.0000 0.9981 0.0000
# 6 0.0000 0.0000 0.0000 0.0000 0.0000 32.1212
#
#
#
# Elastic Compliance Matrix: (Units=1/GPa)
#
#
# Indices 1 2 3 4 5 6 
#
# 1 0.013393 -0.003709 -0.007179 0.000000 0.000000 0.000000
# 2 -0.003709 0.009449 -0.002514 0.000000 0.000000 0.000000
# 3 -0.007179 -0.002514 0.051529 0.000000 0.000000 0.000000
# 4 0.000000 0.000000 0.000000 -0.470280 0.000000 0.000000
# 5 0.000000 0.000000 0.000000 0.000000 1.001896 0.000000
# 6 0.000000 0.000000 0.000000 0.000000 0.000000 0.031132
#
#
# Mechanical properties :
#
#
# Convention : Reuss Voigt Hill
#
# Bulk Modulus (GPa) = 21.02332 41.89281 31.45807
# Shear Modulus (GPa) = 7.35535 17.75694 12.55615
#
# Velocity S-wave (km/s) = 1.94053 3.01511 2.53541
# Velocity P-wave (km/s) = 3.97292 5.79386 4.96754
#
# Compressibility (1/GPa) = 0.04756622
#
# Stress axis : x y z
#
# Youngs Moduli (GPa) = 74.66813 105.83510 19.40646
#
# Poissons Ratio (x) = 0.39258 0.13931
# Poissons Ratio (y) = 0.27697 0.04879
# Poissons Ratio (z) = 0.53602 0.26609
#
# Static dielectric constant tensor:
#      x y z
#    x 1.582720 0.000000 0.000000 
#    y 0.000000 1.821860 0.000000 
#    z 0.000000 0.000000 1.668850 
# 
# From -- ./inp_files/15761.got.cif
#   From: 2010.05.17/outbox.cif.g08.bks.cpg/sg56_8_cif.got.tgz:15761.got - 2010.06.03 13:42:01.
