data_PCOD9429761
_publ_section_title
;
Structure prediction by ZEFSAII (Michael W. Deem and Ramdas Pophale) SiO2 
 PCOD9429761
Probable space group: P C C N
;
_chemical_formula_sum "Si O2"
_cell_formula_units_Z 60
_cell_length_a 14.146021
_cell_length_b 24.830173
_cell_length_c 9.303432
_cell_angle_alpha 90.000000
_cell_angle_beta 90.000000
_cell_angle_gamma 90.000000
_cell_volume 3267.813266
_symmetry_space_group_name_H-M "P C C N"
_symmetry_group_IT_number 56
_symmetry_cell_setting 'orthorhombic'
loop_
_space_group_symop_operation_xyz
x,y,z
1/2-x,1/2-y,z
1/2+x,-y,1/2-z
-x,1/2+y,1/2-z
-x,-y,-z
1/2+x,1/2+y,-z
1/2-x,y,1/2+z
x,1/2-y,1/2+z
loop_
_atom_site_type_symbol
_atom_site_label
_atom_site_fract_x
_atom_site_fract_y
_atom_site_fract_z
Si Si1 0.980963 0.916733 0.736428
Si Si2 0.798437 0.496917 0.382096
Si Si3 0.353785 0.594623 0.542570
Si Si4 0.687391 0.177145 0.460569
Si Si5 0.486973 0.456760 0.658717
Si Si6 0.250000 0.750000 0.798569
Si Si7 0.822860 0.553643 0.078821
Si Si8 0.034558 0.584062 0.555270
O O1 0.881285 0.900284 0.664853
O O2 0.072273 0.888786 0.666869
O O3 0.997303 0.980330 0.695935
O O4 0.981333 0.914071 0.905724
O O5 0.715532 0.452692 0.402657
O O6 0.802916 0.514165 0.215658
O O7 0.771169 0.546969 0.484558
O O8 0.892607 0.466656 0.435171
O O9 0.282699 0.642623 0.505276
O O10 0.421385 0.571127 0.416742
O O11 0.679896 0.218755 0.592610
O O12 0.702106 0.208143 0.310922
O O13 0.601441 0.136216 0.442314
O O14 0.400832 0.455206 0.548117
O O15 0.470877 0.424147 0.804565
#
# Coordination Sequence:
#
# PCOD9429761 Si02
#       8
#     8   8   8   8   8   4   8   8
#     4  11  19  32  44  66  94 130 163 222 247 285
#     4  11  19  30  44  66  87 129 173 219 228 281
#     4  10  18  33  50  65  97 127 179 212 249 285
#     4  10  21  35  53  76  94 135 168 223 248 310
#     4  11  20  34  44  67  96 130 164 226 252 278
#     4  10  20  36  52  72 104 116 170 218 284 290
#     4  11  22  30  44  59  92 125 167 216 249 265
#     4  11  22  30  51  69  94 127 182 207 250 294
#
# _framework density 18.360900999999998
#
# number of rings (size 3 to 8) (size 9 to 14) (size 15 to 20)
#    0.000    1.333    4.000    3.600    0.000    4.267 
#    0.000    0.000    0.000    0.000    0.000    0.000 
#    0.000    0.000    0.000    0.000    0.000  942.667 
#
# Total GULP energy -334162.305052 kJ/mol
# GULP energy per Si atom -5569.371751 kJ/mol
# Density = 1.831911 g / cm^3
# Si number density = 18.360901 Si / 1000 Ang^3
#
#
#
# Elastic Constant Matrix: (Units=GPa)
#
#
# Indices 1 2 3 4 5 6 
#
# 1 47.6691 13.7659 24.6947 0.0000 0.0000 0.0000
# 2 13.7659 42.1589 19.8205 0.0000 0.0000 0.0000
# 3 24.6947 19.8205 144.3995 0.0000 0.0000 0.0000
# 4 0.0000 0.0000 0.0000 24.6793 0.0000 0.0000
# 5 0.0000 0.0000 0.0000 0.0000 26.6925 0.0000
# 6 0.0000 0.0000 0.0000 0.0000 0.0000 8.8235
#
#
#
# Elastic Compliance Matrix: (Units=1/GPa)
#
#
# Indices 1 2 3 4 5 6 
#
# 1 0.024560 -0.006462 -0.003313 0.000000 0.000000 0.000000
# 2 -0.006462 0.027056 -0.002609 0.000000 0.000000 0.000000
# 3 -0.003313 -0.002609 0.007850 0.000000 0.000000 0.000000
# 4 0.000000 0.000000 0.000000 0.040520 0.000000 0.000000
# 5 0.000000 0.000000 0.000000 0.000000 0.037464 0.000000
# 6 0.000000 0.000000 0.000000 0.000000 0.000000 0.113334
#
#
# Mechanical properties :
#
#
# Convention : Reuss Voigt Hill
#
# Bulk Modulus (GPa) = 28.81938 38.97664 33.89801
# Shear Modulus (GPa) = 17.41442 23.76881 20.59161
#
# Velocity S-wave (km/s) = 3.08303 3.60187 3.35250
# Velocity P-wave (km/s) = 5.32950 6.21064 5.78687
#
# Compressibility (1/GPa) = 0.03469887
#
# Stress axis : x y z
#
# Youngs Moduli (GPa) = 40.71590 36.96010 127.38964
#
# Poissons Ratio (x) = 0.23883 0.42208
# Poissons Ratio (y) = 0.26310 0.33232
# Poissons Ratio (z) = 0.13490 0.09642
#
# Static dielectric constant tensor:
#      x y z
#    x 1.736690 0.000000 0.000000 
#    y 0.000000 1.639880 0.000000 
#    z 0.000000 0.000000 1.691910 
# 
# From -- ./inp_files/3753.got.cif
#   From: 2010.05.17/outbox.cif.g08.bks.cpg/sg56_2_cif.got.tgz:3753.got - 2010.06.03 13:42:01.
