data_PCOD9429753
_publ_section_title
;
Structure prediction by ZEFSAII (Michael W. Deem and Ramdas Pophale) SiO2 
 PCOD9429753
Probable space group: P C C N
;
_chemical_formula_sum "Si O2"
_cell_formula_units_Z 52
_cell_length_a 20.865104
_cell_length_b 7.724213
_cell_length_c 15.156497
_cell_angle_alpha 90.000000
_cell_angle_beta 90.000000
_cell_angle_gamma 90.000000
_cell_volume 2442.719688
_symmetry_space_group_name_H-M "P C C N"
_symmetry_group_IT_number 56
_symmetry_cell_setting 'orthorhombic'
loop_
_space_group_symop_operation_xyz
x,y,z
1/2-x,1/2-y,z
1/2+x,-y,1/2-z
-x,1/2+y,1/2-z
-x,-y,-z
1/2+x,1/2+y,-z
1/2-x,y,1/2+z
x,1/2-y,1/2+z
loop_
_atom_site_type_symbol
_atom_site_label
_atom_site_fract_x
_atom_site_fract_y
_atom_site_fract_z
Si Si1 0.054681 0.717187 0.732381
Si Si2 0.750000 0.250000 0.843334
Si Si3 0.894016 0.724306 0.968704
Si Si4 0.653473 0.522866 0.302367
Si Si5 0.041231 0.806154 0.919143
Si Si6 0.625349 0.402298 0.923539
Si Si7 0.919037 0.809627 0.154509
O O1 0.095658 0.885966 0.708075
O O2 0.062216 0.691135 0.836176
O O3 0.085657 0.576741 0.667595
O O4 0.981094 0.750909 0.708723
O O5 0.780950 0.413663 0.792135
O O6 0.691183 0.311562 0.901875
O O7 0.857217 0.604589 0.899014
O O8 0.967709 0.758925 0.938429
O O9 0.860769 0.911124 0.962672
O O10 0.899585 0.688003 0.072881
O O11 0.638363 0.654853 0.222965
O O12 0.055303 0.005591 0.887853
O O13 0.081539 0.793574 0.008887
#
# Coordination Sequence:
#
# PCOD9429753 Si02
#       7
#     8   4   8   8   8   8   8
#     4  10  18  33  56  90 129 157 196 254 325 378
#     4  10  24  46  58  80 124 176 220 244 312 376
#     4  11  19  34  62  93 122 156 209 266 327 370
#     4  10  23  37  60  91 127 171 209 258 309 389
#     4  10  18  32  58  93 124 157 195 257 329 371
#     4  10  20  39  60  82 121 169 205 257 306 382
#     4  10  18  34  57  93 128 152 201 258 324 380
#
# _framework density 21.287745999999999
#
# number of rings (size 3 to 8) (size 9 to 14) (size 15 to 20)
#    0.000    1.846    4.615    0.923    0.000    1.231 
#    0.000   12.308    0.000    5.538    0.000    0.000 
#    0.000    0.000    0.000    0.000    0.000    0.000 
#
# Total GULP energy -290082.026314 kJ/mol
# GULP energy per Si atom -5578.500506 kJ/mol
# Density = 2.123929 g / cm^3
# Si number density = 21.287746 Si / 1000 Ang^3
#
#
#
# Elastic Constant Matrix: (Units=GPa)
#
#
# Indices 1 2 3 4 5 6 
#
# 1 83.0691 11.9310 49.7584 0.0000 0.0000 0.0000
# 2 11.9310 25.1871 35.8390 0.0000 0.0000 0.0000
# 3 49.7584 35.8390 123.2308 0.0000 0.0000 0.0000
# 4 0.0000 0.0000 0.0000 26.5946 0.0000 0.0000
# 5 0.0000 0.0000 0.0000 0.0000 18.4242 0.0000
# 6 0.0000 0.0000 0.0000 0.0000 0.0000 23.4092
#
#
#
# Elastic Compliance Matrix: (Units=1/GPa)
#
#
# Indices 1 2 3 4 5 6 
#
# 1 0.015990 0.002751 -0.007256 0.000000 0.000000 0.000000
# 2 0.002751 0.068205 -0.020947 0.000000 0.000000 0.000000
# 3 -0.007256 -0.020947 0.017137 0.000000 0.000000 0.000000
# 4 0.000000 0.000000 0.000000 0.037602 0.000000 0.000000
# 5 0.000000 0.000000 0.000000 0.000000 0.054276 0.000000
# 6 0.000000 0.000000 0.000000 0.000000 0.000000 0.042718
#
#
# Mechanical properties :
#
#
# Convention : Reuss Voigt Hill
#
# Bulk Modulus (GPa) = 19.83061 47.39377 33.61219
# Shear Modulus (GPa) = 16.46680 22.61617 19.54149
#
# Velocity S-wave (km/s) = 2.78427 3.26299 3.03309
# Velocity P-wave (km/s) = 4.43530 6.04217 5.29999
#
# Compressibility (1/GPa) = 0.05042710
#
# Stress axis : x y z
#
# Youngs Moduli (GPa) = 62.54050 14.66167 58.35400
#
# Poissons Ratio (x) = -0.04033 0.42344
# Poissons Ratio (y) = -0.17205 1.22233
# Poissons Ratio (z) = 0.45382 0.30711
#
# Static dielectric constant tensor:
#      x y z
#    x 1.728440 0.000000 0.000000 
#    y 0.000000 1.906340 0.000000 
#    z 0.000000 0.000000 1.842940 
# 
# From -- ./inp_files/13046.got.cif
#   From: 2010.05.17/outbox.cif.g08.bks.cpg/sg56_7_cif.got.tgz:13046.got - 2010.06.03 13:42:01.
