data_PCOD9429658
_publ_section_title
;
Structure prediction by ZEFSAII (Michael W. Deem and Ramdas Pophale) SiO2 
 PCOD9429658
Probable space group: P C C N
;
_chemical_formula_sum "Si O2"
_cell_formula_units_Z 48
_cell_length_a 23.637728
_cell_length_b 7.155720
_cell_length_c 11.463726
_cell_angle_alpha 90.000000
_cell_angle_beta 90.000000
_cell_angle_gamma 90.000000
_cell_volume 1939.031510
_symmetry_space_group_name_H-M "P C C N"
_symmetry_group_IT_number 56
_symmetry_cell_setting 'orthorhombic'
loop_
_space_group_symop_operation_xyz
x,y,z
1/2-x,1/2-y,z
1/2+x,-y,1/2-z
-x,1/2+y,1/2-z
-x,-y,-z
1/2+x,1/2+y,-z
1/2-x,y,1/2+z
x,1/2-y,1/2+z
loop_
_atom_site_type_symbol
_atom_site_label
_atom_site_fract_x
_atom_site_fract_y
_atom_site_fract_z
Si Si1 0.621126 0.424209 0.048199
Si Si2 0.078269 0.080083 0.315694
Si Si3 0.819095 0.486420 0.313758
Si Si4 0.690551 0.464630 0.277702
Si Si5 0.904301 0.017686 0.443650
Si Si6 0.031597 0.834850 0.778288
O O1 0.666647 0.478058 0.147108
O O2 0.617934 0.204699 0.011095
O O3 0.560455 0.448758 0.114874
O O4 0.644299 0.517272 0.930823
O O5 0.144047 0.085604 0.285518
O O6 0.071755 0.111096 0.453763
O O7 0.058739 0.868840 0.286357
O O8 0.035523 0.188314 0.231409
O O9 0.753322 0.533755 0.303477
O O10 0.815898 0.260171 0.297746
O O11 0.648109 0.556965 0.369750
O O12 0.948824 0.083848 0.346503
#
# Coordination Sequence:
#
# PCOD9429658 Si02
#       6
#     8   8   8   8   8   8
#     4   9  16  31  44  70 102 126 166 200 251 299
#     4  11  20  33  50  74 106 128 174 200 251 298
#     4  10  18  26  45  74 100 128 156 208 256 295
#     4   9  17  26  47  70 104 126 157 206 268 290
#     4   9  16  33  47  70 100 132 166 203 252 299
#     4  10  20  34  49  70 102 141 163 211 240 299
#
# _framework density 24.754626999999999
#
# number of rings (size 3 to 8) (size 9 to 14) (size 15 to 20)
#    0.000    2.333    6.667    0.500    2.333    2.000 
#    0.000    0.000    0.000    0.000    0.000    4.667 
#    0.000    0.000    0.000    0.000    0.000    0.000 
#
# Total GULP energy -268015.994052 kJ/mol
# GULP energy per Si atom -5583.666543 kJ/mol
# Density = 2.469828 g / cm^3
# Si number density = 24.754627 Si / 1000 Ang^3
#
#
#
# Elastic Constant Matrix: (Units=GPa)
#
#
# Indices 1 2 3 4 5 6 
#
# 1 131.1634 9.6549 9.1557 0.0000 0.0000 0.0000
# 2 9.6549 88.6925 21.9860 0.0000 0.0000 0.0000
# 3 9.1557 21.9860 116.7847 0.0000 0.0000 0.0000
# 4 0.0000 0.0000 0.0000 14.2272 0.0000 0.0000
# 5 0.0000 0.0000 0.0000 0.0000 20.8151 0.0000
# 6 0.0000 0.0000 0.0000 0.0000 0.0000 9.7296
#
#
#
# Elastic Compliance Matrix: (Units=1/GPa)
#
#
# Indices 1 2 3 4 5 6 
#
# 1 0.007710 -0.000723 -0.000468 0.000000 0.000000 0.000000
# 2 -0.000723 0.011895 -0.002183 0.000000 0.000000 0.000000
# 3 -0.000468 -0.002183 0.009010 0.000000 0.000000 0.000000
# 4 0.000000 0.000000 0.000000 0.070288 0.000000 0.000000
# 5 0.000000 0.000000 0.000000 0.000000 0.048042 0.000000
# 6 0.000000 0.000000 0.000000 0.000000 0.000000 0.102779
#
#
# Mechanical properties :
#
#
# Convention : Reuss Voigt Hill
#
# Bulk Modulus (GPa) = 45.73135 46.47042 46.10089
# Shear Modulus (GPa) = 18.95653 28.67732 23.81692
#
# Velocity S-wave (km/s) = 2.77027 3.40731 3.10517
# Velocity P-wave (km/s) = 5.36158 5.85601 5.61424
#
# Compressibility (1/GPa) = 0.02186684
#
# Stress axis : x y z
#
# Youngs Moduli (GPa) = 129.70170 84.07122 110.98317
#
# Poissons Ratio (x) = 0.06080 0.05197
# Poissons Ratio (y) = 0.09380 0.24223
# Poissons Ratio (z) = 0.06074 0.18349
#
# Static dielectric constant tensor:
#      x y z
#    x 1.998660 0.000000 0.000000 
#    y 0.000000 2.091210 0.000000 
#    z 0.000000 0.000000 1.940650 
# 
# From -- ./inp_files/8918.got.cif
#   From: 2010.05.17/outbox.cif.g08.bks.cpg/sg56_5_cif.got.tgz:8918.got - 2010.06.03 13:42:01.
