data_PCOD9429870
_publ_section_title
;
Structure prediction by ZEFSAII (Michael W. Deem and Ramdas Pophale) SiO2 
 PCOD9429870
Probable space group: P C C N
;
_chemical_formula_sum "Si O2"
_cell_formula_units_Z 60
_cell_length_a 9.801929
_cell_length_b 11.879081
_cell_length_c 19.165891
_cell_angle_alpha 90.000000
_cell_angle_beta 90.000000
_cell_angle_gamma 90.000000
_cell_volume 2231.636263
_symmetry_space_group_name_H-M "P C C N"
_symmetry_group_IT_number 56
_symmetry_cell_setting 'orthorhombic'
loop_
_space_group_symop_operation_xyz
x,y,z
1/2-x,1/2-y,z
1/2+x,-y,1/2-z
-x,1/2+y,1/2-z
-x,-y,-z
1/2+x,1/2+y,-z
1/2-x,y,1/2+z
x,1/2-y,1/2+z
loop_
_atom_site_type_symbol
_atom_site_label
_atom_site_fract_x
_atom_site_fract_y
_atom_site_fract_z
Si Si1 0.185609 0.875599 0.426055
Si Si2 0.127225 0.070256 0.973028
Si Si3 0.096980 0.432013 0.847051
Si Si4 0.973497 0.798777 0.520988
Si Si5 0.585954 0.884786 0.820896
Si Si6 0.018285 0.906111 0.164984
Si Si7 0.398483 0.351590 0.189883
Si Si8 0.250000 0.750000 0.609880
O O1 0.250000 0.750000 0.421684
O O2 0.030632 0.870835 0.456293
O O3 0.263631 0.968754 0.473890
O O4 0.180187 0.949363 0.353973
O O5 0.111123 0.192555 0.009269
O O6 0.089357 0.118028 0.895852
O O7 0.000000 0.000000 0.000000
O O8 0.110002 0.365247 0.775095
O O9 0.110398 0.361608 0.918090
O O10 0.948290 0.489724 0.845893
O O11 0.122006 0.778380 0.558570
O O12 0.549947 0.888377 0.738858
O O13 0.525259 0.759834 0.834779
O O14 0.743386 0.863446 0.833511
O O15 0.163270 0.841023 0.155944
O O16 0.034003 0.038943 0.159352
#
# Coordination Sequence:
#
# PCOD9429870 Si02
#       8
#     8   8   8   8   8   8   8   4
#     4  12  24  43  64  97 137 174 228 283 336 412
#     4  11  22  39  66  93 127 175 219 270 342 389
#     4  11  25  41  65  98 125 177 219 276 336 403
#     4  11  22  43  65  93 135 168 226 276 332 406
#     4  10  22  40  59  89 128 165 211 271 330 398
#     4  10  21  36  60  89 117 167 212 268 323 401
#     4  10  21  40  59  86 128 164 213 265 334 399
#     4  10  18  36  62  88 116 166 212 268 322 394
#
# _framework density 26.886102000000001
#
# number of rings (size 3 to 8) (size 9 to 14) (size 15 to 20)
#    0.000    1.333    2.000    4.400    1.867    2.667 
#    4.800    1.333    0.000    0.000    0.000    0.000 
#    0.000    0.000    0.000    0.000    0.000    0.000 
#
# Total GULP energy -334358.494697 kJ/mol
# GULP energy per Si atom -5572.641578 kJ/mol
# Density = 2.682491 g / cm^3
# Si number density = 26.886102 Si / 1000 Ang^3
#
#
#
# Elastic Constant Matrix: (Units=GPa)
#
#
# Indices 1 2 3 4 5 6 
#
# 1 79.1109 41.6757 -13.4572 0.0000 0.0000 0.0000
# 2 41.6757 179.2034 20.3368 0.0000 0.0000 0.0000
# 3 -13.4572 20.3368 74.3020 0.0000 0.0000 0.0000
# 4 0.0000 0.0000 0.0000 59.0773 0.0000 0.0000
# 5 0.0000 0.0000 0.0000 0.0000 24.8209 0.0000
# 6 0.0000 0.0000 0.0000 0.0000 0.0000 56.3624
#
#
#
# Elastic Compliance Matrix: (Units=1/GPa)
#
#
# Indices 1 2 3 4 5 6 
#
# 1 0.015426 -0.004030 0.003897 0.000000 0.000000 0.000000
# 2 -0.004030 0.006812 -0.002594 0.000000 0.000000 0.000000
# 3 0.003897 -0.002594 0.014874 0.000000 0.000000 0.000000
# 4 0.000000 0.000000 0.000000 0.016927 0.000000 0.000000
# 5 0.000000 0.000000 0.000000 0.000000 0.040289 0.000000
# 6 0.000000 0.000000 0.000000 0.000000 0.000000 0.017742
#
#
# Mechanical properties :
#
#
# Convention : Reuss Voigt Hill
#
# Bulk Modulus (GPa) = 31.58740 47.74743 39.66741
# Shear Modulus (GPa) = 39.03883 46.98950 43.01416
#
# Velocity S-wave (km/s) = 3.81466 4.18511 4.00417
# Velocity P-wave (km/s) = 5.58357 6.41493 6.01363
#
# Compressibility (1/GPa) = 0.03165820
#
# Stress axis : x y z
#
# Youngs Moduli (GPa) = 64.82451 146.80340 67.22942
#
# Poissons Ratio (x) = 0.59159 -0.26199
# Poissons Ratio (y) = 0.26123 0.17441
# Poissons Ratio (z) = -0.25261 0.38085
#
# Static dielectric constant tensor:
#      x y z
#    x 2.169780 0.000000 0.000000 
#    y 0.000000 2.443760 0.000000 
#    z 0.000000 0.000000 2.345540 
# 
# From -- ./inp_files/18805.got.cif
#   From: 2010.05.17/outbox.cif.g08.bks.cpg/sg56_10_cif.got.tgz:18805.got - 2010.06.03 13:42:01.
