data_PCOD9429485
_publ_section_title
;
Structure prediction by ZEFSAII (Michael W. Deem and Ramdas Pophale) SiO2 
 PCOD9429485
Probable space group: P B A M
;
_chemical_formula_sum "Si O2"
_cell_formula_units_Z 40
_cell_length_a 18.000000
_cell_length_b 9.000000
_cell_length_c 12.000000
_cell_angle_alpha 90.000000
_cell_angle_beta 90.000000
_cell_angle_gamma 90.000000
_cell_volume 1944.000000
_symmetry_space_group_name_H-M "P B A M"
_symmetry_group_IT_number 55
_symmetry_cell_setting 'orthorhombic'
loop_
_space_group_symop_operation_xyz
x,y,z
-x,-y,z
1/2+x,1/2-y,-z
1/2-x,1/2+y,-z
-x,-y,-z
x,y,-z
1/2-x,1/2+y,z
1/2+x,1/2-y,z
loop_
_atom_site_type_symbol
_atom_site_label
_atom_site_fract_x
_atom_site_fract_y
_atom_site_fract_z
Si Si1 0.174328 0.414807 0.863554
Si Si2 0.185521 0.084718 0.757586
Si Si3 0.148131 0.684751 0.500000
Si Si4 0.064233 0.880828 0.125674
Si Si5 0.937873 0.394396 0.275444
Si Si6 0.704589 0.478404 0.500000
O O1 0.238587 0.513133 0.804679
O O2 0.103425 0.499327 0.813713
O O3 0.177374 0.247562 0.813364
O O4 0.178353 0.413530 0.000000
O O5 0.126983 0.968001 0.806906
O O6 0.179674 0.087401 0.621717
O O7 0.106159 0.667777 0.382351
O O8 0.208268 0.553794 0.500000
O O9 0.185541 0.847567 0.500000
O O10 0.037464 0.744105 0.200182
O O11 0.088784 0.835679 0.000000
O O12 0.000000 0.000000 0.113697
O O13 0.000000 0.500000 0.325551
#
# Coordination Sequence:
#
# PCOD9429485 Si02
#       6
#     8   8   4   8   8   4
#     4  12  25  42  69 102 139 180 228 287 346 410
#     4  12  24  44  69 101 136 177 234 286 347 406
#     4  12  25  48  70 104 136 179 230 285 347 403
#     4  11  24  45  70  98 138 185 232 284 344 414
#     4  12  26  45  69 100 142 183 230 285 344 410
#     4  12  24  46  74  98 135 176 224 286 337 404
#
# _framework density 20.576132000000001
#
# number of rings (size 3 to 8) (size 9 to 14) (size 15 to 20)
#    0.000    0.200    4.000    6.300    0.000    3.200 
#    0.000    4.000    0.000    0.000    0.000    0.000 
#    0.000    0.000    0.000    0.000    0.000    0.000 
#
# Total GULP energy -223298.422503 kJ/mol
# GULP energy per Si atom -5582.460563 kJ/mol
# Density = 2.052930 g / cm^3
# Si number density = 20.576132 Si / 1000 Ang^3
#
#
#
# Elastic Constant Matrix: (Units=GPa)
#
#
# Indices 1 2 3 4 5 6 
#
# 1 33.6957 19.2858 12.6242 0.0000 0.0000 0.0000
# 2 19.2858 150.5292 47.3145 0.0000 0.0000 0.0000
# 3 12.6242 47.3145 208.1806 0.0000 0.0000 0.0000
# 4 0.0000 0.0000 0.0000 20.3152 0.0000 0.0000
# 5 0.0000 0.0000 0.0000 0.0000 19.9800 0.0000
# 6 0.0000 0.0000 0.0000 0.0000 0.0000 45.1334
#
#
#
# Elastic Compliance Matrix: (Units=1/GPa)
#
#
# Indices 1 2 3 4 5 6 
#
# 1 0.032256 -0.003788 -0.001095 0.000000 0.000000 0.000000
# 2 -0.003788 0.007599 -0.001497 0.000000 0.000000 0.000000
# 3 -0.001095 -0.001497 0.005210 0.000000 0.000000 0.000000
# 4 0.000000 0.000000 0.000000 0.049224 0.000000 0.000000
# 5 0.000000 0.000000 0.000000 0.000000 0.050050 0.000000
# 6 0.000000 0.000000 0.000000 0.000000 0.000000 0.022157
#
#
# Mechanical properties :
#
#
# Convention : Reuss Voigt Hill
#
# Bulk Modulus (GPa) = 30.95616 61.20608 46.08112
# Shear Modulus (GPa) = 26.31220 37.96445 32.13832
#
# Velocity S-wave (km/s) = 3.57987 4.30009 3.95640
# Velocity P-wave (km/s) = 5.67139 7.38005 6.58140
#
# Compressibility (1/GPa) = 0.03230375
#
# Stress axis : x y z
#
# Youngs Moduli (GPa) = 31.00205 131.59152 191.92955
#
# Poissons Ratio (x) = 0.49853 0.21016
# Poissons Ratio (y) = 0.11745 0.28740
# Poissons Ratio (z) = 0.03395 0.19705
#
# Static dielectric constant tensor:
#      x y z
#    x 1.633320 0.000000 0.000000 
#    y 0.000000 1.695400 0.000000 
#    z 0.000000 0.000000 1.763410 
# 
# From -- ./inp_files/14673.got.cif
#   From: 2010.05.17/outbox.ucp.g08.bks.cvg/sg55_8_cif.got.tgz:14673.got - 2010.06.11 16:36:00.
