data_PCOD9429178
_publ_section_title
;
Structure prediction by ZEFSAII (Michael W. Deem and Ramdas Pophale) SiO2 
 PCOD9429178
Probable space group: P B A M
;
_chemical_formula_sum "Si O2"
_cell_formula_units_Z 52
_cell_length_a 19.618954
_cell_length_b 9.055218
_cell_length_c 12.929261
_cell_angle_alpha 90.000000
_cell_angle_beta 90.000000
_cell_angle_gamma 90.000000
_cell_volume 2296.933711
_symmetry_space_group_name_H-M "P B A M"
_symmetry_group_IT_number 55
_symmetry_cell_setting 'orthorhombic'
loop_
_space_group_symop_operation_xyz
x,y,z
-x,-y,z
1/2+x,1/2-y,-z
1/2-x,1/2+y,-z
-x,-y,-z
x,y,-z
1/2-x,1/2+y,z
1/2+x,1/2-y,z
loop_
_atom_site_type_symbol
_atom_site_label
_atom_site_fract_x
_atom_site_fract_y
_atom_site_fract_z
Si Si1 0.773278 0.546735 0.224653
Si Si2 0.587812 0.674050 0.000000
Si Si3 0.395293 0.740031 0.767147
Si Si4 0.133164 0.163023 0.000000
Si Si5 0.661872 0.771811 0.712556
Si Si6 0.285685 0.099882 0.000000
Si Si7 0.582513 0.515321 0.384985
Si Si8 0.028141 0.652083 0.824214
O O1 0.832749 0.656675 0.259095
O O2 0.782051 0.402678 0.298669
O O3 0.704558 0.643887 0.228532
O O4 0.784093 0.491482 0.106772
O O5 0.649496 0.792276 0.000000
O O6 0.541175 0.713133 0.902170
O O7 0.616114 0.510727 0.000000
O O8 0.390669 0.587975 0.706713
O O9 0.469217 0.808079 0.743604
O O10 0.393468 0.725125 0.891828
O O11 0.214304 0.185527 0.000000
O O12 0.617782 0.676047 0.630704
O O13 0.602010 0.858579 0.773139
O O14 0.500000 0.500000 0.377925
O O15 0.601155 0.462304 0.500000
O O16 0.000000 0.500000 0.873520
#
# Coordination Sequence:
#
# PCOD9429178 Si02
#       8
#     8   4   8   4   8   4   8   8
#     4  12  26  43  72 103 144 199 235 302 357 434
#     4  12  24  38  59  93 140 198 250 285 350 429
#     4  12  25  45  71 107 148 182 247 292 368 432
#     4  12  28  39  65 102 148 193 232 302 356 431
#     4  12  24  46  69 101 141 181 245 294 364 425
#     4  12  23  39  59  95 145 189 246 275 350 430
#     4  11  25  47  77 106 139 185 237 299 360 428
#     4  12  23  42  66  99 143 190 236 308 357 424
#
# _framework density 22.638876
#
# number of rings (size 3 to 8) (size 9 to 14) (size 15 to 20)
#    0.000    0.154    4.615    5.769    2.154    0.615 
#    0.000    3.846    0.000    2.769    0.000    0.000 
#    0.000    0.000    0.000    0.000    0.000    0.000 
#
# Total GULP energy -290302.498135 kJ/mol
# GULP energy per Si atom -5582.740349 kJ/mol
# Density = 2.258735 g / cm^3
# Si number density = 22.638876 Si / 1000 Ang^3
#
#
#
# Elastic Constant Matrix: (Units=GPa)
#
#
# Indices 1 2 3 4 5 6 
#
# 1 143.2159 40.3952 10.5541 0.0000 0.0000 0.0000
# 2 40.3952 109.1555 17.8081 0.0000 0.0000 0.0000
# 3 10.5541 17.8081 49.8396 0.0000 0.0000 0.0000
# 4 0.0000 0.0000 0.0000 -19.7381 0.0000 0.0000
# 5 0.0000 0.0000 0.0000 0.0000 68.9086 0.0000
# 6 0.0000 0.0000 0.0000 0.0000 0.0000 47.1306
#
#
#
# Elastic Compliance Matrix: (Units=1/GPa)
#
#
# Indices 1 2 3 4 5 6 
#
# 1 0.007817 -0.002785 -0.000660 0.000000 0.000000 0.000000
# 2 -0.002785 0.010721 -0.003241 0.000000 0.000000 0.000000
# 3 -0.000660 -0.003241 0.021362 0.000000 0.000000 0.000000
# 4 0.000000 0.000000 0.000000 -0.050663 0.000000 0.000000
# 5 0.000000 0.000000 0.000000 0.000000 0.014512 0.000000
# 6 0.000000 0.000000 0.000000 0.000000 0.000000 0.021218
#
#
# Mechanical properties :
#
#
# Convention : Reuss Voigt Hill
#
# Bulk Modulus (GPa) = 37.69679 48.85841 43.27760
# Shear Modulus (GPa) = 105.97705 34.82380 70.40043
#
# Velocity S-wave (km/s) = 6.84935 3.92628 5.58253
# Velocity P-wave (km/s) = 8.90163 6.49483 7.79172
#
# Compressibility (1/GPa) = 0.02652746
#
# Stress axis : x y z
#
# Youngs Moduli (GPa) = 127.93203 93.27833 46.81182
#
# Poissons Ratio (x) = 0.25978 0.03090
# Poissons Ratio (y) = 0.35629 0.15171
# Poissons Ratio (z) = 0.08446 0.30230
#
# Static dielectric constant tensor:
#      x y z
#    x 1.888700 0.000000 0.000000 
#    y 0.000000 1.870690 0.000000 
#    z 0.000000 0.000000 1.875260 
# 
# From -- ./inp_files/19717.got.cif
#   From: 2010.05.17/outbox.cif.g08.bks.cpg/sg55_10_cif.got.tgz:19717.got - 2010.06.03 13:27:54.
