data_PCOD9429148
_publ_section_title
;
Structure prediction by ZEFSAII (Michael W. Deem and Ramdas Pophale) SiO2 
 PCOD9429148
Probable space group: P B A M
;
_chemical_formula_sum "Si O2"
_cell_formula_units_Z 40
_cell_length_a 9.013432
_cell_length_b 10.049241
_cell_length_c 21.378899
_cell_angle_alpha 90.000000
_cell_angle_beta 90.000000
_cell_angle_gamma 90.000000
_cell_volume 1936.461129
_symmetry_space_group_name_H-M "P B A M"
_symmetry_group_IT_number 55
_symmetry_cell_setting 'orthorhombic'
loop_
_space_group_symop_operation_xyz
x,y,z
-x,-y,z
1/2+x,1/2-y,-z
1/2-x,1/2+y,-z
-x,-y,-z
x,y,-z
1/2-x,1/2+y,z
1/2+x,1/2-y,z
loop_
_atom_site_type_symbol
_atom_site_label
_atom_site_fract_x
_atom_site_fract_y
_atom_site_fract_z
Si Si1 0.675502 0.200803 0.850309
Si Si2 0.178319 0.031746 0.926009
Si Si3 0.105125 0.379384 0.572676
Si Si4 0.056077 0.846651 0.769731
Si Si5 0.570973 0.644289 0.374273
O O1 0.713369 0.080481 0.897338
O O2 0.713896 0.332780 0.889751
O O3 0.775312 0.163784 0.790734
O O4 0.522784 0.244789 0.817556
O O5 0.202050 0.044699 0.000000
O O6 0.000000 0.000000 0.917613
O O7 0.144634 0.402411 0.500000
O O8 0.254904 0.365170 0.611884
O O9 0.000000 0.500000 0.593936
O O10 0.008102 0.247370 0.580192
O O11 0.039997 0.811844 0.697184
O O12 0.000000 0.000000 0.777283
O O13 0.500000 0.500000 0.382518
#
# Coordination Sequence:
#
# PCOD9429148 Si02
#       5
#     8   8   8   8   8
#     4  12  20  45  64  92 126 172 208 268 325 382
#     4  11  24  43  65  94 131 166 211 269 325 388
#     4  11  24  43  67 101 137 172 220 276 335 394
#     4  11  24  43  64  92 133 164 216 267 321 382
#     4  11  24  43  67  96 131 181 224 272 331 398
#
# _framework density 20.656237999999998
#
# number of rings (size 3 to 8) (size 9 to 14) (size 15 to 20)
#    0.000    0.800    4.000    3.600    0.000    5.600 
#    3.600    1.000    0.000    0.000    0.000    0.000 
#    0.000    0.000    0.000    0.000    0.000    0.000 
#
# Total GULP energy -223316.306456 kJ/mol
# GULP energy per Si atom -5582.907661 kJ/mol
# Density = 2.060922 g / cm^3
# Si number density = 20.656238 Si / 1000 Ang^3
#
#
#
# Elastic Constant Matrix: (Units=GPa)
#
#
# Indices 1 2 3 4 5 6 
#
# 1 82.8400 21.2620 25.7195 0.0000 0.0000 0.0000
# 2 21.2620 86.7536 27.9172 0.0000 0.0000 0.0000
# 3 25.7195 27.9172 68.7622 0.0000 0.0000 0.0000
# 4 0.0000 0.0000 0.0000 -85.4463 0.0000 0.0000
# 5 0.0000 0.0000 0.0000 0.0000 108.7983 0.0000
# 6 0.0000 0.0000 0.0000 0.0000 0.0000 29.0077
#
#
#
# Elastic Compliance Matrix: (Units=1/GPa)
#
#
# Indices 1 2 3 4 5 6 
#
# 1 0.013953 -0.002002 -0.004406 0.000000 0.000000 0.000000
# 2 -0.002002 0.013546 -0.004751 0.000000 0.000000 0.000000
# 3 -0.004406 -0.004751 0.018120 0.000000 0.000000 0.000000
# 4 0.000000 0.000000 0.000000 -0.011703 0.000000 0.000000
# 5 0.000000 0.000000 0.000000 0.000000 0.009191 0.000000
# 6 0.000000 0.000000 0.000000 0.000000 0.000000 0.034474
#
#
# Mechanical properties :
#
#
# Convention : Reuss Voigt Hill
#
# Bulk Modulus (GPa) = 42.91607 43.12812 43.02210
# Shear Modulus (GPa) = 46.43968 21.36910 33.90439
#
# Velocity S-wave (km/s) = 4.74668 3.21987 4.05577
# Velocity P-wave (km/s) = 7.13181 5.89472 6.54257
#
# Compressibility (1/GPa) = 0.02330129
#
# Stress axis : x y z
#
# Youngs Moduli (GPa) = 71.66766 73.82047 55.18795
#
# Poissons Ratio (x) = 0.14777 0.24318
# Poissons Ratio (y) = 0.14346 0.26220
# Poissons Ratio (z) = 0.31579 0.35072
#
# Static dielectric constant tensor:
#      x y z
#    x 1.764560 0.000000 0.000000 
#    y 0.000000 1.886990 0.000000 
#    z 0.000000 0.000000 1.716520 
# 
# From -- ./inp_files/23401.got.cif
#   From: 2010.05.17/outbox.cif.g08.bks.cpg/sg55_12_cif.got.tgz:23401.got - 2010.06.03 13:27:54.
