data_PCOD9429563
_publ_section_title
;
Structure prediction by ZEFSAII (Michael W. Deem and Ramdas Pophale) SiO2 
 PCOD9429563
Probable space group: P C C N
;
_chemical_formula_sum "Si O2"
_cell_formula_units_Z 56
_cell_length_a 24.686267
_cell_length_b 16.350559
_cell_length_c 5.509634
_cell_angle_alpha 90.000000
_cell_angle_beta 90.000000
_cell_angle_gamma 90.000000
_cell_volume 2223.877070
_symmetry_space_group_name_H-M "P C C N"
_symmetry_group_IT_number 56
_symmetry_cell_setting 'orthorhombic'
loop_
_space_group_symop_operation_xyz
x,y,z
1/2-x,1/2-y,z
1/2+x,-y,1/2-z
-x,1/2+y,1/2-z
-x,-y,-z
1/2+x,1/2+y,-z
1/2-x,y,1/2+z
x,1/2-y,1/2+z
loop_
_atom_site_type_symbol
_atom_site_label
_atom_site_fract_x
_atom_site_fract_y
_atom_site_fract_z
Si Si1 0.331127 0.225023 0.654483
Si Si2 0.311469 0.783777 0.280712
Si Si3 0.550830 0.298457 0.484449
Si Si4 0.616187 0.563656 0.970230
Si Si5 0.438019 0.519072 0.423341
Si Si6 0.284174 0.973789 0.309606
Si Si7 0.431007 0.348196 0.633655
O O1 0.304442 0.240196 0.394899
O O2 0.347745 0.130952 0.671818
O O3 0.385366 0.280270 0.627134
O O4 0.250000 0.750000 0.264982
O O5 0.336054 0.757513 0.021758
O O6 0.304584 0.879976 0.312866
O O7 0.561225 0.252590 0.231435
O O8 0.575357 0.390633 0.484828
O O9 0.485904 0.316691 0.516032
O O10 0.583990 0.487870 0.851028
O O11 0.662618 0.527453 0.145474
O O12 0.568277 0.619000 0.089551
O O13 0.500000 0.500000 0.500000
O O14 0.413460 0.433320 0.510825
O O15 0.254613 0.986188 0.048266
#
# Coordination Sequence:
#
# PCOD9429563 Si02
#       7
#     8   8   8   8   8   8   8
#     4  10  19  36  64  94 122 168 234 276 321 411
#     4  10  16  35  64  91 117 163 230 273 315 407
#     4  11  25  41  67  97 144 188 227 281 353 416
#     4  11  25  41  68 103 140 178 235 293 361 420
#     4  10  24  42  68 101 140 180 236 294 349 415
#     4  12  25  42  68 100 137 179 226 295 357 420
#     4  10  22  40  70  97 129 183 244 283 328 433
#
# _framework density 25.181248
#
# number of rings (size 3 to 8) (size 9 to 14) (size 15 to 20)
#    0.000    1.429    4.286    1.714   10.000    1.143 
#    0.000    1.429    0.000   10.286    0.000    0.000 
#    0.000    0.000    0.000    0.000    0.000    0.000 
#
# Total GULP energy -312444.689964 kJ/mol
# GULP energy per Si atom -5579.369464 kJ/mol
# Density = 2.512393 g / cm^3
# Si number density = 25.181248 Si / 1000 Ang^3
#
#
#
# Elastic Constant Matrix: (Units=GPa)
#
#
# Indices 1 2 3 4 5 6 
#
# 1 108.7432 39.3189 56.6025 0.0000 0.0000 0.0000
# 2 39.3189 143.5515 47.7797 0.0000 0.0000 0.0000
# 3 56.6025 47.7797 184.5580 0.0000 0.0000 0.0000
# 4 0.0000 0.0000 0.0000 36.1886 0.0000 0.0000
# 5 0.0000 0.0000 0.0000 0.0000 13.9315 0.0000
# 6 0.0000 0.0000 0.0000 0.0000 0.0000 7.2938
#
#
#
# Elastic Compliance Matrix: (Units=1/GPa)
#
#
# Indices 1 2 3 4 5 6 
#
# 1 0.011528 -0.002168 -0.002974 0.000000 0.000000 0.000000
# 2 -0.002168 0.008031 -0.001414 0.000000 0.000000 0.000000
# 3 -0.002974 -0.001414 0.006697 0.000000 0.000000 0.000000
# 4 0.000000 0.000000 0.000000 0.027633 0.000000 0.000000
# 5 0.000000 0.000000 0.000000 0.000000 0.071780 0.000000
# 6 0.000000 0.000000 0.000000 0.000000 0.000000 0.137103
#
#
# Mechanical properties :
#
#
# Convention : Reuss Voigt Hill
#
# Bulk Modulus (GPa) = 76.08684 80.47276 78.27980
# Shear Modulus (GPa) = 17.84033 31.02622 24.43327
#
# Velocity S-wave (km/s) = 2.66461 3.51396 3.11834
# Velocity P-wave (km/s) = 6.30461 6.96352 6.64224
#
# Compressibility (1/GPa) = 0.01314288
#
# Stress axis : x y z
#
# Youngs Moduli (GPa) = 86.74598 124.52456 149.32733
#
# Poissons Ratio (x) = 0.26991 0.44416
# Poissons Ratio (y) = 0.18802 0.21118
# Poissons Ratio (z) = 0.25802 0.17611
#
# Static dielectric constant tensor:
#      x y z
#    x 3.023420 0.000000 0.000000 
#    y 0.000000 1.958770 0.000000 
#    z 0.000000 0.000000 2.629060 
# 
# From -- ./inp_files/1337.got.cif
#   From: 2010.05.17/outbox.cif.g08.bks.cpg/sg56_1_cif.got.tgz:1337.got - 2010.06.03 13:42:01.
