data_PCOD9429050
_publ_section_title
;
Structure prediction by ZEFSAII (Michael W. Deem and Ramdas Pophale) SiO2 
 PCOD9429050
Probable space group: P B A M
;
_chemical_formula_sum "Si O2"
_cell_formula_units_Z 48
_cell_length_a 8.997643
_cell_length_b 20.768630
_cell_length_c 13.497042
_cell_angle_alpha 90.000000
_cell_angle_beta 90.000000
_cell_angle_gamma 90.000000
_cell_volume 2522.174940
_symmetry_space_group_name_H-M "P B A M"
_symmetry_group_IT_number 55
_symmetry_cell_setting 'orthorhombic'
loop_
_space_group_symop_operation_xyz
x,y,z
-x,-y,z
1/2+x,1/2-y,-z
1/2-x,1/2+y,-z
-x,-y,-z
x,y,-z
1/2-x,1/2+y,z
1/2+x,1/2-y,z
loop_
_atom_site_type_symbol
_atom_site_label
_atom_site_fract_x
_atom_site_fract_y
_atom_site_fract_z
Si Si1 0.399289 0.185483 0.199761
Si Si2 0.735122 0.034465 0.616121
Si Si3 0.413191 0.101511 0.383387
Si Si4 0.922902 0.564311 0.882885
Si Si5 0.067785 0.191219 0.119175
Si Si6 0.408489 0.436301 0.196529
O O1 0.380934 0.162258 0.313493
O O2 0.494029 0.126819 0.155534
O O3 0.241360 0.190987 0.145965
O O4 0.488500 0.250273 0.176550
O O5 0.772830 0.037577 0.500000
O O6 0.582964 0.075687 0.630517
O O7 0.863569 0.060188 0.687486
O O8 0.692100 0.960113 0.640283
O O9 0.395736 0.115552 0.500000
O O10 0.751079 0.563880 0.855865
O O11 0.000000 0.500000 0.841795
O O12 0.938533 0.563860 0.000000
O O13 0.997615 0.125516 0.160478
O O14 0.046720 0.196833 0.000000
O O15 0.500000 0.500000 0.171075
#
# Coordination Sequence:
#
# PCOD9429050 Si02
#       6
#     8   8   8   8   8   8
#     4  12  24  44  66  90 125 167 219 262 329 392
#     4   9  18  36  65  99 130 164 207 258 317 378
#     4   9  18  37  68  99 128 163 206 257 318 383
#     4  11  22  37  61  89 120 162 210 264 317 374
#     4  12  27  44  64  90 125 173 218 271 327 386
#     4  12  24  39  62  95 129 168 214 267 320 378
#
# _framework density 19.031192999999998
#
# number of rings (size 3 to 8) (size 9 to 14) (size 15 to 20)
#    0.000    1.167    1.667    7.000    0.000    3.000 
#    0.000    2.500    0.000    0.000    0.000    0.000 
#    0.000    0.000    0.000    0.000    0.000    0.000 
#
# Total GULP energy -268311.620031 kJ/mol
# GULP energy per Si atom -5589.825417 kJ/mol
# Density = 1.898788 g / cm^3
# Si number density = 19.031193 Si / 1000 Ang^3
#
#
#
# Elastic Constant Matrix: (Units=GPa)
#
#
# Indices 1 2 3 4 5 6 
#
# 1 81.3374 48.5969 10.0035 0.0000 0.0000 0.0000
# 2 48.5969 144.8271 50.4174 0.0000 0.0000 0.0000
# 3 10.0035 50.4174 121.2204 0.0000 0.0000 0.0000
# 4 0.0000 0.0000 0.0000 32.2941 0.0000 0.0000
# 5 0.0000 0.0000 0.0000 0.0000 35.8961 0.0000
# 6 0.0000 0.0000 0.0000 0.0000 0.0000 34.0647
#
#
#
# Elastic Compliance Matrix: (Units=1/GPa)
#
#
# Indices 1 2 3 4 5 6 
#
# 1 0.015487 -0.005556 0.001033 0.000000 0.000000 0.000000
# 2 -0.005556 0.010067 -0.003729 0.000000 0.000000 0.000000
# 3 0.001033 -0.003729 0.009715 0.000000 0.000000 0.000000
# 4 0.000000 0.000000 0.000000 0.030965 0.000000 0.000000
# 5 0.000000 0.000000 0.000000 0.000000 0.027858 0.000000
# 6 0.000000 0.000000 0.000000 0.000000 0.000000 0.029356
#
#
# Mechanical properties :
#
#
# Convention : Reuss Voigt Hill
#
# Bulk Modulus (GPa) = 53.28961 62.82449 58.05705
# Shear Modulus (GPa) = 34.19785 36.34212 35.26998
#
# Velocity S-wave (km/s) = 4.24363 4.37465 4.30964
# Velocity P-wave (km/s) = 7.21617 7.65504 7.43885
#
# Compressibility (1/GPa) = 0.01876538
#
# Stress axis : x y z
#
# Youngs Moduli (GPa) = 64.56947 99.33228 102.93391
#
# Poissons Ratio (x) = 0.55192 -0.10632
# Poissons Ratio (y) = 0.35877 0.38380
# Poissons Ratio (z) = -0.06669 0.37037
#
# Static dielectric constant tensor:
#      x y z
#    x 1.649510 0.000000 0.000000 
#    y 0.000000 1.637550 0.000000 
#    z 0.000000 0.000000 1.704620 
# 
# From -- ./inp_files/17365.got.cif
#   From: 2010.05.17/outbox.cif.g08.bks.cpg/sg55_9_cif.got.tgz:17365.got - 2010.06.03 13:27:54.
