data_PCOD9429815
_publ_section_title
;
Structure prediction by ZEFSAII (Michael W. Deem and Ramdas Pophale) SiO2 
 PCOD9429815
Probable space group: P C C N
;
_chemical_formula_sum "Si O2"
_cell_formula_units_Z 56
_cell_length_a 8.886004
_cell_length_b 19.099967
_cell_length_c 14.125256
_cell_angle_alpha 90.000000
_cell_angle_beta 90.000000
_cell_angle_gamma 90.000000
_cell_volume 2397.372111
_symmetry_space_group_name_H-M "P C C N"
_symmetry_group_IT_number 56
_symmetry_cell_setting 'orthorhombic'
loop_
_space_group_symop_operation_xyz
x,y,z
1/2-x,1/2-y,z
1/2+x,-y,1/2-z
-x,1/2+y,1/2-z
-x,-y,-z
1/2+x,1/2+y,-z
1/2-x,y,1/2+z
x,1/2-y,1/2+z
loop_
_atom_site_type_symbol
_atom_site_label
_atom_site_fract_x
_atom_site_fract_y
_atom_site_fract_z
Si Si1 0.742169 0.352560 0.638483
Si Si2 0.475134 0.057728 0.640214
Si Si3 0.036313 0.083140 0.745450
Si Si4 0.085502 0.891614 0.535136
Si Si5 0.814264 0.546149 0.957848
Si Si6 0.383169 0.701986 0.691884
Si Si7 0.194682 0.178955 0.260145
O O1 0.609748 0.374168 0.710866
O O2 0.658274 0.338319 0.540129
O O3 0.849929 0.300188 0.696097
O O4 0.858083 0.415855 0.620640
O O5 0.363625 0.053750 0.550944
O O6 0.394995 0.117951 0.704214
O O7 0.486724 0.983369 0.693084
O O8 0.114302 0.055993 0.647731
O O9 0.158070 0.135469 0.792725
O O10 0.135867 0.872248 0.639722
O O11 0.906075 0.899138 0.521792
O O12 0.144095 0.968505 0.510651
O O13 0.250000 0.750000 0.652065
O O14 0.561118 0.713011 0.675504
O O15 0.250000 0.250000 0.206597
#
# Coordination Sequence:
#
# PCOD9429815 Si02
#       7
#     8   8   8   8   8   8   8
#     4  10  21  36  60  90 120 162 212 270 331 386
#     4  10  19  34  59  92 128 170 221 271 328 405
#     4  10  18  34  61  92 127 170 218 267 327 398
#     4  10  21  38  58  87 126 163 212 276 332 390
#     4   9  19  34  56  87 125 165 209 268 334 390
#     4  11  23  41  63  87 121 168 219 266 329 409
#     4  10  21  37  60  92 128 167 218 278 337 400
#
# _framework density 23.358910000000002
#
# number of rings (size 3 to 8) (size 9 to 14) (size 15 to 20)
#    0.000    2.000    0.000    5.143    0.000    3.429 
#    0.000    5.714    0.000    6.857    0.000    0.000 
#    0.000    0.000    0.000    0.000    0.000    0.000 
#
# Total GULP energy -311793.372808 kJ/mol
# GULP energy per Si atom -5567.738800 kJ/mol
# Density = 2.330574 g / cm^3
# Si number density = 23.358910 Si / 1000 Ang^3
#
#
#
# Elastic Constant Matrix: (Units=GPa)
#
#
# Indices 1 2 3 4 5 6 
#
# 1 165.2105 32.8180 15.3770 0.0000 0.0000 0.0000
# 2 32.8180 92.3837 10.4925 0.0000 0.0000 0.0000
# 3 15.3770 10.4925 44.4849 0.0000 0.0000 0.0000
# 4 0.0000 0.0000 0.0000 12.1713 0.0000 0.0000
# 5 0.0000 0.0000 0.0000 0.0000 19.9112 0.0000
# 6 0.0000 0.0000 0.0000 0.0000 0.0000 38.3474
#
#
#
# Elastic Compliance Matrix: (Units=1/GPa)
#
#
# Indices 1 2 3 4 5 6 
#
# 1 0.006648 -0.002158 -0.001789 0.000000 0.000000 0.000000
# 2 -0.002158 0.011823 -0.002043 0.000000 0.000000 0.000000
# 3 -0.001789 -0.002043 0.023580 0.000000 0.000000 0.000000
# 4 0.000000 0.000000 0.000000 0.082160 0.000000 0.000000
# 5 0.000000 0.000000 0.000000 0.000000 0.050223 0.000000
# 6 0.000000 0.000000 0.000000 0.000000 0.000000 0.026077
#
#
# Mechanical properties :
#
#
# Convention : Reuss Voigt Hill
#
# Bulk Modulus (GPa) = 33.25460 46.60601 39.93030
# Shear Modulus (GPa) = 22.47034 30.31208 26.39121
#
# Velocity S-wave (km/s) = 3.10491 3.60622 3.36492
# Velocity P-wave (km/s) = 5.20781 6.11026 5.67699
#
# Compressibility (1/GPa) = 0.03007103
#
# Stress axis : x y z
#
# Youngs Moduli (GPa) = 150.41755 84.57965 42.40938
#
# Poissons Ratio (x) = 0.18256 0.07587
# Poissons Ratio (y) = 0.32467 0.08662
# Poissons Ratio (z) = 0.26909 0.17276
#
# Static dielectric constant tensor:
#      x y z
#    x 1.982340 0.000000 0.000000 
#    y 0.000000 1.931210 0.000000 
#    z 0.000000 0.000000 1.890190 
# 
# From -- ./inp_files/10882.got.cif
#   From: 2010.05.17/outbox.cif.g08.bks.cpg/sg56_6_cif.got.tgz:10882.got - 2010.06.03 13:42:01.
