data_PCOD9429578
_publ_section_title
;
Structure prediction by ZEFSAII (Michael W. Deem and Ramdas Pophale) SiO2 
 PCOD9429578
Probable space group: P C C N
;
_chemical_formula_sum "Si O2"
_cell_formula_units_Z 60
_cell_length_a 15.670609
_cell_length_b 5.593164
_cell_length_c 31.108153
_cell_angle_alpha 90.000000
_cell_angle_beta 90.000000
_cell_angle_gamma 90.000000
_cell_volume 2726.576295
_symmetry_space_group_name_H-M "P C C N"
_symmetry_group_IT_number 56
_symmetry_cell_setting 'orthorhombic'
loop_
_space_group_symop_operation_xyz
x,y,z
1/2-x,1/2-y,z
1/2+x,-y,1/2-z
-x,1/2+y,1/2-z
-x,-y,-z
1/2+x,1/2+y,-z
1/2-x,y,1/2+z
x,1/2-y,1/2+z
loop_
_atom_site_type_symbol
_atom_site_label
_atom_site_fract_x
_atom_site_fract_y
_atom_site_fract_z
Si Si1 0.750000 0.250000 0.201967
Si Si2 0.093804 0.490132 0.761695
Si Si3 0.100147 0.748972 0.059770
Si Si4 0.910139 0.209820 0.042437
Si Si5 0.097147 0.251132 0.086984
Si Si6 0.523439 0.715271 0.820841
Si Si7 0.864743 0.618549 0.669665
Si Si8 0.100227 0.206153 0.419211
O O1 0.830659 0.323284 0.230307
O O2 0.721397 0.470107 0.172836
O O3 0.012714 0.577806 0.789642
O O4 0.122271 0.247422 0.784942
O O5 0.073735 0.453679 0.712150
O O6 0.141404 0.491181 0.069682
O O7 0.003234 0.717928 0.077943
O O8 0.138266 0.989760 0.080369
O O9 0.092337 0.787042 0.008845
O O10 0.870865 0.460548 0.058651
O O11 0.008236 0.223130 0.059670
O O12 0.872016 0.959958 0.059975
O O13 0.074833 0.288225 0.137136
O O14 0.440860 0.571311 0.837391
O O15 0.872721 0.796137 0.630146
#
# Coordination Sequence:
#
# PCOD9429578 Si02
#       8
#     4   8   8   8   8   8   8   8
#     4  10  26  40  58  80 116 160 202 246 314 370
#     4  11  22  39  58  85 111 160 196 257 309 374
#     4  10  17  28  45  71 117 152 183 226 296 347
#     4  10  17  28  44  75 111 155 182 229 287 352
#     4  10  18  28  44  75 108 153 181 235 281 356
#     4  11  21  33  58  83 114 148 205 245 309 360
#     4  11  21  39  55  81 115 156 193 250 300 369
#     4  10  18  28  49  72 108 149 193 224 282 348
#
# _framework density 22.005621000000001
#
# number of rings (size 3 to 8) (size 9 to 14) (size 15 to 20)
#    0.000    1.600    4.000    6.000    1.867    0.000 
#    0.000    0.000    0.000    0.000    0.000    0.000 
#    0.000   11.733    0.000    0.000    0.000    0.000 
#
# Total GULP energy -335119.094652 kJ/mol
# GULP energy per Si atom -5585.318244 kJ/mol
# Density = 2.195553 g / cm^3
# Si number density = 22.005621 Si / 1000 Ang^3
#
#
#
# Elastic Constant Matrix: (Units=GPa)
#
#
# Indices 1 2 3 4 5 6 
#
# 1 25.2231 4.8576 22.4505 0.0000 0.0000 0.0000
# 2 4.8576 148.6059 22.4414 0.0000 0.0000 0.0000
# 3 22.4505 22.4414 119.9297 0.0000 0.0000 0.0000
# 4 0.0000 0.0000 0.0000 -17.2056 0.0000 0.0000
# 5 0.0000 0.0000 0.0000 0.0000 2.4478 0.0000
# 6 0.0000 0.0000 0.0000 0.0000 0.0000 12.7080
#
#
#
# Elastic Compliance Matrix: (Units=1/GPa)
#
#
# Indices 1 2 3 4 5 6 
#
# 1 0.047580 -0.000216 -0.008866 0.000000 0.000000 0.000000
# 2 -0.000216 0.006926 -0.001255 0.000000 0.000000 0.000000
# 3 -0.008866 -0.001255 0.010233 0.000000 0.000000 0.000000
# 4 0.000000 0.000000 0.000000 -0.058121 0.000000 0.000000
# 5 0.000000 0.000000 0.000000 0.000000 0.408528 0.000000
# 6 0.000000 0.000000 0.000000 0.000000 0.000000 0.078691
#
#
# Mechanical properties :
#
#
# Convention : Reuss Voigt Hill
#
# Bulk Modulus (GPa) = 22.69524 43.69531 33.19527
# Shear Modulus (GPa) = 9.44823 15.85732 12.65278
#
# Velocity S-wave (km/s) = 2.07434 2.68732 2.40047
# Velocity P-wave (km/s) = 4.00911 5.43401 4.77501
#
# Compressibility (1/GPa) = 0.04406211
#
# Stress axis : x y z
#
# Youngs Moduli (GPa) = 21.01742 144.38617 97.72407
#
# Poissons Ratio (x) = 0.03124 0.86645
# Poissons Ratio (y) = 0.00455 0.12269
# Poissons Ratio (z) = 0.18635 0.18127
#
# Static dielectric constant tensor:
#      x y z
#    x 1.909700 0.000000 0.000000 
#    y 0.000000 1.932420 0.000000 
#    z 0.000000 0.000000 1.757900 
# 
# From -- ./inp_files/22517.got.cif
#   From: 2010.05.17/outbox.cif.g08.bks.cpg/sg56_12_cif.got.tgz:22517.got - 2010.06.03 13:42:01.
