data_PCOD9429631
_publ_section_title
;
Structure prediction by ZEFSAII (Michael W. Deem and Ramdas Pophale) SiO2 
 PCOD9429631
Probable space group: P C C N
;
_chemical_formula_sum "Si O2"
_cell_formula_units_Z 64
_cell_length_a 18.792556
_cell_length_b 18.444138
_cell_length_c 9.950567
_cell_angle_alpha 90.000000
_cell_angle_beta 90.000000
_cell_angle_gamma 90.000000
_cell_volume 3448.990867
_symmetry_space_group_name_H-M "P C C N"
_symmetry_group_IT_number 56
_symmetry_cell_setting 'orthorhombic'
loop_
_space_group_symop_operation_xyz
x,y,z
1/2-x,1/2-y,z
1/2+x,-y,1/2-z
-x,1/2+y,1/2-z
-x,-y,-z
1/2+x,1/2+y,-z
1/2-x,y,1/2+z
x,1/2-y,1/2+z
loop_
_atom_site_type_symbol
_atom_site_label
_atom_site_fract_x
_atom_site_fract_y
_atom_site_fract_z
Si Si1 0.129592 0.680493 0.127479
Si Si2 0.945743 0.137614 0.634198
Si Si3 0.714234 0.011713 0.490251
Si Si4 0.369224 0.841526 0.581610
Si Si5 0.971898 0.525379 0.716463
Si Si6 0.079091 0.418764 0.562452
Si Si7 0.484348 0.798968 0.357364
Si Si8 0.679060 0.040849 0.778650
O O1 0.160304 0.759402 0.091681
O O2 0.058418 0.691460 0.217606
O O3 0.181658 0.627998 0.208964
O O4 0.106295 0.638379 0.992958
O O5 0.901013 0.141878 0.771975
O O6 0.988631 0.213111 0.620477
O O7 0.997087 0.070140 0.659237
O O8 0.679391 0.090824 0.458402
O O9 0.721058 0.011575 0.650077
O O10 0.786920 0.006933 0.410382
O O11 0.658412 0.950562 0.442193
O O12 0.431541 0.833063 0.470262
O O13 0.947068 0.576773 0.592885
O O14 0.903012 0.479485 0.756655
O O15 0.031518 0.474527 0.649851
O O16 0.058030 0.341486 0.625021
#
# Coordination Sequence:
#
# PCOD9429631 Si02
#       8
#     8   8   8   8   8   8   8   8
#     4  10  21  33  51  84 114 139 173 229 268 316
#     4  10  20  30  57  88 111 133 173 234 275 315
#     4  11  23  38  55  76 106 150 188 226 266 328
#     4  10  18  35  56  77 110 145 183 211 266 335
#     4  10  18  35  58  81 105 143 182 228 272 324
#     4  10  17  34  61  77 101 148 188 214 272 337
#     4  10  17  35  56  83 109 137 182 221 272 332
#     4  11  24  39  53  76 112 147 189 225 268 325
#
# _framework density 18.556152999999998
#
# number of rings (size 3 to 8) (size 9 to 14) (size 15 to 20)
#    0.000    1.750    5.000    0.750    1.750    1.000 
#    2.250    1.250    0.000    0.750    0.000    3.500 
#    0.000    0.000    0.000    0.000    0.000    0.000 
#
# Total GULP energy -357007.569945 kJ/mol
# GULP energy per Si atom -5578.243280 kJ/mol
# Density = 1.851392 g / cm^3
# Si number density = 18.556153 Si / 1000 Ang^3
#
#
#
# Elastic Constant Matrix: (Units=GPa)
#
#
# Indices 1 2 3 4 5 6 
#
# 1 18.2552 1.3686 4.2351 0.0000 0.0000 0.0000
# 2 1.3686 38.3459 6.2907 0.0000 0.0000 0.0000
# 3 4.2351 6.2907 72.5397 0.0000 0.0000 0.0000
# 4 0.0000 0.0000 0.0000 25.9494 0.0000 0.0000
# 5 0.0000 0.0000 0.0000 0.0000 20.0434 0.0000
# 6 0.0000 0.0000 0.0000 0.0000 0.0000 11.4241
#
#
#
# Elastic Compliance Matrix: (Units=1/GPa)
#
#
# Indices 1 2 3 4 5 6 
#
# 1 0.055613 -0.001473 -0.003119 0.000000 0.000000 0.000000
# 2 -0.001473 0.026494 -0.002212 0.000000 0.000000 0.000000
# 3 -0.003119 -0.002212 0.014159 0.000000 0.000000 0.000000
# 4 0.000000 0.000000 0.000000 0.038536 0.000000 0.000000
# 5 0.000000 0.000000 0.000000 0.000000 0.049892 0.000000
# 6 0.000000 0.000000 0.000000 0.000000 0.000000 0.087534
#
#
# Mechanical properties :
#
#
# Convention : Reuss Voigt Hill
#
# Bulk Modulus (GPa) = 12.09798 16.99218 14.54508
# Shear Modulus (GPa) = 15.95460 19.29982 17.62721
#
# Velocity S-wave (km/s) = 2.93542 3.22852 3.08545
# Velocity P-wave (km/s) = 4.24532 4.80363 4.53308
#
# Compressibility (1/GPa) = 0.08265840
#
# Stress axis : x y z
#
# Youngs Moduli (GPa) = 17.98146 37.74466 70.62420
#
# Poissons Ratio (x) = 0.05560 0.22028
# Poissons Ratio (y) = 0.02649 0.15619
# Poissons Ratio (z) = 0.05609 0.08347
#
# Static dielectric constant tensor:
#      x y z
#    x 1.646150 0.000000 0.000000 
#    y 0.000000 1.674240 0.000000 
#    z 0.000000 0.000000 1.666070 
# 
# From -- ./inp_files/4562.got.cif
#   From: 2010.05.17/outbox.cif.g08.bks.cpg/sg56_3_cif.got.tgz:4562.got - 2010.06.03 13:42:01.
