data_PCOD9429383
_publ_section_title
;
Structure prediction by ZEFSAII (Michael W. Deem and Ramdas Pophale) SiO2 
 PCOD9429383
Probable space group: P B A M
;
_chemical_formula_sum "Si O2"
_cell_formula_units_Z 64
_cell_length_a 30.000000
_cell_length_b 12.000000
_cell_length_c 9.000000
_cell_angle_alpha 90.000000
_cell_angle_beta 90.000000
_cell_angle_gamma 90.000000
_cell_volume 3240.000000
_symmetry_space_group_name_H-M "P B A M"
_symmetry_group_IT_number 55
_symmetry_cell_setting 'orthorhombic'
loop_
_space_group_symop_operation_xyz
x,y,z
-x,-y,z
1/2+x,1/2-y,-z
1/2-x,1/2+y,-z
-x,-y,-z
x,y,-z
1/2-x,1/2+y,z
1/2+x,1/2-y,z
loop_
_atom_site_type_symbol
_atom_site_label
_atom_site_fract_x
_atom_site_fract_y
_atom_site_fract_z
Si Si1 0.438991 0.232489 0.829307
Si Si2 0.161155 0.711735 0.821259
Si Si3 0.701308 0.570024 0.323471
Si Si4 0.881454 0.643973 0.176674
Si Si5 0.197946 0.498306 0.678541
Si Si6 0.051926 0.995060 0.828877
Si Si7 0.978154 0.622312 0.672109
Si Si8 0.130153 0.123461 0.325513
O O1 0.390669 0.190035 0.774926
O O2 0.434807 0.365814 0.829898
O O3 0.482990 0.199779 0.739383
O O4 0.445202 0.194285 0.000000
O O5 0.177934 0.832043 0.768217
O O6 0.192805 0.621491 0.744984
O O7 0.162298 0.704371 0.000000
O O8 0.699091 0.596837 0.500000
O O9 0.753249 0.551501 0.284290
O O10 0.671984 0.458579 0.301592
O O11 0.843683 0.567726 0.251785
O O12 0.931409 0.625005 0.240577
O O13 0.867933 0.768691 0.222986
O O14 0.881782 0.627391 0.000000
O O15 0.194292 0.499864 0.500000
O O16 0.084854 0.060312 0.721362
O O17 0.055653 0.037924 0.000000
O O18 0.000000 0.000000 0.786723
O O19 0.969543 0.651206 0.500000
O O20 0.000000 0.500000 0.678817
O O21 0.129033 0.154002 0.500000
#
# Coordination Sequence:
#
# PCOD9429383 Si02
#       8
#     8   8   8   8   8   8   8   8
#     4  10  21  37  59  91 129 167 207 261 320 381
#     4  11  23  41  67  99 133 167 213 268 324 387
#     4  10  24  44  67  94 126 170 214 265 330 388
#     4  12  26  44  66  96 133 175 218 269 330 387
#     4  11  25  45  68  94 129 171 219 270 326 390
#     4  10  20  36  58  87 124 167 209 256 319 379
#     4  11  24  41  64  94 128 171 220 269 320 384
#     4  11  23  41  65  94 128 168 216 265 320 387
#
# _framework density 19.753086
#
# number of rings (size 3 to 8) (size 9 to 14) (size 15 to 20)
#    0.000    1.250    1.250    4.125    1.750    7.250 
#    0.000    0.000    0.000    0.000    0.000    0.000 
#    0.000    0.000    0.000    0.000    0.000    0.000 
#
# Total GULP energy -357824.739089 kJ/mol
# GULP energy per Si atom -5591.011548 kJ/mol
# Density = 1.970813 g / cm^3
# Si number density = 19.753086 Si / 1000 Ang^3
#
#
#
# Elastic Constant Matrix: (Units=GPa)
#
#
# Indices 1 2 3 4 5 6 
#
# 1 145.7242 26.5574 61.4242 0.0000 0.0000 0.0000
# 2 26.5574 55.4343 25.6581 0.0000 0.0000 0.0000
# 3 61.4242 25.6581 95.6309 0.0000 0.0000 0.0000
# 4 0.0000 0.0000 0.0000 41.0180 0.0000 0.0000
# 5 0.0000 0.0000 0.0000 0.0000 29.1338 0.0000
# 6 0.0000 0.0000 0.0000 0.0000 0.0000 34.1414
#
#
#
# Elastic Compliance Matrix: (Units=1/GPa)
#
#
# Indices 1 2 3 4 5 6 
#
# 1 0.009599 -0.001992 -0.005631 0.000000 0.000000 0.000000
# 2 -0.001992 0.021011 -0.004358 0.000000 0.000000 0.000000
# 3 -0.005631 -0.004358 0.015243 0.000000 0.000000 0.000000
# 4 0.000000 0.000000 0.000000 0.024380 0.000000 0.000000
# 5 0.000000 0.000000 0.000000 0.000000 0.034324 0.000000
# 6 0.000000 0.000000 0.000000 0.000000 0.000000 0.029290
#
#
# Mechanical properties :
#
#
# Convention : Reuss Voigt Hill
#
# Bulk Modulus (GPa) = 45.68114 58.22986 51.95550
# Shear Modulus (GPa) = 30.28382 33.06861 31.67622
#
# Velocity S-wave (km/s) = 3.91975 4.09601 4.00885
# Velocity P-wave (km/s) = 6.60774 7.20504 6.91285
#
# Compressibility (1/GPa) = 0.02189087
#
# Stress axis : x y z
#
# Youngs Moduli (GPa) = 104.17956 47.59463 65.60504
#
# Poissons Ratio (x) = 0.09482 0.36941
# Poissons Ratio (y) = 0.20756 0.28588
# Poissons Ratio (z) = 0.58662 0.20740
#
# Static dielectric constant tensor:
#      x y z
#    x 1.664480 0.000000 0.000000 
#    y 0.000000 1.737580 0.000000 
#    z 0.000000 0.000000 1.670390 
# 
# From -- ./inp_files/10736.got.cif
#   From: 2010.05.17/outbox.ucp.g08.bks.cvg/sg55_6_cif.got.tgz:10736.got - 2010.06.11 16:36:00.
