data_PCOD9429490
_publ_section_title
;
Structure prediction by ZEFSAII (Michael W. Deem and Ramdas Pophale) SiO2 
 PCOD9429490
Probable space group: P C C N
;
_chemical_formula_sum "Si O2"
_cell_formula_units_Z 56
_cell_length_a 12.880279
_cell_length_b 32.976868
_cell_length_c 5.272042
_cell_angle_alpha 90.000000
_cell_angle_beta 90.000000
_cell_angle_gamma 90.000000
_cell_volume 2239.306484
_symmetry_space_group_name_H-M "P C C N"
_symmetry_group_IT_number 56
_symmetry_cell_setting 'orthorhombic'
loop_
_space_group_symop_operation_xyz
x,y,z
1/2-x,1/2-y,z
1/2+x,-y,1/2-z
-x,1/2+y,1/2-z
-x,-y,-z
1/2+x,1/2+y,-z
1/2-x,y,1/2+z
x,1/2-y,1/2+z
loop_
_atom_site_type_symbol
_atom_site_label
_atom_site_fract_x
_atom_site_fract_y
_atom_site_fract_z
Si Si1 0.391052 0.264854 0.400620
Si Si2 0.122786 0.889656 0.424963
Si Si3 0.361668 0.642924 0.925845
Si Si4 0.621855 0.232646 0.362115
Si Si5 0.180302 0.977171 0.560364
Si Si6 0.681271 0.936675 0.043918
Si Si7 0.819509 0.850066 0.444391
O O1 0.344534 0.235594 0.616905
O O2 0.502191 0.245262 0.337587
O O3 0.386575 0.310133 0.506708
O O4 0.086189 0.861580 0.653838
O O5 0.245497 0.875736 0.392995
O O6 0.118605 0.935989 0.511341
O O7 0.080431 0.881858 0.145849
O O8 0.361688 0.688865 0.019293
O O9 0.659594 0.265197 0.572412
O O10 0.270691 0.976053 0.342339
O O11 0.126331 0.020496 0.511430
O O12 0.725794 0.936964 0.330915
O O13 0.626972 0.893907 0.988848
O O14 0.730483 0.849312 0.664237
#
# Coordination Sequence:
#
# PCOD9429490 Si02
#       7
#     8   8   8   8   8   8   8
#     4  10  21  35  52  70  93 127 170 199 241 286
#     4  10  17  28  43  70  96 126 154 199 248 289
#     4  10  18  30  46  66  94 124 164 201 247 282
#     4  10  21  37  50  64  90 126 170 212 239 283
#     4  10  14  25  41  63  97 133 155 177 234 287
#     4   8  16  25  41  64  97 135 149 181 224 287
#     4  10  19  32  48  75 105 128 156 193 244 287
#
# _framework density 25.007743999999999
#
# number of rings (size 3 to 8) (size 9 to 14) (size 15 to 20)
#    0.000    2.286    2.857    1.714    0.000    1.714 
#    0.000    8.571    0.000    0.000    0.000    0.000 
#    0.000   27.429    0.000    0.000    0.000    0.000 
#
# Total GULP energy -312584.314254 kJ/mol
# GULP energy per Si atom -5581.862755 kJ/mol
# Density = 2.495083 g / cm^3
# Si number density = 25.007744 Si / 1000 Ang^3
#
#
#
# Elastic Constant Matrix: (Units=GPa)
#
#
# Indices 1 2 3 4 5 6 
#
# 1 58.3589 7.7269 -12.0509 0.0000 0.0000 0.0000
# 2 7.7269 164.8290 -23.4017 0.0000 0.0000 0.0000
# 3 -12.0509 -23.4017 156.8267 0.0000 0.0000 0.0000
# 4 0.0000 0.0000 0.0000 45.4858 0.0000 0.0000
# 5 0.0000 0.0000 0.0000 0.0000 -16.3421 0.0000
# 6 0.0000 0.0000 0.0000 0.0000 0.0000 17.2384
#
#
#
# Elastic Compliance Matrix: (Units=1/GPa)
#
#
# Indices 1 2 3 4 5 6 
#
# 1 0.017478 -0.000642 0.001247 0.000000 0.000000 0.000000
# 2 -0.000642 0.006222 0.000879 0.000000 0.000000 0.000000
# 3 0.001247 0.000879 0.006603 0.000000 0.000000 0.000000
# 4 0.000000 0.000000 0.000000 0.021985 0.000000 0.000000
# 5 0.000000 0.000000 0.000000 0.000000 -0.061192 0.000000
# 6 0.000000 0.000000 0.000000 0.000000 0.000000 0.058010
#
#
# Mechanical properties :
#
#
# Convention : Reuss Voigt Hill
#
# Bulk Modulus (GPa) = 30.05599 36.06257 33.05928
# Shear Modulus (GPa) = 87.36838 36.45910 61.91374
#
# Velocity S-wave (km/s) = 5.91713 3.82240 4.98112
# Velocity P-wave (km/s) = 7.66342 5.82520 6.80664
#
# Compressibility (1/GPa) = 0.03327123
#
# Stress axis : x y z
#
# Youngs Moduli (GPa) = 57.21500 160.72499 151.43535
#
# Poissons Ratio (x) = 0.10323 -0.18887
# Poissons Ratio (y) = 0.03675 -0.13312
# Poissons Ratio (z) = -0.07136 -0.14129
#
# Static dielectric constant tensor:
#      x y z
#    x 2.547920 0.000000 0.000000 
#    y 0.000000 1.983850 0.000000 
#    z 0.000000 0.000000 2.048000 
# 
# From -- ./inp_files/576.got.cif
#   From: 2010.05.17/outbox.cif.g08.bks.cpg/sg56_1_cif.got.tgz:576.got - 2010.06.03 13:42:01.
