data_PCOD9429284
_publ_section_title
;
Structure prediction by ZEFSAII (Michael W. Deem and Ramdas Pophale) SiO2 
 PCOD9429284
Probable space group: P B A M
;
_chemical_formula_sum "Si O2"
_cell_formula_units_Z 64
_cell_length_a 30.000000
_cell_length_b 12.000000
_cell_length_c 9.000000
_cell_angle_alpha 90.000000
_cell_angle_beta 90.000000
_cell_angle_gamma 90.000000
_cell_volume 3240.000000
_symmetry_space_group_name_H-M "P B A M"
_symmetry_group_IT_number 55
_symmetry_cell_setting 'orthorhombic'
loop_
_space_group_symop_operation_xyz
x,y,z
-x,-y,z
1/2+x,1/2-y,-z
1/2-x,1/2+y,-z
-x,-y,-z
x,y,-z
1/2-x,1/2+y,z
1/2+x,1/2-y,z
loop_
_atom_site_type_symbol
_atom_site_label
_atom_site_fract_x
_atom_site_fract_y
_atom_site_fract_z
Si Si1 0.694520 0.273256 0.829046
Si Si2 0.284031 0.176132 0.324627
Si Si3 0.836055 0.521545 0.827800
Si Si4 0.930529 0.543482 0.321802
Si Si5 0.555027 0.800570 0.680201
Si Si6 0.536143 0.287673 0.679529
Si Si7 0.360305 0.339945 0.321621
Si Si8 0.389467 0.570264 0.824003
O O1 0.733032 0.309733 0.718700
O O2 0.687286 0.141462 0.819245
O O3 0.648472 0.336417 0.796690
O O4 0.707109 0.300812 0.000000
O O5 0.289952 0.155601 0.500000
O O6 0.312228 0.287562 0.287197
O O7 0.304726 0.075046 0.232770
O O8 0.879708 0.528098 0.726448
O O9 0.848471 0.501978 0.000000
O O10 0.935326 0.545720 0.500000
O O11 0.953214 0.427799 0.269294
O O12 0.946356 0.665047 0.271081
O O13 0.554561 0.805150 0.500000
O O14 0.515722 0.716628 0.722956
O O15 0.602760 0.752098 0.723955
O O16 0.539618 0.295047 0.500000
O O17 0.565519 0.384016 0.750262
O O18 0.363399 0.354582 0.500000
O O19 0.372123 0.455146 0.244135
O O20 0.395365 0.558933 0.000000
#
# Coordination Sequence:
#
# PCOD9429284 Si02
#       8
#     8   8   8   8   8   8   8   8
#     4  10  24  43  61  85 119 161 198 237 293 354
#     4  11  24  41  64  93 120 150 195 251 297 341
#     4  11  22  39  63  89 122 159 194 233 294 359
#     4  10  18  34  60  91 122 151 195 245 291 342
#     4   9  18  36  60  88 121 153 191 243 299 352
#     4  10  20  35  62  91 116 154 198 243 296 350
#     4  10  22  41  61  85 118 154 196 244 294 348
#     4  11  24  42  60  82 119 159 199 244 291 349
#
# _framework density 19.753086
#
# number of rings (size 3 to 8) (size 9 to 14) (size 15 to 20)
#    0.000    1.750    2.500    1.500    1.750    5.000 
#    0.000    3.750    0.000    1.500    0.000    0.000 
#    0.000    0.000    0.000    0.000    0.000    0.000 
#
# Total GULP energy -357317.951783 kJ/mol
# GULP energy per Si atom -5583.092997 kJ/mol
# Density = 1.970813 g / cm^3
# Si number density = 19.753086 Si / 1000 Ang^3
#
#
#
# Elastic Constant Matrix: (Units=GPa)
#
#
# Indices 1 2 3 4 5 6 
#
# 1 29.6512 -23.1638 -0.1794 0.0000 0.0000 0.0000
# 2 -23.1638 41.7491 15.6235 0.0000 0.0000 0.0000
# 3 -0.1794 15.6235 3.0145 0.0000 0.0000 0.0000
# 4 0.0000 0.0000 0.0000 23.5826 0.0000 0.0000
# 5 0.0000 0.0000 0.0000 0.0000 -14.0241 0.0000
# 6 0.0000 0.0000 0.0000 0.0000 0.0000 7.8386
#
#
#
# Elastic Compliance Matrix: (Units=1/GPa)
#
#
# Indices 1 2 3 4 5 6 
#
# 1 0.023672 -0.013418 0.070953 0.000000 0.000000 0.000000
# 2 -0.013418 -0.017888 0.091912 0.000000 0.000000 0.000000
# 3 0.070953 0.091912 -0.140411 0.000000 0.000000 0.000000
# 4 0.000000 0.000000 0.000000 0.042404 0.000000 0.000000
# 5 0.000000 0.000000 0.000000 0.000000 -0.071306 0.000000
# 6 0.000000 0.000000 0.000000 0.000000 0.000000 0.127573
#
#
# Mechanical properties :
#
#
# Convention : Reuss Voigt Hill
#
# Bulk Modulus (GPa) = 6.08760 6.55282 6.32021
# Shear Modulus (GPa) = -17.85118 8.95506 -4.44806
#
# Velocity S-wave (km/s) = -3.00945 2.13151 -1.50224
# Velocity P-wave (km/s) = 2.99786 3.06306 0.44452
#
# Compressibility (1/GPa) = 0.16426828
#
# Stress axis : x y z
#
# Youngs Moduli (GPa) = 42.24364 -55.90290 -7.12197
#
# Poissons Ratio (x) = -0.75012 0.50533
# Poissons Ratio (y) = 0.56684 0.65460
# Poissons Ratio (z) = -2.99733 5.13817
#
# Static dielectric constant tensor:
#      x y z
#    x 1.701780 0.000000 0.000000 
#    y 0.000000 1.683670 0.000000 
#    z 0.000000 0.000000 1.665590 
# 
# From -- ./inp_files/10740.got.cif
#   From: 2010.05.17/outbox.ucp.g08.bks.cvg/sg55_6_cif.got.tgz:10740.got - 2010.06.11 16:36:00.
