data_PCOD9429513
_publ_section_title
;
Structure prediction by ZEFSAII (Michael W. Deem and Ramdas Pophale) SiO2 
 PCOD9429513
Probable space group: P C C N
;
_chemical_formula_sum "Si O2"
_cell_formula_units_Z 40
_cell_length_a 13.943139
_cell_length_b 8.517398
_cell_length_c 13.469918
_cell_angle_alpha 90.000000
_cell_angle_beta 90.000000
_cell_angle_gamma 90.000000
_cell_volume 1599.677551
_symmetry_space_group_name_H-M "P C C N"
_symmetry_group_IT_number 56
_symmetry_cell_setting 'orthorhombic'
loop_
_space_group_symop_operation_xyz
x,y,z
1/2-x,1/2-y,z
1/2+x,-y,1/2-z
-x,1/2+y,1/2-z
-x,-y,-z
1/2+x,1/2+y,-z
1/2-x,y,1/2+z
x,1/2-y,1/2+z
loop_
_atom_site_type_symbol
_atom_site_label
_atom_site_fract_x
_atom_site_fract_y
_atom_site_fract_z
Si Si1 0.905046 0.661142 0.132243
Si Si2 0.290681 0.010477 0.370249
Si Si3 0.590298 0.243455 0.747693
Si Si4 0.633848 0.443300 0.930669
Si Si5 0.979060 0.752509 0.439278
O O1 0.863541 0.841463 0.133679
O O2 0.813445 0.562259 0.164497
O O3 0.001786 0.659839 0.195254
O O4 0.927968 0.632827 0.016031
O O5 0.337817 0.877339 0.303704
O O6 0.284041 0.960251 0.486449
O O7 0.642390 0.347526 0.830059
O O8 0.534927 0.322424 0.654071
O O9 0.595754 0.617810 0.905322
O O10 0.554199 0.346964 0.994070
#
# Coordination Sequence:
#
# PCOD9429513 Si02
#       5
#     8   8   8   8   8
#     4   9  18  34  57  91 129 165 211 259 307 370
#     4   9  18  34  56  90 131 168 209 259 309 368
#     4  10  16  28  59  95 124 162 211 260 313 368
#     4   8  15  29  52  85 123 160 198 253 313 362
#     4   8  15  29  52  85 121 158 203 253 306 364
#
# _framework density 25.005039
#
# number of rings (size 3 to 8) (size 9 to 14) (size 15 to 20)
#    0.000    3.200    0.000    3.600    0.000    0.000 
#    0.000    8.000    0.000   48.000    0.000   61.600 
#    0.000   33.600    0.000    0.000    0.000    0.000 
#
# Total GULP energy -223774.922587 kJ/mol
# GULP energy per Si atom -5594.373065 kJ/mol
# Density = 2.494813 g / cm^3
# Si number density = 25.005039 Si / 1000 Ang^3
#
#
#
# Elastic Constant Matrix: (Units=GPa)
#
#
# Indices 1 2 3 4 5 6 
#
# 1 95.5424 42.1579 49.1690 0.0000 0.0000 0.0000
# 2 42.1579 75.3246 70.7485 0.0000 0.0000 0.0000
# 3 49.1690 70.7485 176.6038 0.0000 0.0000 0.0000
# 4 0.0000 0.0000 0.0000 42.0118 0.0000 0.0000
# 5 0.0000 0.0000 0.0000 0.0000 25.4484 0.0000
# 6 0.0000 0.0000 0.0000 0.0000 0.0000 43.7371
#
#
#
# Elastic Compliance Matrix: (Units=1/GPa)
#
#
# Indices 1 2 3 4 5 6 
#
# 1 0.014062 -0.006722 -0.001222 0.000000 0.000000 0.000000
# 2 -0.006722 0.024498 -0.007943 0.000000 0.000000 0.000000
# 3 -0.001222 -0.007943 0.009184 0.000000 0.000000 0.000000
# 4 0.000000 0.000000 0.000000 0.023803 0.000000 0.000000
# 5 0.000000 0.000000 0.000000 0.000000 0.039295 0.000000
# 6 0.000000 0.000000 0.000000 0.000000 0.000000 0.022864
#
#
# Mechanical properties :
#
#
# Convention : Reuss Voigt Hill
#
# Bulk Modulus (GPa) = 62.61482 74.62461 68.61971
# Shear Modulus (GPa) = 29.27339 34.59914 31.93627
#
# Velocity S-wave (km/s) = 3.42526 3.72383 3.57766
# Velocity P-wave (km/s) = 6.38267 6.95685 6.67594
#
# Compressibility (1/GPa) = 0.01597066
#
# Stress axis : x y z
#
# Youngs Moduli (GPa) = 71.11554 40.81918 108.87985
#
# Poissons Ratio (x) = 0.27440 0.13305
# Poissons Ratio (y) = 0.47806 0.86478
# Poissons Ratio (z) = 0.08690 0.32421
#
# Static dielectric constant tensor:
#      x y z
#    x 1.953310 0.000000 0.000000 
#    y 0.000000 2.034870 0.000000 
#    z 0.000000 0.000000 2.005520 
# 
# From -- ./inp_files/7647.got.cif
#   From: 2010.05.17/outbox.cif.g08.bks.cpg/sg56_4_cif.got.tgz:7647.got - 2010.06.03 13:42:01.
