data_PCOD9429555
_publ_section_title
;
Structure prediction by ZEFSAII (Michael W. Deem and Ramdas Pophale) SiO2 
 PCOD9429555
Probable space group: P C C N
;
_chemical_formula_sum "Si O2"
_cell_formula_units_Z 48
_cell_length_a 7.140009
_cell_length_b 16.775262
_cell_length_c 16.410228
_cell_angle_alpha 90.000000
_cell_angle_beta 90.000000
_cell_angle_gamma 90.000000
_cell_volume 1965.543619
_symmetry_space_group_name_H-M "P C C N"
_symmetry_group_IT_number 56
_symmetry_cell_setting 'orthorhombic'
loop_
_space_group_symop_operation_xyz
x,y,z
1/2-x,1/2-y,z
1/2+x,-y,1/2-z
-x,1/2+y,1/2-z
-x,-y,-z
1/2+x,1/2+y,-z
1/2-x,y,1/2+z
x,1/2-y,1/2+z
loop_
_atom_site_type_symbol
_atom_site_label
_atom_site_fract_x
_atom_site_fract_y
_atom_site_fract_z
Si Si1 0.573302 0.544445 0.079166
Si Si2 0.455416 0.795038 0.949348
Si Si3 0.966444 0.278166 0.390701
Si Si4 0.931288 0.033799 0.625058
Si Si5 0.526837 0.269339 0.219931
Si Si6 0.600663 0.052457 0.737328
O O1 0.493887 0.632596 0.078684
O O2 0.519475 0.500871 0.163620
O O3 0.798518 0.531276 0.081735
O O4 0.500000 0.500000 0.000000
O O5 0.250000 0.750000 0.954355
O O6 0.454282 0.889319 0.931202
O O7 0.544520 0.756036 0.868618
O O8 0.543455 0.777498 0.037183
O O9 0.750000 0.250000 0.380515
O O10 0.048102 0.274650 0.299832
O O11 0.806621 0.067110 0.701008
O O12 0.092669 0.989053 0.674755
O O13 0.750000 0.250000 0.215055
O O14 0.500355 0.362684 0.237753
#
# Coordination Sequence:
#
# PCOD9429555 Si02
#       6
#     8   8   8   8   8   8
#     4  10  19  35  59  91 124 163 208 265 315 371
#     4  10  16  34  56  89 118 156 206 258 302 372
#     4  10  20  29  57  89 114 155 208 255 304 373
#     4  10  21  36  60  88 127 158 209 262 315 379
#     4  10  17  32  56  84 115 158 203 253 306 380
#     4  10  21  36  59  90 122 163 209 261 320 378
#
# _framework density 24.420722999999999
#
# number of rings (size 3 to 8) (size 9 to 14) (size 15 to 20)
#    1.000    1.000    3.333    4.000    2.333    0.000 
#    0.000    1.667    0.000    0.000    4.333    0.000 
#    0.000    0.000    0.000    0.000    0.000    0.000 
#
# Total GULP energy -267754.632715 kJ/mol
# GULP energy per Si atom -5578.221515 kJ/mol
# Density = 2.436514 g / cm^3
# Si number density = 24.420723 Si / 1000 Ang^3
#
#
#
# Elastic Constant Matrix: (Units=GPa)
#
#
# Indices 1 2 3 4 5 6 
#
# 1 65.4475 5.7207 -2.7703 0.0000 0.0000 0.0000
# 2 5.7207 126.9110 -9.8322 0.0000 0.0000 0.0000
# 3 -2.7703 -9.8322 112.5420 0.0000 0.0000 0.0000
# 4 0.0000 0.0000 0.0000 66.4699 0.0000 0.0000
# 5 0.0000 0.0000 0.0000 0.0000 2.7707 0.0000
# 6 0.0000 0.0000 0.0000 0.0000 0.0000 14.2981
#
#
#
# Elastic Compliance Matrix: (Units=1/GPa)
#
#
# Indices 1 2 3 4 5 6 
#
# 1 0.015351 -0.000667 0.000320 0.000000 0.000000 0.000000
# 2 -0.000667 0.007962 0.000679 0.000000 0.000000 0.000000
# 3 0.000320 0.000679 0.008953 0.000000 0.000000 0.000000
# 4 0.000000 0.000000 0.000000 0.015044 0.000000 0.000000
# 5 0.000000 0.000000 0.000000 0.000000 0.360919 0.000000
# 6 0.000000 0.000000 0.000000 0.000000 0.000000 0.069940
#
#
# Mechanical properties :
#
#
# Convention : Reuss Voigt Hill
#
# Bulk Modulus (GPa) = 30.36799 32.34854 31.35826
# Shear Modulus (GPa) = 10.23579 37.49323 23.86451
#
# Velocity S-wave (km/s) = 2.04952 3.92255 3.12945
# Velocity P-wave (km/s) = 4.25006 5.81294 5.09182
#
# Compressibility (1/GPa) = 0.03292941
#
# Stress axis : x y z
#
# Youngs Moduli (GPa) = 65.14123 125.59295 111.69720
#
# Poissons Ratio (x) = 0.08380 -0.03570
# Poissons Ratio (y) = 0.04346 -0.07586
# Poissons Ratio (z) = -0.02082 -0.08530
#
# Static dielectric constant tensor:
#      x y z
#    x 1.886480 0.000000 0.000000 
#    y 0.000000 1.914830 0.000000 
#    z 0.000000 0.000000 1.947240 
# 
# From -- ./inp_files/15689.got.cif
#   From: 2010.05.17/outbox.cif.g08.bks.cpg/sg56_8_cif.got.tgz:15689.got - 2010.06.03 13:42:01.
