data_PCOD9429020
_publ_section_title
;
Structure prediction by ZEFSAII (Michael W. Deem and Ramdas Pophale) SiO2 
 PCOD9429020
Probable space group: P B A M
;
_chemical_formula_sum "Si O2"
_cell_formula_units_Z 40
_cell_length_a 25.627763
_cell_length_b 9.697565
_cell_length_c 7.767248
_cell_angle_alpha 90.000000
_cell_angle_beta 90.000000
_cell_angle_gamma 90.000000
_cell_volume 1930.370048
_symmetry_space_group_name_H-M "P B A M"
_symmetry_group_IT_number 55
_symmetry_cell_setting 'orthorhombic'
loop_
_space_group_symop_operation_xyz
x,y,z
-x,-y,z
1/2+x,1/2-y,-z
1/2-x,1/2+y,-z
-x,-y,-z
x,y,-z
1/2-x,1/2+y,z
1/2+x,1/2-y,z
loop_
_atom_site_type_symbol
_atom_site_label
_atom_site_fract_x
_atom_site_fract_y
_atom_site_fract_z
Si Si1 0.880823 0.697838 0.697820
Si Si2 0.800710 0.148366 0.000000
Si Si3 0.622683 0.688640 0.690391
Si Si4 0.944258 0.938738 0.207836
Si Si5 0.555457 0.938735 0.206092
Si Si6 0.307398 0.687219 0.000000
O O1 0.863563 0.704707 0.500000
O O2 0.933505 0.787095 0.724435
O O3 0.898109 0.544413 0.747534
O O4 0.840542 0.764476 0.832725
O O5 0.833589 0.199224 0.164711
O O6 0.745433 0.224221 0.000000
O O7 0.798629 0.979418 0.000000
O O8 0.643658 0.711612 0.500000
O O9 0.599147 0.536521 0.710923
O O10 0.574620 0.792604 0.723246
O O11 0.939113 0.940618 0.000000
O O12 0.000000 0.000000 0.252252
O O13 0.500000 0.000000 0.268518
O O14 0.551514 0.925672 0.000000
#
# Coordination Sequence:
#
# PCOD9429020 Si02
#       6
#     8   4   8   8   8   4
#     4  12  24  43  69  99 137 176 222 274 330 398
#     4  12  28  50  73  98 130 170 225 288 349 400
#     4  12  24  43  69  99 137 176 222 274 330 398
#     4  11  21  39  67  99 137 180 219 262 324 396
#     4  11  23  41  67 101 145 188 223 264 322 394
#     4  12  28  50  73  98 130 170 225 288 349 400
#
# _framework density 20.721416000000001
#
# number of rings (size 3 to 8) (size 9 to 14) (size 15 to 20)
#    0.000    0.400    6.000    2.400    2.800    8.800 
#    0.000    0.000    0.000    0.000    0.000    0.000 
#    0.000    0.000    0.000    0.000    0.000    0.000 
#
# Total GULP energy -223722.896552 kJ/mol
# GULP energy per Si atom -5593.072414 kJ/mol
# Density = 2.067425 g / cm^3
# Si number density = 20.721416 Si / 1000 Ang^3
#
#
#
# Elastic Constant Matrix: (Units=GPa)
#
#
# Indices 1 2 3 4 5 6 
#
# 1 85.9667 8.9455 33.0730 0.0000 0.0000 0.0000
# 2 8.9455 79.2076 7.7375 0.0000 0.0000 0.0000
# 3 33.0730 7.7375 136.7062 0.0000 0.0000 0.0000
# 4 0.0000 0.0000 0.0000 22.5803 0.0000 0.0000
# 5 0.0000 0.0000 0.0000 0.0000 -12.0072 0.0000
# 6 0.0000 0.0000 0.0000 0.0000 0.0000 36.9565
#
#
#
# Elastic Compliance Matrix: (Units=1/GPa)
#
#
# Indices 1 2 3 4 5 6 
#
# 1 0.012932 -0.001161 -0.003063 0.000000 0.000000 0.000000
# 2 -0.001161 0.012800 -0.000444 0.000000 0.000000 0.000000
# 3 -0.003063 -0.000444 0.008081 0.000000 0.000000 0.000000
# 4 0.000000 0.000000 0.000000 0.044286 0.000000 0.000000
# 5 0.000000 0.000000 0.000000 0.000000 -0.083283 0.000000
# 6 0.000000 0.000000 0.000000 0.000000 0.000000 0.027059
#
#
# Mechanical properties :
#
#
# Convention : Reuss Voigt Hill
#
# Bulk Modulus (GPa) = 40.85462 44.59915 42.72689
# Shear Modulus (GPa) = 127.00557 26.31420 76.65989
#
# Velocity S-wave (km/s) = 7.83741 3.56744 6.08899
# Velocity P-wave (km/s) = 10.08261 6.20796 8.37250
#
# Compressibility (1/GPa) = 0.02447704
#
# Stress axis : x y z
#
# Youngs Moduli (GPa) = 77.33019 78.12792 123.74665
#
# Poissons Ratio (x) = 0.09073 0.37901
# Poissons Ratio (y) = 0.08980 0.05488
# Poissons Ratio (z) = 0.23684 0.03465
#
# Static dielectric constant tensor:
#      x y z
#    x 1.731910 0.000000 0.000000 
#    y 0.000000 1.721500 0.000000 
#    z 0.000000 0.000000 1.743610 
# 
# From -- ./inp_files/10022.got.cif
#   From: 2010.05.17/outbox.cif.g08.bks.cpg/sg55_6_cif.got.tgz:10022.got - 2010.06.03 13:27:54.
