data_PCOD9429115
_publ_section_title
;
Structure prediction by ZEFSAII (Michael W. Deem and Ramdas Pophale) SiO2 
 PCOD9429115
Probable space group: P B A M
;
_chemical_formula_sum "Si O2"
_cell_formula_units_Z 28
_cell_length_a 5.198697
_cell_length_b 19.661559
_cell_length_c 11.404052
_cell_angle_alpha 90.000000
_cell_angle_beta 90.000000
_cell_angle_gamma 90.000000
_cell_volume 1165.659334
_symmetry_space_group_name_H-M "P B A M"
_symmetry_group_IT_number 55
_symmetry_cell_setting 'orthorhombic'
loop_
_space_group_symop_operation_xyz
x,y,z
-x,-y,z
1/2+x,1/2-y,-z
1/2-x,1/2+y,-z
-x,-y,-z
x,y,-z
1/2-x,1/2+y,z
1/2+x,1/2-y,z
loop_
_atom_site_type_symbol
_atom_site_label
_atom_site_fract_x
_atom_site_fract_y
_atom_site_fract_z
Si Si1 0.126464 0.212250 0.259768
Si Si2 0.259101 0.421601 0.000000
Si Si3 0.151897 0.071641 0.636329
Si Si4 0.000000 0.500000 0.800576
Si Si5 0.255150 0.668287 0.000000
O O1 0.411237 0.234079 0.298711
O O2 0.034133 0.139654 0.309171
O O3 0.167182 0.207323 0.118727
O O4 0.034396 0.362812 0.000000
O O5 0.207435 0.467187 0.886494
O O6 0.544578 0.394005 0.000000
O O7 0.210568 0.082487 0.500000
O O8 0.398176 0.058649 0.716802
O O9 0.000000 0.000000 0.644482
#
# Coordination Sequence:
#
# PCOD9429115 Si02
#       5
#     8   4   8   4   4
#     4  12  27  47  73 105 148 190 237 297 365 433
#     4  11  24  37  76 103 149 179 239 293 368 429
#     4  11  26  47  75 104 142 193 251 304 359 429
#     4  11  23  42  68 110 139 189 230 308 360 431
#     4  12  22  46  66 107 142 192 229 293 357 442
#
# _framework density 24.020741999999998
#
# number of rings (size 3 to 8) (size 9 to 14) (size 15 to 20)
#    0.000    0.571    2.857    4.714    4.000    2.286 
#    0.000    0.000    0.000    0.000    0.000    0.000 
#    0.000    0.000    0.000    0.000    0.000    0.000 
#
# Total GULP energy -156737.624371 kJ/mol
# GULP energy per Si atom -5597.772299 kJ/mol
# Density = 2.396607 g / cm^3
# Si number density = 24.020742 Si / 1000 Ang^3
#
#
#
# Elastic Constant Matrix: (Units=GPa)
#
#
# Indices 1 2 3 4 5 6 
#
# 1 76.8651 28.7514 16.5526 0.0000 0.0000 0.0000
# 2 28.7514 106.7981 18.2195 0.0000 0.0000 0.0000
# 3 16.5526 18.2195 113.1993 0.0000 0.0000 0.0000
# 4 0.0000 0.0000 0.0000 12.2817 0.0000 0.0000
# 5 0.0000 0.0000 0.0000 0.0000 5.4704 0.0000
# 6 0.0000 0.0000 0.0000 0.0000 0.0000 55.0652
#
#
#
# Elastic Compliance Matrix: (Units=1/GPa)
#
#
# Indices 1 2 3 4 5 6 
#
# 1 0.014729 -0.003699 -0.001558 0.000000 0.000000 0.000000
# 2 -0.003699 0.010557 -0.001158 0.000000 0.000000 0.000000
# 3 -0.001558 -0.001158 0.009248 0.000000 0.000000 0.000000
# 4 0.000000 0.000000 0.000000 0.081422 0.000000 0.000000
# 5 0.000000 0.000000 0.000000 0.000000 0.182803 0.000000
# 6 0.000000 0.000000 0.000000 0.000000 0.000000 0.018160
#
#
# Mechanical properties :
#
#
# Convention : Reuss Voigt Hill
#
# Bulk Modulus (GPa) = 46.07775 47.10105 46.58940
# Shear Modulus (GPa) = 14.83742 30.11939 22.47840
#
# Velocity S-wave (km/s) = 2.48804 3.54487 3.06239
# Velocity P-wave (km/s) = 5.24194 6.03373 5.65172
#
# Compressibility (1/GPa) = 0.02170245
#
# Stress axis : x y z
#
# Youngs Moduli (GPa) = 67.89253 94.72409 108.12845
#
# Poissons Ratio (x) = 0.35042 0.16850
# Poissons Ratio (y) = 0.25116 0.12523
# Poissons Ratio (z) = 0.10580 0.10971
#
# Static dielectric constant tensor:
#      x y z
#    x 1.954560 0.000000 0.000000 
#    y 0.000000 1.957610 0.000000 
#    z 0.000000 0.000000 1.868080 
# 
# From -- ./inp_files/11130.got.cif
#   From: 2010.05.17/outbox.cif.g08.bks.cpg/sg55_6_cif.got.tgz:11130.got - 2010.06.03 13:27:54.
