data_PCOD9429822
_publ_section_title
;
Structure prediction by ZEFSAII (Michael W. Deem and Ramdas Pophale) SiO2 
 PCOD9429822
Probable space group: P C C N
;
_chemical_formula_sum "Si O2"
_cell_formula_units_Z 40
_cell_length_a 17.594185
_cell_length_b 5.262189
_cell_length_c 18.090807
_cell_angle_alpha 90.000000
_cell_angle_beta 90.000000
_cell_angle_gamma 90.000000
_cell_volume 1674.917951
_symmetry_space_group_name_H-M "P C C N"
_symmetry_group_IT_number 56
_symmetry_cell_setting 'orthorhombic'
loop_
_space_group_symop_operation_xyz
x,y,z
1/2-x,1/2-y,z
1/2+x,-y,1/2-z
-x,1/2+y,1/2-z
-x,-y,-z
1/2+x,1/2+y,-z
1/2-x,y,1/2+z
x,1/2-y,1/2+z
loop_
_atom_site_type_symbol
_atom_site_label
_atom_site_fract_x
_atom_site_fract_y
_atom_site_fract_z
Si Si1 0.664885 0.129834 0.518852
Si Si2 0.370780 0.890184 0.121942
Si Si3 0.179526 0.396577 0.334832
Si Si4 0.250000 0.750000 0.709988
Si Si5 0.954530 0.726276 0.762126
Si Si6 0.250000 0.250000 0.068667
O O1 0.750000 0.250000 0.520086
O O2 0.614038 0.287050 0.460430
O O3 0.643510 0.081675 0.603071
O O4 0.681317 0.861422 0.479450
O O5 0.334055 0.672572 0.173824
O O6 0.426350 0.081216 0.163175
O O7 0.289210 0.034139 0.116034
O O8 0.250000 0.250000 0.372497
O O9 0.220323 0.538262 0.267989
O O10 0.113258 0.237254 0.296912
O O11 0.005610 0.497042 0.727023
#
# Coordination Sequence:
#
# PCOD9429822 Si02
#       6
#     8   8   8   4   8   4
#     4  10  19  36  60 103 134 162 219 294 344 405
#     4  10  22  36  66  91 134 174 224 276 349 402
#     4  11  24  38  70  99 134 175 233 292 347 402
#     4  10  20  32  58  96 126 160 216 274 338 398
#     4  11  29  48  67  97 144 189 232 282 347 417
#     4  10  18  34  64  98 130 158 222 286 344 392
#
# _framework density 23.881765000000001
#
# number of rings (size 3 to 8) (size 9 to 14) (size 15 to 20)
#    0.000    1.600    5.000    0.000   14.000    0.000 
#    0.000    2.000    0.000    0.000    0.000    0.000 
#    0.000    0.000    0.000    0.000    0.000    0.000 
#
# Total GULP energy -222788.458126 kJ/mol
# GULP energy per Si atom -5569.711453 kJ/mol
# Density = 2.382741 g / cm^3
# Si number density = 23.881765 Si / 1000 Ang^3
#
#
#
# Elastic Constant Matrix: (Units=GPa)
#
#
# Indices 1 2 3 4 5 6 
#
# 1 57.2769 13.6783 7.3157 0.0000 0.0000 0.0000
# 2 13.6783 19.5118 -18.0511 0.0000 0.0000 0.0000
# 3 7.3157 -18.0511 113.7843 0.0000 0.0000 0.0000
# 4 0.0000 0.0000 0.0000 -9.0356 0.0000 0.0000
# 5 0.0000 0.0000 0.0000 0.0000 -2.8843 0.0000
# 6 0.0000 0.0000 0.0000 0.0000 0.0000 35.0587
#
#
#
# Elastic Compliance Matrix: (Units=1/GPa)
#
#
# Indices 1 2 3 4 5 6 
#
# 1 0.022946 -0.020453 -0.004720 0.000000 0.000000 0.000000
# 2 -0.020453 0.078297 0.013736 0.000000 0.000000 0.000000
# 3 -0.004720 0.013736 0.011271 0.000000 0.000000 0.000000
# 4 0.000000 0.000000 0.000000 -0.110673 0.000000 0.000000
# 5 0.000000 0.000000 0.000000 0.000000 -0.346709 0.000000
# 6 0.000000 0.000000 0.000000 0.000000 0.000000 0.028524
#
#
# Mechanical properties :
#
#
# Convention : Reuss Voigt Hill
#
# Bulk Modulus (GPa) = 11.15553 21.82876 16.49215
# Shear Modulus (GPa) = -18.96872 17.13644 -0.91614
#
# Velocity S-wave (km/s) = -2.82135 2.68162 -0.62004
# Velocity P-wave (km/s) = 2.43558 4.32993 2.53143
#
# Compressibility (1/GPa) = 0.08964163
#
# Stress axis : x y z
#
# Youngs Moduli (GPa) = 43.58023 12.77191 88.72172
#
# Poissons Ratio (x) = 0.26122 0.41876
# Poissons Ratio (y) = 0.89133 -1.21871
# Poissons Ratio (z) = 0.20570 -0.17544
#
# Static dielectric constant tensor:
#      x y z
#    x 2.332860 0.000000 0.000000 
#    y 0.000000 1.351710 0.000000 
#    z 0.000000 0.000000 2.048040 
# 
# From -- ./inp_files/13859.got.cif
#   From: 2010.05.17/outbox.cif.g08.bks.cpg/sg56_7_cif.got.tgz:13859.got - 2010.06.03 13:42:01.
