data_PCOD9429819
_publ_section_title
;
Structure prediction by ZEFSAII (Michael W. Deem and Ramdas Pophale) SiO2 
 PCOD9429819
Probable space group: P C C N
;
_chemical_formula_sum "Si O2"
_cell_formula_units_Z 40
_cell_length_a 6.410886
_cell_length_b 17.959068
_cell_length_c 13.963053
_cell_angle_alpha 90.000000
_cell_angle_beta 90.000000
_cell_angle_gamma 90.000000
_cell_volume 1607.615688
_symmetry_space_group_name_H-M "P C C N"
_symmetry_group_IT_number 56
_symmetry_cell_setting 'orthorhombic'
loop_
_space_group_symop_operation_xyz
x,y,z
1/2-x,1/2-y,z
1/2+x,-y,1/2-z
-x,1/2+y,1/2-z
-x,-y,-z
1/2+x,1/2+y,-z
1/2-x,y,1/2+z
x,1/2-y,1/2+z
loop_
_atom_site_type_symbol
_atom_site_label
_atom_site_fract_x
_atom_site_fract_y
_atom_site_fract_z
Si Si1 0.750000 0.750000 0.404709
Si Si2 0.469791 0.381425 0.897570
Si Si3 0.750000 0.250000 0.387343
Si Si4 0.111077 0.399767 0.029247
Si Si5 0.140524 0.967686 0.647289
Si Si6 0.582039 0.655938 0.735577
O O1 0.611461 0.689380 0.460708
O O2 0.881972 0.695832 0.335721
O O3 0.609956 0.313280 0.936510
O O4 0.623217 0.440078 0.849124
O O5 0.298891 0.348518 0.823419
O O6 0.334885 0.417360 0.981630
O O7 0.588288 0.295357 0.320901
O O8 0.098743 0.445643 0.127682
O O9 0.947321 0.429979 0.951916
O O10 0.012098 0.927176 0.730787
#
# Coordination Sequence:
#
# PCOD9429819 Si02
#       6
#     4   8   4   8   8   8
#     4  12  24  40  56  98 136 160 208 284 310 374
#     4  10  19  36  68  85 118 162 214 258 315 388
#     4  10  18  34  64  86 114 172 208 244 316 398
#     4  10  23  40  63  96 127 155 224 272 315 374
#     4   9  21  43  66  88 119 177 211 259 326 394
#     4  10  21  40  60  86 127 165 210 250 324 392
#
# _framework density 24.881568999999999
#
# number of rings (size 3 to 8) (size 9 to 14) (size 15 to 20)
#    0.000    2.000    2.000    0.600    8.400    0.000 
#    7.200    0.000    0.000    0.000    0.000    0.000 
#    0.000    0.000    0.000    0.000    0.000    0.000 
#
# Total GULP energy -223639.689427 kJ/mol
# GULP energy per Si atom -5590.992236 kJ/mol
# Density = 2.482494 g / cm^3
# Si number density = 24.881569 Si / 1000 Ang^3
#
#
#
# Elastic Constant Matrix: (Units=GPa)
#
#
# Indices 1 2 3 4 5 6 
#
# 1 118.1621 36.2377 18.7552 0.0000 0.0000 0.0000
# 2 36.2377 158.9294 30.1305 0.0000 0.0000 0.0000
# 3 18.7552 30.1305 60.5326 0.0000 0.0000 0.0000
# 4 0.0000 0.0000 0.0000 54.5174 0.0000 0.0000
# 5 0.0000 0.0000 0.0000 0.0000 7.0706 0.0000
# 6 0.0000 0.0000 0.0000 0.0000 0.0000 27.4159
#
#
#
# Elastic Compliance Matrix: (Units=1/GPa)
#
#
# Indices 1 2 3 4 5 6 
#
# 1 0.009318 -0.001742 -0.002020 0.000000 0.000000 0.000000
# 2 -0.001742 0.007273 -0.003081 0.000000 0.000000 0.000000
# 3 -0.002020 -0.003081 0.018679 0.000000 0.000000 0.000000
# 4 0.000000 0.000000 0.000000 0.018343 0.000000 0.000000
# 5 0.000000 0.000000 0.000000 0.000000 0.141431 0.000000
# 6 0.000000 0.000000 0.000000 0.000000 0.000000 0.036475
#
#
# Mechanical properties :
#
#
# Convention : Reuss Voigt Hill
#
# Bulk Modulus (GPa) = 46.32720 56.43010 51.37865
# Shear Modulus (GPa) = 19.80991 34.63414 27.22202
#
# Velocity S-wave (km/s) = 2.82471 3.73494 3.31125
# Velocity P-wave (km/s) = 5.41277 6.42872 5.94250
#
# Compressibility (1/GPa) = 0.02158559
#
# Stress axis : x y z
#
# Youngs Moduli (GPa) = 107.32276 137.49004 53.53497
#
# Poissons Ratio (x) = 0.23945 0.10815
# Poissons Ratio (y) = 0.18691 0.16493
# Poissons Ratio (z) = 0.21680 0.42357
#
# Static dielectric constant tensor:
#      x y z
#    x 1.951180 0.000000 0.000000 
#    y 0.000000 2.067100 0.000000 
#    z 0.000000 0.000000 1.963120 
# 
# From -- ./inp_files/13933.got.cif
#   From: 2010.05.17/outbox.cif.g08.bks.cpg/sg56_7_cif.got.tgz:13933.got - 2010.06.03 13:42:01.
