data_PCOD9429265
_publ_section_title
;
Structure prediction by ZEFSAII (Michael W. Deem and Ramdas Pophale) SiO2 
 PCOD9429265
Probable space group: P B A M
;
_chemical_formula_sum "Si O2"
_cell_formula_units_Z 64
_cell_length_a 15.000000
_cell_length_b 24.000000
_cell_length_c 9.000000
_cell_angle_alpha 90.000000
_cell_angle_beta 90.000000
_cell_angle_gamma 90.000000
_cell_volume 3240.000000
_symmetry_space_group_name_H-M "P B A M"
_symmetry_group_IT_number 55
_symmetry_cell_setting 'orthorhombic'
loop_
_space_group_symop_operation_xyz
x,y,z
-x,-y,z
1/2+x,1/2-y,-z
1/2-x,1/2+y,-z
-x,-y,-z
x,y,-z
1/2-x,1/2+y,z
1/2+x,1/2-y,z
loop_
_atom_site_type_symbol
_atom_site_label
_atom_site_fract_x
_atom_site_fract_y
_atom_site_fract_z
Si Si1 0.387120 0.609302 0.677048
Si Si2 0.574572 0.776687 0.823872
Si Si3 0.446387 0.102842 0.819157
Si Si4 0.772661 0.657171 0.326325
Si Si5 0.733136 0.954578 0.179359
Si Si6 0.236615 0.215222 0.673218
Si Si7 0.372974 0.938949 0.822745
Si Si8 0.064558 0.838897 0.678272
O O1 0.386773 0.599879 0.500000
O O2 0.327146 0.562843 0.754189
O O3 0.334997 0.667628 0.705210
O O4 0.489168 0.617469 0.727357
O O5 0.529698 0.834350 0.776081
O O6 0.677978 0.785929 0.779535
O O7 0.541959 0.721624 0.743040
O O8 0.566126 0.769874 0.000000
O O9 0.346938 0.086838 0.771866
O O10 0.525040 0.062285 0.768128
O O11 0.444353 0.100781 0.000000
O O12 0.782296 0.641057 0.500000
O O13 0.798546 0.721889 0.313802
O O14 0.830493 0.619230 0.221030
O O15 0.667871 0.650353 0.284643
O O16 0.693834 0.013517 0.231139
O O17 0.739363 0.953202 0.000000
O O18 0.265970 0.208579 0.500000
O O19 0.377902 0.946201 0.000000
O O20 0.060016 0.835489 0.500000
#
# Coordination Sequence:
#
# PCOD9429265 Si02
#       8
#     8   8   8   8   8   8   8   8
#     4  10  20  35  57  81 106 141 183 222 268 322
#     4  10  18  30  51  80 110 139 174 215 260 314
#     4   9  18  33  52  78 109 142 176 211 262 323
#     4   9  19  36  54  76 107 139 177 223 269 315
#     4  10  20  37  57  78 108 142 179 225 270 316
#     4   9  18  33  52  76 107 141 173 213 267 320
#     4  10  21  36  56  78 104 144 185 220 266 323
#     4   9  20  37  55  76 109 147 179 216 269 325
#
# _framework density 19.753086
#
# number of rings (size 3 to 8) (size 9 to 14) (size 15 to 20)
#    0.000    2.500    1.250    1.500    1.750    4.500 
#    0.000    1.875    0.000    5.250    0.000    0.000 
#    0.000    0.000    0.000    0.000    0.000    0.000 
#
# Total GULP energy -356698.624127 kJ/mol
# GULP energy per Si atom -5573.416002 kJ/mol
# Density = 1.970813 g / cm^3
# Si number density = 19.753086 Si / 1000 Ang^3
#
#
#
# Elastic Constant Matrix: (Units=GPa)
#
#
# Indices 1 2 3 4 5 6 
#
# 1 14.6574 -10.1562 -2.1235 0.0000 0.0000 0.0000
# 2 -10.1562 18.1933 -8.2904 0.0000 0.0000 0.0000
# 3 -2.1235 -8.2904 -22.8782 0.0000 0.0000 0.0000
# 4 0.0000 0.0000 0.0000 12.3051 0.0000 0.0000
# 5 0.0000 0.0000 0.0000 0.0000 17.3012 0.0000
# 6 0.0000 0.0000 0.0000 0.0000 0.0000 20.8426
#
#
#
# Elastic Compliance Matrix: (Units=1/GPa)
#
#
# Indices 1 2 3 4 5 6 
#
# 1 0.093477 0.041394 -0.023676 0.000000 0.000000 0.000000
# 2 0.041394 0.065506 -0.027579 0.000000 0.000000 0.000000
# 3 -0.023676 -0.027579 -0.031518 0.000000 0.000000 0.000000
# 4 0.000000 0.000000 0.000000 0.081267 0.000000 0.000000
# 5 0.000000 0.000000 0.000000 0.000000 0.057800 0.000000
# 6 0.000000 0.000000 0.000000 0.000000 0.000000 0.047979
#
#
# Mechanical properties :
#
#
# Convention : Reuss Voigt Hill
#
# Bulk Modulus (GPa) = 9.28150 -3.46307 2.90922
# Shear Modulus (GPa) = 13.50816 12.12595 12.81706
#
# Velocity S-wave (km/s) = 2.61789 2.48034 2.55004
# Velocity P-wave (km/s) = 3.72112 2.53886 3.18532
#
# Compressibility (1/GPa) = 0.10774116
#
# Stress axis : x y z
#
# Youngs Moduli (GPa) = 10.69780 15.26588 -31.72757
#
# Poissons Ratio (x) = -0.63191 -0.75119
# Poissons Ratio (y) = -0.44282 -0.87503
# Poissons Ratio (z) = 0.25328 0.42102
#
# Static dielectric constant tensor:
#      x y z
#    x 1.715540 0.000000 0.000000 
#    y 0.000000 1.739000 0.000000 
#    z 0.000000 0.000000 1.664090 
# 
# From -- ./inp_files/6537.got.cif
#   From: 2010.05.17/outbox.ucp.g08.bks.cvg/sg55_4_cif.got.tgz:6537.got - 2010.06.11 16:36:00.
