data_PCOD9429432
_publ_section_title
;
Structure prediction by ZEFSAII (Michael W. Deem and Ramdas Pophale) SiO2 
 PCOD9429432
Probable space group: P B A M
;
_chemical_formula_sum "Si O2"
_cell_formula_units_Z 64
_cell_length_a 15.000000
_cell_length_b 9.000000
_cell_length_c 24.000000
_cell_angle_alpha 90.000000
_cell_angle_beta 90.000000
_cell_angle_gamma 90.000000
_cell_volume 3240.000000
_symmetry_space_group_name_H-M "P B A M"
_symmetry_group_IT_number 55
_symmetry_cell_setting 'orthorhombic'
loop_
_space_group_symop_operation_xyz
x,y,z
-x,-y,z
1/2+x,1/2-y,-z
1/2-x,1/2+y,-z
-x,-y,-z
x,y,-z
1/2-x,1/2+y,z
1/2+x,1/2-y,z
loop_
_atom_site_type_symbol
_atom_site_label
_atom_site_fract_x
_atom_site_fract_y
_atom_site_fract_z
Si Si1 0.926550 0.373025 0.372437
Si Si2 0.233014 0.779891 0.750066
Si Si3 0.010087 0.823639 0.140692
Si Si4 0.960674 0.336481 0.749371
Si Si5 0.154287 0.175198 0.066134
Si Si6 0.710356 0.628731 0.124944
Si Si7 0.223335 0.047742 0.334266
Si Si8 0.099307 0.932269 0.565436
O O1 0.968074 0.298919 0.316087
O O2 0.827825 0.437021 0.354712
O O3 0.908489 0.241198 0.416199
O O4 0.000000 0.500000 0.388763
O O5 0.145616 0.677292 0.759570
O O6 0.251208 0.845203 0.812333
O O7 0.296671 0.685400 0.708364
O O8 0.208872 0.912919 0.708504
O O9 0.993530 0.758021 0.202065
O O10 0.112842 0.793798 0.124903
O O11 0.940558 0.778284 0.093058
O O12 0.000000 0.000000 0.145941
O O13 0.000000 0.500000 0.754681
O O14 0.224478 0.303296 0.079305
O O15 0.189438 0.038467 0.104719
O O16 0.147607 0.140909 0.000000
O O17 0.163323 0.016047 0.389277
O O18 0.128114 0.945003 0.500000
O O19 0.000000 0.000000 0.569342
#
# Coordination Sequence:
#
# PCOD9429432 Si02
#       8
#     8   8   8   8   8   8   8   8
#     4  10  23  41  66  96 127 172 219 265 325 386
#     4  10  21  38  64  95 126 161 218 264 331 390
#     4   9  21  38  60  87 119 159 213 262 316 375
#     4   9  18  37  58  89 125 158 201 261 323 381
#     4  11  23  39  61  88 122 170 216 254 315 385
#     4  10  22  41  59  91 125 161 205 266 320 377
#     4  11  21  43  63  97 129 169 214 270 327 379
#     4  11  26  46  66  96 134 175 222 264 314 386
#
# _framework density 19.753086
#
# number of rings (size 3 to 8) (size 9 to 14) (size 15 to 20)
#    0.000    1.875    2.500    1.125    1.750    9.000 
#    2.250    0.000    0.000    1.875    0.000    0.000 
#    0.000    0.000    0.000    0.000    0.000    0.000 
#
# Total GULP energy -356571.399531 kJ/mol
# GULP energy per Si atom -5571.428118 kJ/mol
# Density = 1.970813 g / cm^3
# Si number density = 19.753086 Si / 1000 Ang^3
#
#
#
# Elastic Constant Matrix: (Units=GPa)
#
#
# Indices 1 2 3 4 5 6 
#
# 1 81.3130 20.9026 43.7400 0.0000 0.0000 0.0000
# 2 20.9026 16.4274 23.1091 0.0000 0.0000 0.0000
# 3 43.7400 23.1091 154.7520 0.0000 0.0000 0.0000
# 4 0.0000 0.0000 0.0000 29.0365 0.0000 0.0000
# 5 0.0000 0.0000 0.0000 0.0000 37.6216 0.0000
# 6 0.0000 0.0000 0.0000 0.0000 0.0000 29.1429
#
#
#
# Elastic Compliance Matrix: (Units=1/GPa)
#
#
# Indices 1 2 3 4 5 6 
#
# 1 0.018856 -0.020882 -0.002211 0.000000 0.000000 0.000000
# 2 -0.020882 0.100188 -0.009059 0.000000 0.000000 0.000000
# 3 -0.002211 -0.009059 0.008440 0.000000 0.000000 0.000000
# 4 0.000000 0.000000 0.000000 0.034439 0.000000 0.000000
# 5 0.000000 0.000000 0.000000 0.000000 0.026580 0.000000
# 6 0.000000 0.000000 0.000000 0.000000 0.000000 0.034314
#
#
# Mechanical properties :
#
#
# Convention : Reuss Voigt Hill
#
# Bulk Modulus (GPa) = 15.82789 47.55509 31.69149
# Shear Modulus (GPa) = 16.22426 30.14290 23.18358
#
# Velocity S-wave (km/s) = 2.86904 3.91062 3.42960
# Velocity P-wave (km/s) = 4.35952 6.67216 5.63574
#
# Compressibility (1/GPa) = 0.06317961
#
# Stress axis : x y z
#
# Youngs Moduli (GPa) = 53.03490 9.98123 118.48761
#
# Poissons Ratio (x) = 0.20843 0.26200
# Poissons Ratio (y) = 1.10746 1.07337
# Poissons Ratio (z) = 0.11727 0.09042
#
# Static dielectric constant tensor:
#      x y z
#    x 1.740000 0.000000 0.000000 
#    y 0.000000 1.752240 0.000000 
#    z 0.000000 0.000000 1.691500 
# 
# From -- ./inp_files/23606.got.cif
#   From: 2010.05.17/outbox.ucp.g08.bks.cvg/sg55_12_cif.got.tgz:23606.got - 2010.06.11 16:36:00.
