data_PCOD9429315
_publ_section_title
;
Structure prediction by ZEFSAII (Michael W. Deem and Ramdas Pophale) SiO2 
 PCOD9429315
Probable space group: P B A M
;
_chemical_formula_sum "Si O2"
_cell_formula_units_Z 64
_cell_length_a 18.000000
_cell_length_b 21.000000
_cell_length_c 9.000000
_cell_angle_alpha 90.000000
_cell_angle_beta 90.000000
_cell_angle_gamma 90.000000
_cell_volume 3402.000000
_symmetry_space_group_name_H-M "P B A M"
_symmetry_group_IT_number 55
_symmetry_cell_setting 'orthorhombic'
loop_
_space_group_symop_operation_xyz
x,y,z
-x,-y,z
1/2+x,1/2-y,-z
1/2-x,1/2+y,-z
-x,-y,-z
x,y,-z
1/2-x,1/2+y,z
1/2+x,1/2-y,z
loop_
_atom_site_type_symbol
_atom_site_label
_atom_site_fract_x
_atom_site_fract_y
_atom_site_fract_z
Si Si1 0.718761 0.976650 0.177323
Si Si2 0.837474 0.341411 0.180865
Si Si3 0.566457 0.049448 0.177768
Si Si4 0.497916 0.301887 0.829300
Si Si5 0.010874 0.929488 0.669925
Si Si6 0.188649 0.922527 0.334045
Si Si7 0.316557 0.296967 0.829883
Si Si8 0.000509 0.329408 0.322885
O O1 0.708016 0.903780 0.224844
O O2 0.643531 0.015098 0.214589
O O3 0.785576 0.015940 0.245515
O O4 0.725706 0.976541 0.000000
O O5 0.799880 0.274430 0.223294
O O6 0.919143 0.343804 0.252546
O O7 0.846676 0.341033 0.000000
O O8 0.553353 0.114812 0.263788
O O9 0.500000 0.000000 0.211509
O O10 0.564190 0.061539 0.000000
O O11 0.520308 0.369621 0.759996
O O12 0.407128 0.299979 0.827834
O O13 0.522714 0.240402 0.736807
O O14 0.521482 0.296458 0.000000
O O15 0.981767 0.929410 0.500000
O O16 0.099549 0.920273 0.662475
O O17 0.000000 0.000000 0.734775
O O18 0.217784 0.927192 0.500000
O O19 0.213645 0.856250 0.261190
O O20 0.292524 0.303966 0.000000
O O21 0.995849 0.329118 0.500000
#
# Coordination Sequence:
#
# PCOD9429315 Si02
#       8
#     8   8   8   8   8   8   8   8
#     4  10  20  34  54  75 101 137 173 212 258 306
#     4   9  17  32  52  75  99 131 174 216 253 297
#     4  10  19  34  53  72 100 139 179 213 250 299
#     4   9  17  30  50  76 103 132 171 213 253 301
#     4   9  18  34  56  80 106 136 170 210 264 318
#     4  10  20  33  51  76 106 134 167 210 256 311
#     4   8  15  29  51  73  95 125 168 213 249 294
#     4  11  20  29  47  75 107 136 168 213 259 302
#
# _framework density 18.812463000000001
#
# number of rings (size 3 to 8) (size 9 to 14) (size 15 to 20)
#    0.000    2.500    1.250    2.625    0.000    5.000 
#    0.000    0.000    2.750    0.000    0.000    0.000 
#    0.000    0.000    0.000    0.000    0.000    0.000 
#
# Total GULP energy -356835.383772 kJ/mol
# GULP energy per Si atom -5575.552871 kJ/mol
# Density = 1.876965 g / cm^3
# Si number density = 18.812463 Si / 1000 Ang^3
#
#
#
# Elastic Constant Matrix: (Units=GPa)
#
#
# Indices 1 2 3 4 5 6 
#
# 1 -6.3714 0.3277 5.8047 0.0000 0.0000 0.0000
# 2 0.3277 173.3810 51.2368 0.0000 0.0000 0.0000
# 3 5.8047 51.2368 35.3611 0.0000 0.0000 0.0000
# 4 0.0000 0.0000 0.0000 -7.1197 0.0000 0.0000
# 5 0.0000 0.0000 0.0000 0.0000 9.1755 0.0000
# 6 0.0000 0.0000 0.0000 0.0000 0.0000 19.9199
#
#
#
# Elastic Compliance Matrix: (Units=1/GPa)
#
#
# Indices 1 2 3 4 5 6 
#
# 1 -0.125262 -0.010213 0.035360 0.000000 0.000000 0.000000
# 2 -0.010213 0.009254 -0.011732 0.000000 0.000000 0.000000
# 3 0.035360 -0.011732 0.039475 0.000000 0.000000 0.000000
# 4 0.000000 0.000000 0.000000 -0.140456 0.000000 0.000000
# 5 0.000000 0.000000 0.000000 0.000000 0.108986 0.000000
# 6 0.000000 0.000000 0.000000 0.000000 0.000000 0.050201
#
#
# Mechanical properties :
#
#
# Convention : Reuss Voigt Hill
#
# Bulk Modulus (GPa) = -20.11965 35.23435 7.55735
# Shear Modulus (GPa) = -49.40699 14.06191 -17.67254
#
# Velocity S-wave (km/s) = -5.13029 2.73697 -3.06830
# Velocity P-wave (km/s) = 6.76840 5.36264 2.92005
#
# Compressibility (1/GPa) = -0.04970264
#
# Stress axis : x y z
#
# Youngs Moduli (GPa) = -7.98327 108.06132 25.33272
#
# Poissons Ratio (x) = 1.10360 -0.89577
# Poissons Ratio (y) = -0.08153 0.29721
# Poissons Ratio (z) = 0.28229 1.26780
#
# Static dielectric constant tensor:
#      x y z
#    x 1.645030 0.000000 0.000000 
#    y 0.000000 1.670190 0.000000 
#    z 0.000000 0.000000 1.645240 
# 
# From -- ./inp_files/8049.got.cif
#   From: 2010.05.17/outbox.ucp.g08.bks.cvg/sg55_5_cif.got.tgz:8049.got - 2010.06.11 16:36:00.
