data_PCOD9429089
_publ_section_title
;
Structure prediction by ZEFSAII (Michael W. Deem and Ramdas Pophale) SiO2 
 PCOD9429089
Probable space group: P B A M
;
_chemical_formula_sum "Si O2"
_cell_formula_units_Z 58
_cell_length_a 28.559674
_cell_length_b 11.927998
_cell_length_c 9.170018
_cell_angle_alpha 90.000000
_cell_angle_beta 90.000000
_cell_angle_gamma 90.000000
_cell_volume 3123.855896
_symmetry_space_group_name_H-M "P B A M"
_symmetry_group_IT_number 55
_symmetry_cell_setting 'orthorhombic'
loop_
_space_group_symop_operation_xyz
x,y,z
-x,-y,z
1/2+x,1/2-y,-z
1/2-x,1/2+y,-z
-x,-y,-z
x,y,-z
1/2-x,1/2+y,z
1/2+x,1/2-y,z
loop_
_atom_site_type_symbol
_atom_site_label
_atom_site_fract_x
_atom_site_fract_y
_atom_site_fract_z
Si Si1 0.390005 0.264076 0.327546
Si Si2 0.000000 0.000000 0.000000
Si Si3 0.356671 0.046605 0.170360
Si Si4 0.984725 0.231337 0.160151
Si Si5 0.775221 0.629627 0.830152
Si Si6 0.414953 0.828739 0.828137
Si Si7 0.834161 0.808409 0.673177
Si Si8 0.669284 0.546964 0.828482
O O1 0.386269 0.275818 0.500000
O O2 0.363673 0.152965 0.271302
O O3 0.443487 0.256476 0.274354
O O4 0.367027 0.369438 0.246041
O O5 0.003139 0.898806 0.875168
O O6 0.309303 0.976084 0.199819
O O7 0.398799 0.957098 0.190896
O O8 0.355489 0.080930 0.000000
O O9 0.031518 0.298127 0.201621
O O10 0.968285 0.275754 0.000000
O O11 0.791554 0.730804 0.728812
O O12 0.721424 0.597208 0.814336
O O13 0.783852 0.661047 0.000000
O O14 0.380588 0.754417 0.730584
O O15 0.406617 0.801608 0.000000
O O16 0.834083 0.818642 0.500000
O O17 0.831844 0.927883 0.750307
O O18 0.658234 0.534825 0.000000
#
# Coordination Sequence:
#
# PCOD9429089 Si02
#       8
#     8   2   8   8   8   8   8   8
#     4  12  26  40  56  90 129 162 197 249 322 377
#     4   8  20  36  66  90 116 152 214 240 314 344
#     4   9  19  39  63  88 118 157 205 255 299 359
#     4   9  20  38  63  90 115 159 205 252 298 355
#     4   9  21  42  65  88 111 156 211 252 295 355
#     4   9  19  38  65  90 117 159 214 254 290 354
#     4  11  23  37  59  93 127 154 189 244 313 371
#     4  11  24  41  64  85 115 159 211 255 294 358
#
# _framework density 18.566799
#
# number of rings (size 3 to 8) (size 9 to 14) (size 15 to 20)
#    0.414    1.655    0.000    3.724    3.862    4.414 
#    0.000    3.103    0.000    0.000    0.000    0.000 
#    0.000    0.000    0.000    0.000    0.000    0.000 
#
# Total GULP energy -323295.429561 kJ/mol
# GULP energy per Si atom -5574.059130 kJ/mol
# Density = 1.852454 g / cm^3
# Si number density = 18.566799 Si / 1000 Ang^3
#
#
#
# Elastic Constant Matrix: (Units=GPa)
#
#
# Indices 1 2 3 4 5 6 
#
# 1 24.4728 4.2340 36.4244 0.0000 0.0000 0.0000
# 2 4.2340 64.0305 67.8616 0.0000 0.0000 0.0000
# 3 36.4244 67.8616 138.8422 0.0000 0.0000 0.0000
# 4 0.0000 0.0000 0.0000 8.6755 0.0000 0.0000
# 5 0.0000 0.0000 0.0000 0.0000 3.4963 0.0000
# 6 0.0000 0.0000 0.0000 0.0000 0.0000 5.7163
#
#
#
# Elastic Compliance Matrix: (Units=1/GPa)
#
#
# Indices 1 2 3 4 5 6 
#
# 1 0.111717 0.049119 -0.053316 0.000000 0.000000 0.000000
# 2 0.049119 0.053998 -0.039279 0.000000 0.000000 0.000000
# 3 -0.053316 -0.039279 0.040388 0.000000 0.000000 0.000000
# 4 0.000000 0.000000 0.000000 0.115267 0.000000 0.000000
# 5 0.000000 0.000000 0.000000 0.000000 0.286015 0.000000
# 6 0.000000 0.000000 0.000000 0.000000 0.000000 0.174938
#
#
# Mechanical properties :
#
#
# Convention : Reuss Voigt Hill
#
# Bulk Modulus (GPa) = 8.39269 49.37617 28.88443
# Shear Modulus (GPa) = 5.50060 11.49933 8.49996
#
# Velocity S-wave (km/s) = 1.72309 2.49137 2.14196
# Velocity P-wave (km/s) = 2.91355 5.90994 4.65920
#
# Compressibility (1/GPa) = 0.11915126
#
# Stress axis : x y z
#
# Youngs Moduli (GPa) = 8.95119 18.51911 24.76007
#
# Poissons Ratio (x) = -0.90963 1.32010
# Poissons Ratio (y) = -0.43967 0.97254
# Poissons Ratio (z) = 0.47724 0.72740
#
# Static dielectric constant tensor:
#      x y z
#    x 1.651560 0.000000 0.000000 
#    y 0.000000 1.627080 0.000000 
#    z 0.000000 0.000000 1.617230 
# 
# From -- ./inp_files/10692.got.cif
#   From: 2010.05.17/outbox.cif.g08.bks.cpg/sg55_6_cif.got.tgz:10692.got - 2010.06.03 13:27:54.
