data_PCOD9429844
_publ_section_title
;
Structure prediction by ZEFSAII (Michael W. Deem and Ramdas Pophale) SiO2 
 PCOD9429844
Probable space group: P C C N
;
_chemical_formula_sum "Si O2"
_cell_formula_units_Z 48
_cell_length_a 10.049225
_cell_length_b 15.640862
_cell_length_c 14.050254
_cell_angle_alpha 90.000000
_cell_angle_beta 90.000000
_cell_angle_gamma 90.000000
_cell_volume 2208.398430
_symmetry_space_group_name_H-M "P C C N"
_symmetry_group_IT_number 56
_symmetry_cell_setting 'orthorhombic'
loop_
_space_group_symop_operation_xyz
x,y,z
1/2-x,1/2-y,z
1/2+x,-y,1/2-z
-x,1/2+y,1/2-z
-x,-y,-z
1/2+x,1/2+y,-z
1/2-x,y,1/2+z
x,1/2-y,1/2+z
loop_
_atom_site_type_symbol
_atom_site_label
_atom_site_fract_x
_atom_site_fract_y
_atom_site_fract_z
Si Si1 0.849609 0.595826 0.176449
Si Si2 0.430014 0.910288 0.029132
Si Si3 0.192535 0.840380 0.132678
Si Si4 0.083183 0.392674 0.414973
Si Si5 0.985088 0.583431 0.376745
Si Si6 0.212416 0.608379 0.848733
O O1 0.710489 0.635723 0.143942
O O2 0.904213 0.607523 0.282561
O O3 0.817680 0.493793 0.162590
O O4 0.964293 0.625511 0.103979
O O5 0.287965 0.912849 0.085143
O O6 0.389548 0.863722 0.931268
O O7 0.500000 0.000000 0.000000
O O8 0.250000 0.750000 0.105843
O O9 0.192592 0.852453 0.245731
O O10 0.043499 0.835190 0.097687
O O11 0.101259 0.402282 0.528256
O O12 0.025436 0.483210 0.375923
O O13 0.133774 0.623974 0.378642
#
# Coordination Sequence:
#
# PCOD9429844 Si02
#       6
#     8   8   8   8   8   8
#     4  10  20  34  65  94 125 158 209 278 319 370
#     4  10  22  39  63  94 122 168 221 270 318 381
#     4  12  24  40  61  92 131 175 213 261 331 406
#     4  10  22  36  58  97 125 164 207 273 321 381
#     4  10  18  35  62  88 128 155 210 267 328 363
#     4  10  20  36  60  91 124 162 207 260 317 386
#
# _framework density 21.735208
#
# number of rings (size 3 to 8) (size 9 to 14) (size 15 to 20)
#    0.000    1.667    5.000    0.000    2.333    2.000 
#    0.000    0.833    0.000    0.000    4.333    0.000 
#    0.000    0.000    0.000    0.000    0.000    0.000 
#
# Total GULP energy -267766.670310 kJ/mol
# GULP energy per Si atom -5578.472298 kJ/mol
# Density = 2.168574 g / cm^3
# Si number density = 21.735208 Si / 1000 Ang^3
#
#
#
# Elastic Constant Matrix: (Units=GPa)
#
#
# Indices 1 2 3 4 5 6 
#
# 1 167.9898 22.9096 84.0676 0.0000 0.0000 0.0000
# 2 22.9096 30.0854 17.5595 0.0000 0.0000 0.0000
# 3 84.0676 17.5595 138.0851 0.0000 0.0000 0.0000
# 4 0.0000 0.0000 0.0000 -2.9688 0.0000 0.0000
# 5 0.0000 0.0000 0.0000 0.0000 3.6194 0.0000
# 6 0.0000 0.0000 0.0000 0.0000 0.0000 11.2236
#
#
#
# Elastic Compliance Matrix: (Units=1/GPa)
#
#
# Indices 1 2 3 4 5 6 
#
# 1 0.008973 -0.003936 -0.004962 0.000000 0.000000 0.000000
# 2 -0.003936 0.037630 -0.002389 0.000000 0.000000 0.000000
# 3 -0.004962 -0.002389 0.010567 0.000000 0.000000 0.000000
# 4 0.000000 0.000000 0.000000 -0.336835 0.000000 0.000000
# 5 0.000000 0.000000 0.000000 0.000000 0.276287 0.000000
# 6 0.000000 0.000000 0.000000 0.000000 0.000000 0.089098
#
#
# Mechanical properties :
#
#
# Convention : Reuss Voigt Hill
#
# Bulk Modulus (GPa) = 28.90567 65.02596 46.96581
# Shear Modulus (GPa) = 41.72724 16.48310 29.10517
#
# Velocity S-wave (km/s) = 4.38630 2.75682 3.66331
# Velocity P-wave (km/s) = 6.24346 6.33370 6.28874
#
# Compressibility (1/GPa) = 0.03459529
#
# Stress axis : x y z
#
# Youngs Moduli (GPa) = 111.44799 26.57424 94.63720
#
# Poissons Ratio (x) = 0.10461 0.46960
# Poissons Ratio (y) = 0.43871 0.22606
# Poissons Ratio (z) = 0.55302 0.06348
#
# Static dielectric constant tensor:
#      x y z
#    x 1.821520 0.000000 0.000000 
#    y 0.000000 1.850430 0.000000 
#    z 0.000000 0.000000 1.808140 
# 
# From -- ./inp_files/10698.got.cif
#   From: 2010.05.17/outbox.cif.g08.bks.cpg/sg56_6_cif.got.tgz:10698.got - 2010.06.03 13:42:01.
