data_PCOD9429237
_publ_section_title
;
Structure prediction by ZEFSAII (Michael W. Deem and Ramdas Pophale) SiO2 
 PCOD9429237
Probable space group: P B A M
;
_chemical_formula_sum "Si O2"
_cell_formula_units_Z 48
_cell_length_a 7.113728
_cell_length_b 14.499408
_cell_length_c 20.448542
_cell_angle_alpha 90.000000
_cell_angle_beta 90.000000
_cell_angle_gamma 90.000000
_cell_volume 2109.161688
_symmetry_space_group_name_H-M "P B A M"
_symmetry_group_IT_number 55
_symmetry_cell_setting 'orthorhombic'
loop_
_space_group_symop_operation_xyz
x,y,z
-x,-y,z
1/2+x,1/2-y,-z
1/2-x,1/2+y,-z
-x,-y,-z
x,y,-z
1/2-x,1/2+y,z
1/2+x,1/2-y,z
loop_
_atom_site_type_symbol
_atom_site_label
_atom_site_fract_x
_atom_site_fract_y
_atom_site_fract_z
Si Si1 0.142870 0.669867 0.641947
Si Si2 0.138794 0.669476 0.500000
Si Si3 0.793573 0.116975 0.357578
Si Si4 0.223577 0.527018 0.254172
Si Si5 0.776888 0.472118 0.894972
Si Si6 0.703616 0.615055 0.500000
Si Si7 0.210821 0.883536 0.000000
Si Si8 0.354695 0.170701 0.000000
O O1 0.229219 0.647977 0.570215
O O2 0.129981 0.779576 0.649702
O O3 0.240195 0.618709 0.701836
O O4 0.931812 0.631641 0.639518
O O5 0.123205 0.780494 0.500000
O O6 0.931065 0.626178 0.500000
O O7 0.824121 0.053153 0.295391
O O8 0.845031 0.076068 0.428795
O O9 0.285383 0.537303 0.179603
O O10 0.000000 0.500000 0.251757
O O11 0.000000 0.500000 0.893505
O O12 0.677520 0.553612 0.936164
O O13 0.761747 0.377664 0.936661
O O14 0.433715 0.865707 0.000000
O O15 0.131875 0.780648 0.000000
#
# Coordination Sequence:
#
# PCOD9429237 Si02
#       8
#     8   4   8   8   8   4   4   4
#     4   9  17  29  45  64  87 116 149 185 223 262
#     4   8  14  25  41  61  84 110 144 185 223 257
#     4   9  17  29  45  64  87 116 149 185 223 262
#     4   9  17  29  46  67  90 118 150 181 216 262
#     4   8  16  31  47  66  94 122 146 174 215 268
#     4   8  14  25  41  61  84 110 144 185 223 257
#     4   9  17  31  52  72  90 117 149 179 214 258
#     4   9  17  31  52  72  90 117 149 179 214 258
#
# _framework density 22.757857999999999
#
# number of rings (size 3 to 8) (size 9 to 14) (size 15 to 20)
#    0.000    3.333    0.000    1.000    0.000    2.000 
#    0.000    5.833    0.000    2.000    0.000   11.667 
#    0.000    0.000    0.000    0.000    0.000    0.000 
#
# Total GULP energy -267984.700270 kJ/mol
# GULP energy per Si atom -5583.014589 kJ/mol
# Density = 2.270606 g / cm^3
# Si number density = 22.757858 Si / 1000 Ang^3
#
#
#
# Elastic Constant Matrix: (Units=GPa)
#
#
# Indices 1 2 3 4 5 6 
#
# 1 68.5693 18.8429 20.5521 0.0000 0.0000 0.0000
# 2 18.8429 136.6628 107.7749 0.0000 0.0000 0.0000
# 3 20.5521 107.7749 274.7348 0.0000 0.0000 0.0000
# 4 0.0000 0.0000 0.0000 18.9212 0.0000 0.0000
# 5 0.0000 0.0000 0.0000 0.0000 3.7579 0.0000
# 6 0.0000 0.0000 0.0000 0.0000 0.0000 32.9241
#
#
#
# Elastic Compliance Matrix: (Units=1/GPa)
#
#
# Indices 1 2 3 4 5 6 
#
# 1 0.015197 -0.001736 -0.000456 0.000000 0.000000 0.000000
# 2 -0.001736 0.010793 -0.004104 0.000000 0.000000 0.000000
# 3 -0.000456 -0.004104 0.005284 0.000000 0.000000 0.000000
# 4 0.000000 0.000000 0.000000 0.052851 0.000000 0.000000
# 5 0.000000 0.000000 0.000000 0.000000 0.266109 0.000000
# 6 0.000000 0.000000 0.000000 0.000000 0.000000 0.030373
#
#
# Mechanical properties :
#
#
# Convention : Reuss Voigt Hill
#
# Bulk Modulus (GPa) = 53.52527 86.03408 69.77968
# Shear Modulus (GPa) = 12.51792 33.30710 22.91251
#
# Velocity S-wave (km/s) = 2.34786 3.82978 3.17645
# Velocity P-wave (km/s) = 5.56061 7.57908 6.64691
#
# Compressibility (1/GPa) = 0.01868276
#
# Stress axis : x y z
#
# Youngs Moduli (GPa) = 65.80053 92.65028 189.25027
#
# Poissons Ratio (x) = 0.16083 0.08628
# Poissons Ratio (y) = 0.11422 0.77672
# Poissons Ratio (z) = 0.03000 0.38026
#
# Static dielectric constant tensor:
#      x y z
#    x 1.929820 0.000000 0.000000 
#    y 0.000000 1.833750 0.000000 
#    z 0.000000 0.000000 1.821840 
# 
# From -- ./inp_files/22819.got.cif
#   From: 2010.05.17/outbox.cif.g08.bks.cpg/sg55_12_cif.got.tgz:22819.got - 2010.06.03 13:27:54.
