data_PCOD9429706
_publ_section_title
;
Structure prediction by ZEFSAII (Michael W. Deem and Ramdas Pophale) SiO2 
 PCOD9429706
Probable space group: P C C N
;
_chemical_formula_sum "Si O2"
_cell_formula_units_Z 48
_cell_length_a 14.466561
_cell_length_b 8.383827
_cell_length_c 13.757945
_cell_angle_alpha 90.000000
_cell_angle_beta 90.000000
_cell_angle_gamma 90.000000
_cell_volume 1668.634350
_symmetry_space_group_name_H-M "P C C N"
_symmetry_group_IT_number 56
_symmetry_cell_setting 'orthorhombic'
loop_
_space_group_symop_operation_xyz
x,y,z
1/2-x,1/2-y,z
1/2+x,-y,1/2-z
-x,1/2+y,1/2-z
-x,-y,-z
1/2+x,1/2+y,-z
1/2-x,y,1/2+z
x,1/2-y,1/2+z
loop_
_atom_site_type_symbol
_atom_site_label
_atom_site_fract_x
_atom_site_fract_y
_atom_site_fract_z
Si Si1 0.683436 0.608286 0.508133
Si Si2 0.026391 0.128603 0.734572
Si Si3 0.691530 0.094969 0.763016
Si Si4 0.977263 0.790453 0.034510
Si Si5 0.344058 0.591564 0.968210
Si Si6 0.639296 0.584091 0.732095
O O1 0.750000 0.750000 0.473439
O O2 0.576651 0.640822 0.486675
O O3 0.742178 0.448012 0.491496
O O4 0.672825 0.636620 0.625477
O O5 0.019311 0.170008 0.850283
O O6 0.076724 0.293476 0.706942
O O7 0.093345 0.980193 0.706852
O O8 0.923481 0.072153 0.711515
O O9 0.750000 0.250000 0.794415
O O10 0.674649 0.108257 0.646510
O O11 0.734322 0.543282 0.783329
O O12 0.909672 0.938816 0.006083
O O13 0.083124 0.777685 0.001825
#
# Coordination Sequence:
#
# PCOD9429706 Si02
#       6
#     8   8   8   8   8   8
#     4   8  14  26  47  71  96 133 174 216 264 314
#     4  10  19  31  52  78 105 139 176 219 266 315
#     4  10  19  32  52  77 101 134 176 217 261 315
#     4   8  14  26  46  71  98 129 170 217 266 310
#     4   8  14  26  47  71  95 127 171 214 257 317
#     4  10  18  31  50  76 106 135 175 216 260 315
#
# _framework density 28.766038999999999
#
# number of rings (size 3 to 8) (size 9 to 14) (size 15 to 20)
#    0.000    3.000    0.000    4.500    0.000    0.000 
#    0.000    0.000    0.000   37.000    0.000   14.000 
#    0.000    0.000    0.000    0.000    0.000    0.667 
#
# Total GULP energy -267865.204500 kJ/mol
# GULP energy per Si atom -5580.525094 kJ/mol
# Density = 2.870057 g / cm^3
# Si number density = 28.766039 Si / 1000 Ang^3
#
#
#
# Elastic Constant Matrix: (Units=GPa)
#
#
# Indices 1 2 3 4 5 6 
#
# 1 232.0550 83.7252 7.0459 0.0000 0.0000 0.0000
# 2 83.7252 85.0162 40.6450 0.0000 0.0000 0.0000
# 3 7.0459 40.6450 108.2858 0.0000 0.0000 0.0000
# 4 0.0000 0.0000 0.0000 23.7135 0.0000 0.0000
# 5 0.0000 0.0000 0.0000 0.0000 6.4722 0.0000
# 6 0.0000 0.0000 0.0000 0.0000 0.0000 88.9017
#
#
#
# Elastic Compliance Matrix: (Units=1/GPa)
#
#
# Indices 1 2 3 4 5 6 
#
# 1 0.007280 -0.008462 0.002702 0.000000 0.000000 0.000000
# 2 -0.008462 0.024170 -0.008521 0.000000 0.000000 0.000000
# 3 0.002702 -0.008521 0.012258 0.000000 0.000000 0.000000
# 4 0.000000 0.000000 0.000000 0.042170 0.000000 0.000000
# 5 0.000000 0.000000 0.000000 0.000000 0.154508 0.000000
# 6 0.000000 0.000000 0.000000 0.000000 0.000000 0.011248
#
#
# Mechanical properties :
#
#
# Convention : Reuss Voigt Hill
#
# Bulk Modulus (GPa) = 66.02465 76.46548 71.24506
# Shear Modulus (GPa) = 17.52886 43.41351 30.47118
#
# Velocity S-wave (km/s) = 2.47120 3.88905 3.25818
# Velocity P-wave (km/s) = 5.58073 6.84148 6.24301
#
# Compressibility (1/GPa) = 0.01514586
#
# Stress axis : x y z
#
# Youngs Moduli (GPa) = 137.35845 41.37426 81.58262
#
# Poissons Ratio (x) = 0.35009 -0.22047
# Poissons Ratio (y) = 1.16228 0.69520
# Poissons Ratio (z) = -0.37119 0.35257
#
# Static dielectric constant tensor:
#      x y z
#    x 2.190120 0.000000 0.000000 
#    y 0.000000 2.425370 0.000000 
#    z 0.000000 0.000000 2.305190 
# 
# From -- ./inp_files/18977.got.cif
#   From: 2010.05.17/outbox.cif.g08.bks.cpg/sg56_10_cif.got.tgz:18977.got - 2010.06.03 13:42:01.
