data_PCOD9429149
_publ_section_title
;
Structure prediction by ZEFSAII (Michael W. Deem and Ramdas Pophale) SiO2 
 PCOD9429149
Probable space group: P B A M
;
_chemical_formula_sum "Si O2"
_cell_formula_units_Z 64
_cell_length_a 9.035536
_cell_length_b 22.838775
_cell_length_c 14.541635
_cell_angle_alpha 90.000000
_cell_angle_beta 90.000000
_cell_angle_gamma 90.000000
_cell_volume 3000.820141
_symmetry_space_group_name_H-M "P B A M"
_symmetry_group_IT_number 55
_symmetry_cell_setting 'orthorhombic'
loop_
_space_group_symop_operation_xyz
x,y,z
-x,-y,z
1/2+x,1/2-y,-z
1/2-x,1/2+y,-z
-x,-y,-z
x,y,-z
1/2-x,1/2+y,z
1/2+x,1/2-y,z
loop_
_atom_site_type_symbol
_atom_site_label
_atom_site_fract_x
_atom_site_fract_y
_atom_site_fract_z
Si Si1 0.795158 0.371046 0.395288
Si Si2 0.388043 0.549368 0.253299
Si Si3 0.634107 0.033744 0.246860
Si Si4 0.849351 0.624549 0.606745
Si Si5 0.543603 0.251480 0.192338
Si Si6 0.210023 0.755257 0.322334
Si Si7 0.449585 0.369369 0.895780
Si Si8 0.591956 0.128549 0.106220
O O1 0.767532 0.389306 0.500000
O O2 0.694086 0.408949 0.326897
O O3 0.764719 0.302049 0.382453
O O4 0.972576 0.374934 0.378260
O O5 0.500000 0.500000 0.292113
O O6 0.255722 0.510796 0.209603
O O7 0.474858 0.588418 0.178881
O O8 0.707669 0.076694 0.321310
O O9 0.558600 0.072398 0.167858
O O10 0.500000 0.000000 0.295504
O O11 0.821279 0.611424 0.500000
O O12 0.775324 0.686335 0.633052
O O13 0.713098 0.254902 0.223482
O O14 0.458740 0.260741 0.289409
O O15 0.503620 0.303585 0.124674
O O16 0.523578 0.187049 0.150449
O O17 0.271449 0.368287 0.887475
O O18 0.486771 0.386975 0.000000
O O19 0.549970 0.123373 0.000000
#
# Coordination Sequence:
#
# PCOD9429149 Si02
#       8
#     8   8   8   8   8   8   8   8
#     4  11  24  43  68 102 139 176 224 284 344 410
#     4  12  26  44  69  98 134 180 235 287 340 403
#     4  12  24  44  69  98 134 180 229 281 341 407
#     4  11  24  44  71 102 135 180 227 277 343 414
#     4  12  22  41  71  99 134 174 218 275 345 403
#     4  12  22  41  71 100 135 174 217 275 345 404
#     4  11  24  43  68 100 136 179 227 281 343 407
#     4  11  24  44  69 100 136 178 228 284 340 404
#
# _framework density 21.327501999999999
#
# number of rings (size 3 to 8) (size 9 to 14) (size 15 to 20)
#    0.000    0.500    7.500    0.750    0.000    2.000 
#    0.000    2.500    0.000    0.000    0.000    0.000 
#    0.000    0.000    0.000    0.000    0.000    0.000 
#
# Total GULP energy -357661.170571 kJ/mol
# GULP energy per Si atom -5588.455790 kJ/mol
# Density = 2.127896 g / cm^3
# Si number density = 21.327502 Si / 1000 Ang^3
#
#
#
# Elastic Constant Matrix: (Units=GPa)
#
#
# Indices 1 2 3 4 5 6 
#
# 1 54.5324 34.9883 26.1896 0.0000 0.0000 0.0000
# 2 34.9883 120.3573 42.8178 0.0000 0.0000 0.0000
# 3 26.1896 42.8178 116.2561 0.0000 0.0000 0.0000
# 4 0.0000 0.0000 0.0000 2.0244 0.0000 0.0000
# 5 0.0000 0.0000 0.0000 0.0000 30.7875 0.0000
# 6 0.0000 0.0000 0.0000 0.0000 0.0000 38.7959
#
#
#
# Elastic Compliance Matrix: (Units=1/GPa)
#
#
# Indices 1 2 3 4 5 6 
#
# 1 0.023534 -0.005702 -0.003201 0.000000 0.000000 0.000000
# 2 -0.005702 0.010943 -0.002746 0.000000 0.000000 0.000000
# 3 -0.003201 -0.002746 0.010334 0.000000 0.000000 0.000000
# 4 0.000000 0.000000 0.000000 0.493962 0.000000 0.000000
# 5 0.000000 0.000000 0.000000 0.000000 0.032481 0.000000
# 6 0.000000 0.000000 0.000000 0.000000 0.000000 0.025776
#
#
# Mechanical properties :
#
#
# Convention : Reuss Voigt Hill
#
# Bulk Modulus (GPa) = 46.48570 55.45968 50.97269
# Shear Modulus (GPa) = 7.96813 26.79826 17.38320
#
# Velocity S-wave (km/s) = 1.93499 3.54858 2.85802
# Velocity P-wave (km/s) = 5.18032 6.54600 5.90279
#
# Compressibility (1/GPa) = 0.02151199
#
# Stress axis : x y z
#
# Youngs Moduli (GPa) = 42.49184 91.38131 96.76632
#
# Poissons Ratio (x) = 0.52110 0.30978
# Poissons Ratio (y) = 0.24231 0.26570
# Poissons Ratio (z) = 0.13603 0.25091
#
# Static dielectric constant tensor:
#      x y z
#    x 1.771940 0.000000 0.000000 
#    y 0.000000 1.771700 0.000000 
#    z 0.000000 0.000000 1.742880 
# 
# From -- ./inp_files/17833.got.cif
#   From: 2010.05.17/outbox.cif.g08.bks.cpg/sg55_9_cif.got.tgz:17833.got - 2010.06.03 13:27:54.
