data_PCOD9429686
_publ_section_title
;
Structure prediction by ZEFSAII (Michael W. Deem and Ramdas Pophale) SiO2 
 PCOD9429686
Probable space group: P C C N
;
_chemical_formula_sum "Si O2"
_cell_formula_units_Z 56
_cell_length_a 27.930492
_cell_length_b 16.797222
_cell_length_c 5.324945
_cell_angle_alpha 90.000000
_cell_angle_beta 90.000000
_cell_angle_gamma 90.000000
_cell_volume 2498.222839
_symmetry_space_group_name_H-M "P C C N"
_symmetry_group_IT_number 56
_symmetry_cell_setting 'orthorhombic'
loop_
_space_group_symop_operation_xyz
x,y,z
1/2-x,1/2-y,z
1/2+x,-y,1/2-z
-x,1/2+y,1/2-z
-x,-y,-z
1/2+x,1/2+y,-z
1/2-x,y,1/2+z
x,1/2-y,1/2+z
loop_
_atom_site_type_symbol
_atom_site_label
_atom_site_fract_x
_atom_site_fract_y
_atom_site_fract_z
Si Si1 0.696193 0.968851 0.396071
Si Si2 0.959601 0.428118 0.805539
Si Si3 0.495296 0.904992 0.694182
Si Si4 0.233656 0.877672 0.600643
Si Si5 0.308146 0.200208 0.475108
Si Si6 0.146929 0.521904 0.092359
Si Si7 0.920940 0.701858 0.506976
O O1 0.717273 0.882705 0.460603
O O2 0.664792 0.967863 0.140594
O O3 0.736483 0.037575 0.370102
O O4 0.663855 0.991119 0.636283
O O5 0.957130 0.390453 0.527799
O O6 0.995702 0.501668 0.750830
O O7 0.979770 0.374257 0.031465
O O8 0.909110 0.462231 0.899211
O O9 0.544308 0.868661 0.589311
O O10 0.241974 0.837638 0.865156
O O11 0.178495 0.898149 0.555510
O O12 0.299715 0.261582 0.703195
O O13 0.365009 0.180827 0.478760
O O14 0.929496 0.731810 0.223791
#
# Coordination Sequence:
#
# PCOD9429686 Si02
#       7
#     8   8   8   8   8   8   8
#     4  10  18  30  48  65  88 116 152 194 232 277
#     4  10  20  31  48  70  95 123 148 196 248 285
#     4  10  20  33  46  69  97 119 156 197 241 289
#     4   8  16  28  44  63  83 110 148 182 215 273
#     4  10  20  31  45  65  85 113 157 204 242 272
#     4  10  18  30  48  66  85 116 153 180 227 289
#     4  10  20  33  49  67  91 127 166 202 237 278
#
# _framework density 22.415935999999999
#
# number of rings (size 3 to 8) (size 9 to 14) (size 15 to 20)
#    0.000    2.286    0.000    3.429    0.000    4.571 
#    0.000    0.000    0.000   23.143    0.000    0.000 
#    0.000    0.000    0.000    0.000    0.000  450.000 
#
# Total GULP energy -312540.433763 kJ/mol
# GULP energy per Si atom -5581.079174 kJ/mol
# Density = 2.236492 g / cm^3
# Si number density = 22.415936 Si / 1000 Ang^3
#
#
#
# Elastic Constant Matrix: (Units=GPa)
#
#
# Indices 1 2 3 4 5 6 
#
# 1 87.4418 13.0445 35.9575 0.0000 0.0000 0.0000
# 2 13.0445 45.2718 -5.4913 0.0000 0.0000 0.0000
# 3 35.9575 -5.4913 156.4124 0.0000 0.0000 0.0000
# 4 0.0000 0.0000 0.0000 0.8692 0.0000 0.0000
# 5 0.0000 0.0000 0.0000 0.0000 56.8735 0.0000
# 6 0.0000 0.0000 0.0000 0.0000 0.0000 11.7554
#
#
#
# Elastic Compliance Matrix: (Units=1/GPa)
#
#
# Indices 1 2 3 4 5 6 
#
# 1 0.013399 -0.004252 -0.003229 0.000000 0.000000 0.000000
# 2 -0.004252 0.023533 0.001804 0.000000 0.000000 0.000000
# 3 -0.003229 0.001804 0.007199 0.000000 0.000000 0.000000
# 4 0.000000 0.000000 0.000000 1.150535 0.000000 0.000000
# 5 0.000000 0.000000 0.000000 0.000000 0.017583 0.000000
# 6 0.000000 0.000000 0.000000 0.000000 0.000000 0.085067
#
#
# Mechanical properties :
#
#
# Convention : Reuss Voigt Hill
#
# Bulk Modulus (GPa) = 30.51162 41.79415 36.15288
# Shear Modulus (GPa) = 3.78904 30.27396 17.03150
#
# Velocity S-wave (km/s) = 1.30154 3.67898 2.75943
# Velocity P-wave (km/s) = 3.98745 6.06068 5.12989
#
# Compressibility (1/GPa) = 0.03277440
#
# Stress axis : x y z
#
# Youngs Moduli (GPa) = 74.63489 42.49372 138.90620
#
# Poissons Ratio (x) = 0.18070 0.44859
# Poissons Ratio (y) = 0.31737 -0.25055
# Poissons Ratio (z) = 0.24103 -0.07665
#
# Static dielectric constant tensor:
#      x y z
#    x 1.811290 0.000000 0.000000 
#    y 0.000000 1.851730 0.000000 
#    z 0.000000 0.000000 1.930210 
# 
# From -- ./inp_files/1246.got.cif
#   From: 2010.05.17/outbox.cif.g08.bks.cpg/sg56_1_cif.got.tgz:1246.got - 2010.06.03 13:42:01.
