data_PCOD9429365
_publ_section_title
;
Structure prediction by ZEFSAII (Michael W. Deem and Ramdas Pophale) SiO2 
 PCOD9429365
Probable space group: P B A M
;
_chemical_formula_sum "Si O2"
_cell_formula_units_Z 64
_cell_length_a 24.000000
_cell_length_b 15.000000
_cell_length_c 9.000000
_cell_angle_alpha 90.000000
_cell_angle_beta 90.000000
_cell_angle_gamma 90.000000
_cell_volume 3240.000000
_symmetry_space_group_name_H-M "P B A M"
_symmetry_group_IT_number 55
_symmetry_cell_setting 'orthorhombic'
loop_
_space_group_symop_operation_xyz
x,y,z
-x,-y,z
1/2+x,1/2-y,-z
1/2-x,1/2+y,-z
-x,-y,-z
x,y,-z
1/2-x,1/2+y,z
1/2+x,1/2-y,z
loop_
_atom_site_type_symbol
_atom_site_label
_atom_site_fract_x
_atom_site_fract_y
_atom_site_fract_z
Si Si1 0.156882 0.050465 0.176971
Si Si2 0.344464 0.744742 0.175982
Si Si3 0.727869 0.989961 0.670242
Si Si4 0.931919 0.627372 0.324331
Si Si5 0.463108 0.213699 0.827086
Si Si6 0.377082 0.355869 0.179033
Si Si7 0.262538 0.303338 0.671367
Si Si8 0.111706 0.541382 0.172039
O O1 0.216048 0.046395 0.257468
O O2 0.123825 0.960796 0.217104
O O3 0.130823 0.146635 0.208099
O O4 0.166768 0.046877 0.000000
O O5 0.379209 0.818294 0.262528
O O6 0.280736 0.747389 0.231364
O O7 0.346609 0.761627 0.000000
O O8 0.722623 0.961596 0.500000
O O9 0.737116 0.096599 0.673349
O O10 0.672619 0.963169 0.757019
O O11 0.929463 0.620790 0.500000
O O12 0.927710 0.529333 0.254392
O O13 0.986074 0.679895 0.270111
O O14 0.433674 0.305309 0.780983
O O15 0.415209 0.138549 0.819022
O O16 0.481295 0.219865 0.000000
O O17 0.323704 0.311441 0.257921
O O18 0.370268 0.346895 0.000000
O O19 0.264955 0.273510 0.500000
O O20 0.115283 0.515122 0.000000
#
# Coordination Sequence:
#
# PCOD9429365 Si02
#       8
#     8   8   8   8   8   8   8   8
#     4   9  20  37  59  86 117 154 197 241 290 345
#     4  11  22  37  60  86 115 155 199 243 291 345
#     4  10  20  34  54  84 122 158 190 232 287 346
#     4  12  25  41  60  85 117 153 196 246 300 354
#     4  10  23  41  62  86 113 153 200 243 293 350
#     4   9  19  39  62  85 116 152 194 243 289 346
#     4  10  20  34  54  84 119 153 190 235 290 348
#     4  11  22  37  59  86 118 156 196 240 286 349
#
# _framework density 19.753086
#
# number of rings (size 3 to 8) (size 9 to 14) (size 15 to 20)
#    0.000    1.750    1.250    3.000    1.750    5.000 
#    0.000    0.625    0.000    3.750    0.000    0.000 
#    0.000    0.000    0.000    0.000    0.000    0.000 
#
# Total GULP energy -357513.507488 kJ/mol
# GULP energy per Si atom -5586.148555 kJ/mol
# Density = 1.970813 g / cm^3
# Si number density = 19.753086 Si / 1000 Ang^3
#
#
#
# Elastic Constant Matrix: (Units=GPa)
#
#
# Indices 1 2 3 4 5 6 
#
# 1 -3.5359 -12.5568 -14.6722 0.0000 0.0000 0.0000
# 2 -12.5568 52.2354 21.5435 0.0000 0.0000 0.0000
# 3 -14.6722 21.5435 15.0759 0.0000 0.0000 0.0000
# 4 0.0000 0.0000 0.0000 -1.7229 0.0000 0.0000
# 5 0.0000 0.0000 0.0000 0.0000 45.6309 0.0000
# 6 0.0000 0.0000 0.0000 0.0000 0.0000 10.3567
#
#
#
# Elastic Compliance Matrix: (Units=1/GPa)
#
#
# Indices 1 2 3 4 5 6 
#
# 1 -0.047366 0.018571 -0.072635 0.000000 0.000000 0.000000
# 2 0.018571 0.039340 -0.038143 0.000000 0.000000 0.000000
# 3 -0.072635 -0.038143 0.050148 0.000000 0.000000 0.000000
# 4 0.000000 0.000000 0.000000 -0.580426 0.000000 0.000000
# 5 0.000000 0.000000 0.000000 0.000000 0.021915 0.000000
# 6 0.000000 0.000000 0.000000 0.000000 0.000000 0.096556
#
#
# Mechanical properties :
#
#
# Convention : Reuss Voigt Hill
#
# Bulk Modulus (GPa) = -7.02780 5.82272 -0.60254
# Shear Modulus (GPa) = -17.67727 15.48368 -1.09680
#
# Velocity S-wave (km/s) = -2.99475 2.80279 -0.74596
# Velocity P-wave (km/s) = 3.94000 3.66447 1.02354
#
# Compressibility (1/GPa) = -0.14229211
#
# Stress axis : x y z
#
# Youngs Moduli (GPa) = -21.11237 25.41953 19.94086
#
# Poissons Ratio (x) = -0.47206 1.44840
# Poissons Ratio (y) = 0.39207 0.76061
# Poissons Ratio (z) = -1.53349 0.96959
#
# Static dielectric constant tensor:
#      x y z
#    x 1.660480 0.000000 0.000000 
#    y 0.000000 1.737880 0.000000 
#    z 0.000000 0.000000 1.663980 
# 
# From -- ./inp_files/9664.got.cif
#   From: 2010.05.17/outbox.ucp.g08.bks.cvg/sg55_5_cif.got.tgz:9664.got - 2010.06.11 16:36:00.
