data_PCOD9429448
_publ_section_title
;
Structure prediction by ZEFSAII (Michael W. Deem and Ramdas Pophale) SiO2 
 PCOD9429448
Probable space group: P B A M
;
_chemical_formula_sum "Si O2"
_cell_formula_units_Z 64
_cell_length_a 15.000000
_cell_length_b 24.000000
_cell_length_c 9.000000
_cell_angle_alpha 90.000000
_cell_angle_beta 90.000000
_cell_angle_gamma 90.000000
_cell_volume 3240.000000
_symmetry_space_group_name_H-M "P B A M"
_symmetry_group_IT_number 55
_symmetry_cell_setting 'orthorhombic'
loop_
_space_group_symop_operation_xyz
x,y,z
-x,-y,z
1/2+x,1/2-y,-z
1/2-x,1/2+y,-z
-x,-y,-z
x,y,-z
1/2-x,1/2+y,z
1/2+x,1/2-y,z
loop_
_atom_site_type_symbol
_atom_site_label
_atom_site_fract_x
_atom_site_fract_y
_atom_site_fract_z
Si Si1 0.035908 0.852773 0.821642
Si Si2 0.480272 0.236047 0.675382
Si Si3 0.928043 0.951731 0.322222
Si Si4 0.255453 0.078222 0.821322
Si Si5 0.702952 0.795031 0.178657
Si Si6 0.420993 0.858285 0.822950
Si Si7 0.233555 0.831452 0.178170
Si Si8 0.445495 0.057659 0.672398
O O1 0.008865 0.791109 0.773104
O O2 0.975159 0.896215 0.737319
O O3 0.139265 0.855246 0.769428
O O4 0.029619 0.859937 0.000000
O O5 0.477358 0.247202 0.500000
O O6 0.389260 0.206512 0.730865
O O7 0.557551 0.195106 0.724060
O O8 0.915816 0.951094 0.500000
O O9 0.831402 0.952782 0.243544
O O10 0.000000 0.000000 0.285346
O O11 0.249347 0.145752 0.791979
O O12 0.346855 0.057195 0.744073
O O13 0.260506 0.071167 0.000000
O O14 0.745056 0.734397 0.218253
O O15 0.685224 0.794028 0.000000
O O16 0.317765 0.869851 0.787212
O O17 0.492291 0.903163 0.772469
O O18 0.429202 0.847422 0.000000
O O19 0.226357 0.830410 0.000000
O O20 0.439164 0.077203 0.500000
O O21 0.500000 0.000000 0.670747
#
# Coordination Sequence:
#
# PCOD9429448 Si02
#       8
#     8   8   8   8   8   8   8   8
#     4  10  21  41  65  90 122 164 216 270 316 374
#     4  11  21  34  56  89 128 167 204 254 321 383
#     4  11  26  46  66  92 129 169 211 265 325 384
#     4  11  23  40  68  97 122 162 214 267 313 371
#     4   9  18  36  59  88 122 162 208 256 311 372
#     4  11  21  36  60  91 126 166 210 261 314 375
#     4   8  18  35  58  89 126 163 204 256 314 369
#     4  11  25  44  64  90 128 171 211 260 322 382
#
# _framework density 19.753086
#
# number of rings (size 3 to 8) (size 9 to 14) (size 15 to 20)
#    0.000    1.750    1.250    3.750    1.750    3.500 
#    0.000    8.750    0.000    0.000    0.000    0.000 
#    0.000    0.000    0.000    0.000    0.000    0.000 
#
# Total GULP energy -357012.359739 kJ/mol
# GULP energy per Si atom -5578.318121 kJ/mol
# Density = 1.970813 g / cm^3
# Si number density = 19.753086 Si / 1000 Ang^3
#
#
#
# Elastic Constant Matrix: (Units=GPa)
#
#
# Indices 1 2 3 4 5 6 
#
# 1 113.8317 31.8445 20.2291 0.0000 0.0000 0.0000
# 2 31.8445 21.5144 0.7325 0.0000 0.0000 0.0000
# 3 20.2291 0.7325 52.5636 0.0000 0.0000 0.0000
# 4 0.0000 0.0000 0.0000 43.6327 0.0000 0.0000
# 5 0.0000 0.0000 0.0000 0.0000 26.0162 0.0000
# 6 0.0000 0.0000 0.0000 0.0000 0.0000 23.3657
#
#
#
# Elastic Compliance Matrix: (Units=1/GPa)
#
#
# Indices 1 2 3 4 5 6 
#
# 1 0.016745 -0.024577 -0.006102 0.000000 0.000000 0.000000
# 2 -0.024577 0.082575 0.008308 0.000000 0.000000 0.000000
# 3 -0.006102 0.008308 0.021257 0.000000 0.000000 0.000000
# 4 0.000000 0.000000 0.000000 0.022919 0.000000 0.000000
# 5 0.000000 0.000000 0.000000 0.000000 0.038438 0.000000
# 6 0.000000 0.000000 0.000000 0.000000 0.000000 0.042798
#
#
# Mechanical properties :
#
#
# Convention : Reuss Voigt Hill
#
# Bulk Modulus (GPa) = 13.18656 32.61355 22.90006
# Shear Modulus (GPa) = 16.96354 27.60983 22.28668
#
# Velocity S-wave (km/s) = 2.93367 3.74270 3.36261
# Velocity P-wave (km/s) = 4.26209 5.93494 5.16667
#
# Compressibility (1/GPa) = 0.07583477
#
# Stress axis : x y z
#
# Youngs Moduli (GPa) = 59.72087 12.11026 47.04328
#
# Poissons Ratio (x) = 0.29763 0.28704
# Poissons Ratio (y) = 1.46774 -0.39082
# Poissons Ratio (z) = 0.36440 -0.10061
#
# Static dielectric constant tensor:
#      x y z
#    x 1.715090 0.000000 0.000000 
#    y 0.000000 1.789290 0.000000 
#    z 0.000000 0.000000 1.654460 
# 
# From -- ./inp_files/6521.got.cif
#   From: 2010.05.17/outbox.ucp.g08.bks.cvg/sg55_4_cif.got.tgz:6521.got - 2010.06.11 16:36:00.
