data_PCOD9429333
_publ_section_title
;
Structure prediction by ZEFSAII (Michael W. Deem and Ramdas Pophale) SiO2 
 PCOD9429333
Probable space group: P B A M
;
_chemical_formula_sum "Si O2"
_cell_formula_units_Z 56
_cell_length_a 21.000000
_cell_length_b 15.000000
_cell_length_c 9.000000
_cell_angle_alpha 90.000000
_cell_angle_beta 90.000000
_cell_angle_gamma 90.000000
_cell_volume 2835.000000
_symmetry_space_group_name_H-M "P B A M"
_symmetry_group_IT_number 55
_symmetry_cell_setting 'orthorhombic'
loop_
_space_group_symop_operation_xyz
x,y,z
-x,-y,z
1/2+x,1/2-y,-z
1/2-x,1/2+y,-z
-x,-y,-z
x,y,-z
1/2-x,1/2+y,z
1/2+x,1/2-y,z
loop_
_atom_site_type_symbol
_atom_site_label
_atom_site_fract_x
_atom_site_fract_y
_atom_site_fract_z
Si Si1 0.093695 0.519474 0.179823
Si Si2 0.074665 0.011942 0.822560
Si Si3 0.592319 0.297345 0.322033
Si Si4 0.268792 0.743740 0.676422
Si Si5 0.821060 0.113066 0.828691
Si Si6 0.488631 0.848191 0.820650
Si Si7 0.266668 0.060825 0.827001
O O1 0.058199 0.429469 0.226172
O O2 0.165854 0.523931 0.226937
O O3 0.056746 0.609970 0.221613
O O4 0.091180 0.516625 0.000000
O O5 0.095290 0.102811 0.742423
O O6 0.111029 0.922251 0.771405
O O7 0.087596 0.021466 0.000000
O O8 0.000000 0.000000 0.801542
O O9 0.589014 0.300901 0.500000
O O10 0.657210 0.244966 0.277324
O O11 0.533702 0.242152 0.254862
O O12 0.265958 0.749900 0.500000
O O13 0.219007 0.812802 0.744720
O O14 0.252383 0.644739 0.730492
O O15 0.781521 0.020995 0.823549
O O16 0.827697 0.142439 0.000000
O O17 0.485991 0.837719 0.000000
O O18 0.272426 0.089546 0.000000
#
# Coordination Sequence:
#
# PCOD9429333 Si02
#       7
#     8   8   8   8   8   8   8
#     4   8  16  31  54  85 112 141 183 237 290 333
#     4  10  22  41  64  88 114 148 195 248 298 346
#     4  11  23  38  56  82 116 155 197 234 284 353
#     4  11  24  38  56  83 116 154 191 235 292 349
#     4  10  21  38  62  89 114 148 195 246 294 344
#     4   9  17  33  57  81 111 147 186 232 285 339
#     4  10  19  35  59  84 111 143 188 239 284 337
#
# _framework density 19.753086
#
# number of rings (size 3 to 8) (size 9 to 14) (size 15 to 20)
#    0.000    2.143    1.429    2.571    0.000    5.429 
#    0.000    8.571    0.000    0.000    0.000    0.000 
#    0.000    0.000    0.000    0.000    0.000    0.000 
#
# Total GULP energy -312383.186801 kJ/mol
# GULP energy per Si atom -5578.271193 kJ/mol
# Density = 1.970813 g / cm^3
# Si number density = 19.753086 Si / 1000 Ang^3
#
#
#
# Elastic Constant Matrix: (Units=GPa)
#
#
# Indices 1 2 3 4 5 6 
#
# 1 73.6590 -12.6815 9.8620 0.0000 0.0000 0.0000
# 2 -12.6815 24.7855 8.6091 0.0000 0.0000 0.0000
# 3 9.8620 8.6091 24.4749 0.0000 0.0000 0.0000
# 4 0.0000 0.0000 0.0000 247.3744 0.0000 0.0000
# 5 0.0000 0.0000 0.0000 0.0000 11.5402 0.0000
# 6 0.0000 0.0000 0.0000 0.0000 0.0000 26.5918
#
#
#
# Elastic Compliance Matrix: (Units=1/GPa)
#
#
# Indices 1 2 3 4 5 6 
#
# 1 0.017332 0.012866 -0.011509 0.000000 0.000000 0.000000
# 2 0.012866 0.055512 -0.024710 0.000000 0.000000 0.000000
# 3 -0.011509 -0.024710 0.054188 0.000000 0.000000 0.000000
# 4 0.000000 0.000000 0.000000 0.004042 0.000000 0.000000
# 5 0.000000 0.000000 0.000000 0.000000 0.086653 0.000000
# 6 0.000000 0.000000 0.000000 0.000000 0.000000 0.037606
#
#
# Mechanical properties :
#
#
# Convention : Reuss Voigt Hill
#
# Bulk Modulus (GPa) = 12.44969 14.94427 13.69698
# Shear Modulus (GPa) = 15.20611 64.90995 40.05803
#
# Velocity S-wave (km/s) = 2.77755 5.73864 4.50815
# Velocity P-wave (km/s) = 4.07465 7.17574 5.83498
#
# Compressibility (1/GPa) = 0.08032331
#
# Stress axis : x y z
#
# Youngs Moduli (GPa) = 57.69665 18.01417 18.45442
#
# Poissons Ratio (x) = -0.23176 0.21240
# Poissons Ratio (y) = -0.74230 0.45602
# Poissons Ratio (z) = 0.66405 0.44514
#
# Static dielectric constant tensor:
#      x y z
#    x 1.760300 0.000000 0.000000 
#    y 0.000000 1.665340 0.000000 
#    z 0.000000 0.000000 1.669880 
# 
# From -- ./inp_files/8671.got.cif
#   From: 2010.05.17/outbox.ucp.g08.bks.cvg/sg55_5_cif.got.tgz:8671.got - 2010.06.11 16:36:00.
