data_PCOD9429415
_publ_section_title
;
Structure prediction by ZEFSAII (Michael W. Deem and Ramdas Pophale) SiO2 
 PCOD9429415
Probable space group: P B A M
;
_chemical_formula_sum "Si O2"
_cell_formula_units_Z 40
_cell_length_a 18.000000
_cell_length_b 12.000000
_cell_length_c 9.000000
_cell_angle_alpha 90.000000
_cell_angle_beta 90.000000
_cell_angle_gamma 90.000000
_cell_volume 1944.000000
_symmetry_space_group_name_H-M "P B A M"
_symmetry_group_IT_number 55
_symmetry_cell_setting 'orthorhombic'
loop_
_space_group_symop_operation_xyz
x,y,z
-x,-y,z
1/2+x,1/2-y,-z
1/2-x,1/2+y,-z
-x,-y,-z
x,y,-z
1/2-x,1/2+y,z
1/2+x,1/2-y,z
loop_
_atom_site_type_symbol
_atom_site_label
_atom_site_fract_x
_atom_site_fract_y
_atom_site_fract_z
Si Si1 0.158138 0.549919 0.334669
Si Si2 0.577343 0.568894 0.825052
Si Si3 0.301156 0.607870 0.176920
Si Si4 0.973325 0.280566 0.333578
Si Si5 0.618377 0.172154 0.174168
O O1 0.189416 0.547156 0.500000
O O2 0.217848 0.603587 0.228246
O O3 0.082164 0.616863 0.336475
O O4 0.141886 0.429818 0.272487
O O5 0.500000 0.500000 0.816488
O O6 0.646708 0.493929 0.776488
O O7 0.570868 0.672143 0.716333
O O8 0.586326 0.600279 0.000000
O O9 0.337318 0.721255 0.228021
O O10 0.305255 0.607528 0.000000
O O11 0.005685 0.267723 0.500000
O O12 0.033453 0.300854 0.207178
O O13 0.631413 0.151400 0.000000
#
# Coordination Sequence:
#
# PCOD9429415 Si02
#       5
#     8   8   8   8   8
#     4  11  26  43  61  91 131 167 204 255 315 375
#     4  10  20  40  65  91 123 160 207 260 308 365
#     4  10  23  42  64  92 123 161 209 259 311 367
#     4  11  24  41  63  94 128 165 208 255 313 376
#     4  11  23  43  68  93 122 163 213 261 309 366
#
# _framework density 20.576132000000001
#
# number of rings (size 3 to 8) (size 9 to 14) (size 15 to 20)
#    0.000    1.400    2.000    2.400    2.800    8.400 
#    0.000    0.000    0.000    0.000    0.000    0.000 
#    0.000    0.000    0.000    0.000    0.000    0.000 
#
# Total GULP energy -223219.089462 kJ/mol
# GULP energy per Si atom -5580.477237 kJ/mol
# Density = 2.052930 g / cm^3
# Si number density = 20.576132 Si / 1000 Ang^3
#
#
#
# Elastic Constant Matrix: (Units=GPa)
#
#
# Indices 1 2 3 4 5 6 
#
# 1 29.5497 -7.5562 -51.8981 0.0000 0.0000 0.0000
# 2 -7.5562 82.7062 5.8487 0.0000 0.0000 0.0000
# 3 -51.8981 5.8487 -104.1281 0.0000 0.0000 0.0000
# 4 0.0000 0.0000 0.0000 57.8010 0.0000 0.0000
# 5 0.0000 0.0000 0.0000 0.0000 55.8793 0.0000
# 6 0.0000 0.0000 0.0000 0.0000 0.0000 15.9766
#
#
#
# Elastic Compliance Matrix: (Units=1/GPa)
#
#
# Indices 1 2 3 4 5 6 
#
# 1 0.018486 0.002331 -0.009083 0.000000 0.000000 0.000000
# 2 0.002331 0.012337 -0.000469 0.000000 0.000000 0.000000
# 3 -0.009083 -0.000469 -0.005103 0.000000 0.000000 0.000000
# 4 0.000000 0.000000 0.000000 0.017301 0.000000 0.000000
# 5 0.000000 0.000000 0.000000 0.000000 0.017896 0.000000
# 6 0.000000 0.000000 0.000000 0.000000 0.000000 0.062592
#
#
# Mechanical properties :
#
#
# Convention : Reuss Voigt Hill
#
# Bulk Modulus (GPa) = 88.65764 -11.00927 38.82419
# Shear Modulus (GPa) = 35.28377 30.04694 32.66536
#
# Velocity S-wave (km/s) = 4.14550 3.82551 3.98871
# Velocity P-wave (km/s) = 8.12986 3.76172 6.33424
#
# Compressibility (1/GPa) = 0.01127934
#
# Stress axis : x y z
#
# Youngs Moduli (GPa) = 54.09550 81.05607 -195.95854
#
# Poissons Ratio (x) = -0.18896 -1.77979
# Poissons Ratio (y) = -0.12611 -0.09189
# Poissons Ratio (z) = 0.49132 0.03801
#
# Static dielectric constant tensor:
#      x y z
#    x 1.565000 0.000000 0.000000 
#    y 0.000000 1.747680 0.000000 
#    z 0.000000 0.000000 1.685860 
# 
# From -- ./inp_files/3594.got.cif
#   From: 2010.05.17/outbox.ucp.g08.bks.cvg/sg55_2_cif.got.tgz:3594.got - 2010.06.11 16:36:00.
