data_PCOD9429979
_publ_section_title
;
Structure prediction by ZEFSAII (Michael W. Deem and Ramdas Pophale) SiO2 
 PCOD9429979
Probable space group: P C C N
;
_chemical_formula_sum "Si O2"
_cell_formula_units_Z 48
_cell_length_a 18.740748
_cell_length_b 7.828620
_cell_length_c 13.926404
_cell_angle_alpha 90.000000
_cell_angle_beta 90.000000
_cell_angle_gamma 90.000000
_cell_volume 2043.201147
_symmetry_space_group_name_H-M "P C C N"
_symmetry_group_IT_number 56
_symmetry_cell_setting 'orthorhombic'
loop_
_space_group_symop_operation_xyz
x,y,z
1/2-x,1/2-y,z
1/2+x,-y,1/2-z
-x,1/2+y,1/2-z
-x,-y,-z
1/2+x,1/2+y,-z
1/2-x,y,1/2+z
x,1/2-y,1/2+z
loop_
_atom_site_type_symbol
_atom_site_label
_atom_site_fract_x
_atom_site_fract_y
_atom_site_fract_z
Si Si1 0.926059 0.996359 0.448680
Si Si2 0.171471 0.311120 0.562549
Si Si3 0.832371 0.708779 0.204315
Si Si4 0.445224 0.499699 0.782418
Si Si5 0.097415 0.869233 0.262445
Si Si6 0.169778 0.806396 0.067213
O O1 0.937356 0.999901 0.333640
O O2 0.881357 0.163426 0.473323
O O3 0.884371 0.825061 0.473695
O O4 0.000000 0.000000 0.500000
O O5 0.250000 0.250000 0.535521
O O6 0.168924 0.303336 0.678835
O O7 0.157719 0.503107 0.530881
O O8 0.750000 0.750000 0.176498
O O9 0.866735 0.524116 0.178384
O O10 0.887786 0.861335 0.180830
O O11 0.527615 0.442941 0.794711
O O12 0.428834 0.694662 0.813156
O O13 0.154790 0.813438 0.182004
O O14 0.250000 0.750000 0.049869
#
# Coordination Sequence:
#
# PCOD9429979 Si02
#       6
#     8   8   8   8   8   8
#     4  10  21  34  52  78 107 140 180 217 261 314
#     4   9  16  30  52  76 102 129 168 219 264 298
#     4   9  18  29  47  76 104 127 167 215 261 304
#     4  10  19  33  50  76 108 137 168 211 265 317
#     4  10  19  29  50  77 106 133 162 212 269 313
#     4  10  19  32  55  84 103 128 177 226 267 308
#
# _framework density 23.492546999999998
#
# number of rings (size 3 to 8) (size 9 to 14) (size 15 to 20)
#    0.000    2.333    3.333    0.000    7.000    0.667 
#    0.000    0.000    0.000    2.000    0.000    0.000 
#    0.000    0.000    0.000    0.000    0.000    0.000 
#
# Total GULP energy -268522.152380 kJ/mol
# GULP energy per Si atom -5594.211508 kJ/mol
# Density = 2.343908 g / cm^3
# Si number density = 23.492547 Si / 1000 Ang^3
#
#
#
# Elastic Constant Matrix: (Units=GPa)
#
#
# Indices 1 2 3 4 5 6 
#
# 1 165.2325 84.8558 5.3171 0.0000 0.0000 0.0000
# 2 84.8558 217.6184 18.2038 0.0000 0.0000 0.0000
# 3 5.3171 18.2038 71.5743 0.0000 0.0000 0.0000
# 4 0.0000 0.0000 0.0000 6.0738 0.0000 0.0000
# 5 0.0000 0.0000 0.0000 0.0000 12.7735 0.0000
# 6 0.0000 0.0000 0.0000 0.0000 0.0000 48.0554
#
#
#
# Elastic Compliance Matrix: (Units=1/GPa)
#
#
# Indices 1 2 3 4 5 6 
#
# 1 0.007570 -0.002968 0.000192 0.000000 0.000000 0.000000
# 2 -0.002968 0.005859 -0.001270 0.000000 0.000000 0.000000
# 3 0.000192 -0.001270 0.014280 0.000000 0.000000 0.000000
# 4 0.000000 0.000000 0.000000 0.164643 0.000000 0.000000
# 5 0.000000 0.000000 0.000000 0.000000 0.078287 0.000000
# 6 0.000000 0.000000 0.000000 0.000000 0.000000 0.020809
#
#
# Mechanical properties :
#
#
# Convention : Reuss Voigt Hill
#
# Bulk Modulus (GPa) = 50.97147 74.57539 62.77343
# Shear Modulus (GPa) = 16.33575 36.45045 26.39310
#
# Velocity S-wave (km/s) = 2.63983 3.94328 3.35545
# Velocity P-wave (km/s) = 5.57096 7.24885 6.46457
#
# Compressibility (1/GPa) = 0.01961882
#
# Stress axis : x y z
#
# Youngs Moduli (GPa) = 132.09950 170.68734 70.02755
#
# Poissons Ratio (x) = 0.50658 -0.01348
# Poissons Ratio (y) = 0.39206 0.08891
# Poissons Ratio (z) = -0.02542 0.21670
#
# Static dielectric constant tensor:
#      x y z
#    x 1.823290 0.000000 0.000000 
#    y 0.000000 1.875690 0.000000 
#    z 0.000000 0.000000 1.942630 
# 
# From -- ./inp_files/16528.got.cif
#   From: 2010.05.17/outbox.cif.g08.bks.cpg/sg56_9_cif.got.tgz:16528.got - 2010.06.03 13:42:01.
