data_PCOD9429346
_publ_section_title
;
Structure prediction by ZEFSAII (Michael W. Deem and Ramdas Pophale) SiO2 
 PCOD9429346
Probable space group: P B A M
;
_chemical_formula_sum "Si O2"
_cell_formula_units_Z 64
_cell_length_a 30.000000
_cell_length_b 12.000000
_cell_length_c 9.000000
_cell_angle_alpha 90.000000
_cell_angle_beta 90.000000
_cell_angle_gamma 90.000000
_cell_volume 3240.000000
_symmetry_space_group_name_H-M "P B A M"
_symmetry_group_IT_number 55
_symmetry_cell_setting 'orthorhombic'
loop_
_space_group_symop_operation_xyz
x,y,z
-x,-y,z
1/2+x,1/2-y,-z
1/2-x,1/2+y,-z
-x,-y,-z
x,y,-z
1/2-x,1/2+y,z
1/2+x,1/2-y,z
loop_
_atom_site_type_symbol
_atom_site_label
_atom_site_fract_x
_atom_site_fract_y
_atom_site_fract_z
Si Si1 0.815472 0.782503 0.174286
Si Si2 0.635024 0.664657 0.821434
Si Si3 0.841962 0.526150 0.827414
Si Si4 0.391050 0.569128 0.676898
Si Si5 0.284244 0.188369 0.820581
Si Si6 0.039171 0.222450 0.824760
Si Si7 0.052009 0.679603 0.826049
Si Si8 0.934178 0.544466 0.674124
O O1 0.822548 0.650039 0.178684
O O2 0.852660 0.846828 0.266341
O O3 0.766118 0.807080 0.233020
O O4 0.819217 0.817009 0.000000
O O5 0.620038 0.552068 0.742477
O O6 0.682773 0.712932 0.770839
O O7 0.599146 0.762856 0.794726
O O8 0.636117 0.646073 0.000000
O O9 0.806767 0.430394 0.791031
O O10 0.882857 0.521124 0.715550
O O11 0.857003 0.506866 0.000000
O O12 0.392685 0.565745 0.500000
O O13 0.436233 0.622939 0.741633
O O14 0.281911 0.199686 0.000000
O O15 0.054793 0.342600 0.762704
O O16 0.986119 0.228039 0.803844
O O17 0.049611 0.216376 0.000000
O O18 0.042876 0.569281 0.730893
O O19 0.050399 0.647161 0.000000
O O20 0.941477 0.561170 0.500000
#
# Coordination Sequence:
#
# PCOD9429346 Si02
#       8
#     8   8   8   8   8   8   8   8
#     4  10  21  37  64  94 119 157 203 251 298 351
#     4  10  21  41  66  89 117 156 202 251 297 354
#     4  10  19  36  62  90 123 158 201 249 294 348
#     4  12  26  42  59  86 124 162 198 247 306 365
#     4   9  19  36  64  96 120 151 204 255 295 345
#     4  11  23  41  65  90 117 156 205 253 297 354
#     4  10  22  41  66  92 118 154 203 251 299 354
#     4  12  23  36  59  92 130 162 195 241 303 364
#
# _framework density 19.753086
#
# number of rings (size 3 to 8) (size 9 to 14) (size 15 to 20)
#    0.000    1.500    2.500    3.000    1.750    3.500 
#    0.000    3.750    0.000    0.000    0.000    0.000 
#    0.000    0.000    0.000    0.000    0.000    0.000 
#
# Total GULP energy -357593.763066 kJ/mol
# GULP energy per Si atom -5587.402548 kJ/mol
# Density = 1.970813 g / cm^3
# Si number density = 19.753086 Si / 1000 Ang^3
#
#
#
# Elastic Constant Matrix: (Units=GPa)
#
#
# Indices 1 2 3 4 5 6 
#
# 1 51.6800 -22.0477 5.4864 0.0000 0.0000 0.0000
# 2 -22.0477 45.4278 13.3364 0.0000 0.0000 0.0000
# 3 5.4864 13.3364 60.7077 0.0000 0.0000 0.0000
# 4 0.0000 0.0000 0.0000 5.1079 0.0000 0.0000
# 5 0.0000 0.0000 0.0000 0.0000 -2.1221 0.0000
# 6 0.0000 0.0000 0.0000 0.0000 0.0000 14.6323
#
#
#
# Elastic Compliance Matrix: (Units=1/GPa)
#
#
# Indices 1 2 3 4 5 6 
#
# 1 0.026000 0.014226 -0.005475 0.000000 0.000000 0.000000
# 2 0.014226 0.031314 -0.008165 0.000000 0.000000 0.000000
# 3 -0.005475 -0.008165 0.018761 0.000000 0.000000 0.000000
# 4 0.000000 0.000000 0.000000 0.195774 0.000000 0.000000
# 5 0.000000 0.000000 0.000000 0.000000 -0.471232 0.000000
# 6 0.000000 0.000000 0.000000 0.000000 0.000000 0.068342
#
#
# Mechanical properties :
#
#
# Convention : Reuss Voigt Hill
#
# Bulk Modulus (GPa) = 12.94533 16.81842 14.88187
# Shear Modulus (GPa) = -46.96426 14.25965 -16.35231
#
# Velocity S-wave (km/s) = -4.88132 2.68972 -2.88033
# Velocity P-wave (km/s) = 5.02015 4.26368 1.87389
#
# Compressibility (1/GPa) = 0.07724794
#
# Stress axis : x y z
#
# Youngs Moduli (GPa) = 38.46122 31.93419 53.30242
#
# Poissons Ratio (x) = -0.45430 0.29183
# Poissons Ratio (y) = -0.54715 0.43521
# Poissons Ratio (z) = 0.21057 0.26074
#
# Static dielectric constant tensor:
#      x y z
#    x 1.741850 0.000000 0.000000 
#    y 0.000000 1.660190 0.000000 
#    z 0.000000 0.000000 1.669170 
# 
# From -- ./inp_files/10826.got.cif
#   From: 2010.05.17/outbox.ucp.g08.bks.cvg/sg55_6_cif.got.tgz:10826.got - 2010.06.11 16:36:00.
