data_PCOD9429132
_publ_section_title
;
Structure prediction by ZEFSAII (Michael W. Deem and Ramdas Pophale) SiO2 
 PCOD9429132
Probable space group: P B A M
;
_chemical_formula_sum "Si O2"
_cell_formula_units_Z 56
_cell_length_a 12.936219
_cell_length_b 11.780248
_cell_length_c 15.363446
_cell_angle_alpha 90.000000
_cell_angle_beta 90.000000
_cell_angle_gamma 90.000000
_cell_volume 2341.264235
_symmetry_space_group_name_H-M "P B A M"
_symmetry_group_IT_number 55
_symmetry_cell_setting 'orthorhombic'
loop_
_space_group_symop_operation_xyz
x,y,z
-x,-y,z
1/2+x,1/2-y,-z
1/2-x,1/2+y,-z
-x,-y,-z
x,y,-z
1/2-x,1/2+y,z
1/2+x,1/2-y,z
loop_
_atom_site_type_symbol
_atom_site_label
_atom_site_fract_x
_atom_site_fract_y
_atom_site_fract_z
Si Si1 0.102609 0.641939 0.287539
Si Si2 0.623262 0.195732 0.715386
Si Si3 0.587409 0.872081 0.905591
Si Si4 0.861517 0.105426 0.092437
Si Si5 0.651758 0.594122 0.720503
Si Si6 0.631161 0.197735 0.093783
Si Si7 0.195500 0.100609 0.603100
O O1 0.132977 0.601571 0.189224
O O2 0.105685 0.780289 0.289741
O O3 0.188011 0.603731 0.356482
O O4 0.980192 0.623345 0.298619
O O5 0.725341 0.119590 0.719074
O O6 0.622076 0.255080 0.811627
O O7 0.640922 0.287299 0.640793
O O8 0.591547 0.732866 0.906461
O O9 0.463896 0.890428 0.905359
O O10 0.632750 0.905843 0.000000
O O11 0.882404 0.048750 0.184818
O O12 0.739199 0.132617 0.092678
O O13 0.888233 0.050526 0.000000
O O14 0.635134 0.505713 0.644208
O O15 0.626312 0.260099 0.000000
O O16 0.198752 0.097594 0.500000
#
# Coordination Sequence:
#
# PCOD9429132 Si02
#       7
#     8   8   8   8   8   8   8
#     4   9  19  37  59  81 107 140 176 214 260 317
#     4   9  19  37  59  81 107 140 176 214 260 317
#     4   8  13  24  47  77 105 134 166 200 245 304
#     4   8  13  24  44  69 101 138 169 202 246 299
#     4   9  19  35  53  78 112 140 169 217 265 309
#     4   8  13  24  47  77 105 134 166 200 245 304
#     4  11  24  39  55  77 103 134 178 229 277 316
#
# _framework density 23.918702
#
# number of rings (size 3 to 8) (size 9 to 14) (size 15 to 20)
#    0.000    3.143    0.000    0.857    0.000    4.000 
#    0.000    2.857    0.000    0.000    0.000   20.000 
#    0.000    0.000    0.000    0.000    0.000    0.000 
#
# Total GULP energy -312454.893069 kJ/mol
# GULP energy per Si atom -5579.551662 kJ/mol
# Density = 2.386426 g / cm^3
# Si number density = 23.918702 Si / 1000 Ang^3
#
#
#
# Elastic Constant Matrix: (Units=GPa)
#
#
# Indices 1 2 3 4 5 6 
#
# 1 99.0431 12.4925 9.3327 0.0000 0.0000 0.0000
# 2 12.4925 57.5589 38.8989 0.0000 0.0000 0.0000
# 3 9.3327 38.8989 240.6773 0.0000 0.0000 0.0000
# 4 0.0000 0.0000 0.0000 31.2806 0.0000 0.0000
# 5 0.0000 0.0000 0.0000 0.0000 18.0870 0.0000
# 6 0.0000 0.0000 0.0000 0.0000 0.0000 -0.8933
#
#
#
# Elastic Compliance Matrix: (Units=1/GPa)
#
#
# Indices 1 2 3 4 5 6 
#
# 1 0.010381 -0.002224 -0.000043 0.000000 0.000000 0.000000
# 2 -0.002224 0.019980 -0.003143 0.000000 0.000000 0.000000
# 3 -0.000043 -0.003143 0.004665 0.000000 0.000000 0.000000
# 4 0.000000 0.000000 0.000000 0.031969 0.000000 0.000000
# 5 0.000000 0.000000 0.000000 0.000000 0.055288 0.000000
# 6 0.000000 0.000000 0.000000 0.000000 0.000000 -1.119423
#
#
# Mechanical properties :
#
#
# Convention : Reuss Voigt Hill
#
# Bulk Modulus (GPa) = 41.31234 57.63639 49.47436
# Shear Modulus (GPa) = -5.11116 32.13188 13.51036
#
# Velocity S-wave (km/s) = -1.46340 3.66919 2.37923
# Velocity P-wave (km/s) = 3.80186 6.48843 5.31760
#
# Compressibility (1/GPa) = 0.02420584
#
# Stress axis : x y z
#
# Youngs Moduli (GPa) = 96.32803 50.04932 214.38078
#
# Poissons Ratio (x) = 0.11131 0.00924
# Poissons Ratio (y) = 0.21423 0.67381
# Poissons Ratio (z) = 0.00415 0.15731
#
# Static dielectric constant tensor:
#      x y z
#    x 2.004720 0.000000 0.000000 
#    y 0.000000 2.022300 0.000000 
#    z 0.000000 0.000000 1.889680 
# 
# From -- ./inp_files/19048.got.cif
#   From: 2010.05.17/outbox.cif.g08.bks.cpg/sg55_10_cif.got.tgz:19048.got - 2010.06.03 13:27:54.
