data_PCOD9429188
_publ_section_title
;
Structure prediction by ZEFSAII (Michael W. Deem and Ramdas Pophale) SiO2 
 PCOD9429188
Probable space group: P B A M
;
_chemical_formula_sum "Si O2"
_cell_formula_units_Z 32
_cell_length_a 9.052115
_cell_length_b 9.452942
_cell_length_c 14.482135
_cell_angle_alpha 90.000000
_cell_angle_beta 90.000000
_cell_angle_gamma 90.000000
_cell_volume 1239.223520
_symmetry_space_group_name_H-M "P B A M"
_symmetry_group_IT_number 55
_symmetry_cell_setting 'orthorhombic'
loop_
_space_group_symop_operation_xyz
x,y,z
-x,-y,z
1/2+x,1/2-y,-z
1/2-x,1/2+y,-z
-x,-y,-z
x,y,-z
1/2-x,1/2+y,z
1/2+x,1/2-y,z
loop_
_atom_site_type_symbol
_atom_site_label
_atom_site_fract_x
_atom_site_fract_y
_atom_site_fract_z
Si Si1 0.658068 0.659190 0.167172
Si Si2 0.166646 0.435889 0.000000
Si Si3 0.837191 0.565711 0.395658
Si Si4 0.134550 0.153861 0.710978
Si Si5 0.975452 0.829565 0.000000
O O1 0.747847 0.543098 0.100709
O O2 0.528635 0.633406 0.245278
O O3 0.772595 0.763987 0.211711
O O4 0.554370 0.725309 0.090376
O O5 0.000000 0.500000 0.000000
O O6 0.170275 0.262144 0.000000
O O7 0.779341 0.552328 0.500000
O O8 0.731732 0.478085 0.326323
O O9 0.861732 0.729504 0.370238
O O10 0.000000 0.500000 0.390042
O O11 0.000000 0.000000 0.000000
#
# Coordination Sequence:
#
# PCOD9429188 Si02
#       5
#     8   4   8   8   4
#     4  11  26  46  79 112 160 210 277 331 414 489
#     4  11  26  50  79 115 164 222 270 345 409 488
#     4  11  26  50  81 120 163 215 276 354 440 518
#     4  12  25  49  82 117 161 215 282 345 421 516
#     4  11  26  46  69 107 157 201 268 327 396 471
#
# _framework density 25.822623
#
# number of rings (size 3 to 8) (size 9 to 14) (size 15 to 20)
#    0.000    0.750    5.000    0.750    3.500    7.000 
#    0.000    1.250    0.000    0.000    0.000    0.000 
#    0.000    0.000    0.000    0.000    0.000    0.000 
#
# Total GULP energy -178166.032301 kJ/mol
# GULP energy per Si atom -5567.688509 kJ/mol
# Density = 2.576385 g / cm^3
# Si number density = 25.822623 Si / 1000 Ang^3
#
#
#
# Elastic Constant Matrix: (Units=GPa)
#
#
# Indices 1 2 3 4 5 6 
#
# 1 189.3574 64.4413 91.3135 0.0000 0.0000 0.0000
# 2 64.4413 122.4150 31.7108 0.0000 0.0000 0.0000
# 3 91.3135 31.7108 137.2728 0.0000 0.0000 0.0000
# 4 0.0000 0.0000 0.0000 -87.9568 0.0000 0.0000
# 5 0.0000 0.0000 0.0000 0.0000 27.3477 0.0000
# 6 0.0000 0.0000 0.0000 0.0000 0.0000 41.7307
#
#
#
# Elastic Compliance Matrix: (Units=1/GPa)
#
#
# Indices 1 2 3 4 5 6 
#
# 1 0.008906 -0.003354 -0.005149 0.000000 0.000000 0.000000
# 2 -0.003354 0.009952 -0.000068 0.000000 0.000000 0.000000
# 3 -0.005149 -0.000068 0.010726 0.000000 0.000000 0.000000
# 4 0.000000 0.000000 0.000000 -0.011369 0.000000 0.000000
# 5 0.000000 0.000000 0.000000 0.000000 0.036566 0.000000
# 6 0.000000 0.000000 0.000000 0.000000 0.000000 0.023963
#
#
# Mechanical properties :
#
#
# Convention : Reuss Voigt Hill
#
# Bulk Modulus (GPa) = 80.37860 91.55294 85.96577
# Shear Modulus (GPa) = 49.98360 13.66296 31.82328
#
# Velocity S-wave (km/s) = 4.40438 2.30273 3.51434
# Velocity P-wave (km/s) = 7.55377 6.52699 7.05908
#
# Compressibility (1/GPa) = 0.01244112
#
# Stress axis : x y z
#
# Youngs Moduli (GPa) = 112.28946 100.48032 93.23476
#
# Poissons Ratio (x) = 0.33703 0.48008
# Poissons Ratio (y) = 0.37664 0.00632
# Poissons Ratio (z) = 0.57819 0.00681
#
# Static dielectric constant tensor:
#      x y z
#    x 2.128950 0.000000 0.000000 
#    y 0.000000 2.208230 0.000000 
#    z 0.000000 0.000000 2.054980 
# 
# From -- ./inp_files/16866.got.cif
#   From: 2010.05.17/outbox.cif.g08.bks.cpg/sg55_9_cif.got.tgz:16866.got - 2010.06.03 13:27:54.
