data_PCOD9429254
_publ_section_title
;
Structure prediction by ZEFSAII (Michael W. Deem and Ramdas Pophale) SiO2 
 PCOD9429254
Probable space group: P B A M
;
_chemical_formula_sum "Si O2"
_cell_formula_units_Z 40
_cell_length_a 18.407439
_cell_length_b 5.224039
_cell_length_c 16.938869
_cell_angle_alpha 90.000000
_cell_angle_beta 90.000000
_cell_angle_gamma 90.000000
_cell_volume 1628.861618
_symmetry_space_group_name_H-M "P B A M"
_symmetry_group_IT_number 55
_symmetry_cell_setting 'orthorhombic'
loop_
_space_group_symop_operation_xyz
x,y,z
-x,-y,z
1/2+x,1/2-y,-z
1/2-x,1/2+y,-z
-x,-y,-z
x,y,-z
1/2-x,1/2+y,z
1/2+x,1/2-y,z
loop_
_atom_site_type_symbol
_atom_site_label
_atom_site_fract_x
_atom_site_fract_y
_atom_site_fract_z
Si Si1 0.290898 0.642218 0.112188
Si Si2 0.209223 0.185547 0.699751
Si Si3 0.587323 0.989646 0.913088
Si Si4 0.449119 0.253989 0.584397
Si Si5 0.914581 0.449364 0.737807
O O1 0.259939 0.375067 0.083778
O O2 0.281881 0.640654 0.206389
O O3 0.372404 0.733514 0.091575
O O4 0.258315 0.420989 0.667254
O O5 0.128437 0.307496 0.702460
O O6 0.610364 0.874626 0.826842
O O7 0.500000 0.000000 0.912196
O O8 0.605920 0.880883 0.000000
O O9 0.500000 0.500000 0.584122
O O10 0.408229 0.251017 0.500000
O O11 0.407280 0.252351 0.667278
O O12 0.500000 0.000000 0.584621
O O13 0.000000 0.500000 0.746775
#
# Coordination Sequence:
#
# PCOD9429254 Si02
#       5
#     8   8   8   8   8
#     4   9  18  34  55  76 100 137 185 230 272 324
#     4   9  18  32  50  75 108 142 177 223 277 329
#     4   9  18  34  54  80 114 148 184 230 282 334
#     4   9  18  33  55  84 112 137 175 228 275 316
#     4   9  18  33  56  82 109 146 189 230 277 334
#
# _framework density 24.557026
#
# number of rings (size 3 to 8) (size 9 to 14) (size 15 to 20)
#    0.000    3.000    0.000    0.000    0.000    4.000 
#    0.000    9.000    0.000    6.600    0.000    0.000 
#    0.000    0.000    0.000    0.000    0.000    0.000 
#
# Total GULP energy -222790.966954 kJ/mol
# GULP energy per Si atom -5569.774174 kJ/mol
# Density = 2.450113 g / cm^3
# Si number density = 24.557026 Si / 1000 Ang^3
#
#
#
# Elastic Constant Matrix: (Units=GPa)
#
#
# Indices 1 2 3 4 5 6 
#
# 1 116.9732 20.3068 -36.8005 0.0000 0.0000 0.0000
# 2 20.3068 110.7823 9.6194 0.0000 0.0000 0.0000
# 3 -36.8005 9.6194 179.8181 0.0000 0.0000 0.0000
# 4 0.0000 0.0000 0.0000 -5.2185 0.0000 0.0000
# 5 0.0000 0.0000 0.0000 0.0000 39.2241 0.0000
# 6 0.0000 0.0000 0.0000 0.0000 0.0000 29.1888
#
#
#
# Elastic Compliance Matrix: (Units=1/GPa)
#
#
# Indices 1 2 3 4 5 6 
#
# 1 0.009529 -0.001925 0.002053 0.000000 0.000000 0.000000
# 2 -0.001925 0.009458 -0.000900 0.000000 0.000000 0.000000
# 3 0.002053 -0.000900 0.006029 0.000000 0.000000 0.000000
# 4 0.000000 0.000000 0.000000 -0.191627 0.000000 0.000000
# 5 0.000000 0.000000 0.000000 0.000000 0.025495 0.000000
# 6 0.000000 0.000000 0.000000 0.000000 0.000000 0.034260
#
#
# Mechanical properties :
#
#
# Convention : Reuss Voigt Hill
#
# Bulk Modulus (GPa) = 42.60252 43.75834 43.18043
# Shear Modulus (GPa) = -51.28789 40.26873 -5.50958
#
# Velocity S-wave (km/s) = -4.57499 4.05384 -1.49949
# Velocity P-wave (km/s) = 3.24366 6.30629 3.82413
#
# Compressibility (1/GPa) = 0.02347279
#
# Stress axis : x y z
#
# Youngs Moduli (GPa) = 104.94191 105.73382 165.85125
#
# Poissons Ratio (x) = 0.20354 -0.34052
# Poissons Ratio (y) = 0.20201 0.14925
# Poissons Ratio (z) = -0.21546 0.09515
#
# Static dielectric constant tensor:
#      x y z
#    x 2.035680 0.000000 0.000000 
#    y 0.000000 2.022390 0.000000 
#    z 0.000000 0.000000 2.012640 
# 
# From -- ./inp_files/21711.got.cif
#   From: 2010.05.17/outbox.cif.g08.bks.cpg/sg55_11_cif.got.tgz:21711.got - 2010.06.03 13:27:54.
