data_PCOD9429969
_publ_section_title
;
Structure prediction by ZEFSAII (Michael W. Deem and Ramdas Pophale) SiO2 
 PCOD9429969
Probable space group: P C C N
;
_chemical_formula_sum "Si O2"
_cell_formula_units_Z 56
_cell_length_a 7.370581
_cell_length_b 20.128715
_cell_length_c 16.946930
_cell_angle_alpha 90.000000
_cell_angle_beta 90.000000
_cell_angle_gamma 90.000000
_cell_volume 2514.252031
_symmetry_space_group_name_H-M "P C C N"
_symmetry_group_IT_number 56
_symmetry_cell_setting 'orthorhombic'
loop_
_space_group_symop_operation_xyz
x,y,z
1/2-x,1/2-y,z
1/2+x,-y,1/2-z
-x,1/2+y,1/2-z
-x,-y,-z
1/2+x,1/2+y,-z
1/2-x,y,1/2+z
x,1/2-y,1/2+z
loop_
_atom_site_type_symbol
_atom_site_label
_atom_site_fract_x
_atom_site_fract_y
_atom_site_fract_z
Si Si1 0.250000 0.750000 0.142498
Si Si2 0.433745 0.617104 0.911857
Si Si3 0.701861 0.864887 0.555324
Si Si4 0.250000 0.250000 0.840662
Si Si5 0.301084 0.488174 0.834210
Si Si6 0.600554 0.467605 0.330744
Si Si7 0.142341 0.624997 0.039572
Si Si8 0.997221 0.826055 0.750113
O O1 0.231318 0.685901 0.087527
O O2 0.411022 0.764160 0.204710
O O3 0.425474 0.545758 0.869526
O O4 0.465754 0.669420 0.841746
O O5 0.592209 0.621919 0.975857
O O6 0.242053 0.625409 0.956239
O O7 0.644994 0.794761 0.593326
O O8 0.655200 0.921562 0.619001
O O9 0.922340 0.866582 0.541438
O O10 0.298080 0.190169 0.780104
O O11 0.310950 0.489332 0.738706
O O12 0.089575 0.501355 0.851599
O O13 0.688219 0.443286 0.412568
O O14 0.560683 0.395446 0.289177
#
# Coordination Sequence:
#
# PCOD9429969 Si02
#       8
#     4   8   8   4   8   8   8   8
#     4  10  18  44  68  82 132 172 222 270 324 408
#     4  11  25  42  65 100 138 169 220 283 355 391
#     4  11  24  43  69  98 132 180 218 275 345 405
#     4  12  20  46  68  86 132 180 228 270 330 406
#     4  10  21  43  63  99 130 173 228 279 334 406
#     4   9  20  40  65  93 132 171 228 272 325 405
#     4  10  22  43  66  97 131 177 221 275 338 412
#     4  10  22  42  62  96 128 171 225 283 321 405
#
# _framework density 22.273026000000002
#
# number of rings (size 3 to 8) (size 9 to 14) (size 15 to 20)
#    0.000    1.714    4.286    1.286    2.000    3.429 
#   10.286    0.000    0.000    0.000    0.000    0.000 
#    0.000    0.000    0.000    0.000    0.000    0.000 
#
# Total GULP energy -311941.344238 kJ/mol
# GULP energy per Si atom -5570.381147 kJ/mol
# Density = 2.222233 g / cm^3
# Si number density = 22.273026 Si / 1000 Ang^3
#
#
#
# Elastic Constant Matrix: (Units=GPa)
#
#
# Indices 1 2 3 4 5 6 
#
# 1 70.1273 25.6681 38.6607 0.0000 0.0000 0.0000
# 2 25.6681 60.8760 29.3675 0.0000 0.0000 0.0000
# 3 38.6607 29.3675 117.8717 0.0000 0.0000 0.0000
# 4 0.0000 0.0000 0.0000 82.6817 0.0000 0.0000
# 5 0.0000 0.0000 0.0000 0.0000 43.9352 0.0000
# 6 0.0000 0.0000 0.0000 0.0000 0.0000 16.1271
#
#
#
# Elastic Compliance Matrix: (Units=1/GPa)
#
#
# Indices 1 2 3 4 5 6 
#
# 1 0.018995 -0.005687 -0.004813 0.000000 0.000000 0.000000
# 2 -0.005687 0.020374 -0.003211 0.000000 0.000000 0.000000
# 3 -0.004813 -0.003211 0.010862 0.000000 0.000000 0.000000
# 4 0.000000 0.000000 0.000000 0.012095 0.000000 0.000000
# 5 0.000000 0.000000 0.000000 0.000000 0.022761 0.000000
# 6 0.000000 0.000000 0.000000 0.000000 0.000000 0.062008
#
#
# Mechanical properties :
#
#
# Convention : Reuss Voigt Hill
#
# Bulk Modulus (GPa) = 43.84261 48.47417 46.15839
# Shear Modulus (GPa) = 27.45457 38.89404 33.17430
#
# Velocity S-wave (km/s) = 3.51470 4.18334 3.86351
# Velocity P-wave (km/s) = 6.01646 6.71897 6.37740
#
# Compressibility (1/GPa) = 0.02280886
#
# Stress axis : x y z
#
# Youngs Moduli (GPa) = 52.64573 49.08289 92.06046
#
# Poissons Ratio (x) = 0.27914 0.44310
# Poissons Ratio (y) = 0.29940 0.29558
# Poissons Ratio (z) = 0.25339 0.15759
#
# Static dielectric constant tensor:
#      x y z
#    x 1.529950 0.000000 0.000000 
#    y 0.000000 1.793090 0.000000 
#    z 0.000000 0.000000 1.818310 
# 
# From -- ./inp_files/10903.got.cif
#   From: 2010.05.17/outbox.cif.g08.bks.cpg/sg56_6_cif.got.tgz:10903.got - 2010.06.03 13:42:01.
