data_PCOD9429441
_publ_section_title
;
Structure prediction by ZEFSAII (Michael W. Deem and Ramdas Pophale) SiO2 
 PCOD9429441
Probable space group: P B A M
;
_chemical_formula_sum "Si O2"
_cell_formula_units_Z 58
_cell_length_a 18.000000
_cell_length_b 18.000000
_cell_length_c 9.000000
_cell_angle_alpha 90.000000
_cell_angle_beta 90.000000
_cell_angle_gamma 90.000000
_cell_volume 2916.000000
_symmetry_space_group_name_H-M "P B A M"
_symmetry_group_IT_number 55
_symmetry_cell_setting 'orthorhombic'
loop_
_space_group_symop_operation_xyz
x,y,z
-x,-y,z
1/2+x,1/2-y,-z
1/2-x,1/2+y,-z
-x,-y,-z
x,y,-z
1/2-x,1/2+y,z
1/2+x,1/2-y,z
loop_
_atom_site_type_symbol
_atom_site_label
_atom_site_fract_x
_atom_site_fract_y
_atom_site_fract_z
Si Si1 0.000000 0.000000 0.000000
Si Si2 0.279434 0.718694 0.172437
Si Si3 0.097821 0.095201 0.236276
Si Si4 0.665122 0.557209 0.671498
Si Si5 0.687389 0.113108 0.823264
Si Si6 0.046327 0.820557 0.325428
Si Si7 0.625937 0.826126 0.320377
Si Si8 0.411713 0.007726 0.328017
O O1 0.047709 0.046877 0.875141
O O2 0.338811 0.651791 0.180400
O O3 0.311140 0.799532 0.221028
O O4 0.207577 0.698668 0.269281
O O5 0.256288 0.726843 0.000000
O O6 0.037060 0.150354 0.307782
O O7 0.138273 0.028193 0.323962
O O8 0.682207 0.575428 0.500000
O O9 0.736694 0.574063 0.769578
O O10 0.601616 0.614188 0.729439
O O11 0.623548 0.062028 0.755062
O O12 0.682286 0.110969 0.000000
O O13 0.060438 0.816150 0.500000
O O14 0.069373 0.739111 0.265835
O O15 0.621718 0.829006 0.500000
O O16 0.609741 0.910278 0.267894
O O17 0.386264 0.004234 0.500000
O O18 0.500000 0.000000 0.325151
#
# Coordination Sequence:
#
# PCOD9429441 Si02
#       8
#     2   8   8   8   8   8   8   8
#     4  12  24  40  58  92 132 174 200 262 316 386
#     4  11  25  43  62  94 129 167 213 261 314 382
#     4  12  24  40  65  94 132 167 212 260 323 391
#     4  11  22  40  65  93 128 166 209 259 316 386
#     4  11  25  42  64  91 127 169 214 262 316 379
#     4  10  21  39  63  94 127 161 204 259 317 377
#     4  10  22  43  67  94 126 165 214 266 321 380
#     4  10  23  43  67  94 125 164 215 267 319 378
#
# _framework density 19.890260999999999
#
# number of rings (size 3 to 8) (size 9 to 14) (size 15 to 20)
#    0.000    1.241    3.448    1.655    2.897    5.793 
#    1.241    0.000    0.000    0.000    0.000    0.000 
#    0.000    0.000    0.000    0.000    0.000    0.000 
#
# Total GULP energy -322971.146275 kJ/mol
# GULP energy per Si atom -5568.468039 kJ/mol
# Density = 1.984499 g / cm^3
# Si number density = 19.890261 Si / 1000 Ang^3
#
#
#
# Elastic Constant Matrix: (Units=GPa)
#
#
# Indices 1 2 3 4 5 6 
#
# 1 44.8755 33.9533 7.1528 0.0000 0.0000 0.0000
# 2 33.9533 162.3748 31.3441 0.0000 0.0000 0.0000
# 3 7.1528 31.3441 30.4987 0.0000 0.0000 0.0000
# 4 0.0000 0.0000 0.0000 49.0916 0.0000 0.0000
# 5 0.0000 0.0000 0.0000 0.0000 286.8575 0.0000
# 6 0.0000 0.0000 0.0000 0.0000 0.0000 47.5810
#
#
#
# Elastic Compliance Matrix: (Units=1/GPa)
#
#
# Indices 1 2 3 4 5 6 
#
# 1 0.026482 -0.005412 -0.000648 0.000000 0.000000 0.000000
# 2 -0.005412 0.008789 -0.007763 0.000000 0.000000 0.000000
# 3 -0.000648 -0.007763 0.040919 0.000000 0.000000 0.000000
# 4 0.000000 0.000000 0.000000 0.020370 0.000000 0.000000
# 5 0.000000 0.000000 0.000000 0.000000 0.003486 0.000000
# 6 0.000000 0.000000 0.000000 0.000000 0.000000 0.021017
#
#
# Mechanical properties :
#
#
# Convention : Reuss Voigt Hill
#
# Bulk Modulus (GPa) = 20.60074 42.51659 31.55867
# Shear Modulus (GPa) = 30.32299 87.72594 59.02446
#
# Velocity S-wave (km/s) = 3.90874 6.64836 5.45339
# Velocity P-wave (km/s) = 5.54533 8.96417 7.45342
#
# Compressibility (1/GPa) = 0.04854195
#
# Stress axis : x y z
#
# Youngs Moduli (GPa) = 37.76102 113.77976 24.43873
#
# Poissons Ratio (x) = 0.61582 0.01585
# Poissons Ratio (y) = 0.20438 0.18972
# Poissons Ratio (z) = 0.02448 0.88329
#
# Static dielectric constant tensor:
#      x y z
#    x 1.702670 0.000000 0.000000 
#    y 0.000000 1.711890 0.000000 
#    z 0.000000 0.000000 1.707820 
# 
# From -- ./inp_files/7743.got.cif
#   From: 2010.05.17/outbox.ucp.g08.bks.cvg/sg55_4_cif.got.tgz:7743.got - 2010.06.11 16:36:00.
