data_PCOD9429517
_publ_section_title
;
Structure prediction by ZEFSAII (Michael W. Deem and Ramdas Pophale) SiO2 
 PCOD9429517
Probable space group: P C C N
;
_chemical_formula_sum "Si O2"
_cell_formula_units_Z 64
_cell_length_a 16.679136
_cell_length_b 7.821999
_cell_length_c 19.115943
_cell_angle_alpha 90.000000
_cell_angle_beta 90.000000
_cell_angle_gamma 90.000000
_cell_volume 2493.945926
_symmetry_space_group_name_H-M "P C C N"
_symmetry_group_IT_number 56
_symmetry_cell_setting 'orthorhombic'
loop_
_space_group_symop_operation_xyz
x,y,z
1/2-x,1/2-y,z
1/2+x,-y,1/2-z
-x,1/2+y,1/2-z
-x,-y,-z
1/2+x,1/2+y,-z
1/2-x,y,1/2+z
x,1/2-y,1/2+z
loop_
_atom_site_type_symbol
_atom_site_label
_atom_site_fract_x
_atom_site_fract_y
_atom_site_fract_z
Si Si1 0.107510 0.866668 0.477540
Si Si2 0.634340 0.680350 0.846244
Si Si3 0.152093 0.518575 0.833646
Si Si4 0.065812 0.262552 0.506656
Si Si5 0.732287 0.010413 0.787701
Si Si6 0.394690 0.688045 0.632885
Si Si7 0.518708 0.601865 0.286892
Si Si8 0.435263 0.346324 0.858450
O O1 0.140256 0.819413 0.554430
O O2 0.027325 0.751655 0.470982
O O3 0.157081 0.874939 0.405839
O O4 0.083546 0.066973 0.484744
O O5 0.619915 0.692897 0.927906
O O6 0.683826 0.841048 0.813687
O O7 0.685279 0.514128 0.830752
O O8 0.550728 0.709565 0.806502
O O9 0.234934 0.513582 0.791052
O O10 0.120125 0.322790 0.844482
O O11 0.076781 0.597871 0.790841
O O12 0.082951 0.382508 0.439650
O O13 0.675490 0.162433 0.811629
O O14 0.450583 0.518584 0.649891
O O15 0.467697 0.819229 0.637143
O O16 0.565622 0.555238 0.215194
#
# Coordination Sequence:
#
# PCOD9429517 Si02
#       8
#     8   8   8   8   8   8   8   8
#     4   9  14  27  48  73  92 122 171 210 238 286
#     4  10  17  30  48  68 102 135 160 205 260 298
#     4  10  18  27  49  76  99 126 168 207 248 302
#     4   9  14  27  48  72  92 119 171 212 237 283
#     4  10  19  29  44  72 105 134 155 202 271 304
#     4   9  18  32  50  71 105 132 165 212 256 301
#     4  10  16  30  48  75  99 124 165 219 248 284
#     4   9  18  29  51  77  95 126 177 212 244 290
#
# _framework density 25.662144999999999
#
# number of rings (size 3 to 8) (size 9 to 14) (size 15 to 20)
#    0.000    2.500    5.000    1.500    0.000    0.000 
#    0.000    3.125    0.000    0.750    3.250    1.750 
#    0.000    0.000    0.000    0.000    0.000    0.000 
#
# Total GULP energy -356936.975667 kJ/mol
# GULP energy per Si atom -5577.140245 kJ/mol
# Density = 2.560374 g / cm^3
# Si number density = 25.662145 Si / 1000 Ang^3
#
#
#
# Elastic Constant Matrix: (Units=GPa)
#
#
# Indices 1 2 3 4 5 6 
#
# 1 94.7191 18.0806 48.1228 0.0000 0.0000 0.0000
# 2 18.0806 66.0168 19.3113 0.0000 0.0000 0.0000
# 3 48.1228 19.3113 219.7546 0.0000 0.0000 0.0000
# 4 0.0000 0.0000 0.0000 -1.3353 0.0000 0.0000
# 5 0.0000 0.0000 0.0000 0.0000 42.8444 0.0000
# 6 0.0000 0.0000 0.0000 0.0000 0.0000 26.4651
#
#
#
# Elastic Compliance Matrix: (Units=1/GPa)
#
#
# Indices 1 2 3 4 5 6 
#
# 1 0.012316 -0.002652 -0.002464 0.000000 0.000000 0.000000
# 2 -0.002652 0.016119 -0.000836 0.000000 0.000000 0.000000
# 3 -0.002464 -0.000836 0.005164 0.000000 0.000000 0.000000
# 4 0.000000 0.000000 0.000000 -0.748911 0.000000 0.000000
# 5 0.000000 0.000000 0.000000 0.000000 0.023340 0.000000
# 6 0.000000 0.000000 0.000000 0.000000 0.000000 0.037786
#
#
# Mechanical properties :
#
#
# Convention : Reuss Voigt Hill
#
# Bulk Modulus (GPa) = 46.09543 61.27999 53.68771
# Shear Modulus (GPa) = -7.87336 33.25988 12.69326
#
# Velocity S-wave (km/s) = -1.75350 3.60400 2.22644
# Velocity P-wave (km/s) = 3.72851 6.42260 5.25126
#
# Compressibility (1/GPa) = 0.02169412
#
# Stress axis : x y z
#
# Youngs Moduli (GPa) = 81.19786 62.04051 193.66670
#
# Poissons Ratio (x) = 0.16455 0.47717
# Poissons Ratio (y) = 0.21536 0.16184
# Poissons Ratio (z) = 0.20006 0.05184
#
# Static dielectric constant tensor:
#      x y z
#    x 2.106060 0.000000 0.000000 
#    y 0.000000 2.164960 0.000000 
#    z 0.000000 0.000000 2.077770 
# 
# From -- ./inp_files/16719.got.cif
#   From: 2010.05.17/outbox.cif.g08.bks.cpg/sg56_9_cif.got.tgz:16719.got - 2010.06.03 13:42:01.
