data_PCOD9429774
_publ_section_title
;
Structure prediction by ZEFSAII (Michael W. Deem and Ramdas Pophale) SiO2 
 PCOD9429774
Probable space group: P C C N
;
_chemical_formula_sum "Si O2"
_cell_formula_units_Z 40
_cell_length_a 12.163712
_cell_length_b 9.201915
_cell_length_c 14.847063
_cell_angle_alpha 90.000000
_cell_angle_beta 90.000000
_cell_angle_gamma 90.000000
_cell_volume 1661.823505
_symmetry_space_group_name_H-M "P C C N"
_symmetry_group_IT_number 56
_symmetry_cell_setting 'orthorhombic'
loop_
_space_group_symop_operation_xyz
x,y,z
1/2-x,1/2-y,z
1/2+x,-y,1/2-z
-x,1/2+y,1/2-z
-x,-y,-z
1/2+x,1/2+y,-z
1/2-x,y,1/2+z
x,1/2-y,1/2+z
loop_
_atom_site_type_symbol
_atom_site_label
_atom_site_fract_x
_atom_site_fract_y
_atom_site_fract_z
Si Si1 0.975427 0.612789 0.419913
Si Si2 0.148393 0.311419 0.191307
Si Si3 0.380331 0.587279 0.599178
Si Si4 0.421150 0.636108 0.214202
Si Si5 0.608756 0.402761 0.594560
O O1 0.870915 0.720128 0.401782
O O2 0.960771 0.508163 0.334898
O O3 0.000000 0.500000 0.500000
O O4 0.068387 0.736523 0.422274
O O5 0.250000 0.250000 0.245164
O O6 0.175918 0.475727 0.166324
O O7 0.034738 0.301767 0.243902
O O8 0.379237 0.746252 0.642479
O O9 0.505676 0.518552 0.596030
O O10 0.330271 0.568914 0.499291
O O11 0.348719 0.602004 0.303232
#
# Coordination Sequence:
#
# PCOD9429774 Si02
#       5
#     8   8   8   8   8
#     4  10  18  33  58  81 106 142 197 226 270 344
#     4  10  21  36  53  83 116 143 182 242 293 323
#     4   9  17  31  54  80 108 146 186 222 272 337
#     4  10  18  33  59  83 105 146 196 227 268 344
#     4   9  16  28  51  80 105 134 186 229 259 322
#
# _framework density 24.069945000000001
#
# number of rings (size 3 to 8) (size 9 to 14) (size 15 to 20)
#    0.000    2.800    2.000    4.800    0.000    0.000 
#    0.000    2.000    0.000    0.000   10.400    0.000 
#    0.000    0.000    0.000    0.000    0.000    0.000 
#
# Total GULP energy -222672.447754 kJ/mol
# GULP energy per Si atom -5566.811194 kJ/mol
# Density = 2.401516 g / cm^3
# Si number density = 24.069945 Si / 1000 Ang^3
#
#
#
# Elastic Constant Matrix: (Units=GPa)
#
#
# Indices 1 2 3 4 5 6 
#
# 1 34.5229 1.2868 10.8861 0.0000 0.0000 0.0000
# 2 1.2868 123.8377 24.7853 0.0000 0.0000 0.0000
# 3 10.8861 24.7853 136.8762 0.0000 0.0000 0.0000
# 4 0.0000 0.0000 0.0000 51.6460 0.0000 0.0000
# 5 0.0000 0.0000 0.0000 0.0000 10.9266 0.0000
# 6 0.0000 0.0000 0.0000 0.0000 0.0000 8.8561
#
#
#
# Elastic Compliance Matrix: (Units=1/GPa)
#
#
# Indices 1 2 3 4 5 6 
#
# 1 0.029715 0.000170 -0.002394 0.000000 0.000000 0.000000
# 2 0.000170 0.008380 -0.001531 0.000000 0.000000 0.000000
# 3 -0.002394 -0.001531 0.007774 0.000000 0.000000 0.000000
# 4 0.000000 0.000000 0.000000 0.019363 0.000000 0.000000
# 5 0.000000 0.000000 0.000000 0.000000 0.091520 0.000000
# 6 0.000000 0.000000 0.000000 0.000000 0.000000 0.112916
#
#
# Mechanical properties :
#
#
# Convention : Reuss Voigt Hill
#
# Bulk Modulus (GPa) = 26.06969 41.01702 33.54335
# Shear Modulus (GPa) = 17.24363 31.50433 24.37398
#
# Velocity S-wave (km/s) = 2.67946 3.62175 3.18564
# Velocity P-wave (km/s) = 4.51963 5.87939 5.24377
#
# Compressibility (1/GPa) = 0.03835872
#
# Stress axis : x y z
#
# Youngs Moduli (GPa) = 33.65319 119.33569 128.64215
#
# Poissons Ratio (x) = -0.02034 0.30799
# Poissons Ratio (y) = -0.00573 0.19694
# Poissons Ratio (z) = 0.08057 0.18270
#
# Static dielectric constant tensor:
#      x y z
#    x 2.053650 0.000000 0.000000 
#    y 0.000000 1.937750 0.000000 
#    z 0.000000 0.000000 2.012750 
# 
# From -- ./inp_files/12594.got.cif
#   From: 2010.05.17/outbox.cif.g08.bks.cpg/sg56_7_cif.got.tgz:12594.got - 2010.06.03 13:42:01.
