data_PCOD9429454
_publ_section_title
;
Structure prediction by ZEFSAII (Michael W. Deem and Ramdas Pophale) SiO2 
 PCOD9429454
Probable space group: P B A M
;
_chemical_formula_sum "Si O2"
_cell_formula_units_Z 48
_cell_length_a 12.000000
_cell_length_b 24.000000
_cell_length_c 9.000000
_cell_angle_alpha 90.000000
_cell_angle_beta 90.000000
_cell_angle_gamma 90.000000
_cell_volume 2592.000000
_symmetry_space_group_name_H-M "P B A M"
_symmetry_group_IT_number 55
_symmetry_cell_setting 'orthorhombic'
loop_
_space_group_symop_operation_xyz
x,y,z
-x,-y,z
1/2+x,1/2-y,-z
1/2-x,1/2+y,-z
-x,-y,-z
x,y,-z
1/2-x,1/2+y,z
1/2+x,1/2-y,z
loop_
_atom_site_type_symbol
_atom_site_label
_atom_site_fract_x
_atom_site_fract_y
_atom_site_fract_z
Si Si1 0.362649 0.643334 0.676521
Si Si2 0.160287 0.726611 0.676574
Si Si3 0.784410 0.448248 0.823505
Si Si4 0.511387 0.864276 0.176410
Si Si5 0.788466 0.575633 0.819517
Si Si6 0.399273 0.340389 0.822200
O O1 0.377552 0.640572 0.500000
O O2 0.272220 0.691660 0.708797
O O3 0.308729 0.586534 0.737573
O O4 0.478140 0.655564 0.755683
O O5 0.150620 0.734264 0.500000
O O6 0.059070 0.688420 0.736125
O O7 0.158299 0.785113 0.759082
O O8 0.899614 0.414429 0.805962
O O9 0.794819 0.511696 0.770874
O O10 0.758258 0.448246 0.000000
O O11 0.392866 0.887059 0.229616
O O12 0.505961 0.850937 0.000000
O O13 0.674530 0.606169 0.778867
O O14 0.795712 0.574417 0.000000
O O15 0.403872 0.337550 0.000000
#
# Coordination Sequence:
#
# PCOD9429454 Si02
#       6
#     8   8   8   8   8   8
#     4  10  22  40  58  79 112 150 189 229 278 336
#     4  10  22  39  57  79 110 146 185 232 283 334
#     4   9  17  34  60  85 113 147 185 229 280 332
#     4   9  17  33  59  88 112 144 185 229 281 336
#     4   9  19  34  55  87 117 143 182 234 281 328
#     4  11  23  37  56  82 112 147 189 233 278 333
#
# _framework density 18.518519000000001
#
# number of rings (size 3 to 8) (size 9 to 14) (size 15 to 20)
#    0.000    2.333    0.000    2.000    2.333    4.667 
#    0.000    6.667    0.000    4.000    0.000    0.000 
#    0.000    0.000    0.000    0.000    0.000    0.000 
#
# Total GULP energy -267967.328457 kJ/mol
# GULP energy per Si atom -5582.652676 kJ/mol
# Density = 1.847637 g / cm^3
# Si number density = 18.518519 Si / 1000 Ang^3
#
#
#
# Elastic Constant Matrix: (Units=GPa)
#
#
# Indices 1 2 3 4 5 6 
#
# 1 60.7521 2.8510 32.0413 0.0000 0.0000 0.0000
# 2 2.8510 8.8014 -1.4681 0.0000 0.0000 0.0000
# 3 32.0413 -1.4681 23.5925 0.0000 0.0000 0.0000
# 4 0.0000 0.0000 0.0000 1.9666 0.0000 0.0000
# 5 0.0000 0.0000 0.0000 0.0000 17.8969 0.0000
# 6 0.0000 0.0000 0.0000 0.0000 0.0000 -0.4052
#
#
#
# Elastic Compliance Matrix: (Units=1/GPa)
#
#
# Indices 1 2 3 4 5 6 
#
# 1 0.068768 -0.038251 -0.095775 0.000000 0.000000 0.000000
# 2 -0.038251 0.136087 0.060418 0.000000 0.000000 0.000000
# 3 -0.095775 0.060418 0.176219 0.000000 0.000000 0.000000
# 4 0.000000 0.000000 0.000000 0.508484 0.000000 0.000000
# 5 0.000000 0.000000 0.000000 0.000000 0.055876 0.000000
# 6 0.000000 0.000000 0.000000 0.000000 0.000000 -2.467877
#
#
# Mechanical properties :
#
#
# Convention : Reuss Voigt Hill
#
# Bulk Modulus (GPa) = 4.27612 17.77716 11.02664
# Shear Modulus (GPa) = -3.85423 7.87312 2.00944
#
# Velocity S-wave (km/s) = -1.44423 2.06415 1.04281
# Velocity P-wave (km/s) = 0.68334 3.91171 2.72346
#
# Compressibility (1/GPa) = 0.23385690
#
# Stress axis : x y z
#
# Youngs Moduli (GPa) = 14.54162 7.34825 5.67476
#
# Poissons Ratio (x) = 0.28108 0.54350
# Poissons Ratio (y) = 0.55624 -0.34286
# Poissons Ratio (z) = 1.39272 -0.44396
#
# Static dielectric constant tensor:
#      x y z
#    x 1.627910 0.000000 0.000000 
#    y 0.000000 1.621780 0.000000 
#    z 0.000000 0.000000 1.617020 
# 
# From -- ./inp_files/4060.got.cif
#   From: 2010.05.17/outbox.ucp.g08.bks.cvg/sg55_3_cif.got.tgz:4060.got - 2010.06.11 16:36:00.
