data_PCOD9429653
_publ_section_title
;
Structure prediction by ZEFSAII (Michael W. Deem and Ramdas Pophale) SiO2 
 PCOD9429653
Probable space group: P C C N
;
_chemical_formula_sum "Si O2"
_cell_formula_units_Z 64
_cell_length_a 11.466921
_cell_length_b 9.476715
_cell_length_c 32.218069
_cell_angle_alpha 90.000000
_cell_angle_beta 90.000000
_cell_angle_gamma 90.000000
_cell_volume 3501.097036
_symmetry_space_group_name_H-M "P C C N"
_symmetry_group_IT_number 56
_symmetry_cell_setting 'orthorhombic'
loop_
_space_group_symop_operation_xyz
x,y,z
1/2-x,1/2-y,z
1/2+x,-y,1/2-z
-x,1/2+y,1/2-z
-x,-y,-z
1/2+x,1/2+y,-z
1/2-x,y,1/2+z
x,1/2-y,1/2+z
loop_
_atom_site_type_symbol
_atom_site_label
_atom_site_fract_x
_atom_site_fract_y
_atom_site_fract_z
Si Si1 0.479385 0.435080 0.454878
Si Si2 0.176441 0.893653 0.231950
Si Si3 0.805111 0.595838 0.828586
Si Si4 0.512684 0.226593 0.332750
Si Si5 0.579282 0.473548 0.679235
Si Si6 0.870474 0.832183 0.087000
Si Si7 0.219991 0.586811 0.905077
Si Si8 0.315096 0.618779 0.605784
O O1 0.500000 0.500000 0.500000
O O2 0.434476 0.271611 0.446485
O O3 0.383735 0.535577 0.434395
O O4 0.594764 0.442811 0.426939
O O5 0.250000 0.750000 0.230366
O O6 0.063672 0.873194 0.202317
O O7 0.133508 0.918060 0.278383
O O8 0.257165 0.014571 0.211998
O O9 0.750000 0.750000 0.829103
O O10 0.757547 0.509189 0.869033
O O11 0.947939 0.589547 0.829095
O O12 0.439301 0.358251 0.315786
O O13 0.443285 0.160093 0.370747
O O14 0.620088 0.300823 0.356473
O O15 0.667734 0.446955 0.640941
O O16 0.750000 0.750000 0.095741
O O17 0.829063 0.991393 0.079534
O O18 0.250000 0.750000 0.907411
O O19 0.250000 0.750000 0.584733
#
# Coordination Sequence:
#
# PCOD9429653 Si02
#       8
#     8   8   8   8   8   8   8   8
#     4  10  21  40  67  94 124 157 200 260 308 378
#     4  12  23  38  58  84 122 158 212 263 304 368
#     4  11  23  38  56  86 121 159 208 258 310 364
#     4  10  18  38  60  82 115 160 211 249 302 368
#     4  11  23  39  57  86 119 167 206 262 317 352
#     4   9  18  38  65  88 114 165 209 241 306 385
#     4  11  22  41  64  90 129 164 203 255 313 374
#     4  10  17  40  65  82 117 166 198 242 315 369
#
# _framework density 18.279985
#
# number of rings (size 3 to 8) (size 9 to 14) (size 15 to 20)
#    0.000    1.500    8.750    0.375    1.750    2.500 
#    0.000    2.500    0.000    0.000    0.000    0.000 
#    0.000    0.000    0.000    0.000    0.000    0.000 
#
# Total GULP energy -356339.063177 kJ/mol
# GULP energy per Si atom -5567.797862 kJ/mol
# Density = 1.823838 g / cm^3
# Si number density = 18.279985 Si / 1000 Ang^3
#
#
#
# Elastic Constant Matrix: (Units=GPa)
#
#
# Indices 1 2 3 4 5 6 
#
# 1 44.5908 37.8513 34.2350 0.0000 0.0000 0.0000
# 2 37.8513 112.8569 38.1025 0.0000 0.0000 0.0000
# 3 34.2350 38.1025 128.5582 0.0000 0.0000 0.0000
# 4 0.0000 0.0000 0.0000 -6.1721 0.0000 0.0000
# 5 0.0000 0.0000 0.0000 0.0000 3.9514 0.0000
# 6 0.0000 0.0000 0.0000 0.0000 0.0000 14.2766
#
#
#
# Elastic Compliance Matrix: (Units=1/GPa)
#
#
# Indices 1 2 3 4 5 6 
#
# 1 0.035821 -0.009771 -0.006643 0.000000 0.000000 0.000000
# 2 -0.009771 0.012511 -0.001106 0.000000 0.000000 0.000000
# 3 -0.006643 -0.001106 0.009875 0.000000 0.000000 0.000000
# 4 0.000000 0.000000 0.000000 -0.162020 0.000000 0.000000
# 5 0.000000 0.000000 0.000000 0.000000 0.253072 0.000000
# 6 0.000000 0.000000 0.000000 0.000000 0.000000 0.070045
#
#
# Mechanical properties :
#
#
# Convention : Reuss Voigt Hill
#
# Bulk Modulus (GPa) = 43.16494 56.26484 49.71489
# Shear Modulus (GPa) = 19.07905 14.13233 16.60569
#
# Velocity S-wave (km/s) = 3.23416 2.78349 3.01725
# Velocity P-wave (km/s) = 6.13277 6.41691 6.27645
#
# Compressibility (1/GPa) = 0.02316695
#
# Stress axis : x y z
#
# Youngs Moduli (GPa) = 27.91670 79.92708 101.26121
#
# Poissons Ratio (x) = 0.78099 0.67268
# Poissons Ratio (y) = 0.27278 0.11200
# Poissons Ratio (z) = 0.18545 0.08841
#
# Static dielectric constant tensor:
#      x y z
#    x 1.701160 0.000000 0.000000 
#    y 0.000000 1.706780 0.000000 
#    z 0.000000 0.000000 1.620270 
# 
# From -- ./inp_files/23516.got.cif
#   From: 2010.05.17/outbox.cif.g08.bks.cpg/sg56_12_cif.got.tgz:23516.got - 2010.06.03 13:42:01.
