data_PCOD9429125
_publ_section_title
;
Structure prediction by ZEFSAII (Michael W. Deem and Ramdas Pophale) SiO2 
 PCOD9429125
Probable space group: P B A M
;
_chemical_formula_sum "Si O2"
_cell_formula_units_Z 48
_cell_length_a 19.774405
_cell_length_b 8.851329
_cell_length_c 13.868454
_cell_angle_alpha 90.000000
_cell_angle_beta 90.000000
_cell_angle_gamma 90.000000
_cell_volume 2427.392237
_symmetry_space_group_name_H-M "P B A M"
_symmetry_group_IT_number 55
_symmetry_cell_setting 'orthorhombic'
loop_
_space_group_symop_operation_xyz
x,y,z
-x,-y,z
1/2+x,1/2-y,-z
1/2-x,1/2+y,-z
-x,-y,-z
x,y,-z
1/2-x,1/2+y,z
1/2+x,1/2-y,z
loop_
_atom_site_type_symbol
_atom_site_label
_atom_site_fract_x
_atom_site_fract_y
_atom_site_fract_z
Si Si1 0.221767 0.535627 0.000000
Si Si2 0.891114 0.912706 0.500000
Si Si3 0.344692 0.350933 0.000000
Si Si4 0.962082 0.241523 0.500000
Si Si5 0.557218 0.878332 0.705357
Si Si6 0.564888 0.583814 0.823141
Si Si7 0.671968 0.383259 0.290471
Si Si8 0.190594 0.458713 0.782094
O O1 0.301331 0.502989 0.000000
O O2 0.193902 0.470220 0.898816
O O3 0.206560 0.712418 0.000000
O O4 0.847215 0.885230 0.596371
O O5 0.958582 0.807410 0.500000
O O6 0.919424 0.085041 0.500000
O O7 0.389964 0.345606 0.906261
O O8 0.944055 0.340152 0.407200
O O9 0.541525 0.719134 0.755172
O O10 0.500000 0.000000 0.728613
O O11 0.628682 0.941615 0.742111
O O12 0.500000 0.500000 0.864499
O O13 0.610380 0.467430 0.763004
O O14 0.680818 0.213221 0.251983
O O15 0.739789 0.474820 0.262005
#
# Coordination Sequence:
#
# PCOD9429125 Si02
#       8
#     4   4   4   4   8   8   8   8
#     4  12  24  46  72 100 139 180 238 288 353 430
#     4  11  24  43  71 106 141 181 236 288 350 423
#     4  12  25  44  70 102 136 187 232 295 355 429
#     4  11  23  43  73 102 138 193 231 282 354 431
#     4  12  25  45  72 103 143 188 238 292 350 427
#     4  12  24  44  68 102 142 185 236 291 353 421
#     4  12  26  45  71 104 142 188 235 295 356 419
#     4  12  26  46  72 103 139 187 238 297 358 423
#
# _framework density 19.774305999999999
#
# number of rings (size 3 to 8) (size 9 to 14) (size 15 to 20)
#    0.000    0.167    5.000    5.500    0.000    2.000 
#    0.000    3.333    0.000    0.000    0.000    0.000 
#    0.000    0.000    0.000    0.000    0.000    0.000 
#
# Total GULP energy -268600.388008 kJ/mol
# GULP energy per Si atom -5595.841417 kJ/mol
# Density = 1.972930 g / cm^3
# Si number density = 19.774306 Si / 1000 Ang^3
#
#
#
# Elastic Constant Matrix: (Units=GPa)
#
#
# Indices 1 2 3 4 5 6 
#
# 1 108.4859 35.7298 43.8708 0.0000 0.0000 0.0000
# 2 35.7298 98.2089 24.4439 0.0000 0.0000 0.0000
# 3 43.8708 24.4439 153.1883 0.0000 0.0000 0.0000
# 4 0.0000 0.0000 0.0000 31.3256 0.0000 0.0000
# 5 0.0000 0.0000 0.0000 0.0000 602.6444 0.0000
# 6 0.0000 0.0000 0.0000 0.0000 0.0000 45.5562
#
#
#
# Elastic Compliance Matrix: (Units=1/GPa)
#
#
# Indices 1 2 3 4 5 6 
#
# 1 0.011472 -0.003495 -0.002728 0.000000 0.000000 0.000000
# 2 -0.003495 0.011668 -0.000861 0.000000 0.000000 0.000000
# 3 -0.002728 -0.000861 0.007446 0.000000 0.000000 0.000000
# 4 0.000000 0.000000 0.000000 0.031923 0.000000 0.000000
# 5 0.000000 0.000000 0.000000 0.000000 0.001659 0.000000
# 6 0.000000 0.000000 0.000000 0.000000 0.000000 0.021951
#
#
# Mechanical properties :
#
#
# Convention : Reuss Voigt Hill
#
# Bulk Modulus (GPa) = 60.90302 63.10799 62.00550
# Shear Modulus (GPa) = 47.27707 152.96114 100.11911
#
# Velocity S-wave (km/s) = 4.89492 8.80462 7.12326
# Velocity P-wave (km/s) = 7.92546 11.63380 9.95385
#
# Compressibility (1/GPa) = 0.01641955
#
# Stress axis : x y z
#
# Youngs Moduli (GPa) = 87.17003 85.70374 134.29165
#
# Poissons Ratio (x) = 0.29951 0.36631
# Poissons Ratio (y) = 0.30463 0.11563
# Poissons Ratio (z) = 0.23778 0.07379
#
# Static dielectric constant tensor:
#      x y z
#    x 1.669880 0.000000 0.000000 
#    y 0.000000 1.670760 0.000000 
#    z 0.000000 0.000000 1.696920 
# 
# From -- ./inp_files/19411.got.cif
#   From: 2010.05.17/outbox.cif.g08.bks.cpg/sg55_10_cif.got.tgz:19411.got - 2010.06.03 13:27:54.
