data_PCOD9429200
_publ_section_title
;
Structure prediction by ZEFSAII (Michael W. Deem and Ramdas Pophale) SiO2 
 PCOD9429200
Probable space group: P B A M
;
_chemical_formula_sum "Si O2"
_cell_formula_units_Z 36
_cell_length_a 26.706272
_cell_length_b 6.706794
_cell_length_c 7.172633
_cell_angle_alpha 90.000000
_cell_angle_beta 90.000000
_cell_angle_gamma 90.000000
_cell_volume 1284.715148
_symmetry_space_group_name_H-M "P B A M"
_symmetry_group_IT_number 55
_symmetry_cell_setting 'orthorhombic'
loop_
_space_group_symop_operation_xyz
x,y,z
-x,-y,z
1/2+x,1/2-y,-z
1/2-x,1/2+y,-z
-x,-y,-z
x,y,-z
1/2-x,1/2+y,z
1/2+x,1/2-y,z
loop_
_atom_site_type_symbol
_atom_site_label
_atom_site_fract_x
_atom_site_fract_y
_atom_site_fract_z
Si Si1 0.323624 0.911305 0.782452
Si Si2 0.566854 0.179494 0.225225
Si Si3 0.852480 0.117872 0.217433
Si Si4 0.232197 0.951342 0.500000
Si Si5 0.039631 0.781389 0.225794
O O1 0.375099 0.801801 0.721062
O O2 0.274591 0.892135 0.658390
O O3 0.338233 0.146490 0.768403
O O4 0.313581 0.868765 0.000000
O O5 0.518045 0.304387 0.287472
O O6 0.552656 0.949768 0.268128
O O7 0.567475 0.195829 0.000000
O O8 0.810034 0.018358 0.338533
O O9 0.910119 0.103128 0.283108
O O10 0.850365 0.064313 0.000000
O O11 0.039001 0.800966 0.000000
#
# Coordination Sequence:
#
# PCOD9429200 Si02
#       5
#     8   8   8   4   8
#     4   9  18  31  45  63  89 119 148 178 213 254
#     4   7  10  20  40  62  83 109 137 164 203 259
#     4   9  18  31  45  63  89 119 148 178 213 254
#     4  12  20  28  42  62  88 122 156 182 208 242
#     4   7  10  20  40  62  83 109 137 164 203 259
#
# _framework density 28.021775999999999
#
# number of rings (size 3 to 8) (size 9 to 14) (size 15 to 20)
#    0.000    3.556    0.000    5.333    0.000    0.000 
#    0.000    1.111    0.000    5.333    0.000    0.000 
#    0.000   14.222    0.000   65.778    0.000    3.556 
#
# Total GULP energy -200576.176425 kJ/mol
# GULP energy per Si atom -5571.560456 kJ/mol
# Density = 2.795800 g / cm^3
# Si number density = 28.021776 Si / 1000 Ang^3
#
#
#
# Elastic Constant Matrix: (Units=GPa)
#
#
# Indices 1 2 3 4 5 6 
#
# 1 416.4472 75.5677 114.6147 0.0000 0.0000 0.0000
# 2 75.5677 102.4487 7.4760 0.0000 0.0000 0.0000
# 3 114.6147 7.4760 167.5571 0.0000 0.0000 0.0000
# 4 0.0000 0.0000 0.0000 17.3417 0.0000 0.0000
# 5 0.0000 0.0000 0.0000 0.0000 164.8246 0.0000
# 6 0.0000 0.0000 0.0000 0.0000 0.0000 -122.6315
#
#
#
# Elastic Compliance Matrix: (Units=1/GPa)
#
#
# Indices 1 2 3 4 5 6 
#
# 1 0.003455 -0.002384 -0.002257 0.000000 0.000000 0.000000
# 2 -0.002384 0.011438 0.001120 0.000000 0.000000 0.000000
# 3 -0.002257 0.001120 0.007462 0.000000 0.000000 0.000000
# 4 0.000000 0.000000 0.000000 0.057664 0.000000 0.000000
# 5 0.000000 0.000000 0.000000 0.000000 0.006067 0.000000
# 6 0.000000 0.000000 0.000000 0.000000 0.000000 -0.008155
#
#
# Mechanical properties :
#
#
# Convention : Reuss Voigt Hill
#
# Bulk Modulus (GPa) = 65.30162 120.19665 92.74913
# Shear Modulus (GPa) = 55.50817 44.49328 50.00072
#
# Velocity S-wave (km/s) = 4.45555 3.98906 4.22874
# Velocity P-wave (km/s) = 7.05859 8.01273 7.55075
#
# Compressibility (1/GPa) = 0.01531356
#
# Stress axis : x y z
#
# Youngs Moduli (GPa) = 289.43744 87.43147 134.01281
#
# Poissons Ratio (x) = 0.20841 0.30246
# Poissons Ratio (y) = 0.68995 -0.15013
# Poissons Ratio (z) = 0.65325 -0.09795
#
# Static dielectric constant tensor:
#      x y z
#    x 2.054220 0.000000 0.000000 
#    y 0.000000 2.441380 0.000000 
#    z 0.000000 0.000000 2.025080 
# 
# From -- ./inp_files/3930.got.cif
#   From: 2010.05.17/outbox.cif.g08.bks.cpg/sg55_2_cif.got.tgz:3930.got - 2010.06.03 13:27:54.
