data_PCOD9429615
_publ_section_title
;
Structure prediction by ZEFSAII (Michael W. Deem and Ramdas Pophale) SiO2 
 PCOD9429615
Probable space group: P C C N
;
_chemical_formula_sum "Si O2"
_cell_formula_units_Z 48
_cell_length_a 26.900474
_cell_length_b 6.978820
_cell_length_c 9.631684
_cell_angle_alpha 90.000000
_cell_angle_beta 90.000000
_cell_angle_gamma 90.000000
_cell_volume 1808.190384
_symmetry_space_group_name_H-M "P C C N"
_symmetry_group_IT_number 56
_symmetry_cell_setting 'orthorhombic'
loop_
_space_group_symop_operation_xyz
x,y,z
1/2-x,1/2-y,z
1/2+x,-y,1/2-z
-x,1/2+y,1/2-z
-x,-y,-z
1/2+x,1/2+y,-z
1/2-x,y,1/2+z
x,1/2-y,1/2+z
loop_
_atom_site_type_symbol
_atom_site_label
_atom_site_fract_x
_atom_site_fract_y
_atom_site_fract_z
Si Si1 0.582958 0.827733 0.328024
Si Si2 0.144147 0.705232 0.995666
Si Si3 0.072693 0.990247 0.872247
Si Si4 0.261993 0.523123 0.392262
Si Si5 0.456542 0.597269 0.415975
Si Si6 0.809161 0.553439 0.376465
O O1 0.569755 0.888461 0.484920
O O2 0.563929 0.989871 0.220071
O O3 0.643477 0.823158 0.335376
O O4 0.466727 0.817493 0.373420
O O5 0.125141 0.870319 0.884123
O O6 0.182070 0.539495 0.952928
O O7 0.090631 0.614958 0.020504
O O8 0.168592 0.836176 0.113114
O O9 0.066427 0.134310 0.747179
O O10 0.250000 0.750000 0.391238
O O11 0.267043 0.449098 0.238514
O O12 0.219662 0.419055 0.479810
O O13 0.500000 0.500000 0.500000
#
# Coordination Sequence:
#
# PCOD9429615 Si02
#       6
#     8   8   8   8   8   8
#     4  11  22  47  71 111 162 211 266 344 418 504
#     4   8  18  37  61 103 147 199 262 333 410 478
#     4   9  23  43  73 112 156 212 264 336 428 497
#     4  10  17  32  62 104 144 200 261 322 406 481
#     4  10  22  44  75 112 155 208 274 352 426 509
#     4  10  19  35  65 103 152 208 262 327 406 492
#
# _framework density 26.545877999999998
#
# number of rings (size 3 to 8) (size 9 to 14) (size 15 to 20)
#    1.000    1.333    1.667    1.500    0.000    2.000 
#    6.000    3.333    0.000   25.000    0.000    0.000 
#    0.000    0.000    0.000    0.000    0.000    0.000 
#
# Total GULP energy -268510.408781 kJ/mol
# GULP energy per Si atom -5593.966850 kJ/mol
# Density = 2.648546 g / cm^3
# Si number density = 26.545878 Si / 1000 Ang^3
#
#
#
# Elastic Constant Matrix: (Units=GPa)
#
#
# Indices 1 2 3 4 5 6 
#
# 1 124.7957 31.5116 35.6725 0.0000 0.0000 0.0000
# 2 31.5116 134.6992 68.4484 0.0000 0.0000 0.0000
# 3 35.6725 68.4484 141.2891 0.0000 0.0000 0.0000
# 4 0.0000 0.0000 0.0000 42.7777 0.0000 0.0000
# 5 0.0000 0.0000 0.0000 0.0000 39.1164 0.0000
# 6 0.0000 0.0000 0.0000 0.0000 0.0000 53.3378
#
#
#
# Elastic Compliance Matrix: (Units=1/GPa)
#
#
# Indices 1 2 3 4 5 6 
#
# 1 0.008788 -0.001232 -0.001622 0.000000 0.000000 0.000000
# 2 -0.001232 0.010021 -0.004544 0.000000 0.000000 0.000000
# 3 -0.001622 -0.004544 0.009689 0.000000 0.000000 0.000000
# 4 0.000000 0.000000 0.000000 0.023377 0.000000 0.000000
# 5 0.000000 0.000000 0.000000 0.000000 0.025565 0.000000
# 6 0.000000 0.000000 0.000000 0.000000 0.000000 0.018748
#
#
# Mechanical properties :
#
#
# Convention : Reuss Voigt Hill
#
# Bulk Modulus (GPa) = 72.97992 74.67210 73.82601
# Shear Modulus (GPa) = 43.27152 44.72315 43.99734
#
# Velocity S-wave (km/s) = 4.04179 4.10902 4.07554
# Velocity P-wave (km/s) = 7.02375 7.12058 7.07233
#
# Compressibility (1/GPa) = 0.01370240
#
# Stress axis : x y z
#
# Youngs Moduli (GPa) = 113.79496 99.79021 103.21510
#
# Poissons Ratio (x) = 0.12289 0.16742
# Poissons Ratio (y) = 0.14014 0.46899
# Poissons Ratio (z) = 0.18459 0.45343
#
# Static dielectric constant tensor:
#      x y z
#    x 2.164260 0.000000 0.000000 
#    y 0.000000 2.134690 0.000000 
#    z 0.000000 0.000000 2.057950 
# 
# From -- ./inp_files/8709.got.cif
#   From: 2010.05.17/outbox.cif.g08.bks.cpg/sg56_5_cif.got.tgz:8709.got - 2010.06.03 13:42:01.
