data_PCOD9429427
_publ_section_title
;
Structure prediction by ZEFSAII (Michael W. Deem and Ramdas Pophale) SiO2 
 PCOD9429427
Probable space group: P B A M
;
_chemical_formula_sum "Si O2"
_cell_formula_units_Z 56
_cell_length_a 15.000000
_cell_length_b 21.000000
_cell_length_c 9.000000
_cell_angle_alpha 90.000000
_cell_angle_beta 90.000000
_cell_angle_gamma 90.000000
_cell_volume 2835.000000
_symmetry_space_group_name_H-M "P B A M"
_symmetry_group_IT_number 55
_symmetry_cell_setting 'orthorhombic'
loop_
_space_group_symop_operation_xyz
x,y,z
-x,-y,z
1/2+x,1/2-y,-z
1/2-x,1/2+y,-z
-x,-y,-z
x,y,-z
1/2-x,1/2+y,z
1/2+x,1/2-y,z
loop_
_atom_site_type_symbol
_atom_site_label
_atom_site_fract_x
_atom_site_fract_y
_atom_site_fract_z
Si Si1 0.820094 0.263519 0.323535
Si Si2 0.505237 0.425250 0.321163
Si Si3 0.521514 0.831692 0.826232
Si Si4 0.856617 0.456369 0.827324
Si Si5 0.200258 0.115748 0.678018
Si Si6 0.670226 0.630994 0.823851
Si Si7 0.137994 0.407072 0.820158
O O1 0.816128 0.251689 0.500000
O O2 0.918466 0.287679 0.276913
O O3 0.747021 0.317194 0.283692
O O4 0.805639 0.201652 0.226738
O O5 0.500000 0.500000 0.282991
O O6 0.501660 0.419874 0.500000
O O7 0.599491 0.395693 0.269318
O O8 0.419677 0.391086 0.253892
O O9 0.573060 0.899331 0.822637
O O10 0.423012 0.848644 0.768157
O O11 0.521028 0.809923 0.000000
O O12 0.768647 0.436278 0.739765
O O13 0.895819 0.523404 0.775420
O O14 0.831134 0.464220 0.000000
O O15 0.199199 0.111532 0.500000
O O16 0.758642 0.592775 0.778798
O O17 0.659177 0.626616 0.000000
O O18 0.131681 0.401744 0.000000
#
# Coordination Sequence:
#
# PCOD9429427 Si02
#       7
#     8   8   8   8   8   8   8
#     4  10  21  38  55  74 104 138 177 222 268 318
#     4  10  21  38  59  83 112 146 183 224 274 327
#     4   9  17  32  55  80 106 137 172 209 254 311
#     4   9  16  29  53  82 109 137 169 207 254 309
#     4   9  19  35  55  78 106 142 179 218 265 318
#     4  11  23  37  54  77 106 139 179 225 267 312
#     4   9  18  32  51  78 109 137 167 208 258 311
#
# _framework density 19.753086
#
# number of rings (size 3 to 8) (size 9 to 14) (size 15 to 20)
#    0.000    2.429    0.000    2.143    0.000    4.286 
#    0.000    5.714    0.000    3.429    0.000    0.000 
#    0.000    0.000    0.000    0.000    0.000    0.000 
#
# Total GULP energy -312171.582343 kJ/mol
# GULP energy per Si atom -5574.492542 kJ/mol
# Density = 1.970813 g / cm^3
# Si number density = 19.753086 Si / 1000 Ang^3
#
#
#
# Elastic Constant Matrix: (Units=GPa)
#
#
# Indices 1 2 3 4 5 6 
#
# 1 112.6547 17.4321 19.5275 0.0000 0.0000 0.0000
# 2 17.4321 43.4054 7.2429 0.0000 0.0000 0.0000
# 3 19.5275 7.2429 -6.2271 0.0000 0.0000 0.0000
# 4 0.0000 0.0000 0.0000 28.4560 0.0000 0.0000
# 5 0.0000 0.0000 0.0000 0.0000 15.1928 0.0000
# 6 0.0000 0.0000 0.0000 0.0000 0.0000 15.3326
#
#
#
# Elastic Compliance Matrix: (Units=1/GPa)
#
#
# Indices 1 2 3 4 5 6 
#
# 1 0.007003 -0.005424 0.015652 0.000000 0.000000 0.000000
# 2 -0.005424 0.023495 0.010318 0.000000 0.000000 0.000000
# 3 0.015652 0.010318 -0.099505 0.000000 0.000000 0.000000
# 4 0.000000 0.000000 0.000000 0.035142 0.000000 0.000000
# 5 0.000000 0.000000 0.000000 0.000000 0.065821 0.000000
# 6 0.000000 0.000000 0.000000 0.000000 0.000000 0.065221
#
#
# Mechanical properties :
#
#
# Convention : Reuss Voigt Hill
#
# Bulk Modulus (GPa) = -35.82175 26.47087 -4.67544
# Shear Modulus (GPa) = 106.88267 18.83829 62.86048
#
# Velocity S-wave (km/s) = 7.36389 3.09154 5.64732
# Velocity P-wave (km/s) = 7.35719 5.11600 6.33647
#
# Compressibility (1/GPa) = -0.02791600
#
# Stress axis : x y z
#
# Youngs Moduli (GPa) = 142.79594 42.56171 -10.04973
#
# Poissons Ratio (x) = 0.23086 0.15729
# Poissons Ratio (y) = 0.77455 0.10369
# Poissons Ratio (z) = -2.23497 -0.43916
#
# Static dielectric constant tensor:
#      x y z
#    x 1.733460 0.000000 0.000000 
#    y 0.000000 1.724400 0.000000 
#    z 0.000000 0.000000 1.659560 
# 
# From -- ./inp_files/6124.got.cif
#   From: 2010.05.17/outbox.ucp.g08.bks.cvg/sg55_4_cif.got.tgz:6124.got - 2010.06.11 16:36:00.
