data_PCOD9429030
_publ_section_title
;
Structure prediction by ZEFSAII (Michael W. Deem and Ramdas Pophale) SiO2 
 PCOD9429030
Probable space group: P B A M
;
_chemical_formula_sum "Si O2"
_cell_formula_units_Z 64
_cell_length_a 14.570611
_cell_length_b 29.432563
_cell_length_c 7.573081
_cell_angle_alpha 90.000000
_cell_angle_beta 90.000000
_cell_angle_gamma 90.000000
_cell_volume 3247.719015
_symmetry_space_group_name_H-M "P B A M"
_symmetry_group_IT_number 55
_symmetry_cell_setting 'orthorhombic'
loop_
_space_group_symop_operation_xyz
x,y,z
-x,-y,z
1/2+x,1/2-y,-z
1/2-x,1/2+y,-z
-x,-y,-z
x,y,-z
1/2-x,1/2+y,z
1/2+x,1/2-y,z
loop_
_atom_site_type_symbol
_atom_site_label
_atom_site_fract_x
_atom_site_fract_y
_atom_site_fract_z
Si Si1 0.013397 0.198871 0.788163
Si Si2 0.375939 0.378444 0.296435
Si Si3 0.132836 0.627006 0.215108
Si Si4 0.161871 0.377548 0.212849
Si Si5 0.018558 0.301962 0.215964
Si Si6 0.989124 0.551473 0.215642
Si Si7 0.478480 0.548930 0.797263
Si Si8 0.841885 0.875599 0.217036
O O1 0.921890 0.169984 0.749106
O O2 0.016960 0.250239 0.721060
O O3 0.097942 0.167679 0.726395
O O4 0.020068 0.201432 0.000000
O O5 0.394030 0.387232 0.500000
O O6 0.267612 0.378587 0.265071
O O7 0.432794 0.418161 0.200347
O O8 0.072440 0.670388 0.269133
O O9 0.075193 0.582675 0.268198
O O10 0.237238 0.626734 0.275381
O O11 0.134433 0.627237 0.000000
O O12 0.105693 0.332630 0.271180
O O13 0.102330 0.421290 0.271537
O O14 0.159362 0.377423 0.000000
O O15 0.019708 0.301351 0.000000
O O16 0.000000 0.500000 0.276936
O O17 0.987537 0.550633 0.000000
O O18 0.500000 0.500000 0.715312
O O19 0.396472 0.579627 0.721408
O O20 0.450664 0.539767 0.000000
O O21 0.843109 0.875919 0.000000
#
# Coordination Sequence:
#
# PCOD9429030 Si02
#       8
#     8   8   8   8   8   8   8   8
#     4   9  17  31  49  69  93 122 159 201 244 288
#     4  11  22  34  48  69  99 134 167 200 242 290
#     4   8  13  22  37  63  95 118 142 183 235 285
#     4   9  17  31  50  73 100 128 162 203 243 286
#     4   8  15  27  46  71  95 120 153 197 244 284
#     4   8  14  24  41  68  99 125 150 188 238 285
#     4   9  18  33  52  73  95 122 159 202 246 289
#     4   8  14  24  40  64  92 116 140 180 234 287
#
# _framework density 19.706139
#
# number of rings (size 3 to 8) (size 9 to 14) (size 15 to 20)
#    0.000    3.250    0.000    3.375    0.000    2.250 
#    0.000    8.125    0.000    0.375    0.000   14.000 
#    0.000    0.000    0.000    0.000    0.000    0.000 
#
# Total GULP energy -356790.398343 kJ/mol
# GULP energy per Si atom -5574.849974 kJ/mol
# Density = 1.966129 g / cm^3
# Si number density = 19.706139 Si / 1000 Ang^3
#
#
#
# Elastic Constant Matrix: (Units=GPa)
#
#
# Indices 1 2 3 4 5 6 
#
# 1 165.2964 70.2397 -7.6840 0.0000 0.0000 0.0000
# 2 70.2397 159.2106 0.8015 0.0000 0.0000 0.0000
# 3 -7.6840 0.8015 45.0921 0.0000 0.0000 0.0000
# 4 0.0000 0.0000 0.0000 249.3956 0.0000 0.0000
# 5 0.0000 0.0000 0.0000 0.0000 -21.7576 0.0000
# 6 0.0000 0.0000 0.0000 0.0000 0.0000 6.2867
#
#
#
# Elastic Compliance Matrix: (Units=1/GPa)
#
#
# Indices 1 2 3 4 5 6 
#
# 1 0.007526 -0.003327 0.001342 0.000000 0.000000 0.000000
# 2 -0.003327 0.007752 -0.000705 0.000000 0.000000 0.000000
# 3 0.001342 -0.000705 0.022418 0.000000 0.000000 0.000000
# 4 0.000000 0.000000 0.000000 0.004010 0.000000 0.000000
# 5 0.000000 0.000000 0.000000 0.000000 -0.045961 0.000000
# 6 0.000000 0.000000 0.000000 0.000000 0.000000 0.159065
#
#
# Mechanical properties :
#
#
# Convention : Reuss Voigt Hill
#
# Bulk Modulus (GPa) = 30.94448 55.14594 43.04521
# Shear Modulus (GPa) = 29.24618 67.20107 48.22362
#
# Velocity S-wave (km/s) = 3.85660 5.84599 4.95222
# Velocity P-wave (km/s) = 5.96391 8.57977 7.38852
#
# Compressibility (1/GPa) = 0.03231594
#
# Stress axis : x y z
#
# Youngs Moduli (GPa) = 132.87559 128.99383 44.60702
#
# Poissons Ratio (x) = 0.42916 -0.05984
# Poissons Ratio (y) = 0.44207 0.03144
# Poissons Ratio (z) = -0.17826 0.09091
#
# Static dielectric constant tensor:
#      x y z
#    x 1.659440 0.000000 0.000000 
#    y 0.000000 1.690410 0.000000 
#    z 0.000000 0.000000 1.721720 
# 
# From -- ./inp_files/6941.got.cif
#   From: 2010.05.17/outbox.cif.g08.bks.cpg/sg55_4_cif.got.tgz:6941.got - 2010.06.03 13:27:54.
