data_PCOD9429903
_publ_section_title
;
Structure prediction by ZEFSAII (Michael W. Deem and Ramdas Pophale) SiO2 
 PCOD9429903
Probable space group: P C C N
;
_chemical_formula_sum "Si O2"
_cell_formula_units_Z 64
_cell_length_a 28.239708
_cell_length_b 11.642134
_cell_length_c 9.064123
_cell_angle_alpha 90.000000
_cell_angle_beta 90.000000
_cell_angle_gamma 90.000000
_cell_volume 2980.015930
_symmetry_space_group_name_H-M "P C C N"
_symmetry_group_IT_number 56
_symmetry_cell_setting 'orthorhombic'
loop_
_space_group_symop_operation_xyz
x,y,z
1/2-x,1/2-y,z
1/2+x,-y,1/2-z
-x,1/2+y,1/2-z
-x,-y,-z
1/2+x,1/2+y,-z
1/2-x,y,1/2+z
x,1/2-y,1/2+z
loop_
_atom_site_type_symbol
_atom_site_label
_atom_site_fract_x
_atom_site_fract_y
_atom_site_fract_z
Si Si1 0.462424 0.261279 0.547559
Si Si2 0.216047 0.854362 0.814867
Si Si3 0.431191 0.088943 0.303339
Si Si4 0.329573 0.094586 0.012697
Si Si5 0.876594 0.400768 0.823989
Si Si6 0.980591 0.372043 0.790993
Si Si7 0.230152 0.494215 0.572881
Si Si8 0.304351 0.219788 0.744960
O O1 0.438645 0.161538 0.449727
O O2 0.428596 0.327825 0.661047
O O3 0.501554 0.204137 0.654546
O O4 0.485051 0.348101 0.428224
O O5 0.250000 0.750000 0.853823
O O6 0.167732 0.826562 0.727722
O O7 0.246316 0.935022 0.705810
O O8 0.203485 0.921891 0.963084
O O9 0.524366 0.996129 0.736082
O O10 0.389047 0.996929 0.301090
O O11 0.276134 0.050658 0.984660
O O12 0.323483 0.170092 0.159561
O O13 0.361285 0.982386 0.039471
O O14 0.338361 0.178580 0.876185
O O15 0.927025 0.340435 0.842162
O O16 0.201271 0.386278 0.632137
O O17 0.250000 0.250000 0.792630
#
# Coordination Sequence:
#
# PCOD9429903 Si02
#       8
#     8   8   8   8   8   8   8   8
#     4  10  18  37  71  90 121 173 198 233 335 385
#     4  11  22  41  59  79 113 167 209 254 305 353
#     4   9  20  37  62  96 126 156 205 253 300 389
#     4  10  20  34  55  81 116 148 187 244 312 350
#     4   9  23  39  57  87 131 147 206 270 291 351
#     4   9  20  39  60  93 126 161 204 257 302 383
#     4  10  20  37  58  80 104 148 207 247 298 366
#     4  10  19  32  58  82 103 147 193 247 303 377
#
# _framework density 21.476395
#
# number of rings (size 3 to 8) (size 9 to 14) (size 15 to 20)
#    0.750    1.500    1.250    2.250    3.500    1.000 
#    6.750    0.000    2.750    0.000    0.000    0.000 
#    0.000    0.000    0.000    0.000    0.000    0.000 
#
# Total GULP energy -356857.358957 kJ/mol
# GULP energy per Si atom -5575.896234 kJ/mol
# Density = 2.142751 g / cm^3
# Si number density = 21.476395 Si / 1000 Ang^3
#
#
#
# Elastic Constant Matrix: (Units=GPa)
#
#
# Indices 1 2 3 4 5 6 
#
# 1 65.4538 9.9803 10.3819 0.0000 0.0000 0.0000
# 2 9.9803 44.0782 6.5840 0.0000 0.0000 0.0000
# 3 10.3819 6.5840 74.4500 0.0000 0.0000 0.0000
# 4 0.0000 0.0000 0.0000 29.5319 0.0000 0.0000
# 5 0.0000 0.0000 0.0000 0.0000 2.6000 0.0000
# 6 0.0000 0.0000 0.0000 0.0000 0.0000 31.9870
#
#
#
# Elastic Compliance Matrix: (Units=1/GPa)
#
#
# Indices 1 2 3 4 5 6 
#
# 1 0.016098 -0.003354 -0.001948 0.000000 0.000000 0.000000
# 2 -0.003354 0.023689 -0.001627 0.000000 0.000000 0.000000
# 3 -0.001948 -0.001627 0.013847 0.000000 0.000000 0.000000
# 4 0.000000 0.000000 0.000000 0.033862 0.000000 0.000000
# 5 0.000000 0.000000 0.000000 0.000000 0.384620 0.000000
# 6 0.000000 0.000000 0.000000 0.000000 0.000000 0.031263
#
#
# Mechanical properties :
#
#
# Convention : Reuss Voigt Hill
#
# Bulk Modulus (GPa) = 25.14070 26.43048 25.78559
# Shear Modulus (GPa) = 9.42511 23.29281 16.35896
#
# Velocity S-wave (km/s) = 2.09717 3.29686 2.76292
# Velocity P-wave (km/s) = 4.19473 5.17937 4.71284
#
# Compressibility (1/GPa) = 0.03977615
#
# Stress axis : x y z
#
# Youngs Moduli (GPa) = 62.11799 42.21289 72.21559
#
# Poissons Ratio (x) = 0.14158 0.14070
# Poissons Ratio (y) = 0.20834 0.11751
# Poissons Ratio (z) = 0.12102 0.06869
#
# Static dielectric constant tensor:
#      x y z
#    x 1.824760 0.000000 0.000000 
#    y 0.000000 1.804080 0.000000 
#    z 0.000000 0.000000 1.778240 
# 
# From -- ./inp_files/5214.got.cif
#   From: 2010.05.17/outbox.cif.g08.bks.cpg/sg56_3_cif.got.tgz:5214.got - 2010.06.03 13:42:01.
