data_PCOD9429531
_publ_section_title
;
Structure prediction by ZEFSAII (Michael W. Deem and Ramdas Pophale) SiO2 
 PCOD9429531
Probable space group: P C C N
;
_chemical_formula_sum "Si O2"
_cell_formula_units_Z 32
_cell_length_a 28.946670
_cell_length_b 8.321689
_cell_length_c 5.558148
_cell_angle_alpha 90.000000
_cell_angle_beta 90.000000
_cell_angle_gamma 90.000000
_cell_volume 1338.875511
_symmetry_space_group_name_H-M "P C C N"
_symmetry_group_IT_number 56
_symmetry_cell_setting 'orthorhombic'
loop_
_space_group_symop_operation_xyz
x,y,z
1/2-x,1/2-y,z
1/2+x,-y,1/2-z
-x,1/2+y,1/2-z
-x,-y,-z
1/2+x,1/2+y,-z
1/2-x,y,1/2+z
x,1/2-y,1/2+z
loop_
_atom_site_type_symbol
_atom_site_label
_atom_site_fract_x
_atom_site_fract_y
_atom_site_fract_z
Si Si1 0.537861 0.621454 0.100676
Si Si2 0.767857 0.940309 0.001169
Si Si3 0.136176 0.163299 0.104898
Si Si4 0.949855 0.175158 0.365581
O O1 0.582165 0.629670 0.930910
O O2 0.556054 0.515080 0.327720
O O3 0.504512 0.773277 0.140936
O O4 0.500000 0.500000 0.000000
O O5 0.750000 0.750000 0.009239
O O6 0.756260 0.007415 0.262858
O O7 0.822516 0.956848 0.954630
O O8 0.143771 0.286617 0.880789
O O9 0.931274 0.237474 0.622345
#
# Coordination Sequence:
#
# PCOD9429531 Si02
#       4
#     8   8   8   8
#     4  10  22  37  53  78 109 147 184 223 262 321
#     4  10  16  31  48  72 107 138 164 222 276 331
#     4  12  21  32  53  78 107 149 179 215 279 330
#     4  10  20  36  53  70 103 141 176 222 259 299
#
# _framework density 23.900652999999998
#
# number of rings (size 3 to 8) (size 9 to 14) (size 15 to 20)
#    0.000    1.500    5.000    3.750    0.000    4.000 
#    0.000    0.000    0.000    0.000    0.000    0.000 
#    0.000   24.000    0.000    0.000    0.000    0.000 
#
# Total GULP energy -178166.788743 kJ/mol
# GULP energy per Si atom -5567.712148 kJ/mol
# Density = 2.384625 g / cm^3
# Si number density = 23.900653 Si / 1000 Ang^3
#
#
#
# Elastic Constant Matrix: (Units=GPa)
#
#
# Indices 1 2 3 4 5 6 
#
# 1 88.8798 -14.6911 -16.1901 0.0000 0.0000 0.0000
# 2 -14.6911 15.8618 8.5430 0.0000 0.0000 0.0000
# 3 -16.1901 8.5430 138.4284 0.0000 0.0000 0.0000
# 4 0.0000 0.0000 0.0000 28.0172 0.0000 0.0000
# 5 0.0000 0.0000 0.0000 0.0000 37.1991 0.0000
# 6 0.0000 0.0000 0.0000 0.0000 0.0000 5.9017
#
#
#
# Elastic Compliance Matrix: (Units=1/GPa)
#
#
# Indices 1 2 3 4 5 6 
#
# 1 0.013376 0.011943 0.000827 0.000000 0.000000 0.000000
# 2 0.011943 0.075876 -0.003286 0.000000 0.000000 0.000000
# 3 0.000827 -0.003286 0.007523 0.000000 0.000000 0.000000
# 4 0.000000 0.000000 0.000000 0.035692 0.000000 0.000000
# 5 0.000000 0.000000 0.000000 0.000000 0.026882 0.000000
# 6 0.000000 0.000000 0.000000 0.000000 0.000000 0.169442
#
#
# Mechanical properties :
#
#
# Convention : Reuss Voigt Hill
#
# Bulk Modulus (GPa) = 8.63968 22.05483 15.34726
# Shear Modulus (GPa) = 14.35115 31.92416 23.13766
#
# Velocity S-wave (km/s) = 2.45307 3.65869 3.11477
# Velocity P-wave (km/s) = 3.41263 5.20536 4.40124
#
# Compressibility (1/GPa) = 0.11574499
#
# Stress axis : x y z
#
# Youngs Moduli (GPa) = 74.76097 13.17939 132.91703
#
# Poissons Ratio (x) = -0.15740 -0.10997
# Poissons Ratio (y) = -0.89288 0.43673
# Poissons Ratio (z) = -0.06185 0.04330
#
# Static dielectric constant tensor:
#      x y z
#    x 1.901100 0.000000 0.000000 
#    y 0.000000 2.206000 0.000000 
#    z 0.000000 0.000000 2.176070 
# 
# From -- ./inp_files/111.got.cif
#   From: 2010.05.17/outbox.cif.g08.bks.cpg/sg56_1_cif.got.tgz:111.got - 2010.06.03 13:42:01.
