data_PCOD9429794
_publ_section_title
;
Structure prediction by ZEFSAII (Michael W. Deem and Ramdas Pophale) SiO2 
 PCOD9429794
Probable space group: P C C N
;
_chemical_formula_sum "Si O2"
_cell_formula_units_Z 52
_cell_length_a 9.503340
_cell_length_b 19.489582
_cell_length_c 14.891151
_cell_angle_alpha 90.000000
_cell_angle_beta 90.000000
_cell_angle_gamma 90.000000
_cell_volume 2758.081273
_symmetry_space_group_name_H-M "P C C N"
_symmetry_group_IT_number 56
_symmetry_cell_setting 'orthorhombic'
loop_
_space_group_symop_operation_xyz
x,y,z
1/2-x,1/2-y,z
1/2+x,-y,1/2-z
-x,1/2+y,1/2-z
-x,-y,-z
1/2+x,1/2+y,-z
1/2-x,y,1/2+z
x,1/2-y,1/2+z
loop_
_atom_site_type_symbol
_atom_site_label
_atom_site_fract_x
_atom_site_fract_y
_atom_site_fract_z
Si Si1 0.750000 0.750000 0.981166
Si Si2 0.444964 0.419286 0.788475
Si Si3 0.048095 0.128371 0.985316
Si Si4 0.735119 0.393307 0.083296
Si Si5 0.724839 0.520204 0.449977
Si Si6 0.276843 0.981335 0.749939
Si Si7 0.463245 0.145363 0.102467
O O1 0.638498 0.794089 0.925450
O O2 0.848450 0.806804 0.028357
O O3 0.492475 0.395879 0.885828
O O4 0.289738 0.450707 0.792870
O O5 0.554820 0.477070 0.754477
O O6 0.451368 0.364302 0.709569
O O7 0.138070 0.068244 0.033828
O O8 0.907689 0.138319 0.044075
O O9 0.725578 0.419303 0.186542
O O10 0.874078 0.346795 0.076711
O O11 0.770012 0.462396 0.026047
O O12 0.728548 0.483455 0.353200
O O13 0.597525 0.575204 0.443600
#
# Coordination Sequence:
#
# PCOD9429794 Si02
#       7
#     4   8   8   8   8   8   8
#     4  10  24  44  56  76 110 158 202 238 280 338
#     4  10  19  35  56  88 116 152 183 233 289 351
#     4  11  21  37  62  82 117 157 197 234 286 337
#     4  11  19  33  60  87 116 146 185 240 290 342
#     4  10  18  34  56  89 122 147 177 231 291 352
#     4  10  19  31  54  90 124 142 181 227 295 350
#     4   9  22  36  57  80 116 152 187 234 283 335
#
# _framework density 18.853686
#
# number of rings (size 3 to 8) (size 9 to 14) (size 15 to 20)
#    0.000    1.846    3.077    1.846    0.000    1.231 
#    0.000    0.000    3.385    1.846    0.000    0.000 
#    0.000    0.000    0.000    0.000    0.000    0.000 
#
# Total GULP energy -289706.043857 kJ/mol
# GULP energy per Si atom -5571.270074 kJ/mol
# Density = 1.881077 g / cm^3
# Si number density = 18.853686 Si / 1000 Ang^3
#
#
#
# Elastic Constant Matrix: (Units=GPa)
#
#
# Indices 1 2 3 4 5 6 
#
# 1 122.1632 33.5342 21.7740 0.0000 0.0000 0.0000
# 2 33.5342 47.7380 16.5521 0.0000 0.0000 0.0000
# 3 21.7740 16.5521 47.6355 0.0000 0.0000 0.0000
# 4 0.0000 0.0000 0.0000 7.5717 0.0000 0.0000
# 5 0.0000 0.0000 0.0000 0.0000 21.8596 0.0000
# 6 0.0000 0.0000 0.0000 0.0000 0.0000 21.8452
#
#
#
# Elastic Compliance Matrix: (Units=1/GPa)
#
#
# Indices 1 2 3 4 5 6 
#
# 1 0.010401 -0.006433 -0.002519 0.000000 0.000000 0.000000
# 2 -0.006433 0.027796 -0.006718 0.000000 0.000000 0.000000
# 3 -0.002519 -0.006718 0.024478 0.000000 0.000000 0.000000
# 4 0.000000 0.000000 0.000000 0.132070 0.000000 0.000000
# 5 0.000000 0.000000 0.000000 0.000000 0.045746 0.000000
# 6 0.000000 0.000000 0.000000 0.000000 0.000000 0.045777
#
#
# Mechanical properties :
#
#
# Convention : Reuss Voigt Hill
#
# Bulk Modulus (GPa) = 31.91247 40.13971 36.02609
# Shear Modulus (GPa) = 15.24149 19.96708 17.60428
#
# Velocity S-wave (km/s) = 2.84634 3.25784 3.05902
# Velocity P-wave (km/s) = 5.26928 5.95716 5.62375
#
# Compressibility (1/GPa) = 0.03133572
#
# Stress axis : x y z
#
# Youngs Moduli (GPa) = 96.14921 35.97685 40.85233
#
# Poissons Ratio (x) = 0.23143 0.10290
# Poissons Ratio (y) = 0.61849 0.27444
# Poissons Ratio (z) = 0.24219 0.24169
#
# Static dielectric constant tensor:
#      x y z
#    x 1.680170 0.000000 0.000000 
#    y 0.000000 1.676430 0.000000 
#    z 0.000000 0.000000 1.662180 
# 
# From -- ./inp_files/10826.got.cif
#   From: 2010.05.17/outbox.cif.g08.bks.cpg/sg56_6_cif.got.tgz:10826.got - 2010.06.03 13:42:01.
