data_PCOD9429081
_publ_section_title
;
Structure prediction by ZEFSAII (Michael W. Deem and Ramdas Pophale) SiO2 
 PCOD9429081
Probable space group: P B A M
;
_chemical_formula_sum "Si O2"
_cell_formula_units_Z 40
_cell_length_a 9.861945
_cell_length_b 9.813483
_cell_length_c 20.904833
_cell_angle_alpha 90.000000
_cell_angle_beta 90.000000
_cell_angle_gamma 90.000000
_cell_volume 2023.170357
_symmetry_space_group_name_H-M "P B A M"
_symmetry_group_IT_number 55
_symmetry_cell_setting 'orthorhombic'
loop_
_space_group_symop_operation_xyz
x,y,z
-x,-y,z
1/2+x,1/2-y,-z
1/2-x,1/2+y,-z
-x,-y,-z
x,y,-z
1/2-x,1/2+y,z
1/2+x,1/2-y,z
loop_
_atom_site_type_symbol
_atom_site_label
_atom_site_fract_x
_atom_site_fract_y
_atom_site_fract_z
Si Si1 0.973507 0.338435 0.426815
Si Si2 0.162767 0.996989 0.266850
Si Si3 0.224927 0.250253 0.653867
Si Si4 0.193202 0.907967 0.876885
Si Si5 0.090353 0.192116 0.074932
O O1 0.989252 0.291271 0.500000
O O2 0.080183 0.269811 0.379072
O O3 0.000000 0.500000 0.425491
O O4 0.826030 0.306227 0.399697
O O5 0.215514 0.144636 0.287698
O O6 0.218614 0.891278 0.318828
O O7 0.208751 0.949907 0.196886
O O8 0.000000 0.000000 0.267086
O O9 0.316981 0.815757 0.900649
O O10 0.051573 0.826345 0.887525
O O11 0.171205 0.049861 0.914731
O O12 0.059887 0.208560 0.000000
#
# Coordination Sequence:
#
# PCOD9429081 Si02
#       5
#     8   8   8   8   8
#     4  11  24  43  65  97 133 170 220 271 323 383
#     4  12  24  42  66  94 135 164 218 265 322 390
#     4  12  24  43  67  97 128 177 213 270 326 380
#     4  11  24  42  64  97 128 171 213 266 323 384
#     4  11  22  42  66  93 130 168 213 264 321 384
#
# _framework density 19.770949000000002
#
# number of rings (size 3 to 8) (size 9 to 14) (size 15 to 20)
#    0.000    0.600    6.000    4.200    0.000    0.800 
#    0.000    3.000    0.000    0.000    0.000    0.000 
#    0.000    0.000    0.000    0.000    0.000    0.000 
#
# Total GULP energy -223721.428721 kJ/mol
# GULP energy per Si atom -5593.035718 kJ/mol
# Density = 1.972595 g / cm^3
# Si number density = 19.770949 Si / 1000 Ang^3
#
#
#
# Elastic Constant Matrix: (Units=GPa)
#
#
# Indices 1 2 3 4 5 6 
#
# 1 37.5639 12.5824 16.5159 0.0000 0.0000 0.0000
# 2 12.5824 52.2516 17.9330 0.0000 0.0000 0.0000
# 3 16.5159 17.9330 104.5046 0.0000 0.0000 0.0000
# 4 0.0000 0.0000 0.0000 0.5986 0.0000 0.0000
# 5 0.0000 0.0000 0.0000 0.0000 25.6370 0.0000
# 6 0.0000 0.0000 0.0000 0.0000 0.0000 32.6658
#
#
#
# Elastic Compliance Matrix: (Units=1/GPa)
#
#
# Indices 1 2 3 4 5 6 
#
# 1 0.030284 -0.006003 -0.003756 0.000000 0.000000 0.000000
# 2 -0.006003 0.021526 -0.002745 0.000000 0.000000 0.000000
# 3 -0.003756 -0.002745 0.010634 0.000000 0.000000 0.000000
# 4 0.000000 0.000000 0.000000 1.670693 0.000000 0.000000
# 5 0.000000 0.000000 0.000000 0.000000 0.039006 0.000000
# 6 0.000000 0.000000 0.000000 0.000000 0.000000 0.030613
#
#
# Mechanical properties :
#
#
# Convention : Reuss Voigt Hill
#
# Bulk Modulus (GPa) = 26.71332 32.04251 29.37791
# Shear Modulus (GPa) = 2.71703 21.59953 12.15828
#
# Velocity S-wave (km/s) = 1.17356 3.30887 2.48252
# Velocity P-wave (km/s) = 3.92136 5.55339 4.80714
#
# Compressibility (1/GPa) = 0.03743450
#
# Stress axis : x y z
#
# Youngs Moduli (GPa) = 33.02121 46.45565 94.04175
#
# Poissons Ratio (x) = 0.27889 0.35320
# Poissons Ratio (y) = 0.19824 0.25815
# Poissons Ratio (z) = 0.12402 0.12752
#
# Static dielectric constant tensor:
#      x y z
#    x 1.665720 0.000000 0.000000 
#    y 0.000000 1.684660 0.000000 
#    z 0.000000 0.000000 1.675120 
# 
# From -- ./inp_files/20612.got.cif
#   From: 2010.05.17/outbox.cif.g08.bks.cpg/sg55_11_cif.got.tgz:20612.got - 2010.06.03 13:27:54.
