data_PCOD9429293
_publ_section_title
;
Structure prediction by ZEFSAII (Michael W. Deem and Ramdas Pophale) SiO2 
 PCOD9429293
Probable space group: P B A M
;
_chemical_formula_sum "Si O2"
_cell_formula_units_Z 64
_cell_length_a 18.000000
_cell_length_b 24.000000
_cell_length_c 9.000000
_cell_angle_alpha 90.000000
_cell_angle_beta 90.000000
_cell_angle_gamma 90.000000
_cell_volume 3888.000000
_symmetry_space_group_name_H-M "P B A M"
_symmetry_group_IT_number 55
_symmetry_cell_setting 'orthorhombic'
loop_
_space_group_symop_operation_xyz
x,y,z
-x,-y,z
1/2+x,1/2-y,-z
1/2-x,1/2+y,-z
-x,-y,-z
x,y,-z
1/2-x,1/2+y,z
1/2+x,1/2-y,z
loop_
_atom_site_type_symbol
_atom_site_label
_atom_site_fract_x
_atom_site_fract_y
_atom_site_fract_z
Si Si1 0.003052 0.908066 0.826628
Si Si2 0.649761 0.438770 0.675587
Si Si3 0.234848 0.834182 0.176510
Si Si4 0.156787 0.933608 0.327596
Si Si5 0.851371 0.737600 0.669734
Si Si6 0.756553 0.345183 0.669639
Si Si7 0.994238 0.774346 0.169555
Si Si8 0.134146 0.740318 0.677048
O O1 0.072517 0.927714 0.729809
O O2 0.998245 0.841079 0.815145
O O3 0.926841 0.932381 0.763244
O O4 0.013567 0.922582 0.000000
O O5 0.635496 0.425283 0.500000
O O6 0.677362 0.501767 0.682729
O O7 0.710310 0.395426 0.737789
O O8 0.206760 0.894314 0.226166
O O9 0.306566 0.814871 0.268105
O O10 0.172595 0.790288 0.232300
O O11 0.244483 0.829962 0.000000
O O12 0.161172 0.915662 0.500000
O O13 0.877138 0.729421 0.500000
O O14 0.796639 0.791032 0.666522
O O15 0.913653 0.753777 0.786276
O O16 0.772460 0.362681 0.500000
O O17 0.831644 0.318366 0.730849
O O18 0.048920 0.745973 0.285750
O O19 0.014028 0.760577 0.000000
O O20 0.148725 0.746509 0.500000
#
# Coordination Sequence:
#
# PCOD9429293 Si02
#       8
#     8   8   8   8   8   8   8   8
#     4  11  22  33  46  69 103 139 172 208 248 293
#     4  10  20  35  52  71  97 133 175 216 249 291
#     4  11  21  34  50  71 101 131 164 210 257 300
#     4  11  22  34  51  71  96 135 179 212 247 295
#     4  10  19  33  54  74  97 129 167 208 249 302
#     4   8  16  31  50  72  95 122 161 207 250 287
#     4  11  21  32  48  75 105 136 166 202 252 299
#     4  10  19  32  52  74  97 130 169 206 249 303
#
# _framework density 16.460905
#
# number of rings (size 3 to 8) (size 9 to 14) (size 15 to 20)
#    0.000    1.750    2.500    4.125    0.000    3.500 
#    0.000    0.625    0.000    0.000    0.000    0.875 
#    0.000    7.000    0.000    0.000    0.000    0.000 
#
# Total GULP energy -356744.975133 kJ/mol
# GULP energy per Si atom -5574.140236 kJ/mol
# Density = 1.642344 g / cm^3
# Si number density = 16.460905 Si / 1000 Ang^3
#
#
#
# Elastic Constant Matrix: (Units=GPa)
#
#
# Indices 1 2 3 4 5 6 
#
# 1 22.0152 19.9296 2.4668 0.0000 0.0000 0.0000
# 2 19.9296 58.7094 22.0845 0.0000 0.0000 0.0000
# 3 2.4668 22.0845 58.8644 0.0000 0.0000 0.0000
# 4 0.0000 0.0000 0.0000 12.8781 0.0000 0.0000
# 5 0.0000 0.0000 0.0000 0.0000 8.3332 0.0000
# 6 0.0000 0.0000 0.0000 0.0000 0.0000 38.1158
#
#
#
# Elastic Compliance Matrix: (Units=1/GPa)
#
#
# Indices 1 2 3 4 5 6 
#
# 1 0.067800 -0.025553 0.006746 0.000000 0.000000 0.000000
# 2 -0.025553 0.029462 -0.009983 0.000000 0.000000 0.000000
# 3 0.006746 -0.009983 0.020451 0.000000 0.000000 0.000000
# 4 0.000000 0.000000 0.000000 0.077651 0.000000 0.000000
# 5 0.000000 0.000000 0.000000 0.000000 0.120002 0.000000
# 6 0.000000 0.000000 0.000000 0.000000 0.000000 0.026236
#
#
# Mechanical properties :
#
#
# Convention : Reuss Voigt Hill
#
# Bulk Modulus (GPa) = 16.62989 25.39453 21.01221
# Shear Modulus (GPa) = 11.92675 18.20595 15.06635
#
# Velocity S-wave (km/s) = 2.69467 3.32928 3.02864
# Velocity P-wave (km/s) = 4.45042 5.49905 5.00229
#
# Compressibility (1/GPa) = 0.06013268
#
# Stress axis : x y z
#
# Youngs Moduli (GPa) = 14.74936 33.94150 48.89784
#
# Poissons Ratio (x) = 0.86730 -0.32984
# Poissons Ratio (y) = 0.37689 0.48813
# Poissons Ratio (z) = -0.09949 0.33883
#
# Static dielectric constant tensor:
#      x y z
#    x 1.563540 0.000000 0.000000 
#    y 0.000000 1.553820 0.000000 
#    z 0.000000 0.000000 1.550080 
# 
# From -- ./inp_files/8136.got.cif
#   From: 2010.05.17/outbox.ucp.g08.bks.cvg/sg55_5_cif.got.tgz:8136.got - 2010.06.11 16:36:00.
