data_PCOD9429218
_publ_section_title
;
Structure prediction by ZEFSAII (Michael W. Deem and Ramdas Pophale) SiO2 
 PCOD9429218
Probable space group: P B A M
;
_chemical_formula_sum "Si O2"
_cell_formula_units_Z 48
_cell_length_a 7.011576
_cell_length_b 25.862299
_cell_length_c 13.324766
_cell_angle_alpha 90.000000
_cell_angle_beta 90.000000
_cell_angle_gamma 90.000000
_cell_volume 2416.252772
_symmetry_space_group_name_H-M "P B A M"
_symmetry_group_IT_number 55
_symmetry_cell_setting 'orthorhombic'
loop_
_space_group_symop_operation_xyz
x,y,z
-x,-y,z
1/2+x,1/2-y,-z
1/2-x,1/2+y,-z
-x,-y,-z
x,y,-z
1/2-x,1/2+y,z
1/2+x,1/2-y,z
loop_
_atom_site_type_symbol
_atom_site_label
_atom_site_fract_x
_atom_site_fract_y
_atom_site_fract_z
Si Si1 0.459301 0.294735 0.000000
Si Si2 0.448136 0.295705 0.218728
Si Si3 0.822746 0.403354 0.615677
Si Si4 0.132156 0.873973 0.384367
Si Si5 0.284290 0.486624 0.621762
Si Si6 0.600149 0.825746 0.000000
Si Si7 0.608419 0.824798 0.219034
O O1 0.364879 0.306367 0.107297
O O2 0.669477 0.319268 0.000000
O O3 0.480019 0.232755 0.000000
O O4 0.345905 0.326884 0.307112
O O5 0.462647 0.234021 0.233616
O O6 0.663091 0.316485 0.215201
O O7 0.886500 0.399801 0.500000
O O8 0.594652 0.389597 0.614860
O O9 0.837380 0.463048 0.651066
O O10 0.921999 0.362694 0.688428
O O11 0.178729 0.860608 0.500000
O O12 0.241015 0.926574 0.352355
O O13 0.500000 0.500000 0.654332
O O14 0.280769 0.487590 0.500000
O O15 0.550528 0.847376 0.890127
#
# Coordination Sequence:
#
# PCOD9429218 Si02
#       7
#     4   8   8   8   8   4   8
#     4   8  14  24  36  49  67  93 121 144 167 200
#     4   9  16  25  37  53  73  95 118 144 174 208
#     4   8  13  21  34  52  72  93 117 145 175 206
#     4   8  13  21  34  52  72  93 117 145 175 206
#     4   7  10  18  32  49  68  90 117 145 170 200
#     4   8  14  24  36  49  67  93 121 144 167 200
#     4   9  16  25  37  53  73  95 118 144 174 208
#
# _framework density 19.865470999999999
#
# number of rings (size 3 to 8) (size 9 to 14) (size 15 to 20)
#    0.000    3.833    0.000    2.000    0.000    0.667 
#    0.000    0.000    0.000    1.000    0.000    8.167 
#    0.000    4.000    0.000   24.500    0.000   17.000 
#
# Total GULP energy -267386.396515 kJ/mol
# GULP energy per Si atom -5570.549927 kJ/mol
# Density = 1.982026 g / cm^3
# Si number density = 19.865471 Si / 1000 Ang^3
#
#
#
# Elastic Constant Matrix: (Units=GPa)
#
#
# Indices 1 2 3 4 5 6 
#
# 1 64.3201 16.8005 14.0338 0.0000 0.0000 0.0000
# 2 16.8005 117.9866 94.4311 0.0000 0.0000 0.0000
# 3 14.0338 94.4311 145.2593 0.0000 0.0000 0.0000
# 4 0.0000 0.0000 0.0000 -6.0452 0.0000 0.0000
# 5 0.0000 0.0000 0.0000 0.0000 0.7037 0.0000
# 6 0.0000 0.0000 0.0000 0.0000 0.0000 29.7227
#
#
#
# Elastic Compliance Matrix: (Units=1/GPa)
#
#
# Indices 1 2 3 4 5 6 
#
# 1 0.016149 -0.002191 -0.000136 0.000000 0.000000 0.000000
# 2 -0.002191 0.017966 -0.011468 0.000000 0.000000 0.000000
# 3 -0.000136 -0.011468 0.014352 0.000000 0.000000 0.000000
# 4 0.000000 0.000000 0.000000 -0.165421 0.000000 0.000000
# 5 0.000000 0.000000 0.000000 0.000000 1.421009 0.000000
# 6 0.000000 0.000000 0.000000 0.000000 0.000000 0.033644
#
#
# Mechanical properties :
#
#
# Convention : Reuss Voigt Hill
#
# Bulk Modulus (GPa) = 47.89623 64.23300 56.06461
# Shear Modulus (GPa) = 3.64366 18.36297 11.00331
#
# Velocity S-wave (km/s) = 1.35578 3.04364 2.35604
# Velocity P-wave (km/s) = 5.15883 6.68998 5.97366
#
# Compressibility (1/GPa) = 0.02087847
#
# Stress axis : x y z
#
# Youngs Moduli (GPa) = 61.92290 55.66206 69.67534
#
# Poissons Ratio (x) = 0.12193 0.00949
# Poissons Ratio (y) = 0.13565 0.79900
# Poissons Ratio (z) = 0.00843 0.63831
#
# Static dielectric constant tensor:
#      x y z
#    x 1.832310 0.000000 0.000000 
#    y 0.000000 1.684980 0.000000 
#    z 0.000000 0.000000 1.705980 
# 
# From -- ./inp_files/13301.got.cif
#   From: 2010.05.17/outbox.cif.g08.bks.cpg/sg55_7_cif.got.tgz:13301.got - 2010.06.03 13:27:54.
