data_PCOD9429825
_publ_section_title
;
Structure prediction by ZEFSAII (Michael W. Deem and Ramdas Pophale) SiO2 
 PCOD9429825
Probable space group: P C C N
;
_chemical_formula_sum "Si O2"
_cell_formula_units_Z 44
_cell_length_a 9.379910
_cell_length_b 12.758121
_cell_length_c 16.007241
_cell_angle_alpha 90.000000
_cell_angle_beta 90.000000
_cell_angle_gamma 90.000000
_cell_volume 1915.586959
_symmetry_space_group_name_H-M "P C C N"
_symmetry_group_IT_number 56
_symmetry_cell_setting 'orthorhombic'
loop_
_space_group_symop_operation_xyz
x,y,z
1/2-x,1/2-y,z
1/2+x,-y,1/2-z
-x,1/2+y,1/2-z
-x,-y,-z
1/2+x,1/2+y,-z
1/2-x,y,1/2+z
x,1/2-y,1/2+z
loop_
_atom_site_type_symbol
_atom_site_label
_atom_site_fract_x
_atom_site_fract_y
_atom_site_fract_z
Si Si1 0.750000 0.250000 0.409136
Si Si2 0.704755 0.490772 0.698529
Si Si3 0.944197 0.795975 0.638718
Si Si4 0.772424 0.438824 0.021231
Si Si5 0.401502 0.355304 0.538582
Si Si6 0.077457 0.130191 0.722776
O O1 0.615516 0.291834 0.358814
O O2 0.798280 0.347576 0.467366
O O3 0.613690 0.591395 0.666732
O O4 0.785019 0.450317 0.615145
O O5 0.586190 0.408289 0.727251
O O6 0.816903 0.531689 0.765718
O O7 0.898999 0.781215 0.542077
O O8 0.893638 0.706348 0.700462
O O9 0.788607 0.550928 0.976550
O O10 0.937752 0.402758 0.033109
O O11 0.393083 0.316851 0.633243
#
# Coordination Sequence:
#
# PCOD9429825 Si02
#       6
#     4   8   8   8   8   8
#     4  10  18  34  68  96 118 166 222 260 322 384
#     4  10  23  42  60  95 133 167 213 270 324 381
#     4  10  22  40  65  91 132 171 215 261 325 397
#     4   8  16  35  61  85 125 162 204 259 319 377
#     4   8  17  37  62  85 122 174 203 251 325 375
#     4  11  22  40  68  93 130 171 213 270 326 386
#
# _framework density 22.969460999999999
#
# number of rings (size 3 to 8) (size 9 to 14) (size 15 to 20)
#    0.000    2.545    0.000    3.818    5.091    0.000 
#    9.818    9.091    0.000    0.000    0.000    0.000 
#    0.000    0.000    0.000    0.000    0.000    0.000 
#
# Total GULP energy -245755.214139 kJ/mol
# GULP energy per Si atom -5585.345776 kJ/mol
# Density = 2.291718 g / cm^3
# Si number density = 22.969461 Si / 1000 Ang^3
#
#
#
# Elastic Constant Matrix: (Units=GPa)
#
#
# Indices 1 2 3 4 5 6 
#
# 1 38.0114 0.0840 3.7635 0.0000 0.0000 0.0000
# 2 0.0840 66.8891 38.4367 0.0000 0.0000 0.0000
# 3 3.7635 38.4367 148.6833 0.0000 0.0000 0.0000
# 4 0.0000 0.0000 0.0000 39.3377 0.0000 0.0000
# 5 0.0000 0.0000 0.0000 0.0000 -33.1282 0.0000
# 6 0.0000 0.0000 0.0000 0.0000 0.0000 35.5244
#
#
#
# Elastic Compliance Matrix: (Units=1/GPa)
#
#
# Indices 1 2 3 4 5 6 
#
# 1 0.026384 0.000412 -0.000774 0.000000 0.000000 0.000000
# 2 0.000412 0.017565 -0.004551 0.000000 0.000000 0.000000
# 3 -0.000774 -0.004551 0.007922 0.000000 0.000000 0.000000
# 4 0.000000 0.000000 0.000000 0.025421 0.000000 0.000000
# 5 0.000000 0.000000 0.000000 0.000000 -0.030186 0.000000
# 6 0.000000 0.000000 0.000000 0.000000 0.000000 0.028150
#
#
# Mechanical properties :
#
#
# Convention : Reuss Voigt Hill
#
# Bulk Modulus (GPa) = 23.78515 37.57246 30.67881
# Shear Modulus (GPa) = 50.45567 22.43342 36.44455
#
# Velocity S-wave (km/s) = 4.69192 3.12855 3.98760
# Velocity P-wave (km/s) = 6.30315 5.42619 5.88104
#
# Compressibility (1/GPa) = 0.04204304
#
# Stress axis : x y z
#
# Youngs Moduli (GPa) = 37.90225 56.93182 126.23310
#
# Poissons Ratio (x) = -0.02344 0.09774
# Poissons Ratio (y) = -0.01561 0.57451
# Poissons Ratio (z) = 0.02935 0.25911
#
# Static dielectric constant tensor:
#      x y z
#    x 1.936350 0.000000 0.000000 
#    y 0.000000 1.909100 0.000000 
#    z 0.000000 0.000000 1.884050 
# 
# From -- ./inp_files/11564.got.cif
#   From: 2010.05.17/outbox.cif.g08.bks.cpg/sg56_6_cif.got.tgz:11564.got - 2010.06.03 13:42:01.
