data_PCOD9429116
_publ_section_title
;
Structure prediction by ZEFSAII (Michael W. Deem and Ramdas Pophale) SiO2 
 PCOD9429116
Probable space group: P B A M
;
_chemical_formula_sum "Si O2"
_cell_formula_units_Z 64
_cell_length_a 22.184518
_cell_length_b 9.816930
_cell_length_c 14.218251
_cell_angle_alpha 90.000000
_cell_angle_beta 90.000000
_cell_angle_gamma 90.000000
_cell_volume 3096.505589
_symmetry_space_group_name_H-M "P B A M"
_symmetry_group_IT_number 55
_symmetry_cell_setting 'orthorhombic'
loop_
_space_group_symop_operation_xyz
x,y,z
-x,-y,z
1/2+x,1/2-y,-z
1/2-x,1/2+y,-z
-x,-y,-z
x,y,-z
1/2-x,1/2+y,z
1/2+x,1/2-y,z
loop_
_atom_site_type_symbol
_atom_site_label
_atom_site_fract_x
_atom_site_fract_y
_atom_site_fract_z
Si Si1 0.258187 0.229502 0.802240
Si Si2 0.116520 0.116690 0.393271
Si Si3 0.370447 0.808176 0.111232
Si Si4 0.068208 0.550845 0.210892
Si Si5 0.629873 0.056672 0.395040
Si Si6 0.934059 0.945035 0.804078
Si Si7 0.880532 0.201999 0.890706
Si Si8 0.761815 0.020378 0.325619
O O1 0.194203 0.275189 0.843454
O O2 0.312409 0.247055 0.874860
O O3 0.273753 0.329066 0.714629
O O4 0.251729 0.077697 0.763085
O O5 0.095592 0.091372 0.500000
O O6 0.122492 0.280311 0.380326
O O7 0.076037 0.062264 0.307958
O O8 0.181597 0.045832 0.378225
O O9 0.418365 0.701623 0.153718
O O10 0.392148 0.956595 0.142026
O O11 0.367378 0.794779 0.000000
O O12 0.094622 0.524475 0.314631
O O13 0.077273 0.703144 0.174044
O O14 0.000000 0.500000 0.207500
O O15 0.608802 0.023365 0.500000
O O16 0.700732 0.025740 0.385054
O O17 0.887239 0.049678 0.851479
O O18 0.000000 0.000000 0.827137
O O19 0.897292 0.208627 0.000000
#
# Coordination Sequence:
#
# PCOD9429116 Si02
#       8
#     8   8   8   8   8   8   8   8
#     4  12  21  40  69  92 130 170 207 270 335 380
#     4  11  23  42  68  97 129 171 216 267 331 389
#     4  12  24  44  69  93 127 175 223 265 327 394
#     4  12  25  44  66  93 132 175 218 267 318 384
#     4  11  23  42  68  97 129 171 216 267 331 389
#     4  12  25  44  66  93 132 175 218 267 318 384
#     4  12  26  42  65  99 133 167 213 275 327 378
#     4  12  19  40  65  94 132 168 207 266 333 382
#
# _framework density 20.66846
#
# number of rings (size 3 to 8) (size 9 to 14) (size 15 to 20)
#    0.000    0.250    7.500    2.250    0.000    3.500 
#    0.000    5.625    0.000    0.000    0.000    0.000 
#    0.000    0.000    0.000    0.000    0.000    0.000 
#
# Total GULP energy -358156.635685 kJ/mol
# GULP energy per Si atom -5596.197433 kJ/mol
# Density = 2.062142 g / cm^3
# Si number density = 20.668460 Si / 1000 Ang^3
#
#
#
# Elastic Constant Matrix: (Units=GPa)
#
#
# Indices 1 2 3 4 5 6 
#
# 1 48.0826 -13.7306 -0.8559 0.0000 0.0000 0.0000
# 2 -13.7306 57.0620 6.8120 0.0000 0.0000 0.0000
# 3 -0.8559 6.8120 119.3462 0.0000 0.0000 0.0000
# 4 0.0000 0.0000 0.0000 18.6795 0.0000 0.0000
# 5 0.0000 0.0000 0.0000 0.0000 4.1510 0.0000
# 6 0.0000 0.0000 0.0000 0.0000 0.0000 19.6679
#
#
#
# Elastic Compliance Matrix: (Units=1/GPa)
#
#
# Indices 1 2 3 4 5 6 
#
# 1 0.022335 0.005392 -0.000148 0.000000 0.000000 0.000000
# 2 0.005392 0.018947 -0.001043 0.000000 0.000000 0.000000
# 3 -0.000148 -0.001043 0.008437 0.000000 0.000000 0.000000
# 4 0.000000 0.000000 0.000000 0.053535 0.000000 0.000000
# 5 0.000000 0.000000 0.000000 0.000000 0.240907 0.000000
# 6 0.000000 0.000000 0.000000 0.000000 0.000000 0.050844
#
#
# Mechanical properties :
#
#
# Convention : Reuss Voigt Hill
#
# Bulk Modulus (GPa) = 17.20521 23.21575 20.21048
# Shear Modulus (GPa) = 12.31603 23.98402 18.15002
#
# Velocity S-wave (km/s) = 2.44372 3.41018 2.96658
# Velocity P-wave (km/s) = 4.03792 5.17326 4.64045
#
# Compressibility (1/GPa) = 0.05812194
#
# Stress axis : x y z
#
# Youngs Moduli (GPa) = 44.77348 52.77958 118.51926
#
# Poissons Ratio (x) = -0.28458 0.01749
# Poissons Ratio (y) = -0.24141 0.12359
# Poissons Ratio (z) = 0.00661 0.05504
#
# Static dielectric constant tensor:
#      x y z
#    x 1.724380 0.000000 0.000000 
#    y 0.000000 1.706010 0.000000 
#    z 0.000000 0.000000 1.712290 
# 
# From -- ./inp_files/19989.got.cif
#   From: 2010.05.17/outbox.cif.g08.bks.cpg/sg55_10_cif.got.tgz:19989.got - 2010.06.03 13:27:54.
