data_PCOD9429106
_publ_section_title
;
Structure prediction by ZEFSAII (Michael W. Deem and Ramdas Pophale) SiO2 
 PCOD9429106
Probable space group: P B A M
;
_chemical_formula_sum "Si O2"
_cell_formula_units_Z 48
_cell_length_a 9.605115
_cell_length_b 27.502658
_cell_length_c 8.467421
_cell_angle_alpha 90.000000
_cell_angle_beta 90.000000
_cell_angle_gamma 90.000000
_cell_volume 2236.806369
_symmetry_space_group_name_H-M "P B A M"
_symmetry_group_IT_number 55
_symmetry_cell_setting 'orthorhombic'
loop_
_space_group_symop_operation_xyz
x,y,z
-x,-y,z
1/2+x,1/2-y,-z
1/2-x,1/2+y,-z
-x,-y,-z
x,y,-z
1/2-x,1/2+y,z
1/2+x,1/2-y,z
loop_
_atom_site_type_symbol
_atom_site_label
_atom_site_fract_x
_atom_site_fract_y
_atom_site_fract_z
Si Si1 0.852097 0.213214 0.313852
Si Si2 0.931394 0.551074 0.185545
Si Si3 0.578349 0.450757 0.183353
Si Si4 0.835193 0.798496 0.813832
Si Si5 0.331491 0.397038 0.683205
Si Si6 0.180359 0.606379 0.682975
O O1 0.844792 0.225162 0.500000
O O2 0.763952 0.252499 0.218940
O O3 0.791033 0.158973 0.291430
O O4 0.013585 0.210714 0.262610
O O5 0.793217 0.566695 0.276520
O O6 0.000000 0.500000 0.237041
O O7 0.045510 0.592783 0.215988
O O8 0.898307 0.546930 0.000000
O O9 0.500000 0.500000 0.229298
O O10 0.462568 0.409476 0.207826
O O11 0.709806 0.436990 0.287277
O O12 0.620985 0.454273 0.000000
O O13 0.758537 0.845079 0.738370
O O14 0.852068 0.806641 0.000000
O O15 0.374153 0.402110 0.500000
O O16 0.142069 0.609901 0.500000
#
# Coordination Sequence:
#
# PCOD9429106 Si02
#       6
#     8   8   8   8   8   8
#     4  11  25  46  70  99 136 173 215 271 333 393
#     4  11  25  44  66  95 134 178 223 273 329 390
#     4  11  23  40  65  96 131 171 215 267 325 388
#     4  12  26  45  71 101 133 174 221 269 328 395
#     4  11  24  42  67  97 131 172 216 268 328 389
#     4  12  25  43  67  96 133 174 219 273 328 388
#
# _framework density 21.459166
#
# number of rings (size 3 to 8) (size 9 to 14) (size 15 to 20)
#    0.000    0.667    1.667    6.000    2.333    8.667 
#    0.000    0.000    0.000    0.000    0.000    0.000 
#    0.000    0.000    0.000    0.000    0.000    0.000 
#
# Total GULP energy -268764.369446 kJ/mol
# GULP energy per Si atom -5599.257697 kJ/mol
# Density = 2.141032 g / cm^3
# Si number density = 21.459166 Si / 1000 Ang^3
#
#
#
# Elastic Constant Matrix: (Units=GPa)
#
#
# Indices 1 2 3 4 5 6 
#
# 1 66.2874 8.7755 -9.0982 0.0000 0.0000 0.0000
# 2 8.7755 71.0121 14.4447 0.0000 0.0000 0.0000
# 3 -9.0982 14.4447 49.2540 0.0000 0.0000 0.0000
# 4 0.0000 0.0000 0.0000 32.7683 0.0000 0.0000
# 5 0.0000 0.0000 0.0000 0.0000 33.1470 0.0000
# 6 0.0000 0.0000 0.0000 0.0000 0.0000 39.6045
#
#
#
# Elastic Compliance Matrix: (Units=1/GPa)
#
#
# Indices 1 2 3 4 5 6 
#
# 1 0.015963 -0.002736 0.003751 0.000000 0.000000 0.000000
# 2 -0.002736 0.015444 -0.005035 0.000000 0.000000 0.000000
# 3 0.003751 -0.005035 0.022472 0.000000 0.000000 0.000000
# 4 0.000000 0.000000 0.000000 0.030517 0.000000 0.000000
# 5 0.000000 0.000000 0.000000 0.000000 0.030169 0.000000
# 6 0.000000 0.000000 0.000000 0.000000 0.000000 0.025250
#
#
# Mechanical properties :
#
#
# Convention : Reuss Voigt Hill
#
# Bulk Modulus (GPa) = 21.81468 23.86638 22.84053
# Shear Modulus (GPa) = 30.64964 32.59937 31.62451
#
# Velocity S-wave (km/s) = 3.78336 3.90184 3.84305
# Velocity P-wave (km/s) = 5.41043 5.60759 5.50989
#
# Compressibility (1/GPa) = 0.04584069
#
# Stress axis : x y z
#
# Youngs Moduli (GPa) = 62.64560 64.74885 44.49917
#
# Poissons Ratio (x) = 0.17713 -0.16691
# Poissons Ratio (y) = 0.17138 0.22404
# Poissons Ratio (z) = -0.23498 0.32599
#
# Static dielectric constant tensor:
#      x y z
#    x 1.748240 0.000000 0.000000 
#    y 0.000000 1.795910 0.000000 
#    z 0.000000 0.000000 1.716480 
# 
# From -- ./inp_files/2888.got.cif
#   From: 2010.05.17/outbox.cif.g08.bks.cpg/sg55_2_cif.got.tgz:2888.got - 2010.06.03 13:27:54.
