data_PCOD9429942
_publ_section_title
;
Structure prediction by ZEFSAII (Michael W. Deem and Ramdas Pophale) SiO2 
 PCOD9429942
Probable space group: P C C N
;
_chemical_formula_sum "Si O2"
_cell_formula_units_Z 48
_cell_length_a 8.414223
_cell_length_b 12.159950
_cell_length_c 22.440857
_cell_angle_alpha 90.000000
_cell_angle_beta 90.000000
_cell_angle_gamma 90.000000
_cell_volume 2296.070640
_symmetry_space_group_name_H-M "P C C N"
_symmetry_group_IT_number 56
_symmetry_cell_setting 'orthorhombic'
loop_
_space_group_symop_operation_xyz
x,y,z
1/2-x,1/2-y,z
1/2+x,-y,1/2-z
-x,1/2+y,1/2-z
-x,-y,-z
1/2+x,1/2+y,-z
1/2-x,y,1/2+z
x,1/2-y,1/2+z
loop_
_atom_site_type_symbol
_atom_site_label
_atom_site_fract_x
_atom_site_fract_y
_atom_site_fract_z
Si Si1 0.519694 0.986221 0.379193
Si Si2 0.054154 0.249705 0.579318
Si Si3 0.632396 0.551246 0.350511
Si Si4 0.539583 0.669716 0.671150
Si Si5 0.430142 0.204603 0.445341
Si Si6 0.380486 0.377585 0.778266
O O1 0.448539 0.076464 0.425666
O O2 0.473026 0.026423 0.312842
O O3 0.482682 0.857725 0.389104
O O4 0.710826 0.986757 0.385143
O O5 0.250000 0.250000 0.583034
O O6 0.022591 0.132434 0.610293
O O7 0.006532 0.265483 0.510542
O O8 0.548045 0.443650 0.326195
O O9 0.676658 0.611481 0.288959
O O10 0.496161 0.725465 0.608294
O O11 0.725221 0.640320 0.680584
O O12 0.512444 0.767848 0.717677
O O13 0.250000 0.250000 0.446749
#
# Coordination Sequence:
#
# PCOD9429942 Si02
#       6
#     8   8   8   8   8   8
#     4  10  20  38  62  89 113 161 201 243 298 354
#     4   9  21  35  60  90 119 152 199 250 297 349
#     4  11  23  35  59  92 121 149 201 252 297 347
#     4  10  21  38  60  82 116 158 194 237 306 348
#     4  10  18  39  62  84 115 158 202 242 296 364
#     4  10  21  37  61  81 118 160 192 242 290 372
#
# _framework density 20.905282
#
# number of rings (size 3 to 8) (size 9 to 14) (size 15 to 20)
#    0.000    2.000    3.333    1.500    9.333    3.333 
#    0.000    0.833    3.667    0.000    0.000    0.000 
#    0.000    0.000    0.000    0.000    0.000    0.000 
#
# Total GULP energy -267229.507150 kJ/mol
# GULP energy per Si atom -5567.281399 kJ/mol
# Density = 2.085770 g / cm^3
# Si number density = 20.905282 Si / 1000 Ang^3
#
#
#
# Elastic Constant Matrix: (Units=GPa)
#
#
# Indices 1 2 3 4 5 6 
#
# 1 18.9171 26.1087 -4.0672 0.0000 0.0000 0.0000
# 2 26.1087 90.5852 23.4134 0.0000 0.0000 0.0000
# 3 -4.0672 23.4134 62.1519 0.0000 0.0000 0.0000
# 4 0.0000 0.0000 0.0000 13.6120 0.0000 0.0000
# 5 0.0000 0.0000 0.0000 0.0000 12.2434 0.0000
# 6 0.0000 0.0000 0.0000 0.0000 0.0000 31.1913
#
#
#
# Elastic Compliance Matrix: (Units=1/GPa)
#
#
# Indices 1 2 3 4 5 6 
#
# 1 0.107447 -0.036323 0.020714 0.000000 0.000000 0.000000
# 2 -0.036323 0.024509 -0.011610 0.000000 0.000000 0.000000
# 3 0.020714 -0.011610 0.021819 0.000000 0.000000 0.000000
# 4 0.000000 0.000000 0.000000 0.073464 0.000000 0.000000
# 5 0.000000 0.000000 0.000000 0.000000 0.081677 0.000000
# 6 0.000000 0.000000 0.000000 0.000000 0.000000 0.032060
#
#
# Mechanical properties :
#
#
# Convention : Reuss Voigt Hill
#
# Bulk Modulus (GPa) = 10.06659 29.17378 19.62019
# Shear Modulus (GPa) = 11.66795 19.82264 15.74530
#
# Velocity S-wave (km/s) = 2.36505 3.08265 2.74738
# Velocity P-wave (km/s) = 3.50482 5.16292 4.41246
#
# Compressibility (1/GPa) = 0.09933847
#
# Stress axis : x y z
#
# Youngs Moduli (GPa) = 9.30695 40.80126 45.83229
#
# Poissons Ratio (x) = 1.48200 -0.94939
# Poissons Ratio (y) = 0.33805 0.53210
# Poissons Ratio (z) = -0.19279 0.47369
#
# Static dielectric constant tensor:
#      x y z
#    x 1.782670 0.000000 0.000000 
#    y 0.000000 1.829530 0.000000 
#    z 0.000000 0.000000 1.746630 
# 
# From -- ./inp_files/20499.got.cif
#   From: 2010.05.17/outbox.cif.g08.bks.cpg/sg56_11_cif.got.tgz:20499.got - 2010.06.03 13:42:01.
