data_PCOD9429958
_publ_section_title
;
Structure prediction by ZEFSAII (Michael W. Deem and Ramdas Pophale) SiO2 
 PCOD9429958
Probable space group: P C C N
;
_chemical_formula_sum "Si O2"
_cell_formula_units_Z 48
_cell_length_a 12.721746
_cell_length_b 14.079085
_cell_length_c 11.253637
_cell_angle_alpha 90.000000
_cell_angle_beta 90.000000
_cell_angle_gamma 90.000000
_cell_volume 2015.645037
_symmetry_space_group_name_H-M "P C C N"
_symmetry_group_IT_number 56
_symmetry_cell_setting 'orthorhombic'
loop_
_space_group_symop_operation_xyz
x,y,z
1/2-x,1/2-y,z
1/2+x,-y,1/2-z
-x,1/2+y,1/2-z
-x,-y,-z
1/2+x,1/2+y,-z
1/2-x,y,1/2+z
x,1/2-y,1/2+z
loop_
_atom_site_type_symbol
_atom_site_label
_atom_site_fract_x
_atom_site_fract_y
_atom_site_fract_z
Si Si1 0.671253 0.668514 0.433275
Si Si2 0.343634 0.036201 0.487191
Si Si3 0.988383 0.200477 0.992471
Si Si4 0.376373 0.623968 0.793810
Si Si5 0.485817 0.021567 0.138759
Si Si6 0.652648 0.115880 0.304417
O O1 0.750000 0.750000 0.381710
O O2 0.744804 0.606072 0.517771
O O3 0.576984 0.720078 0.502227
O O4 0.612823 0.594597 0.346726
O O5 0.446953 0.101364 0.491507
O O6 0.347609 0.963677 0.380467
O O7 0.334805 0.972804 0.605123
O O8 0.912678 0.194360 0.879345
O O9 0.923604 0.201440 0.115887
O O10 0.459757 0.576907 0.704728
O O11 0.267763 0.648333 0.731676
O O12 0.584723 0.074709 0.195982
O O13 0.500000 0.000000 0.000000
#
# Coordination Sequence:
#
# PCOD9429958 Si02
#       6
#     8   8   8   8   8   8
#     4  10  23  44  68 104 137 168 232 296 345 397
#     4  10  18  40  69 103 129 176 233 282 344 402
#     4  10  21  42  65 100 141 176 222 293 350 391
#     4  11  21  39  69  99 137 182 229 279 336 424
#     4  12  24  42  66 103 137 179 231 280 339 417
#     4  11  21  38  68  96 133 185 229 272 341 420
#
# _framework density 23.813717
#
# number of rings (size 3 to 8) (size 9 to 14) (size 15 to 20)
#    0.000    1.333    5.000    2.000    2.333    0.000 
#    6.000    0.833    0.000    0.000    0.000    0.000 
#    0.000    0.000    0.000    0.000    0.000    0.000 
#
# Total GULP energy -268799.861675 kJ/mol
# GULP energy per Si atom -5599.997118 kJ/mol
# Density = 2.375952 g / cm^3
# Si number density = 23.813717 Si / 1000 Ang^3
#
#
#
# Elastic Constant Matrix: (Units=GPa)
#
#
# Indices 1 2 3 4 5 6 
#
# 1 144.3934 40.8267 39.3124 0.0000 0.0000 0.0000
# 2 40.8267 88.1807 30.7178 0.0000 0.0000 0.0000
# 3 39.3124 30.7178 118.9230 0.0000 0.0000 0.0000
# 4 0.0000 0.0000 0.0000 11.2772 0.0000 0.0000
# 5 0.0000 0.0000 0.0000 0.0000 35.3023 0.0000
# 6 0.0000 0.0000 0.0000 0.0000 0.0000 52.9275
#
#
#
# Elastic Compliance Matrix: (Units=1/GPa)
#
#
# Indices 1 2 3 4 5 6 
#
# 1 0.008356 -0.003194 -0.001937 0.000000 0.000000 0.000000
# 2 -0.003194 0.013682 -0.002478 0.000000 0.000000 0.000000
# 3 -0.001937 -0.002478 0.009689 0.000000 0.000000 0.000000
# 4 0.000000 0.000000 0.000000 0.088674 0.000000 0.000000
# 5 0.000000 0.000000 0.000000 0.000000 0.028327 0.000000
# 6 0.000000 0.000000 0.000000 0.000000 0.000000 0.018894
#
#
# Mechanical properties :
#
#
# Convention : Reuss Voigt Hill
#
# Bulk Modulus (GPa) = 60.57388 63.69009 62.13199
# Shear Modulus (GPa) = 26.54710 35.94409 31.24559
#
# Velocity S-wave (km/s) = 3.34246 3.88930 3.62620
# Velocity P-wave (km/s) = 6.35514 6.85361 6.60908
#
# Compressibility (1/GPa) = 0.01650877
#
# Stress axis : x y z
#
# Youngs Moduli (GPa) = 119.67411 73.08643 103.20589
#
# Poissons Ratio (x) = 0.23343 0.19994
# Poissons Ratio (y) = 0.38223 0.25578
# Poissons Ratio (z) = 0.23184 0.18113
#
# Static dielectric constant tensor:
#      x y z
#    x 1.906490 0.000000 0.000000 
#    y 0.000000 1.935620 0.000000 
#    z 0.000000 0.000000 1.881550 
# 
# From -- ./inp_files/7167.got.cif
#   From: 2010.05.17/outbox.cif.g08.bks.cpg/sg56_4_cif.got.tgz:7167.got - 2010.06.03 13:42:01.
