data_PCOD9429478
_publ_section_title
;
Structure prediction by ZEFSAII (Michael W. Deem and Ramdas Pophale) SiO2 
 PCOD9429478
Probable space group: P B A M
;
_chemical_formula_sum "Si O2"
_cell_formula_units_Z 48
_cell_length_a 21.000000
_cell_length_b 15.000000
_cell_length_c 9.000000
_cell_angle_alpha 90.000000
_cell_angle_beta 90.000000
_cell_angle_gamma 90.000000
_cell_volume 2835.000000
_symmetry_space_group_name_H-M "P B A M"
_symmetry_group_IT_number 55
_symmetry_cell_setting 'orthorhombic'
loop_
_space_group_symop_operation_xyz
x,y,z
-x,-y,z
1/2+x,1/2-y,-z
1/2-x,1/2+y,-z
-x,-y,-z
x,y,-z
1/2-x,1/2+y,z
1/2+x,1/2-y,z
loop_
_atom_site_type_symbol
_atom_site_label
_atom_site_fract_x
_atom_site_fract_y
_atom_site_fract_z
Si Si1 0.844466 0.213637 0.832751
Si Si2 0.341357 0.730324 0.322732
Si Si3 0.070970 0.918998 0.675675
Si Si4 0.731484 0.889478 0.823497
Si Si5 0.286313 0.900986 0.828028
Si Si6 0.067323 0.096978 0.177929
O O1 0.889339 0.169153 0.711824
O O2 0.826364 0.317595 0.811308
O O3 0.781409 0.151047 0.828091
O O4 0.871496 0.203903 0.000000
O O5 0.348021 0.727571 0.500000
O O6 0.285042 0.662311 0.270951
O O7 0.327926 0.831710 0.269052
O O8 0.400595 0.686349 0.238236
O O9 0.064721 0.933650 0.500000
O O10 0.003349 0.906404 0.755377
O O11 0.100187 0.007907 0.752776
O O12 0.719338 0.993839 0.783083
O O13 0.750040 0.889425 0.000000
O O14 0.308755 0.901158 0.000000
O O15 0.068057 0.091896 0.000000
#
# Coordination Sequence:
#
# PCOD9429478 Si02
#       6
#     8   8   8   8   8   8
#     4   9  17  30  49  74 102 133 167 199 238 290
#     4  11  21  32  49  75 104 130 160 202 250 293
#     4  11  21  33  50  75 103 128 160 203 250 293
#     4   9  18  33  53  74  99 133 170 203 236 286
#     4   9  18  33  52  73  98 131 168 202 238 285
#     4  11  21  35  53  71  96 131 167 201 242 293
#
# _framework density 16.931217
#
# number of rings (size 3 to 8) (size 9 to 14) (size 15 to 20)
#    0.000    2.000    0.000    7.500    0.000    4.667 
#    0.000    0.000    0.000    1.000    0.000    7.000 
#    0.000    0.000    0.000    0.000    0.000    0.000 
#
# Total GULP energy -267427.227624 kJ/mol
# GULP energy per Si atom -5571.400575 kJ/mol
# Density = 1.689268 g / cm^3
# Si number density = 16.931217 Si / 1000 Ang^3
#
#
#
# Elastic Constant Matrix: (Units=GPa)
#
#
# Indices 1 2 3 4 5 6 
#
# 1 27.2679 22.4675 27.5062 0.0000 0.0000 0.0000
# 2 22.4675 157.2006 50.2937 0.0000 0.0000 0.0000
# 3 27.5062 50.2937 131.6252 0.0000 0.0000 0.0000
# 4 0.0000 0.0000 0.0000 25.9822 0.0000 0.0000
# 5 0.0000 0.0000 0.0000 0.0000 61.2921 0.0000
# 6 0.0000 0.0000 0.0000 0.0000 0.0000 25.5073
#
#
#
# Elastic Compliance Matrix: (Units=1/GPa)
#
#
# Indices 1 2 3 4 5 6 
#
# 1 0.048820 -0.004231 -0.008585 0.000000 0.000000 0.000000
# 2 -0.004231 0.007614 -0.002025 0.000000 0.000000 0.000000
# 3 -0.008585 -0.002025 0.010165 0.000000 0.000000 0.000000
# 4 0.000000 0.000000 0.000000 0.038488 0.000000 0.000000
# 5 0.000000 0.000000 0.000000 0.000000 0.016315 0.000000
# 6 0.000000 0.000000 0.000000 0.000000 0.000000 0.039205
#
#
# Mechanical properties :
#
#
# Convention : Reuss Voigt Hill
#
# Bulk Modulus (GPa) = 27.08840 57.40317 42.24579
# Shear Modulus (GPa) = 24.67985 36.94473 30.81229
#
# Velocity S-wave (km/s) = 3.82206 4.67631 4.27060
# Velocity P-wave (km/s) = 5.95914 7.94572 7.02303
#
# Compressibility (1/GPa) = 0.03691617
#
# Stress axis : x y z
#
# Youngs Moduli (GPa) = 20.48357 131.33929 98.37412
#
# Poissons Ratio (x) = 0.55565 0.84459
# Poissons Ratio (y) = 0.08666 0.19922
# Poissons Ratio (z) = 0.17586 0.26598
#
# Static dielectric constant tensor:
#      x y z
#    x 1.637390 0.000000 0.000000 
#    y 0.000000 1.584720 0.000000 
#    z 0.000000 0.000000 1.571110 
# 
# From -- ./inp_files/8551.got.cif
#   From: 2010.05.17/outbox.ucp.g08.bks.cvg/sg55_5_cif.got.tgz:8551.got - 2010.06.11 16:36:00.
