data_PCOD9429086
_publ_section_title
;
Structure prediction by ZEFSAII (Michael W. Deem and Ramdas Pophale) SiO2 
 PCOD9429086
Probable space group: P B A M
;
_chemical_formula_sum "Si O2"
_cell_formula_units_Z 32
_cell_length_a 13.577434
_cell_length_b 8.837561
_cell_length_c 12.978342
_cell_angle_alpha 90.000000
_cell_angle_beta 90.000000
_cell_angle_gamma 90.000000
_cell_volume 1557.289442
_symmetry_space_group_name_H-M "P B A M"
_symmetry_group_IT_number 55
_symmetry_cell_setting 'orthorhombic'
loop_
_space_group_symop_operation_xyz
x,y,z
-x,-y,z
1/2+x,1/2-y,-z
1/2-x,1/2+y,-z
-x,-y,-z
x,y,-z
1/2-x,1/2+y,z
1/2+x,1/2-y,z
loop_
_atom_site_type_symbol
_atom_site_label
_atom_site_fract_x
_atom_site_fract_y
_atom_site_fract_z
Si Si1 0.145800 0.900085 0.500000
Si Si2 0.851941 0.008358 0.000000
Si Si3 0.364614 0.855092 0.000000
Si Si4 0.500000 0.000000 0.174243
Si Si5 0.000000 0.000000 0.174692
Si Si6 0.011916 0.746185 0.326433
Si Si7 0.636420 0.232258 0.500000
O O1 0.257051 0.841615 0.500000
O O2 0.089554 0.830448 0.400591
O O3 0.140044 0.082925 0.500000
O O4 0.743125 0.071995 0.000000
O O5 0.913902 0.058426 0.899934
O O6 0.855741 0.825906 0.000000
O O7 0.424837 0.912945 0.900466
O O8 0.552950 0.882226 0.251088
O O9 0.964827 0.868554 0.249726
O O10 0.927090 0.684262 0.400959
#
# Coordination Sequence:
#
# PCOD9429086 Si02
#       7
#     4   4   4   4   4   8   4
#     4  11  25  42  65  95 129 164 208 266 310 374
#     4  11  26  40  67  95 129 165 213 263 316 376
#     4  11  26  44  61  99 129 163 213 265 314 374
#     4  11  26  43  66  92 130 167 214 261 310 376
#     4  11  22  45  66  90 126 175 210 253 318 378
#     4  11  23  45  66  89 129 171 208 256 315 374
#     4  11  25  42  65  97 129 160 214 258 314 376
#
# _framework density 20.548525000000001
#
# number of rings (size 3 to 8) (size 9 to 14) (size 15 to 20)
#    0.000    1.000    5.000    0.750    7.000    5.000 
#    0.000    0.000    0.000    0.000    0.000    0.000 
#    0.000    0.000    0.000    0.000    0.000    0.000 
#
# Total GULP energy -178839.070692 kJ/mol
# GULP energy per Si atom -5588.720959 kJ/mol
# Density = 2.050176 g / cm^3
# Si number density = 20.548525 Si / 1000 Ang^3
#
#
#
# Elastic Constant Matrix: (Units=GPa)
#
#
# Indices 1 2 3 4 5 6 
#
# 1 110.3287 0.3458 36.6036 0.0000 0.0000 0.0000
# 2 0.3458 54.7456 28.6248 0.0000 0.0000 0.0000
# 3 36.6036 28.6248 141.2071 0.0000 0.0000 0.0000
# 4 0.0000 0.0000 0.0000 38.9004 0.0000 0.0000
# 5 0.0000 0.0000 0.0000 0.0000 -0.5327 0.0000
# 6 0.0000 0.0000 0.0000 0.0000 0.0000 35.2245
#
#
#
# Elastic Compliance Matrix: (Units=1/GPa)
#
#
# Indices 1 2 3 4 5 6 
#
# 1 0.010018 0.001448 -0.002890 0.000000 0.000000 0.000000
# 2 0.001448 0.020641 -0.004560 0.000000 0.000000 0.000000
# 3 -0.002890 -0.004560 0.008755 0.000000 0.000000 0.000000
# 4 0.000000 0.000000 0.000000 0.025707 0.000000 0.000000
# 5 0.000000 0.000000 0.000000 0.000000 -1.877109 0.000000
# 6 0.000000 0.000000 0.000000 0.000000 0.000000 0.028389
#
#
# Mechanical properties :
#
#
# Convention : Reuss Voigt Hill
#
# Bulk Modulus (GPa) = 36.48203 48.60329 42.54266
# Shear Modulus (GPa) = -2.83695 30.76556 13.96431
#
# Velocity S-wave (km/s) = -1.17627 3.87358 2.60970
# Velocity P-wave (km/s) = 3.99347 6.61139 5.46161
#
# Compressibility (1/GPa) = 0.02741075
#
# Stress axis : x y z
#
# Youngs Moduli (GPa) = 99.81779 48.44666 114.21562
#
# Poissons Ratio (x) = -0.07015 0.33014
# Poissons Ratio (y) = -0.14454 0.52078
# Poissons Ratio (z) = 0.28852 0.22090
#
# Static dielectric constant tensor:
#      x y z
#    x 1.669250 0.000000 0.000000 
#    y 0.000000 1.767150 0.000000 
#    z 0.000000 0.000000 1.714010 
# 
# From -- ./inp_files/11702.got.cif
#   From: 2010.05.17/outbox.cif.g08.bks.cpg/sg55_6_cif.got.tgz:11702.got - 2010.06.03 13:27:54.
