data_PCOD9429515
_publ_section_title
;
Structure prediction by ZEFSAII (Michael W. Deem and Ramdas Pophale) SiO2 
 PCOD9429515
Probable space group: P C C N
;
_chemical_formula_sum "Si O2"
_cell_formula_units_Z 48
_cell_length_a 17.644366
_cell_length_b 14.151888
_cell_length_c 8.662574
_cell_angle_alpha 90.000000
_cell_angle_beta 90.000000
_cell_angle_gamma 90.000000
_cell_volume 2163.054183
_symmetry_space_group_name_H-M "P C C N"
_symmetry_group_IT_number 56
_symmetry_cell_setting 'orthorhombic'
loop_
_space_group_symop_operation_xyz
x,y,z
1/2-x,1/2-y,z
1/2+x,-y,1/2-z
-x,1/2+y,1/2-z
-x,-y,-z
1/2+x,1/2+y,-z
1/2-x,y,1/2+z
x,1/2-y,1/2+z
loop_
_atom_site_type_symbol
_atom_site_label
_atom_site_fract_x
_atom_site_fract_y
_atom_site_fract_z
Si Si1 0.857355 0.581269 0.339044
Si Si2 0.229896 0.141051 0.852943
Si Si3 0.219869 0.630171 0.917302
Si Si4 0.657280 0.474569 0.295936
Si Si5 0.858784 0.146329 0.873378
Si Si6 0.021248 0.903242 0.911269
O O1 0.806379 0.621265 0.479985
O O2 0.812449 0.598079 0.182284
O O3 0.861458 0.468245 0.362469
O O4 0.940142 0.627753 0.345895
O O5 0.250000 0.250000 0.828094
O O6 0.171573 0.086087 0.736282
O O7 0.274101 0.569995 0.803920
O O8 0.162593 0.681910 0.797666
O O9 0.170570 0.567530 0.035149
O O10 0.287493 0.673180 0.021543
O O11 0.580683 0.434725 0.220283
O O12 0.936108 0.165822 0.966968
O O13 0.000000 0.000000 0.000000
#
# Coordination Sequence:
#
# PCOD9429515 Si02
#       6
#     8   8   8   8   8   8
#     4  11  19  34  45  65  92 130 168 202 246 278
#     4  12  21  31  48  67  95 133 173 197 225 292
#     4   9  14  24  46  63  95 120 153 190 230 295
#     4  10  16  30  45  69  92 130 161 198 245 277
#     4   9  14  26  45  65  88 128 152 198 241 281
#     4   9  17  30  47  61  90 125 162 206 250 286
#
# _framework density 22.190844999999999
#
# number of rings (size 3 to 8) (size 9 to 14) (size 15 to 20)
#    0.000    2.000    8.333    0.500    0.000    0.000 
#    0.000    5.000    0.000    0.000    0.000    0.000 
#    0.000    0.000    0.000  109.500    0.000    0.667 
#
# Total GULP energy -267281.196029 kJ/mol
# GULP energy per Si atom -5568.358251 kJ/mol
# Density = 2.214034 g / cm^3
# Si number density = 22.190845 Si / 1000 Ang^3
#
#
#
# Elastic Constant Matrix: (Units=GPa)
#
#
# Indices 1 2 3 4 5 6 
#
# 1 171.6505 12.4098 75.6492 0.0000 0.0000 0.0000
# 2 12.4098 30.2092 12.7695 0.0000 0.0000 0.0000
# 3 75.6492 12.7695 132.9550 0.0000 0.0000 0.0000
# 4 0.0000 0.0000 0.0000 13.9306 0.0000 0.0000
# 5 0.0000 0.0000 0.0000 0.0000 42.6807 0.0000
# 6 0.0000 0.0000 0.0000 0.0000 0.0000 11.4992
#
#
#
# Elastic Compliance Matrix: (Units=1/GPa)
#
#
# Indices 1 2 3 4 5 6 
#
# 1 0.007831 -0.001390 -0.004322 0.000000 0.000000 0.000000
# 2 -0.001390 0.034750 -0.002547 0.000000 0.000000 0.000000
# 3 -0.004322 -0.002547 0.010225 0.000000 0.000000 0.000000
# 4 0.000000 0.000000 0.000000 0.071784 0.000000 0.000000
# 5 0.000000 0.000000 0.000000 0.000000 0.023430 0.000000
# 6 0.000000 0.000000 0.000000 0.000000 0.000000 0.086962
#
#
# Mechanical properties :
#
#
# Convention : Reuss Voigt Hill
#
# Bulk Modulus (GPa) = 27.55687 59.60797 43.58242
# Shear Modulus (GPa) = 18.96833 29.22118 24.09476
#
# Velocity S-wave (km/s) = 2.92684 3.63273 3.29872
# Velocity P-wave (km/s) = 4.88538 6.67199 5.84732
#
# Compressibility (1/GPa) = 0.03628859
#
# Stress axis : x y z
#
# Youngs Moduli (GPa) = 127.69429 28.77696 97.79694
#
# Poissons Ratio (x) = 0.04000 0.42271
# Poissons Ratio (y) = 0.17749 0.24906
# Poissons Ratio (z) = 0.55194 0.07329
#
# Static dielectric constant tensor:
#      x y z
#    x 1.858200 0.000000 0.000000 
#    y 0.000000 2.058100 0.000000 
#    z 0.000000 0.000000 1.899320 
# 
# From -- ./inp_files/4049.got.cif
#   From: 2010.05.17/outbox.cif.g08.bks.cpg/sg56_3_cif.got.tgz:4049.got - 2010.06.03 13:42:01.
