data_PCOD9429862
_publ_section_title
;
Structure prediction by ZEFSAII (Michael W. Deem and Ramdas Pophale) SiO2 
 PCOD9429862
Probable space group: P C C N
;
_chemical_formula_sum "Si O2"
_cell_formula_units_Z 40
_cell_length_a 16.868950
_cell_length_b 7.580201
_cell_length_c 12.328249
_cell_angle_alpha 90.000000
_cell_angle_beta 90.000000
_cell_angle_gamma 90.000000
_cell_volume 1576.413590
_symmetry_space_group_name_H-M "P C C N"
_symmetry_group_IT_number 56
_symmetry_cell_setting 'orthorhombic'
loop_
_space_group_symop_operation_xyz
x,y,z
1/2-x,1/2-y,z
1/2+x,-y,1/2-z
-x,1/2+y,1/2-z
-x,-y,-z
1/2+x,1/2+y,-z
1/2-x,y,1/2+z
x,1/2-y,1/2+z
loop_
_atom_site_type_symbol
_atom_site_label
_atom_site_fract_x
_atom_site_fract_y
_atom_site_fract_z
Si Si1 0.750000 0.250000 0.307010
Si Si2 0.626388 0.130390 0.661435
Si Si3 0.522513 0.185967 0.861555
Si Si4 0.750000 0.750000 0.943288
Si Si5 0.374699 0.494989 0.452711
Si Si6 0.125850 0.513883 0.574566
O O1 0.796538 0.105168 0.236134
O O2 0.813453 0.339897 0.382699
O O3 0.551557 0.139603 0.741289
O O4 0.637630 0.330412 0.617915
O O5 0.622041 0.012470 0.555383
O O6 0.432475 0.135557 0.886585
O O7 0.545388 0.389956 0.886646
O O8 0.574606 0.063080 0.943325
O O9 0.671379 0.663226 0.887343
O O10 0.793329 0.596646 0.012020
#
# Coordination Sequence:
#
# PCOD9429862 Si02
#       6
#     4   8   8   4   8   8
#     4  10  18  36  60  84 118 162 204 252 318 370
#     4  10  19  38  63  83 117 167 207 249 320 386
#     4   9  21  43  65  85 121 169 210 254 322 388
#     4  12  22  36  58  90 128 156 206 270 312 364
#     4  10  22  40  63  93 122 160 214 266 317 385
#     4  10  21  36  59  88 123 163 205 256 313 376
#
# _framework density 25.374051999999999
#
# number of rings (size 3 to 8) (size 9 to 14) (size 15 to 20)
#    0.000    2.000    0.000    5.400    0.000    2.400 
#    0.000   26.000    0.000    0.000    0.000    0.000 
#    0.000    0.000    0.000    0.000    0.000    0.000 
#
# Total GULP energy -223493.514524 kJ/mol
# GULP energy per Si atom -5587.337863 kJ/mol
# Density = 2.531630 g / cm^3
# Si number density = 25.374052 Si / 1000 Ang^3
#
#
#
# Elastic Constant Matrix: (Units=GPa)
#
#
# Indices 1 2 3 4 5 6 
#
# 1 95.0697 32.5870 2.9952 0.0000 0.0000 0.0000
# 2 32.5870 78.0959 -2.8930 0.0000 0.0000 0.0000
# 3 2.9952 -2.8930 79.8022 0.0000 0.0000 0.0000
# 4 0.0000 0.0000 0.0000 8.3342 0.0000 0.0000
# 5 0.0000 0.0000 0.0000 0.0000 29.3331 0.0000
# 6 0.0000 0.0000 0.0000 0.0000 0.0000 63.0700
#
#
#
# Elastic Compliance Matrix: (Units=1/GPa)
#
#
# Indices 1 2 3 4 5 6 
#
# 1 0.012308 -0.005160 -0.000649 0.000000 0.000000 0.000000
# 2 -0.005160 0.014985 0.000737 0.000000 0.000000 0.000000
# 3 -0.000649 0.000737 0.012582 0.000000 0.000000 0.000000
# 4 0.000000 0.000000 0.000000 0.119987 0.000000 0.000000
# 5 0.000000 0.000000 0.000000 0.000000 0.034091 0.000000
# 6 0.000000 0.000000 0.000000 0.000000 0.000000 0.015855
#
#
# Mechanical properties :
#
#
# Convention : Reuss Voigt Hill
#
# Bulk Modulus (GPa) = 33.63465 35.37181 34.50323
# Shear Modulus (GPa) = 21.75215 34.83269 28.29242
#
# Velocity S-wave (km/s) = 2.93108 3.70911 3.34280
# Velocity P-wave (km/s) = 4.97386 5.68452 5.34102
#
# Compressibility (1/GPa) = 0.02973124
#
# Stress axis : x y z
#
# Youngs Moduli (GPa) = 81.25055 66.73330 79.47825
#
# Poissons Ratio (x) = 0.34432 0.05158
# Poissons Ratio (y) = 0.41922 -0.05857
# Poissons Ratio (z) = 0.05273 -0.04918
#
# Static dielectric constant tensor:
#      x y z
#    x 2.018310 0.000000 0.000000 
#    y 0.000000 2.057250 0.000000 
#    z 0.000000 0.000000 2.008380 
# 
# From -- ./inp_files/6332.got.cif
#   From: 2010.05.17/outbox.cif.g08.bks.cpg/sg56_4_cif.got.tgz:6332.got - 2010.06.03 13:42:01.
