data_PCOD9429872
_publ_section_title
;
Structure prediction by ZEFSAII (Michael W. Deem and Ramdas Pophale) SiO2 
 PCOD9429872
Probable space group: P C C N
;
_chemical_formula_sum "Si O2"
_cell_formula_units_Z 56
_cell_length_a 19.337779
_cell_length_b 6.210167
_cell_length_c 23.289655
_cell_angle_alpha 90.000000
_cell_angle_beta 90.000000
_cell_angle_gamma 90.000000
_cell_volume 2796.874162
_symmetry_space_group_name_H-M "P C C N"
_symmetry_group_IT_number 56
_symmetry_cell_setting 'orthorhombic'
loop_
_space_group_symop_operation_xyz
x,y,z
1/2-x,1/2-y,z
1/2+x,-y,1/2-z
-x,1/2+y,1/2-z
-x,-y,-z
1/2+x,1/2+y,-z
1/2-x,y,1/2+z
x,1/2-y,1/2+z
loop_
_atom_site_type_symbol
_atom_site_label
_atom_site_fract_x
_atom_site_fract_y
_atom_site_fract_z
Si Si1 0.672859 0.841687 0.643249
Si Si2 0.177282 0.122850 0.985376
Si Si3 0.854342 0.876457 0.407969
Si Si4 0.400677 0.487091 0.270190
Si Si5 0.250000 0.750000 0.552069
Si Si6 0.250000 0.250000 0.178213
Si Si7 0.455623 0.136045 0.189038
Si Si8 0.164322 0.901076 0.751403
O O1 0.750000 0.750000 0.639791
O O2 0.647414 0.881302 0.578684
O O3 0.630313 0.678774 0.683606
O O4 0.674447 0.055103 0.681508
O O5 0.250000 0.250000 0.982450
O O6 0.134829 0.262791 0.031242
O O7 0.199336 0.894696 0.012427
O O8 0.812254 0.709477 0.366766
O O9 0.925150 0.911763 0.373881
O O10 0.802340 0.084063 0.414424
O O11 0.433380 0.364459 0.215807
O O12 0.463738 0.602932 0.302407
O O13 0.341205 0.645541 0.246969
O O14 0.216296 0.440532 0.216705
O O15 0.410909 0.974574 0.228799
#
# Coordination Sequence:
#
# PCOD9429872 Si02
#       8
#     8   8   8   8   4   4   8   8
#     4  10  22  40  58  91 126 157 210 257 307 380
#     4   9  19  37  58  86 126 157 206 256 315 380
#     4  10  20  37  58  89 126 152 208 263 306 378
#     4  11  22  42  65  84 124 176 201 253 318 372
#     4  10  18  36  62  90 116 174 192 256 346 348
#     4  10  18  38  50  92 126 144 196 260 302 366
#     4  10  22  40  58  89 121 160 214 250 303 383
#     4  10  21  37  59  87 122 157 198 255 306 368
#
# _framework density 20.022352999999999
#
# number of rings (size 3 to 8) (size 9 to 14) (size 15 to 20)
#    0.000    2.000    4.286    0.000    0.000    6.286 
#    5.143    0.714    0.000    1.714    0.000    0.000 
#    0.000    0.000    0.000    0.000    0.000    0.000 
#
# Total GULP energy -311821.731084 kJ/mol
# GULP energy per Si atom -5568.245198 kJ/mol
# Density = 1.997678 g / cm^3
# Si number density = 20.022353 Si / 1000 Ang^3
#
#
#
# Elastic Constant Matrix: (Units=GPa)
#
#
# Indices 1 2 3 4 5 6 
#
# 1 57.7649 23.4330 15.6923 0.0000 0.0000 0.0000
# 2 23.4330 84.9854 25.0803 0.0000 0.0000 0.0000
# 3 15.6923 25.0803 119.2742 0.0000 0.0000 0.0000
# 4 0.0000 0.0000 0.0000 6.9966 0.0000 0.0000
# 5 0.0000 0.0000 0.0000 0.0000 14.7947 0.0000
# 6 0.0000 0.0000 0.0000 0.0000 0.0000 23.9243
#
#
#
# Elastic Compliance Matrix: (Units=1/GPa)
#
#
# Indices 1 2 3 4 5 6 
#
# 1 0.019757 -0.004990 -0.001550 0.000000 0.000000 0.000000
# 2 -0.004990 0.013806 -0.002246 0.000000 0.000000 0.000000
# 3 -0.001550 -0.002246 0.009060 0.000000 0.000000 0.000000
# 4 0.000000 0.000000 0.000000 0.142926 0.000000 0.000000
# 5 0.000000 0.000000 0.000000 0.000000 0.067592 0.000000
# 6 0.000000 0.000000 0.000000 0.000000 0.000000 0.041799
#
#
# Mechanical properties :
#
#
# Convention : Reuss Voigt Hill
#
# Bulk Modulus (GPa) = 39.92066 43.38173 41.65119
# Shear Modulus (GPa) = 15.58300 22.33105 18.95703
#
# Velocity S-wave (km/s) = 2.79279 3.34324 3.08034
# Velocity P-wave (km/s) = 5.51189 6.05117 5.78782
#
# Compressibility (1/GPa) = 0.02504969
#
# Stress axis : x y z
#
# Youngs Moduli (GPa) = 50.61519 72.43435 110.37116
#
# Poissons Ratio (x) = 0.36146 0.17108
# Poissons Ratio (y) = 0.25258 0.24794
# Poissons Ratio (z) = 0.07845 0.16272
#
# Static dielectric constant tensor:
#      x y z
#    x 1.707360 0.000000 0.000000 
#    y 0.000000 1.792060 0.000000 
#    z 0.000000 0.000000 1.741250 
# 
# From -- ./inp_files/21376.got.cif
#   From: 2010.05.17/outbox.cif.g08.bks.cpg/sg56_11_cif.got.tgz:21376.got - 2010.06.03 13:42:01.
