data_PCOD9429318
_publ_section_title
;
Structure prediction by ZEFSAII (Michael W. Deem and Ramdas Pophale) SiO2 
 PCOD9429318
Probable space group: P B A M
;
_chemical_formula_sum "Si O2"
_cell_formula_units_Z 64
_cell_length_a 24.000000
_cell_length_b 15.000000
_cell_length_c 9.000000
_cell_angle_alpha 90.000000
_cell_angle_beta 90.000000
_cell_angle_gamma 90.000000
_cell_volume 3240.000000
_symmetry_space_group_name_H-M "P B A M"
_symmetry_group_IT_number 55
_symmetry_cell_setting 'orthorhombic'
loop_
_space_group_symop_operation_xyz
x,y,z
-x,-y,z
1/2+x,1/2-y,-z
1/2-x,1/2+y,-z
-x,-y,-z
x,y,-z
1/2-x,1/2+y,z
1/2+x,1/2-y,z
loop_
_atom_site_type_symbol
_atom_site_label
_atom_site_fract_x
_atom_site_fract_y
_atom_site_fract_z
Si Si1 0.388359 0.535101 0.826801
Si Si2 0.661345 0.739232 0.326789
Si Si3 0.881252 0.617749 0.821385
Si Si4 0.447375 0.382230 0.328872
Si Si5 0.779207 0.927314 0.323026
Si Si6 0.725905 0.232869 0.822634
Si Si7 0.846985 0.444204 0.322622
Si Si8 0.452198 0.715871 0.175535
O O1 0.436073 0.472097 0.761717
O O2 0.330834 0.519079 0.741936
O O3 0.405835 0.638324 0.808586
O O4 0.381310 0.517260 0.000000
O O5 0.679820 0.745291 0.500000
O O6 0.609114 0.674938 0.318658
O O7 0.712670 0.705229 0.229389
O O8 0.644575 0.840374 0.281066
O O9 0.822544 0.664387 0.779348
O O10 0.883804 0.519476 0.754107
O O11 0.928273 0.688965 0.774937
O O12 0.882796 0.612072 0.000000
O O13 0.458515 0.403855 0.500000
O O14 0.495598 0.320899 0.263872
O O15 0.783378 0.923507 0.500000
O O16 0.717918 0.962948 0.284252
O O17 0.782540 0.828128 0.255774
O O18 0.723358 0.244806 0.000000
O O19 0.853561 0.450768 0.500000
O O20 0.465301 0.721135 0.000000
#
# Coordination Sequence:
#
# PCOD9429318 Si02
#       8
#     8   8   8   8   8   8   8   8
#     4  11  22  38  59  84 118 158 192 235 291 349
#     4   9  21  41  58  80 118 154 190 242 294 341
#     4  10  21  37  57  85 117 150 191 239 286 341
#     4  11  24  40  60  86 114 150 199 247 291 347
#     4  10  20  35  55  84 120 155 190 233 284 342
#     4  10  19  34  56  84 115 151 191 231 286 346
#     4   9  20  37  57  82 114 153 191 233 288 342
#     4  10  22  42  60  81 117 154 191 237 291 346
#
# _framework density 19.753086
#
# number of rings (size 3 to 8) (size 9 to 14) (size 15 to 20)
#    0.000    2.000    1.250    2.625    1.750    7.500 
#    0.000    0.625    0.000    3.750    0.000    0.000 
#    0.000    0.000    0.000    0.000    0.000    0.000 
#
# Total GULP energy -357403.382993 kJ/mol
# GULP energy per Si atom -5584.427859 kJ/mol
# Density = 1.970813 g / cm^3
# Si number density = 19.753086 Si / 1000 Ang^3
#
#
#
# Elastic Constant Matrix: (Units=GPa)
#
#
# Indices 1 2 3 4 5 6 
#
# 1 39.0208 -6.2599 25.3428 0.0000 0.0000 0.0000
# 2 -6.2599 31.0752 1.4877 0.0000 0.0000 0.0000
# 3 25.3428 1.4877 26.3302 0.0000 0.0000 0.0000
# 4 0.0000 0.0000 0.0000 27.4572 0.0000 0.0000
# 5 0.0000 0.0000 0.0000 0.0000 29.2653 0.0000
# 6 0.0000 0.0000 0.0000 0.0000 0.0000 23.6000
#
#
#
# Elastic Compliance Matrix: (Units=1/GPa)
#
#
# Indices 1 2 3 4 5 6 
#
# 1 0.078620 0.019513 -0.076774 0.000000 0.000000 0.000000
# 2 0.019513 0.037110 -0.020878 0.000000 0.000000 0.000000
# 3 -0.076774 -0.020878 0.113054 0.000000 0.000000 0.000000
# 4 0.000000 0.000000 0.000000 0.036420 0.000000 0.000000
# 5 0.000000 0.000000 0.000000 0.000000 0.034170 0.000000
# 6 0.000000 0.000000 0.000000 0.000000 0.000000 0.042373
#
#
# Mechanical properties :
#
#
# Convention : Reuss Voigt Hill
#
# Bulk Modulus (GPa) = 13.79199 15.28526 14.53863
# Shear Modulus (GPa) = 9.57499 21.12154 15.34826
#
# Velocity S-wave (km/s) = 2.20406 3.27353 2.79051
# Velocity P-wave (km/s) = 3.67076 4.69499 4.21411
#
# Compressibility (1/GPa) = 0.07250583
#
# Stress axis : x y z
#
# Youngs Moduli (GPa) = 12.71941 26.94665 8.84536
#
# Poissons Ratio (x) = -0.52581 0.67909
# Poissons Ratio (y) = -0.24819 0.18467
# Poissons Ratio (z) = 0.97652 0.56259
#
# Static dielectric constant tensor:
#      x y z
#    x 1.720210 0.000000 0.000000 
#    y 0.000000 1.693010 0.000000 
#    z 0.000000 0.000000 1.664930 
# 
# From -- ./inp_files/9716.got.cif
#   From: 2010.05.17/outbox.ucp.g08.bks.cvg/sg55_5_cif.got.tgz:9716.got - 2010.06.11 16:36:00.
