data_PCOD9429839
_publ_section_title
;
Structure prediction by ZEFSAII (Michael W. Deem and Ramdas Pophale) SiO2 
 PCOD9429839
Probable space group: P C C N
;
_chemical_formula_sum "Si O2"
_cell_formula_units_Z 60
_cell_length_a 11.887625
_cell_length_b 14.247428
_cell_length_c 17.737249
_cell_angle_alpha 90.000000
_cell_angle_beta 90.000000
_cell_angle_gamma 90.000000
_cell_volume 3004.123830
_symmetry_space_group_name_H-M "P C C N"
_symmetry_group_IT_number 56
_symmetry_cell_setting 'orthorhombic'
loop_
_space_group_symop_operation_xyz
x,y,z
1/2-x,1/2-y,z
1/2+x,-y,1/2-z
-x,1/2+y,1/2-z
-x,-y,-z
1/2+x,1/2+y,-z
1/2-x,y,1/2+z
x,1/2-y,1/2+z
loop_
_atom_site_type_symbol
_atom_site_label
_atom_site_fract_x
_atom_site_fract_y
_atom_site_fract_z
Si Si1 0.808967 0.169103 0.569131
Si Si2 0.556278 0.625608 0.452230
Si Si3 0.484644 0.432070 0.377585
Si Si4 0.750000 0.750000 0.973566
Si Si5 0.789241 0.140426 0.311698
Si Si6 0.764799 0.499847 0.176020
Si Si7 0.353951 0.585771 0.049215
Si Si8 0.115827 0.094084 0.941682
O O1 0.750000 0.250000 0.617176
O O2 0.802833 0.071205 0.610619
O O3 0.722769 0.155694 0.500191
O O4 0.939622 0.183103 0.553278
O O5 0.543067 0.531089 0.402873
O O6 0.565804 0.601570 0.541546
O O7 0.663520 0.685343 0.427945
O O8 0.584189 0.366718 0.345592
O O9 0.382698 0.443305 0.317394
O O10 0.824034 0.815241 0.026747
O O11 0.750000 0.250000 0.302055
O O12 0.778733 0.069958 0.240505
O O13 0.707281 0.089604 0.371500
O O14 0.667052 0.562195 0.138463
O O15 0.483356 0.611599 0.060095
O O16 0.358029 0.488101 0.003077
#
# Coordination Sequence:
#
# PCOD9429839 Si02
#       8
#     8   8   8   4   8   8   8   8
#     4  10  18  35  60  87 120 153 202 248 296 351
#     4  10  20  35  63  92 118 155 195 249 302 357
#     4  10  21  42  61  83 121 162 194 241 312 362
#     4  12  20  32  62  96 116 144 206 244 288 356
#     4  12  25  38  64  90 117 154 212 250 286 358
#     4  10  23  40  58  83 122 170 191 239 310 364
#     4  10  21  37  58  89 119 154 194 246 304 344
#     4  10  22  37  59  88 124 156 191 246 302 349
#
# _framework density 19.972546999999999
#
# number of rings (size 3 to 8) (size 9 to 14) (size 15 to 20)
#    0.000    1.600    2.667    2.400    3.733    0.000 
#    0.000    0.000    5.867    0.800    0.000    0.000 
#    0.000    0.000    0.000    0.000    0.000    0.000 
#
# Total GULP energy -334396.210477 kJ/mol
# GULP energy per Si atom -5573.270175 kJ/mol
# Density = 1.992709 g / cm^3
# Si number density = 19.972547 Si / 1000 Ang^3
#
#
#
# Elastic Constant Matrix: (Units=GPa)
#
#
# Indices 1 2 3 4 5 6 
#
# 1 105.9927 43.8027 21.7078 0.0000 0.0000 0.0000
# 2 43.8027 59.6405 -1.9296 0.0000 0.0000 0.0000
# 3 21.7078 -1.9296 46.4508 0.0000 0.0000 0.0000
# 4 0.0000 0.0000 0.0000 12.2053 0.0000 0.0000
# 5 0.0000 0.0000 0.0000 0.0000 15.1024 0.0000
# 6 0.0000 0.0000 0.0000 0.0000 0.0000 41.5422
#
#
#
# Elastic Compliance Matrix: (Units=1/GPa)
#
#
# Indices 1 2 3 4 5 6 
#
# 1 0.016053 -0.012049 -0.008003 0.000000 0.000000 0.000000
# 2 -0.012049 0.025833 0.006704 0.000000 0.000000 0.000000
# 3 -0.008003 0.006704 0.025546 0.000000 0.000000 0.000000
# 4 0.000000 0.000000 0.000000 0.081932 0.000000 0.000000
# 5 0.000000 0.000000 0.000000 0.000000 0.066215 0.000000
# 6 0.000000 0.000000 0.000000 0.000000 0.000000 0.024072
#
#
# Mechanical properties :
#
#
# Convention : Reuss Voigt Hill
#
# Bulk Modulus (GPa) = 24.54729 37.69396 31.12062
# Shear Modulus (GPa) = 17.86192 23.67018 20.76605
#
# Velocity S-wave (km/s) = 2.99377 3.44632 3.22798
# Velocity P-wave (km/s) = 4.92619 5.89491 5.43219
#
# Compressibility (1/GPa) = 0.04073769
#
# Stress axis : x y z
#
# Youngs Moduli (GPa) = 62.29405 38.70980 39.14440
#
# Poissons Ratio (x) = 0.46641 0.31325
# Poissons Ratio (y) = 0.75057 -0.26242
# Poissons Ratio (z) = 0.49851 -0.25951
#
# Static dielectric constant tensor:
#      x y z
#    x 1.754430 0.000000 0.000000 
#    y 0.000000 1.897410 0.000000 
#    z 0.000000 0.000000 1.736790 
# 
# From -- ./inp_files/15778.got.cif
#   From: 2010.05.17/outbox.cif.g08.bks.cpg/sg56_8_cif.got.tgz:15778.got - 2010.06.03 13:42:01.
