data_PCOD9429256
_publ_section_title
;
Structure prediction by ZEFSAII (Michael W. Deem and Ramdas Pophale) SiO2 
 PCOD9429256
Probable space group: P B A M
;
_chemical_formula_sum "Si O2"
_cell_formula_units_Z 32
_cell_length_a 16.028704
_cell_length_b 13.208532
_cell_length_c 7.314547
_cell_angle_alpha 90.000000
_cell_angle_beta 90.000000
_cell_angle_gamma 90.000000
_cell_volume 1548.604070
_symmetry_space_group_name_H-M "P B A M"
_symmetry_group_IT_number 55
_symmetry_cell_setting 'orthorhombic'
loop_
_space_group_symop_operation_xyz
x,y,z
-x,-y,z
1/2+x,1/2-y,-z
1/2-x,1/2+y,-z
-x,-y,-z
x,y,-z
1/2-x,1/2+y,z
1/2+x,1/2-y,z
loop_
_atom_site_type_symbol
_atom_site_label
_atom_site_fract_x
_atom_site_fract_y
_atom_site_fract_z
Si Si1 0.905472 0.502220 0.779186
Si Si2 0.742033 0.407191 0.780794
Si Si3 0.506241 0.332272 0.500000
Si Si4 0.635761 0.520029 0.500000
Si Si5 0.617685 0.229351 0.782389
O O1 0.838389 0.418100 0.723310
O O2 0.868860 0.612686 0.734350
O O3 0.000000 0.500000 0.710101
O O4 0.910568 0.495164 0.000000
O O5 0.691232 0.495049 0.677003
O O6 0.695231 0.302380 0.735063
O O7 0.736780 0.420152 0.000000
O O8 0.565761 0.431456 0.500000
O O9 0.412775 0.374211 0.500000
O O10 0.536533 0.269390 0.675671
O O11 0.604303 0.236049 0.000000
#
# Coordination Sequence:
#
# PCOD9429256 Si02
#       5
#     8   8   4   4   8
#     4   9  18  35  57  81 111 145 182 226 271 322
#     4   9  18  34  55  78 107 144 182 222 270 323
#     4   9  18  33  52  77 111 141 175 224 268 322
#     4   9  18  33  52  77 109 141 175 224 274 317
#     4   9  18  34  55  78 108 145 181 220 270 323
#
# _framework density 20.66377
#
# number of rings (size 3 to 8) (size 9 to 14) (size 15 to 20)
#    0.000    3.000    0.000    0.000    0.000    2.000 
#    4.500    7.500    0.000    0.000    0.000    0.000 
#    0.000    0.000    0.000    0.000    0.000    0.000 
#
# Total GULP energy -178384.587391 kJ/mol
# GULP energy per Si atom -5574.518356 kJ/mol
# Density = 2.061674 g / cm^3
# Si number density = 20.663770 Si / 1000 Ang^3
#
#
#
# Elastic Constant Matrix: (Units=GPa)
#
#
# Indices 1 2 3 4 5 6 
#
# 1 132.6887 47.6487 18.7260 0.0000 0.0000 0.0000
# 2 47.6487 68.9478 17.0330 0.0000 0.0000 0.0000
# 3 18.7260 17.0330 75.5278 0.0000 0.0000 0.0000
# 4 0.0000 0.0000 0.0000 9.7898 0.0000 0.0000
# 5 0.0000 0.0000 0.0000 0.0000 2.1391 0.0000
# 6 0.0000 0.0000 0.0000 0.0000 0.0000 24.9262
#
#
#
# Elastic Compliance Matrix: (Units=1/GPa)
#
#
# Indices 1 2 3 4 5 6 
#
# 1 0.010093 -0.006732 -0.000984 0.000000 0.000000 0.000000
# 2 -0.006732 0.019850 -0.002807 0.000000 0.000000 0.000000
# 3 -0.000984 -0.002807 0.014117 0.000000 0.000000 0.000000
# 4 0.000000 0.000000 0.000000 0.102147 0.000000 0.000000
# 5 0.000000 0.000000 0.000000 0.000000 0.467485 0.000000
# 6 0.000000 0.000000 0.000000 0.000000 0.000000 0.040118
#
#
# Mechanical properties :
#
#
# Convention : Reuss Voigt Hill
#
# Bulk Modulus (GPa) = 43.45417 49.33110 46.39263
# Shear Modulus (GPa) = 7.32571 20.28812 13.80692
#
# Velocity S-wave (km/s) = 1.88491 3.13680 2.58770
# Velocity P-wave (km/s) = 5.08055 6.08641 5.60609
#
# Compressibility (1/GPa) = 0.02301275
#
# Stress axis : x y z
#
# Youngs Moduli (GPa) = 99.08121 50.37909 70.83506
#
# Poissons Ratio (x) = 0.33914 0.06972
# Poissons Ratio (y) = 0.66699 0.19886
# Poissons Ratio (z) = 0.09751 0.14143
#
# Static dielectric constant tensor:
#      x y z
#    x 1.755450 0.000000 0.000000 
#    y 0.000000 1.734080 0.000000 
#    z 0.000000 0.000000 1.742970 
# 
# From -- ./inp_files/3358.got.cif
#   From: 2010.05.17/outbox.cif.g08.bks.cpg/sg55_2_cif.got.tgz:3358.got - 2010.06.03 13:27:54.
