data_PCOD9429253
_publ_section_title
;
Structure prediction by ZEFSAII (Michael W. Deem and Ramdas Pophale) SiO2 
 PCOD9429253
Probable space group: P B A M
;
_chemical_formula_sum "Si O2"
_cell_formula_units_Z 40
_cell_length_a 7.652075
_cell_length_b 26.419180
_cell_length_c 7.521370
_cell_angle_alpha 90.000000
_cell_angle_beta 90.000000
_cell_angle_gamma 90.000000
_cell_volume 1520.531793
_symmetry_space_group_name_H-M "P B A M"
_symmetry_group_IT_number 55
_symmetry_cell_setting 'orthorhombic'
loop_
_space_group_symop_operation_xyz
x,y,z
-x,-y,z
1/2+x,1/2-y,-z
1/2-x,1/2+y,-z
-x,-y,-z
x,y,-z
1/2-x,1/2+y,z
1/2+x,1/2-y,z
loop_
_atom_site_type_symbol
_atom_site_label
_atom_site_fract_x
_atom_site_fract_y
_atom_site_fract_z
Si Si1 0.860286 0.042958 0.716600
Si Si2 0.855474 0.882394 0.289282
Si Si3 0.655595 0.174139 0.793541
Si Si4 0.278337 0.225355 0.794763
Si Si5 0.502734 0.069892 0.298126
O O1 0.847546 0.042083 0.500000
O O2 0.963876 0.093610 0.776073
O O3 0.659712 0.035271 0.780249
O O4 0.000000 0.000000 0.766178
O O5 0.851777 0.891492 0.500000
O O6 0.835709 0.822504 0.265317
O O7 0.682416 0.912030 0.216489
O O8 0.471638 0.203809 0.786533
O O9 0.775945 0.218373 0.714749
O O10 0.614081 0.122405 0.695047
O O11 0.694826 0.161750 0.000000
O O12 0.229408 0.233473 0.000000
O O13 0.464402 0.053771 0.500000
#
# Coordination Sequence:
#
# PCOD9429253 Si02
#       5
#     8   8   8   8   8
#     4   9  18  32  51  75  99 125 161 203 246 289
#     4   9  18  32  49  71  98 126 159 199 241 284
#     4   9  18  31  47  69  96 128 163 196 236 286
#     4   9  18  31  47  69  96 128 163 196 236 286
#     4   9  18  32  49  71  98 126 159 199 241 284
#
# _framework density 26.306588999999999
#
# number of rings (size 3 to 8) (size 9 to 14) (size 15 to 20)
#    0.000    3.000    0.000    0.000    2.800    1.600 
#    0.000    4.000    0.000    2.400    0.000    5.600 
#    0.000    0.000    0.000    0.000    0.000    0.000 
#
# Total GULP energy -223172.625681 kJ/mol
# GULP energy per Si atom -5579.315642 kJ/mol
# Density = 2.624671 g / cm^3
# Si number density = 26.306589 Si / 1000 Ang^3
#
#
#
# Elastic Constant Matrix: (Units=GPa)
#
#
# Indices 1 2 3 4 5 6 
#
# 1 163.6917 -2.9065 1.2187 0.0000 0.0000 0.0000
# 2 -2.9065 42.5313 3.3718 0.0000 0.0000 0.0000
# 3 1.2187 3.3718 71.0214 0.0000 0.0000 0.0000
# 4 0.0000 0.0000 0.0000 19.5593 0.0000 0.0000
# 5 0.0000 0.0000 0.0000 0.0000 11.4746 0.0000
# 6 0.0000 0.0000 0.0000 0.0000 0.0000 54.7427
#
#
#
# Elastic Compliance Matrix: (Units=1/GPa)
#
#
# Indices 1 2 3 4 5 6 
#
# 1 0.006118 0.000428 -0.000125 0.000000 0.000000 0.000000
# 2 0.000428 0.023631 -0.001129 0.000000 0.000000 0.000000
# 3 -0.000125 -0.001129 0.014136 0.000000 0.000000 0.000000
# 4 0.000000 0.000000 0.000000 0.051127 0.000000 0.000000
# 5 0.000000 0.000000 0.000000 0.000000 0.087149 0.000000
# 6 0.000000 0.000000 0.000000 0.000000 0.000000 0.018267
#
#
# Mechanical properties :
#
#
# Convention : Reuss Voigt Hill
#
# Bulk Modulus (GPa) = 23.67908 31.17917 27.42912
# Shear Modulus (GPa) = 23.13125 35.52600 29.32862
#
# Velocity S-wave (km/s) = 2.96851 3.67885 3.34260
# Velocity P-wave (km/s) = 4.55742 5.47021 5.03455
#
# Compressibility (1/GPa) = 0.04223138
#
# Stress axis : x y z
#
# Youngs Moduli (GPa) = 163.46340 42.31751 70.74123
#
# Poissons Ratio (x) = -0.01811 0.00886
# Poissons Ratio (y) = -0.06996 0.07988
# Poissons Ratio (z) = 0.02048 0.04779
#
# Static dielectric constant tensor:
#      x y z
#    x 2.325140 0.000000 0.000000 
#    y 0.000000 2.286790 0.000000 
#    z 0.000000 0.000000 1.998030 
# 
# From -- ./inp_files/2332.got.cif
#   From: 2010.05.17/outbox.cif.g08.bks.cpg/sg55_2_cif.got.tgz:2332.got - 2010.06.03 13:27:54.
