data_PCOD9429017
_publ_section_title
;
Structure prediction by ZEFSAII (Michael W. Deem and Ramdas Pophale) SiO2 
 PCOD9429017
Probable space group: P B A M
;
_chemical_formula_sum "Si O2"
_cell_formula_units_Z 48
_cell_length_a 8.164393
_cell_length_b 14.409119
_cell_length_c 18.205646
_cell_angle_alpha 90.000000
_cell_angle_beta 90.000000
_cell_angle_gamma 90.000000
_cell_volume 2141.743333
_symmetry_space_group_name_H-M "P B A M"
_symmetry_group_IT_number 55
_symmetry_cell_setting 'orthorhombic'
loop_
_space_group_symop_operation_xyz
x,y,z
-x,-y,z
1/2+x,1/2-y,-z
1/2-x,1/2+y,-z
-x,-y,-z
x,y,-z
1/2-x,1/2+y,z
1/2+x,1/2-y,z
loop_
_atom_site_type_symbol
_atom_site_label
_atom_site_fract_x
_atom_site_fract_y
_atom_site_fract_z
Si Si1 0.639419 0.786770 0.915777
Si Si2 0.662679 0.451398 0.151557
Si Si3 0.817253 0.545838 0.583832
Si Si4 0.325633 0.610807 0.682217
Si Si5 0.329125 0.857667 0.837403
Si Si6 0.535482 0.201057 0.678424
O O1 0.770611 0.866673 0.896059
O O2 0.465279 0.830540 0.896685
O O3 0.670975 0.700892 0.861509
O O4 0.650404 0.758690 0.000000
O O5 0.500000 0.500000 0.121555
O O6 0.634052 0.416680 0.234493
O O7 0.794984 0.533596 0.160424
O O8 0.760824 0.552640 0.500000
O O9 0.700188 0.479663 0.632096
O O10 0.853673 0.643992 0.621285
O O11 0.000000 0.500000 0.583800
O O12 0.453897 0.690194 0.660550
O O13 0.148792 0.662309 0.679974
O O14 0.390584 0.822868 0.758555
#
# Coordination Sequence:
#
# PCOD9429017 Si02
#       6
#     8   8   8   8   8   8
#     4  12  27  45  68  98 134 171 216 278 339 393
#     4  12  26  41  68  97 129 174 227 272 326 395
#     4   9  20  39  64  97 136 172 212 267 328 386
#     4  11  23  39  65  98 129 169 220 269 320 386
#     4  12  23  43  68  96 131 174 221 270 328 399
#     4  11  21  38  67  95 126 177 221 265 318 393
#
# _framework density 22.411650000000002
#
# number of rings (size 3 to 8) (size 9 to 14) (size 15 to 20)
#    0.000    0.833    5.000    2.000    2.333    3.000 
#    0.000    0.000    0.000    3.500    0.000    0.000 
#    0.000    0.000    0.000    0.000    0.000    0.000 
#
# Total GULP energy -268804.894954 kJ/mol
# GULP energy per Si atom -5600.101978 kJ/mol
# Density = 2.236064 g / cm^3
# Si number density = 22.411650 Si / 1000 Ang^3
#
#
#
# Elastic Constant Matrix: (Units=GPa)
#
#
# Indices 1 2 3 4 5 6 
#
# 1 50.1218 1.5081 -7.8816 0.0000 0.0000 0.0000
# 2 1.5081 84.9952 -14.0067 0.0000 0.0000 0.0000
# 3 -7.8816 -14.0067 65.7891 0.0000 0.0000 0.0000
# 4 0.0000 0.0000 0.0000 24.8460 0.0000 0.0000
# 5 0.0000 0.0000 0.0000 0.0000 9.7655 0.0000
# 6 0.0000 0.0000 0.0000 0.0000 0.0000 39.7110
#
#
#
# Elastic Compliance Matrix: (Units=1/GPa)
#
#
# Indices 1 2 3 4 5 6 
#
# 1 0.020335 0.000042 0.002445 0.000000 0.000000 0.000000
# 2 0.000042 0.012193 0.002601 0.000000 0.000000 0.000000
# 3 0.002445 0.002601 0.016047 0.000000 0.000000 0.000000
# 4 0.000000 0.000000 0.000000 0.040248 0.000000 0.000000
# 5 0.000000 0.000000 0.000000 0.000000 0.102401 0.000000
# 6 0.000000 0.000000 0.000000 0.000000 0.000000 0.025182
#
#
# Mechanical properties :
#
#
# Convention : Reuss Voigt Hill
#
# Bulk Modulus (GPa) = 17.02095 17.79397 17.40746
# Shear Modulus (GPa) = 22.14224 29.61693 25.87958
#
# Velocity S-wave (km/s) = 3.14662 3.63918 3.40183
# Velocity P-wave (km/s) = 4.56211 5.06113 4.81808
#
# Compressibility (1/GPa) = 0.05875112
#
# Stress axis : x y z
#
# Youngs Moduli (GPa) = 49.17726 82.01257 62.31785
#
# Poissons Ratio (x) = -0.00346 -0.15237
# Poissons Ratio (y) = -0.00207 -0.16209
# Poissons Ratio (z) = -0.12024 -0.21332
#
# Static dielectric constant tensor:
#      x y z
#    x 1.895210 0.000000 0.000000 
#    y 0.000000 1.834750 0.000000 
#    z 0.000000 0.000000 1.759710 
# 
# From -- ./inp_files/20756.got.cif
#   From: 2010.05.17/outbox.cif.g08.bks.cpg/sg55_11_cif.got.tgz:20756.got - 2010.06.03 13:27:54.
