data_PCOD9429718
_publ_section_title
;
Structure prediction by ZEFSAII (Michael W. Deem and Ramdas Pophale) SiO2 
 PCOD9429718
Probable space group: P C C N
;
_chemical_formula_sum "Si O2"
_cell_formula_units_Z 64
_cell_length_a 12.239299
_cell_length_b 17.642307
_cell_length_c 14.217375
_cell_angle_alpha 90.000000
_cell_angle_beta 90.000000
_cell_angle_gamma 90.000000
_cell_volume 3069.950255
_symmetry_space_group_name_H-M "P C C N"
_symmetry_group_IT_number 56
_symmetry_cell_setting 'orthorhombic'
loop_
_space_group_symop_operation_xyz
x,y,z
1/2-x,1/2-y,z
1/2+x,-y,1/2-z
-x,1/2+y,1/2-z
-x,-y,-z
1/2+x,1/2+y,-z
1/2-x,y,1/2+z
x,1/2-y,1/2+z
loop_
_atom_site_type_symbol
_atom_site_label
_atom_site_fract_x
_atom_site_fract_y
_atom_site_fract_z
Si Si1 0.960739 0.272285 0.976587
Si Si2 0.713159 0.886678 0.623557
Si Si3 0.919789 0.860807 0.758708
Si Si4 0.667096 0.805887 0.435341
Si Si5 0.002653 0.192548 0.793277
Si Si6 0.681901 0.471060 0.548513
Si Si7 0.535894 0.439992 0.389902
Si Si8 0.323871 0.685857 0.355243
O O1 0.940762 0.218357 0.888076
O O2 0.977945 0.358971 0.943575
O O3 0.870942 0.268157 0.056128
O O4 0.069303 0.244075 0.026082
O O5 0.814835 0.873521 0.692530
O O6 0.723660 0.837271 0.528841
O O7 0.602272 0.861772 0.676176
O O8 0.726645 0.970563 0.582232
O O9 0.881298 0.868710 0.865751
O O10 0.952843 0.772825 0.746376
O O11 0.016393 0.914245 0.718152
O O12 0.750000 0.750000 0.382324
O O13 0.920035 0.161837 0.715959
O O14 0.649947 0.467729 0.436703
O O15 0.563822 0.502525 0.587580
O O16 0.714260 0.391573 0.595771
O O17 0.250000 0.750000 0.305491
#
# Coordination Sequence:
#
# PCOD9429718 Si02
#       8
#     8   8   8   8   8   8   8   8
#     4   9  19  35  59  88 116 155 194 255 301 360
#     4  10  20  35  56  90 132 154 195 258 319 376
#     4  10  18  31  55  92 125 155 197 249 300 375
#     4  11  18  28  56  90 126 158 186 239 322 370
#     4  10  19  36  60  89 121 156 202 253 306 365
#     4   9  18  37  59  83 118 158 200 256 305 361
#     4   8  16  33  58  82 117 153 198 245 297 366
#     4  11  23  39  62  84 115 161 216 251 295 367
#
# _framework density 20.847242999999999
#
# number of rings (size 3 to 8) (size 9 to 14) (size 15 to 20)
#    0.000    2.250    1.250    4.125    0.000    0.500 
#    0.000    3.750   16.500    1.500    0.000    0.000 
#    0.000    0.000    0.000    0.000    0.000    0.000 
#
# Total GULP energy -356467.416522 kJ/mol
# GULP energy per Si atom -5569.803383 kJ/mol
# Density = 2.079979 g / cm^3
# Si number density = 20.847243 Si / 1000 Ang^3
#
#
#
# Elastic Constant Matrix: (Units=GPa)
#
#
# Indices 1 2 3 4 5 6 
#
# 1 30.1536 19.2794 15.7414 0.0000 0.0000 0.0000
# 2 19.2794 62.4950 -10.0528 0.0000 0.0000 0.0000
# 3 15.7414 -10.0528 59.1196 0.0000 0.0000 0.0000
# 4 0.0000 0.0000 0.0000 -17.5374 0.0000 0.0000
# 5 0.0000 0.0000 0.0000 0.0000 40.6276 0.0000
# 6 0.0000 0.0000 0.0000 0.0000 0.0000 14.1556
#
#
#
# Elastic Compliance Matrix: (Units=1/GPa)
#
#
# Indices 1 2 3 4 5 6 
#
# 1 0.055458 -0.020032 -0.018173 0.000000 0.000000 0.000000
# 2 -0.020032 0.023687 0.009362 0.000000 0.000000 0.000000
# 3 -0.018173 0.009362 0.023346 0.000000 0.000000 0.000000
# 4 0.000000 0.000000 0.000000 -0.057021 0.000000 0.000000
# 5 0.000000 0.000000 0.000000 0.000000 0.024614 0.000000
# 6 0.000000 0.000000 0.000000 0.000000 0.000000 0.070643
#
#
# Mechanical properties :
#
#
# Convention : Reuss Voigt Hill
#
# Bulk Modulus (GPa) = 22.31922 22.41156 22.36539
# Shear Modulus (GPa) = 23.43582 15.90250 19.66916
#
# Velocity S-wave (km/s) = 3.35650 2.76490 3.07496
# Velocity P-wave (km/s) = 5.07452 4.57893 4.83308
#
# Compressibility (1/GPa) = 0.04480444
#
# Stress axis : x y z
#
# Youngs Moduli (GPa) = 18.03151 42.21739 42.83473
#
# Poissons Ratio (x) = 0.84570 0.77843
# Poissons Ratio (y) = 0.36121 -0.40100
# Poissons Ratio (z) = 0.32768 -0.39522
#
# Static dielectric constant tensor:
#      x y z
#    x 1.780830 0.000000 0.000000 
#    y 0.000000 1.788300 0.000000 
#    z 0.000000 0.000000 1.834230 
# 
# From -- ./inp_files/11857.got.cif
#   From: 2010.05.17/outbox.cif.g08.bks.cpg/sg56_6_cif.got.tgz:11857.got - 2010.06.03 13:42:01.
