data_PCOD9429344
_publ_section_title
;
Structure prediction by ZEFSAII (Michael W. Deem and Ramdas Pophale) SiO2 
 PCOD9429344
Probable space group: P B A M
;
_chemical_formula_sum "Si O2"
_cell_formula_units_Z 64
_cell_length_a 12.000000
_cell_length_b 30.000000
_cell_length_c 9.000000
_cell_angle_alpha 90.000000
_cell_angle_beta 90.000000
_cell_angle_gamma 90.000000
_cell_volume 3240.000000
_symmetry_space_group_name_H-M "P B A M"
_symmetry_group_IT_number 55
_symmetry_cell_setting 'orthorhombic'
loop_
_space_group_symop_operation_xyz
x,y,z
-x,-y,z
1/2+x,1/2-y,-z
1/2-x,1/2+y,-z
-x,-y,-z
x,y,-z
1/2-x,1/2+y,z
1/2+x,1/2-y,z
loop_
_atom_site_type_symbol
_atom_site_label
_atom_site_fract_x
_atom_site_fract_y
_atom_site_fract_z
Si Si1 0.898532 0.181863 0.663701
Si Si2 0.516296 0.551815 0.835624
Si Si3 0.285588 0.413989 0.335905
Si Si4 0.795284 0.911848 0.320617
Si Si5 0.806714 0.717323 0.175415
Si Si6 0.340801 0.686801 0.675658
Si Si7 0.082275 0.376020 0.175802
Si Si8 0.561295 0.952849 0.678645
O O1 0.886271 0.203772 0.500000
O O2 0.849593 0.132685 0.651096
O O3 0.820152 0.205041 0.782917
O O4 0.027752 0.178112 0.698105
O O5 0.500000 0.500000 0.854627
O O6 0.621309 0.554367 0.726989
O O7 0.407120 0.573066 0.761860
O O8 0.537792 0.572293 0.000000
O O9 0.241513 0.426474 0.500000
O O10 0.191274 0.404883 0.216043
O O11 0.812154 0.912538 0.500000
O O12 0.777380 0.859095 0.280122
O O13 0.692731 0.945388 0.285908
O O14 0.822743 0.765973 0.245235
O O15 0.885790 0.675086 0.227139
O O16 0.822014 0.719772 0.000000
O O17 0.320175 0.693074 0.500000
O O18 0.991224 0.406881 0.256642
O O19 0.061216 0.374229 0.000000
O O20 0.550666 0.951778 0.500000
O O21 0.500000 0.000000 0.726691
#
# Coordination Sequence:
#
# PCOD9429344 Si02
#       8
#     8   8   8   8   8   8   8   8
#     4   9  18  35  57  81 111 147 191 240 294 351
#     4  11  24  38  56  89 126 156 192 239 303 370
#     4  10  19  36  62  87 114 150 196 244 295 349
#     4  10  22  42  63  88 122 158 205 256 303 362
#     4  10  22  37  56  87 121 157 199 245 304 369
#     4  10  20  37  60  86 116 154 200 248 302 358
#     4  10  22  40  60  86 123 161 203 252 309 368
#     4  10  23  42  64  91 121 162 215 263 310 366
#
# _framework density 19.753086
#
# number of rings (size 3 to 8) (size 9 to 14) (size 15 to 20)
#    0.000    2.000    1.250    1.500    1.750    5.750 
#    0.000    3.750    0.000    0.000    0.000    0.000 
#    0.000    0.000    0.000    0.000    0.000    0.000 
#
# Total GULP energy -356384.171885 kJ/mol
# GULP energy per Si atom -5568.502686 kJ/mol
# Density = 1.970813 g / cm^3
# Si number density = 19.753086 Si / 1000 Ang^3
#
#
#
# Elastic Constant Matrix: (Units=GPa)
#
#
# Indices 1 2 3 4 5 6 
#
# 1 22.5972 11.2621 -2.2014 0.0000 0.0000 0.0000
# 2 11.2621 86.1489 25.3011 0.0000 0.0000 0.0000
# 3 -2.2014 25.3011 20.6733 0.0000 0.0000 0.0000
# 4 0.0000 0.0000 0.0000 34.9480 0.0000 0.0000
# 5 0.0000 0.0000 0.0000 0.0000 10.6055 0.0000
# 6 0.0000 0.0000 0.0000 0.0000 0.0000 19.0635
#
#
#
# Elastic Compliance Matrix: (Units=1/GPa)
#
#
# Indices 1 2 3 4 5 6 
#
# 1 0.053098 -0.013429 0.022089 0.000000 0.000000 0.000000
# 2 -0.013429 0.021517 -0.027764 0.000000 0.000000 0.000000
# 3 0.022089 -0.027764 0.084703 0.000000 0.000000 0.000000
# 4 0.000000 0.000000 0.000000 0.028614 0.000000 0.000000
# 5 0.000000 0.000000 0.000000 0.000000 0.094291 0.000000
# 6 0.000000 0.000000 0.000000 0.000000 0.000000 0.052456
#
#
# Mechanical properties :
#
#
# Convention : Reuss Voigt Hill
#
# Bulk Modulus (GPa) = 8.25697 22.01589 15.13643
# Shear Modulus (GPa) = 12.09902 19.26057 15.67980
#
# Velocity S-wave (km/s) = 2.47758 3.12599 2.82048
# Velocity P-wave (km/s) = 3.51763 4.91923 4.27625
#
# Compressibility (1/GPa) = 0.12110984
#
# Stress axis : x y z
#
# Youngs Moduli (GPa) = 18.83323 46.47423 11.80600
#
# Poissons Ratio (x) = 0.62408 -0.26078
# Poissons Ratio (y) = 0.25290 0.32778
# Poissons Ratio (z) = -0.41600 1.29031
#
# Static dielectric constant tensor:
#      x y z
#    x 1.523130 0.000000 0.000000 
#    y 0.000000 1.721920 0.000000 
#    z 0.000000 0.000000 2.223310 
# 
# From -- ./inp_files/4702.got.cif
#   From: 2010.05.17/outbox.ucp.g08.bks.cvg/sg55_3_cif.got.tgz:4702.got - 2010.06.11 16:36:00.
