data_PCOD9429131
_publ_section_title
;
Structure prediction by ZEFSAII (Michael W. Deem and Ramdas Pophale) SiO2 
 PCOD9429131
Probable space group: P B A M
;
_chemical_formula_sum "Si O2"
_cell_formula_units_Z 48
_cell_length_a 10.781044
_cell_length_b 23.088994
_cell_length_c 9.762888
_cell_angle_alpha 90.000000
_cell_angle_beta 90.000000
_cell_angle_gamma 90.000000
_cell_volume 2430.211863
_symmetry_space_group_name_H-M "P B A M"
_symmetry_group_IT_number 55
_symmetry_cell_setting 'orthorhombic'
loop_
_space_group_symop_operation_xyz
x,y,z
-x,-y,z
1/2+x,1/2-y,-z
1/2-x,1/2+y,-z
-x,-y,-z
x,y,-z
1/2-x,1/2+y,z
1/2+x,1/2-y,z
loop_
_atom_site_type_symbol
_atom_site_label
_atom_site_fract_x
_atom_site_fract_y
_atom_site_fract_z
Si Si1 0.659118 0.187269 0.159517
Si Si2 0.184800 0.924108 0.841258
Si Si3 0.047562 0.086699 0.655069
Si Si4 0.195631 0.514530 0.657276
Si Si5 0.695961 0.298066 0.344082
Si Si6 0.549754 0.871368 0.341553
O O1 0.773783 0.142711 0.167165
O O2 0.686496 0.246898 0.236442
O O3 0.547892 0.155235 0.238110
O O4 0.629484 0.196633 0.000000
O O5 0.054918 0.930901 0.763672
O O6 0.286664 0.962552 0.762059
O O7 0.177311 0.941037 0.000000
O O8 0.997340 0.079995 0.500000
O O9 0.173015 0.049183 0.662584
O O10 0.090505 0.153063 0.674736
O O11 0.177981 0.494907 0.500000
O O12 0.091758 0.562689 0.688590
O O13 0.684873 0.275341 0.500000
O O14 0.825814 0.332299 0.334457
O O15 0.506319 0.869345 0.500000
#
# Coordination Sequence:
#
# PCOD9429131 Si02
#       6
#     8   8   8   8   8   8
#     4  11  25  39  53  81 120 156 188 229 280 340
#     4  11  24  37  52  83 122 155 189 227 276 340
#     4   9  19  37  61  87 112 143 186 239 290 331
#     4   9  19  38  62  86 112 144 188 241 288 331
#     4   9  20  39  62  85 109 142 189 241 287 334
#     4   9  20  40  63  85 109 143 192 241 286 336
#
# _framework density 19.751363999999999
#
# number of rings (size 3 to 8) (size 9 to 14) (size 15 to 20)
#    0.000    2.333    0.000    3.500    2.333    8.000 
#    0.000    6.667    0.000    0.000    0.000    0.000 
#    0.000    0.000    0.000    0.000    0.000    0.000 
#
# Total GULP energy -268214.963083 kJ/mol
# GULP energy per Si atom -5587.811731 kJ/mol
# Density = 1.970641 g / cm^3
# Si number density = 19.751364 Si / 1000 Ang^3
#
#
#
# Elastic Constant Matrix: (Units=GPa)
#
#
# Indices 1 2 3 4 5 6 
#
# 1 48.0512 3.3144 28.1631 0.0000 0.0000 0.0000
# 2 3.3144 94.9985 60.3674 0.0000 0.0000 0.0000
# 3 28.1631 60.3674 113.7286 0.0000 0.0000 0.0000
# 4 0.0000 0.0000 0.0000 13.8193 0.0000 0.0000
# 5 0.0000 0.0000 0.0000 0.0000 38.4798 0.0000
# 6 0.0000 0.0000 0.0000 0.0000 0.0000 18.0574
#
#
#
# Elastic Compliance Matrix: (Units=1/GPa)
#
#
# Indices 1 2 3 4 5 6 
#
# 1 0.025689 0.004748 -0.008882 0.000000 0.000000 0.000000
# 2 0.004748 0.016762 -0.010073 0.000000 0.000000 0.000000
# 3 -0.008882 -0.010073 0.016339 0.000000 0.000000 0.000000
# 4 0.000000 0.000000 0.000000 0.072363 0.000000 0.000000
# 5 0.000000 0.000000 0.000000 0.000000 0.025988 0.000000
# 6 0.000000 0.000000 0.000000 0.000000 0.000000 0.055379
#
#
# Mechanical properties :
#
#
# Convention : Reuss Voigt Hill
#
# Bulk Modulus (GPa) = 32.92051 48.94092 40.93071
# Shear Modulus (GPa) = 19.91571 25.06685 22.49128
#
# Velocity S-wave (km/s) = 3.17885 3.56634 3.37815
# Velocity P-wave (km/s) = 5.49337 6.46457 5.99866
#
# Compressibility (1/GPa) = 0.03037620
#
# Stress axis : x y z
#
# Youngs Moduli (GPa) = 38.92686 59.65995 61.20360
#
# Poissons Ratio (x) = -0.28324 0.54358
# Poissons Ratio (y) = -0.18481 0.61649
# Poissons Ratio (z) = 0.34573 0.60094
#
# Static dielectric constant tensor:
#      x y z
#    x 1.696630 0.000000 0.000000 
#    y 0.000000 1.703600 0.000000 
#    z 0.000000 0.000000 1.654820 
# 
# From -- ./inp_files/4054.got.cif
#   From: 2010.05.17/outbox.cif.g08.bks.cpg/sg55_3_cif.got.tgz:4054.got - 2010.06.03 13:27:54.
