data_PCOD9429405
_publ_section_title
;
Structure prediction by ZEFSAII (Michael W. Deem and Ramdas Pophale) SiO2 
 PCOD9429405
Probable space group: P B A M
;
_chemical_formula_sum "Si O2"
_cell_formula_units_Z 64
_cell_length_a 12.000000
_cell_length_b 18.000000
_cell_length_c 15.000000
_cell_angle_alpha 90.000000
_cell_angle_beta 90.000000
_cell_angle_gamma 90.000000
_cell_volume 3240.000000
_symmetry_space_group_name_H-M "P B A M"
_symmetry_group_IT_number 55
_symmetry_cell_setting 'orthorhombic'
loop_
_space_group_symop_operation_xyz
x,y,z
-x,-y,z
1/2+x,1/2-y,-z
1/2-x,1/2+y,-z
-x,-y,-z
x,y,-z
1/2-x,1/2+y,z
1/2+x,1/2-y,z
loop_
_atom_site_type_symbol
_atom_site_label
_atom_site_fract_x
_atom_site_fract_y
_atom_site_fract_z
Si Si1 0.063769 0.679337 0.399974
Si Si2 0.898386 0.300593 0.099259
Si Si3 0.567307 0.629600 0.894492
Si Si4 0.923881 0.650273 0.776185
Si Si5 0.298292 0.443523 0.744086
Si Si6 0.336906 0.689272 0.840385
Si Si7 0.548515 0.642271 0.398961
Si Si8 0.205797 0.108987 0.661281
O O1 0.020806 0.664042 0.500000
O O2 0.071409 0.769197 0.391610
O O3 0.182710 0.636350 0.390269
O O4 0.978068 0.658224 0.321729
O O5 0.896773 0.214381 0.132678
O O6 0.768775 0.318860 0.097103
O O7 0.967832 0.357897 0.159700
O O8 0.947914 0.298697 0.000000
O O9 0.629539 0.568782 0.834542
O O10 0.436640 0.636717 0.872951
O O11 0.587110 0.619984 0.000000
O O12 0.822572 0.592454 0.766516
O O13 0.876216 0.726248 0.821615
O O14 0.371235 0.397469 0.671736
O O15 0.287073 0.525566 0.701532
O O16 0.295956 0.663044 0.745067
O O17 0.575896 0.619171 0.500000
O O18 0.417011 0.622383 0.382872
#
# Coordination Sequence:
#
# PCOD9429405 Si02
#       8
#     8   8   8   8   8   8   8   8
#     4  11  24  43  69  98 125 167 219 273 326 385
#     4  10  20  37  67  99 127 168 226 280 325 378
#     4  10  21  37  62  96 129 169 216 273 332 390
#     4  11  22  40  65  92 134 171 214 270 324 392
#     4  12  25  41  63  96 135 179 212 262 336 398
#     4  11  19  38  66  93 126 166 225 276 322 379
#     4  11  24  43  70  97 126 165 218 275 327 386
#     4  12  24  42  67  92 131 173 214 263 328 397
#
# _framework density 19.753086
#
# number of rings (size 3 to 8) (size 9 to 14) (size 15 to 20)
#    0.000    1.000    5.000    2.625    0.000    3.500 
#    0.000    2.500    0.000    0.750    0.000    0.000 
#    0.000    0.000    0.000    0.000    0.000    0.000 
#
# Total GULP energy -356920.981848 kJ/mol
# GULP energy per Si atom -5576.890341 kJ/mol
# Density = 1.970813 g / cm^3
# Si number density = 19.753086 Si / 1000 Ang^3
#
#
#
# Elastic Constant Matrix: (Units=GPa)
#
#
# Indices 1 2 3 4 5 6 
#
# 1 125.5082 33.2354 32.0361 0.0000 0.0000 0.0000
# 2 33.2354 48.4090 -1.2940 0.0000 0.0000 0.0000
# 3 32.0361 -1.2940 89.8986 0.0000 0.0000 0.0000
# 4 0.0000 0.0000 0.0000 -9.7724 0.0000 0.0000
# 5 0.0000 0.0000 0.0000 0.0000 30.4098 0.0000
# 6 0.0000 0.0000 0.0000 0.0000 0.0000 24.9482
#
#
#
# Elastic Compliance Matrix: (Units=1/GPa)
#
#
# Indices 1 2 3 4 5 6 
#
# 1 0.011034 -0.007684 -0.004043 0.000000 0.000000 0.000000
# 2 -0.007684 0.026016 0.003113 0.000000 0.000000 0.000000
# 3 -0.004043 0.003113 0.012609 0.000000 0.000000 0.000000
# 4 0.000000 0.000000 0.000000 -0.102329 0.000000 0.000000
# 5 0.000000 0.000000 0.000000 0.000000 0.032884 0.000000
# 6 0.000000 0.000000 0.000000 0.000000 0.000000 0.040083
#
#
# Mechanical properties :
#
#
# Convention : Reuss Voigt Hill
#
# Bulk Modulus (GPa) = 30.83416 43.53008 37.18212
# Shear Modulus (GPa) = 103.44448 22.43969 62.94208
#
# Velocity S-wave (km/s) = 7.24448 3.37413 5.65098
# Velocity P-wave (km/s) = 9.25312 6.10447 7.83852
#
# Compressibility (1/GPa) = 0.03243156
#
# Stress axis : x y z
#
# Youngs Moduli (GPa) = 90.62738 38.43820 79.30778
#
# Poissons Ratio (x) = 0.29535 0.32062
# Poissons Ratio (y) = 0.69635 -0.24685
# Poissons Ratio (z) = 0.36638 -0.11964
#
# Static dielectric constant tensor:
#      x y z
#    x 1.802760 0.000000 0.000000 
#    y 0.000000 1.694460 0.000000 
#    z 0.000000 0.000000 1.742480 
# 
# From -- ./inp_files/18571.got.cif
#   From: 2010.05.17/outbox.ucp.g08.bks.cvg/sg55_10_cif.got.tgz:18571.got - 2010.06.11 16:36:00.
