data_PCOD9429940
_publ_section_title
;
Structure prediction by ZEFSAII (Michael W. Deem and Ramdas Pophale) SiO2 
 PCOD9429940
Probable space group: P C C N
;
_chemical_formula_sum "Si O2"
_cell_formula_units_Z 44
_cell_length_a 8.411597
_cell_length_b 27.147074
_cell_length_c 8.746255
_cell_angle_alpha 90.000000
_cell_angle_beta 90.000000
_cell_angle_gamma 90.000000
_cell_volume 1997.209483
_symmetry_space_group_name_H-M "P C C N"
_symmetry_group_IT_number 56
_symmetry_cell_setting 'orthorhombic'
loop_
_space_group_symop_operation_xyz
x,y,z
1/2-x,1/2-y,z
1/2+x,-y,1/2-z
-x,1/2+y,1/2-z
-x,-y,-z
1/2+x,1/2+y,-z
1/2-x,y,1/2+z
x,1/2-y,1/2+z
loop_
_atom_site_type_symbol
_atom_site_label
_atom_site_fract_x
_atom_site_fract_y
_atom_site_fract_z
Si Si1 0.598368 0.413193 0.156876
Si Si2 0.198604 0.378803 0.518312
Si Si3 0.921588 0.188378 0.023004
Si Si4 0.107655 0.065466 0.708239
Si Si5 0.294478 0.532691 0.130057
Si Si6 0.250000 0.750000 0.732633
O O1 0.411975 0.402239 0.153028
O O2 0.658588 0.362963 0.078183
O O3 0.664929 0.426832 0.319753
O O4 0.638853 0.457067 0.038590
O O5 0.372430 0.390794 0.582320
O O6 0.159351 0.409837 0.368117
O O7 0.108063 0.326404 0.499363
O O8 0.883745 0.225951 0.159157
O O9 0.836398 0.209982 0.874537
O O10 0.934913 0.043223 0.747990
O O11 0.209892 0.019274 0.649149
#
# Coordination Sequence:
#
# PCOD9429940 Si02
#       6
#     8   8   8   8   8   4
#     4   9  20  36  55  85 113 153 187 249 279 348
#     4   9  22  38  54  81 120 153 195 236 295 333
#     4   9  20  37  63  94 113 144 185 251 296 356
#     4  11  22  37  54  84 121 165 199 242 270 345
#     4  11  21  34  56  82 121 157 209 230 282 324
#     4  10  18  38  70  96 108 136 194 244 310 362
#
# _framework density 22.030737999999999
#
# number of rings (size 3 to 8) (size 9 to 14) (size 15 to 20)
#    1.091    1.091    0.000    3.273    0.000    7.273 
#    0.000    0.000    0.000    3.273    0.000    0.000 
#    0.000    0.000    0.000    0.000    0.000    0.000 
#
# Total GULP energy -245010.887737 kJ/mol
# GULP energy per Si atom -5568.429267 kJ/mol
# Density = 2.198060 g / cm^3
# Si number density = 22.030738 Si / 1000 Ang^3
#
#
#
# Elastic Constant Matrix: (Units=GPa)
#
#
# Indices 1 2 3 4 5 6 
#
# 1 48.0805 9.7977 11.3994 0.0000 0.0000 0.0000
# 2 9.7977 75.4342 16.9967 0.0000 0.0000 0.0000
# 3 11.3994 16.9967 31.1589 0.0000 0.0000 0.0000
# 4 0.0000 0.0000 0.0000 28.5003 0.0000 0.0000
# 5 0.0000 0.0000 0.0000 0.0000 24.9646 0.0000
# 6 0.0000 0.0000 0.0000 0.0000 0.0000 27.2736
#
#
#
# Elastic Compliance Matrix: (Units=1/GPa)
#
#
# Indices 1 2 3 4 5 6 
#
# 1 0.022875 -0.001238 -0.007694 0.000000 0.000000 0.000000
# 2 -0.001238 0.015181 -0.007828 0.000000 0.000000 0.000000
# 3 -0.007694 -0.007828 0.039178 0.000000 0.000000 0.000000
# 4 0.000000 0.000000 0.000000 0.035087 0.000000 0.000000
# 5 0.000000 0.000000 0.000000 0.000000 0.040057 0.000000
# 6 0.000000 0.000000 0.000000 0.000000 0.000000 0.036665
#
#
# Mechanical properties :
#
#
# Convention : Reuss Voigt Hill
#
# Bulk Modulus (GPa) = 22.87523 25.67345 24.27434
# Shear Modulus (GPa) = 21.08506 23.91302 22.49904
#
# Velocity S-wave (km/s) = 3.09702 3.29817 3.19918
# Velocity P-wave (km/s) = 4.81607 5.11690 4.96877
#
# Compressibility (1/GPa) = 0.04371541
#
# Stress axis : x y z
#
# Youngs Moduli (GPa) = 43.71642 65.87099 25.52422
#
# Poissons Ratio (x) = 0.08152 0.19637
# Poissons Ratio (y) = 0.05410 0.19981
# Poissons Ratio (z) = 0.33634 0.51566
#
# Static dielectric constant tensor:
#      x y z
#    x 1.908930 0.000000 0.000000 
#    y 0.000000 1.845100 0.000000 
#    z 0.000000 0.000000 1.783750 
# 
# From -- ./inp_files/2191.got.cif
#   From: 2010.05.17/outbox.cif.g08.bks.cpg/sg56_2_cif.got.tgz:2191.got - 2010.06.03 13:42:01.
