data_PCOD9429493
_publ_section_title
;
Structure prediction by ZEFSAII (Michael W. Deem and Ramdas Pophale) SiO2 
 PCOD9429493
Probable space group: P C C N
;
_chemical_formula_sum "Si O2"
_cell_formula_units_Z 44
_cell_length_a 12.291318
_cell_length_b 13.845279
_cell_length_c 9.875430
_cell_angle_alpha 90.000000
_cell_angle_beta 90.000000
_cell_angle_gamma 90.000000
_cell_volume 1680.568355
_symmetry_space_group_name_H-M "P C C N"
_symmetry_group_IT_number 56
_symmetry_cell_setting 'orthorhombic'
loop_
_space_group_symop_operation_xyz
x,y,z
1/2-x,1/2-y,z
1/2+x,-y,1/2-z
-x,1/2+y,1/2-z
-x,-y,-z
1/2+x,1/2+y,-z
1/2-x,y,1/2+z
x,1/2-y,1/2+z
loop_
_atom_site_type_symbol
_atom_site_label
_atom_site_fract_x
_atom_site_fract_y
_atom_site_fract_z
Si Si1 0.589327 0.091245 0.551525
Si Si2 0.207402 0.506516 0.797209
Si Si3 0.512180 0.137932 0.281731
Si Si4 0.863008 0.544473 0.931712
Si Si5 0.545643 0.349130 0.326682
Si Si6 0.250000 0.750000 0.079885
O O1 0.681014 0.026753 0.622801
O O2 0.517963 0.073396 0.417635
O O3 0.513429 0.120115 0.676579
O O4 0.668078 0.182422 0.504907
O O5 0.127313 0.599331 0.782708
O O6 0.249005 0.471655 0.650534
O O7 0.151060 0.435024 0.908173
O O8 0.491153 0.244620 0.342650
O O9 0.427438 0.119198 0.162249
O O10 0.930947 0.443633 0.917066
O O11 0.671716 0.312719 0.327086
#
# Coordination Sequence:
#
# PCOD9429493 Si02
#       6
#     8   8   8   8   8   4
#     4  10  17  32  55  87 121 149 193 250 312 356
#     4  11  20  41  58  91 123 159 197 251 310 364
#     4  11  23  36  60  93 123 165 201 245 310 366
#     4  11  23  40  64  91 124 161 200 256 306 365
#     4  10  20  31  56  87 124 150 195 247 306 364
#     4  10  14  28  50  82 116 146 180 240 314 354
#
# _framework density 26.181619000000001
#
# number of rings (size 3 to 8) (size 9 to 14) (size 15 to 20)
#    0.000    1.455    3.636    5.455    2.545    2.909 
#    0.000    0.000    0.000    1.091    4.727    0.000 
#    0.000    0.000    0.000    0.000    0.000    0.000 
#
# Total GULP energy -245138.288017 kJ/mol
# GULP energy per Si atom -5571.324728 kJ/mol
# Density = 2.612203 g / cm^3
# Si number density = 26.181619 Si / 1000 Ang^3
#
#
#
# Elastic Constant Matrix: (Units=GPa)
#
#
# Indices 1 2 3 4 5 6 
#
# 1 48.2605 -17.1253 -9.1015 0.0000 0.0000 0.0000
# 2 -17.1253 70.2118 6.1840 0.0000 0.0000 0.0000
# 3 -9.1015 6.1840 174.0090 0.0000 0.0000 0.0000
# 4 0.0000 0.0000 0.0000 29.4127 0.0000 0.0000
# 5 0.0000 0.0000 0.0000 0.0000 -8.3619 0.0000
# 6 0.0000 0.0000 0.0000 0.0000 0.0000 21.3666
#
#
#
# Elastic Compliance Matrix: (Units=1/GPa)
#
#
# Indices 1 2 3 4 5 6 
#
# 1 0.022857 0.005487 0.001001 0.000000 0.000000 0.000000
# 2 0.005487 0.015604 -0.000268 0.000000 0.000000 0.000000
# 3 0.001001 -0.000268 0.005809 0.000000 0.000000 0.000000
# 4 0.000000 0.000000 0.000000 0.033999 0.000000 0.000000
# 5 0.000000 0.000000 0.000000 0.000000 -0.119590 0.000000
# 6 0.000000 0.000000 0.000000 0.000000 0.000000 0.046802
#
#
# Mechanical properties :
#
#
# Convention : Reuss Voigt Hill
#
# Bulk Modulus (GPa) = 17.63384 28.04398 22.83891
# Shear Modulus (GPa) = 418.61286 29.31842 223.96564
#
# Velocity S-wave (km/s) = 12.65840 3.34999 9.25898
# Velocity P-wave (km/s) = 14.84576 5.06930 11.09267
#
# Compressibility (1/GPa) = 0.05670915
#
# Stress axis : x y z
#
# Youngs Moduli (GPa) = 43.75112 64.08426 172.15645
#
# Poissons Ratio (x) = -0.35162 -0.17225
# Poissons Ratio (y) = -0.24005 0.04606
# Poissons Ratio (z) = -0.04377 0.01715
#
# Static dielectric constant tensor:
#      x y z
#    x 2.220610 0.000000 0.000000 
#    y 0.000000 2.231040 0.000000 
#    z 0.000000 0.000000 2.108640 
# 
# From -- ./inp_files/7077.got.cif
#   From: 2010.05.17/outbox.cif.g08.bks.cpg/sg56_4_cif.got.tgz:7077.got - 2010.06.03 13:42:01.
