data_PCOD9429015
_publ_section_title
;
Structure prediction by ZEFSAII (Michael W. Deem and Ramdas Pophale) SiO2 
 PCOD9429015
Probable space group: P B A M
;
_chemical_formula_sum "Si O2"
_cell_formula_units_Z 56
_cell_length_a 21.626464
_cell_length_b 14.733609
_cell_length_c 8.536928
_cell_angle_alpha 90.000000
_cell_angle_beta 90.000000
_cell_angle_gamma 90.000000
_cell_volume 2720.171435
_symmetry_space_group_name_H-M "P B A M"
_symmetry_group_IT_number 55
_symmetry_cell_setting 'orthorhombic'
loop_
_space_group_symop_operation_xyz
x,y,z
-x,-y,z
1/2+x,1/2-y,-z
1/2-x,1/2+y,-z
-x,-y,-z
x,y,-z
1/2-x,1/2+y,z
1/2+x,1/2-y,z
loop_
_atom_site_type_symbol
_atom_site_label
_atom_site_fract_x
_atom_site_fract_y
_atom_site_fract_z
Si Si1 0.597933 0.712541 0.685756
Si Si2 0.571063 0.508027 0.691015
Si Si3 0.904742 0.530116 0.313270
Si Si4 0.180913 0.112073 0.316974
Si Si5 0.513305 0.863681 0.186176
Si Si6 0.272299 0.255993 0.819512
Si Si7 0.232032 0.464112 0.181320
O O1 0.587359 0.715561 0.500000
O O2 0.596957 0.607054 0.737040
O O3 0.543858 0.768492 0.769109
O O4 0.664427 0.756676 0.723608
O O5 0.500000 0.500000 0.740737
O O6 0.572402 0.505338 0.500000
O O7 0.615439 0.426279 0.744722
O O8 0.898083 0.529688 0.500000
O O9 0.942162 0.441040 0.258655
O O10 0.839001 0.529875 0.230163
O O11 0.946434 0.615466 0.259649
O O12 0.174614 0.133902 0.500000
O O13 0.214977 0.194958 0.233843
O O14 0.227310 0.027738 0.291689
O O15 0.510207 0.875026 0.000000
O O16 0.253444 0.360644 0.804154
O O17 0.286794 0.235779 0.000000
O O18 0.240185 0.492730 0.000000
#
# Coordination Sequence:
#
# PCOD9429015 Si02
#       7
#     8   8   8   8   8   8   8
#     4  11  21  38  63  90 121 160 211 257 308 375
#     4   9  20  39  63  91 123 158 201 257 316 367
#     4  11  22  38  60  88 120 156 204 254 309 364
#     4  11  22  39  64  93 124 161 209 262 317 376
#     4  11  22  38  59  86 123 161 201 246 307 370
#     4  11  24  40  61  89 123 163 207 256 316 377
#     4  11  23  40  61  86 123 162 201 251 312 372
#
# _framework density 20.586938
#
# number of rings (size 3 to 8) (size 9 to 14) (size 15 to 20)
#    0.000    1.286    1.429    6.000    0.000    2.857 
#    0.000    1.429    0.000    6.000    0.000    0.000 
#    0.000    0.000    0.000    0.000    0.000    0.000 
#
# Total GULP energy -313127.209185 kJ/mol
# GULP energy per Si atom -5591.557307 kJ/mol
# Density = 2.054008 g / cm^3
# Si number density = 20.586938 Si / 1000 Ang^3
#
#
#
# Elastic Constant Matrix: (Units=GPa)
#
#
# Indices 1 2 3 4 5 6 
#
# 1 89.9217 -10.1922 -18.4483 0.0000 0.0000 0.0000
# 2 -10.1922 30.9381 7.0050 0.0000 0.0000 0.0000
# 3 -18.4483 7.0050 41.3394 0.0000 0.0000 0.0000
# 4 0.0000 0.0000 0.0000 18.9331 0.0000 0.0000
# 5 0.0000 0.0000 0.0000 0.0000 16.0189 0.0000
# 6 0.0000 0.0000 0.0000 0.0000 0.0000 31.1888
#
#
#
# Elastic Compliance Matrix: (Units=1/GPa)
#
#
# Indices 1 2 3 4 5 6 
#
# 1 0.012498 0.002968 0.005075 0.000000 0.000000 0.000000
# 2 0.002968 0.034317 -0.004490 0.000000 0.000000 0.000000
# 3 0.005075 -0.004490 0.027216 0.000000 0.000000 0.000000
# 4 0.000000 0.000000 0.000000 0.052818 0.000000 0.000000
# 5 0.000000 0.000000 0.000000 0.000000 0.062426 0.000000
# 6 0.000000 0.000000 0.000000 0.000000 0.000000 0.032063
#
#
# Mechanical properties :
#
#
# Convention : Reuss Voigt Hill
#
# Bulk Modulus (GPa) = 12.32493 13.21423 12.76958
# Shear Modulus (GPa) = 20.72298 25.48379 23.10339
#
# Velocity S-wave (km/s) = 3.17615 3.52214 3.35361
# Velocity P-wave (km/s) = 4.41025 4.79305 4.60563
#
# Compressibility (1/GPa) = 0.08113637
#
# Stress axis : x y z
#
# Youngs Moduli (GPa) = 80.01056 29.13990 36.74373
#
# Poissons Ratio (x) = -0.08650 -0.18646
# Poissons Ratio (y) = -0.23751 0.16499
# Poissons Ratio (z) = -0.40602 0.13085
#
# Static dielectric constant tensor:
#      x y z
#    x 1.731200 0.000000 0.000000 
#    y 0.000000 1.743510 0.000000 
#    z 0.000000 0.000000 1.706420 
# 
# From -- ./inp_files/8795.got.cif
#   From: 2010.05.17/outbox.cif.g08.bks.cpg/sg55_5_cif.got.tgz:8795.got - 2010.06.03 13:27:54.
