data_PCOD9429462
_publ_section_title
;
Structure prediction by ZEFSAII (Michael W. Deem and Ramdas Pophale) SiO2 
 PCOD9429462
Probable space group: P B A M
;
_chemical_formula_sum "Si O2"
_cell_formula_units_Z 60
_cell_length_a 9.000000
_cell_length_b 27.000000
_cell_length_c 12.000000
_cell_angle_alpha 90.000000
_cell_angle_beta 90.000000
_cell_angle_gamma 90.000000
_cell_volume 2916.000000
_symmetry_space_group_name_H-M "P B A M"
_symmetry_group_IT_number 55
_symmetry_cell_setting 'orthorhombic'
loop_
_space_group_symop_operation_xyz
x,y,z
-x,-y,z
1/2+x,1/2-y,-z
1/2-x,1/2+y,-z
-x,-y,-z
x,y,-z
1/2-x,1/2+y,z
1/2+x,1/2-y,z
loop_
_atom_site_type_symbol
_atom_site_label
_atom_site_fract_x
_atom_site_fract_y
_atom_site_fract_z
Si Si1 0.780650 0.825264 0.375692
Si Si2 0.938107 0.549497 0.786790
Si Si3 0.503308 0.733488 0.122643
Si Si4 0.109692 0.956644 0.130236
Si Si5 0.621500 0.372150 0.159773
Si Si6 0.867630 0.421795 0.000000
Si Si7 0.288766 0.780062 0.268369
Si Si8 0.048338 0.361342 0.377051
O O1 0.833830 0.834078 0.500000
O O2 0.843202 0.864931 0.289333
O O3 0.819086 0.770053 0.336212
O O4 0.601869 0.828963 0.373571
O O5 0.763565 0.543932 0.807357
O O6 0.966377 0.596421 0.711824
O O7 0.000000 0.500000 0.732389
O O8 0.021640 0.557495 0.902759
O O9 0.402068 0.684287 0.119083
O O10 0.408237 0.779321 0.167788
O O11 0.631352 0.722569 0.210143
O O12 0.564258 0.743491 0.000000
O O13 0.024919 0.904563 0.139078
O O14 0.141398 0.967792 0.000000
O O15 0.000000 0.000000 0.169864
O O16 0.753265 0.399248 0.095833
O O17 0.314859 0.826547 0.345215
O O18 0.064464 0.381966 0.500000
#
# Coordination Sequence:
#
# PCOD9429462 Si02
#       8
#     8   8   8   8   8   4   8   8
#     4  10  22  42  67  95 127 172 223 274 327 387
#     4  12  26  43  68 103 132 173 224 275 337 406
#     4  11  22  38  59  92 138 172 212 259 332 396
#     4  11  23  39  64  95 134 167 209 269 331 396
#     4  11  22  40  64  94 130 174 210 272 331 393
#     4  12  21  40  68  96 135 170 221 268 328 405
#     4  11  22  42  63  97 127 173 226 269 323 392
#     4  11  24  44  68  96 130 174 228 279 331 390
#
# _framework density 20.576132000000001
#
# number of rings (size 3 to 8) (size 9 to 14) (size 15 to 20)
#    0.000    0.933    4.667    2.600    1.867    0.267 
#    7.200    4.000    0.000    0.800    0.000    0.000 
#    0.000    0.000    0.000    0.000    0.000    0.000 
#
# Total GULP energy -334102.222592 kJ/mol
# GULP energy per Si atom -5568.370377 kJ/mol
# Density = 2.052930 g / cm^3
# Si number density = 20.576132 Si / 1000 Ang^3
#
#
#
# Elastic Constant Matrix: (Units=GPa)
#
#
# Indices 1 2 3 4 5 6 
#
# 1 52.5099 9.8379 30.3644 0.0000 0.0000 0.0000
# 2 9.8379 55.7247 28.2969 0.0000 0.0000 0.0000
# 3 30.3644 28.2969 88.7778 0.0000 0.0000 0.0000
# 4 0.0000 0.0000 0.0000 60.0791 0.0000 0.0000
# 5 0.0000 0.0000 0.0000 0.0000 5.4558 0.0000
# 6 0.0000 0.0000 0.0000 0.0000 0.0000 17.4295
#
#
#
# Elastic Compliance Matrix: (Units=1/GPa)
#
#
# Indices 1 2 3 4 5 6 
#
# 1 0.023739 -0.000081 -0.008094 0.000000 0.000000 0.000000
# 2 -0.000081 0.021411 -0.006797 0.000000 0.000000 0.000000
# 3 -0.008094 -0.006797 0.016199 0.000000 0.000000 0.000000
# 4 0.000000 0.000000 0.000000 0.016645 0.000000 0.000000
# 5 0.000000 0.000000 0.000000 0.000000 0.183290 0.000000
# 6 0.000000 0.000000 0.000000 0.000000 0.000000 0.057374
#
#
# Mechanical properties :
#
#
# Convention : Reuss Voigt Hill
#
# Bulk Modulus (GPa) = 31.84095 37.11233 34.47664
# Shear Modulus (GPa) = 13.92485 25.16044 19.54265
#
# Velocity S-wave (km/s) = 2.60426 3.50065 3.08518
# Velocity P-wave (km/s) = 4.95492 5.86644 5.42984
#
# Compressibility (1/GPa) = 0.03140610
#
# Stress axis : x y z
#
# Youngs Moduli (GPa) = 42.12391 46.70482 61.73319
#
# Poissons Ratio (x) = 0.00379 0.49965
# Poissons Ratio (y) = 0.00342 0.41959
# Poissons Ratio (z) = 0.34094 0.31744
#
# Static dielectric constant tensor:
#      x y z
#    x 1.735750 0.000000 0.000000 
#    y 0.000000 1.734960 0.000000 
#    z 0.000000 0.000000 1.751260 
# 
# From -- ./inp_files/12475.got.cif
#   From: 2010.05.17/outbox.ucp.g08.bks.cvg/sg55_7_cif.got.tgz:12475.got - 2010.06.11 16:36:00.
