data_PCOD9429249
_publ_section_title
;
Structure prediction by ZEFSAII (Michael W. Deem and Ramdas Pophale) SiO2 
 PCOD9429249
Probable space group: P B A M
;
_chemical_formula_sum "Si O2"
_cell_formula_units_Z 64
_cell_length_a 12.373654
_cell_length_b 28.735958
_cell_length_c 9.290109
_cell_angle_alpha 90.000000
_cell_angle_beta 90.000000
_cell_angle_gamma 90.000000
_cell_volume 3303.272924
_symmetry_space_group_name_H-M "P B A M"
_symmetry_group_IT_number 55
_symmetry_cell_setting 'orthorhombic'
loop_
_space_group_symop_operation_xyz
x,y,z
-x,-y,z
1/2+x,1/2-y,-z
1/2-x,1/2+y,-z
-x,-y,-z
x,y,-z
1/2-x,1/2+y,z
1/2+x,1/2-y,z
loop_
_atom_site_type_symbol
_atom_site_label
_atom_site_fract_x
_atom_site_fract_y
_atom_site_fract_z
Si Si1 0.219721 0.147006 0.335338
Si Si2 0.147825 0.925018 0.825064
Si Si3 0.294356 0.004602 0.831373
Si Si4 0.148766 0.721426 0.173020
Si Si5 0.448712 0.845276 0.827727
Si Si6 0.704292 0.676743 0.174482
Si Si7 0.589703 0.426002 0.831974
Si Si8 0.927888 0.422636 0.334918
O O1 0.195692 0.158450 0.500000
O O2 0.256183 0.191870 0.246229
O O3 0.124871 0.118315 0.260271
O O4 0.322942 0.111800 0.333568
O O5 0.152250 0.871635 0.777205
O O6 0.028767 0.943777 0.788707
O O7 0.249502 0.955442 0.774514
O O8 0.156610 0.926798 0.000000
O O9 0.185693 0.036518 0.823002
O O10 0.386952 0.030819 0.743654
O O11 0.325292 0.001530 0.000000
O O12 0.152499 0.774819 0.222619
O O13 0.037971 0.694143 0.205751
O O14 0.162656 0.720112 0.000000
O O15 0.330641 0.827109 0.787748
O O16 0.482881 0.892981 0.750182
O O17 0.450820 0.853390 0.000000
O O18 0.697604 0.676861 0.000000
O O19 0.582823 0.412224 0.000000
O O20 0.958104 0.431151 0.500000
#
# Coordination Sequence:
#
# PCOD9429249 Si02
#       8
#     8   8   8   8   8   8   8   8
#     4   9  17  29  46  70  97 123 155 194 235 281
#     4   9  17  29  46  70 100 130 161 200 242 283
#     4   9  16  28  48  73  98 126 162 200 238 284
#     4   9  17  30  49  71  93 119 153 192 232 278
#     4   9  17  31  51  72  94 121 154 192 234 281
#     4   9  18  31  48  72  98 123 155 195 237 280
#     4   9  16  27  47  73  99 127 159 197 242 288
#     4   9  17  30  49  71  94 122 157 197 239 281
#
# _framework density 19.374722999999999
#
# number of rings (size 3 to 8) (size 9 to 14) (size 15 to 20)
#    0.000    3.000    0.000    1.125    0.000    5.500 
#    0.000    5.625    0.000   12.750    0.000    0.000 
#    0.000    0.000    0.000    0.000    0.000    0.000 
#
# Total GULP energy -356784.973071 kJ/mol
# GULP energy per Si atom -5574.765204 kJ/mol
# Density = 1.933063 g / cm^3
# Si number density = 19.374723 Si / 1000 Ang^3
#
#
#
# Elastic Constant Matrix: (Units=GPa)
#
#
# Indices 1 2 3 4 5 6 
#
# 1 56.5400 17.8243 21.0865 0.0000 0.0000 0.0000
# 2 17.8243 62.4535 16.0307 0.0000 0.0000 0.0000
# 3 21.0865 16.0307 27.7976 0.0000 0.0000 0.0000
# 4 0.0000 0.0000 0.0000 -0.5867 0.0000 0.0000
# 5 0.0000 0.0000 0.0000 0.0000 4.3563 0.0000
# 6 0.0000 0.0000 0.0000 0.0000 0.0000 16.8283
#
#
#
# Elastic Compliance Matrix: (Units=1/GPa)
#
#
# Indices 1 2 3 4 5 6 
#
# 1 0.025037 -0.002665 -0.017455 0.000000 0.000000 0.000000
# 2 -0.002665 0.019078 -0.008980 0.000000 0.000000 0.000000
# 3 -0.017455 -0.008980 0.054394 0.000000 0.000000 0.000000
# 4 0.000000 0.000000 0.000000 -1.704467 0.000000 0.000000
# 5 0.000000 0.000000 0.000000 0.000000 0.229553 0.000000
# 6 0.000000 0.000000 0.000000 0.000000 0.000000 0.059424
#
#
# Mechanical properties :
#
#
# Convention : Reuss Voigt Hill
#
# Bulk Modulus (GPa) = 24.80936 28.51935 26.66435
# Shear Modulus (GPa) = -4.01495 10.24290 3.11397
#
# Velocity S-wave (km/s) = -1.44110 2.30178 1.26914
# Velocity P-wave (km/s) = 3.17235 4.67077 3.99249
#
# Compressibility (1/GPa) = 0.04030737
#
# Stress axis : x y z
#
# Youngs Moduli (GPa) = 39.94142 52.41750 18.38433
#
# Poissons Ratio (x) = 0.13970 0.32090
# Poissons Ratio (y) = 0.10645 0.16510
# Poissons Ratio (z) = 0.69719 0.47072
#
# Static dielectric constant tensor:
#      x y z
#    x 1.679380 0.000000 0.000000 
#    y 0.000000 1.699230 0.000000 
#    z 0.000000 0.000000 1.644670 
# 
# From -- ./inp_files/4695.got.cif
#   From: 2010.05.17/outbox.cif.g08.bks.cpg/sg55_3_cif.got.tgz:4695.got - 2010.06.03 13:27:54.
