data_PCOD9429879
_publ_section_title
;
Structure prediction by ZEFSAII (Michael W. Deem and Ramdas Pophale) SiO2 
 PCOD9429879
Probable space group: P C C N
;
_chemical_formula_sum "Si O2"
_cell_formula_units_Z 64
_cell_length_a 8.230960
_cell_length_b 18.721216
_cell_length_c 19.490670
_cell_angle_alpha 90.000000
_cell_angle_beta 90.000000
_cell_angle_gamma 90.000000
_cell_volume 3003.387118
_symmetry_space_group_name_H-M "P C C N"
_symmetry_group_IT_number 56
_symmetry_cell_setting 'orthorhombic'
loop_
_space_group_symop_operation_xyz
x,y,z
1/2-x,1/2-y,z
1/2+x,-y,1/2-z
-x,1/2+y,1/2-z
-x,-y,-z
1/2+x,1/2+y,-z
1/2-x,y,1/2+z
x,1/2-y,1/2+z
loop_
_atom_site_type_symbol
_atom_site_label
_atom_site_fract_x
_atom_site_fract_y
_atom_site_fract_z
Si Si1 0.095273 0.199391 0.865675
Si Si2 0.202660 0.921096 0.925171
Si Si3 0.292993 0.547998 0.771203
Si Si4 0.832081 0.317214 0.462443
Si Si5 0.254619 0.083630 0.950451
Si Si6 0.924179 0.603636 0.760719
Si Si7 0.089353 0.090679 0.589502
Si Si8 0.098143 0.923290 0.621807
O O1 0.250000 0.250000 0.870295
O O2 0.122659 0.129238 0.911817
O O3 0.071215 0.170388 0.789723
O O4 0.939293 0.226403 0.906067
O O5 0.148584 0.925014 0.845637
O O6 0.396481 0.901791 0.925885
O O7 0.199926 0.001784 0.953376
O O8 0.108746 0.867342 0.974663
O O9 0.315098 0.462149 0.766963
O O10 0.379128 0.580355 0.703853
O O11 0.103942 0.569118 0.766034
O O12 0.750000 0.250000 0.499854
O O13 0.721683 0.371979 0.418012
O O14 0.415749 0.089953 0.903326
O O15 0.307423 0.113041 0.024176
O O16 0.873139 0.624952 0.837312
O O17 0.124995 0.006177 0.601025
#
# Coordination Sequence:
#
# PCOD9429879 Si02
#       8
#     8   8   8   8   8   8   8   8
#     4  12  27  43  61  93 134 177 214 261 324 391
#     4  10  19  37  65  96 123 161 212 271 319 369
#     4  10  20  37  64  99 131 156 207 267 325 373
#     4  12  24  42  63  87 124 173 218 264 316 395
#     4  11  19  39  65  96 126 163 211 266 324 381
#     4  10  21  39  63  95 130 162 208 268 324 392
#     4   9  18  34  67  94 121 157 203 265 327 376
#     4  10  18  36  64  93 123 163 210 250 318 393
#
# _framework density 21.309275
#
# number of rings (size 3 to 8) (size 9 to 14) (size 15 to 20)
#    0.000    1.500    5.000    2.250    0.000    0.500 
#    4.500    1.250    2.750    0.000    0.000    0.000 
#    0.000    0.000    0.000    0.000    0.000    0.000 
#
# Total GULP energy -357239.541530 kJ/mol
# GULP energy per Si atom -5581.867836 kJ/mol
# Density = 2.126077 g / cm^3
# Si number density = 21.309275 Si / 1000 Ang^3
#
#
#
# Elastic Constant Matrix: (Units=GPa)
#
#
# Indices 1 2 3 4 5 6 
#
# 1 31.5580 6.9712 14.6961 0.0000 0.0000 0.0000
# 2 6.9712 29.8246 15.2537 0.0000 0.0000 0.0000
# 3 14.6961 15.2537 157.6516 0.0000 0.0000 0.0000
# 4 0.0000 0.0000 0.0000 11.2560 0.0000 0.0000
# 5 0.0000 0.0000 0.0000 0.0000 24.3107 0.0000
# 6 0.0000 0.0000 0.0000 0.0000 0.0000 24.5280
#
#
#
# Elastic Compliance Matrix: (Units=1/GPa)
#
#
# Indices 1 2 3 4 5 6 
#
# 1 0.034362 -0.006726 -0.002552 0.000000 0.000000 0.000000
# 2 -0.006726 0.036592 -0.002913 0.000000 0.000000 0.000000
# 3 -0.002552 -0.002913 0.006863 0.000000 0.000000 0.000000
# 4 0.000000 0.000000 0.000000 0.088841 0.000000 0.000000
# 5 0.000000 0.000000 0.000000 0.000000 0.041134 0.000000
# 6 0.000000 0.000000 0.000000 0.000000 0.000000 0.040770
#
#
# Mechanical properties :
#
#
# Convention : Reuss Voigt Hill
#
# Bulk Modulus (GPa) = 18.71525 32.54179 25.62852
# Shear Modulus (GPa) = 17.19646 24.15981 20.67814
#
# Velocity S-wave (km/s) = 2.84385 3.37080 3.11847
# Velocity P-wave (km/s) = 4.42550 5.51852 5.00196
#
# Compressibility (1/GPa) = 0.05343236
#
# Stress axis : x y z
#
# Youngs Moduli (GPa) = 29.10174 27.32859 145.71058
#
# Poissons Ratio (x) = 0.18382 0.37191
# Poissons Ratio (y) = 0.19575 0.42452
# Poissons Ratio (z) = 0.07428 0.07962
#
# Static dielectric constant tensor:
#      x y z
#    x 1.888230 0.000000 0.000000 
#    y 0.000000 1.798680 0.000000 
#    z 0.000000 0.000000 1.806980 
# 
# From -- ./inp_files/18372.got.cif
#   From: 2010.05.17/outbox.cif.g08.bks.cpg/sg56_10_cif.got.tgz:18372.got - 2010.06.03 13:42:01.
