data_PCOD9429009
_publ_section_title
;
Structure prediction by ZEFSAII (Michael W. Deem and Ramdas Pophale) SiO2 
 PCOD9429009
Probable space group: P B A M
;
_chemical_formula_sum "Si O2"
_cell_formula_units_Z 48
_cell_length_a 16.340925
_cell_length_b 10.029404
_cell_length_c 14.490621
_cell_angle_alpha 90.000000
_cell_angle_beta 90.000000
_cell_angle_gamma 90.000000
_cell_volume 2374.864087
_symmetry_space_group_name_H-M "P B A M"
_symmetry_group_IT_number 55
_symmetry_cell_setting 'orthorhombic'
loop_
_space_group_symop_operation_xyz
x,y,z
-x,-y,z
1/2+x,1/2-y,-z
1/2-x,1/2+y,-z
-x,-y,-z
x,y,-z
1/2-x,1/2+y,z
1/2+x,1/2-y,z
loop_
_atom_site_type_symbol
_atom_site_label
_atom_site_fract_x
_atom_site_fract_y
_atom_site_fract_z
Si Si1 0.934304 0.881198 0.600629
Si Si2 0.088864 0.183475 0.202841
Si Si3 0.369896 0.959070 0.893449
Si Si4 0.321582 0.448075 0.895115
Si Si5 0.946270 0.370446 0.398020
Si Si6 0.594703 0.778307 0.791668
O O1 0.893150 0.900698 0.500000
O O2 0.883512 0.862071 0.694250
O O3 0.988192 0.747961 0.595019
O O4 0.000000 0.000000 0.612165
O O5 0.116302 0.329258 0.169429
O O6 0.990321 0.195903 0.205842
O O7 0.122542 0.072014 0.134314
O O8 0.272955 0.989347 0.890869
O O9 0.413543 0.090531 0.854608
O O10 0.392747 0.931429 0.000000
O O11 0.337979 0.321922 0.829993
O O12 0.340664 0.407281 0.000000
O O13 0.908435 0.388369 0.500000
O O14 0.890117 0.330483 0.312181
O O15 0.000000 0.500000 0.374782
#
# Coordination Sequence:
#
# PCOD9429009 Si02
#       6
#     8   8   8   8   8   8
#     4   9  17  31  53  82 113 141 173 219 275 329
#     4  11  21  36  60  87 110 139 188 241 277 317
#     4  11  24  40  56  77 112 155 188 222 283 350
#     4  11  24  40  56  77 112 155 188 222 283 350
#     4   9  17  31  53  82 113 141 173 219 275 329
#     4  11  21  36  60  87 110 139 188 241 277 317
#
# _framework density 20.211684000000002
#
# number of rings (size 3 to 8) (size 9 to 14) (size 15 to 20)
#    0.000    1.667    0.000    7.000    0.000    6.667 
#    0.000    0.000    0.000    6.000    0.000    0.000 
#    0.000    0.000    0.000    0.000    0.000    0.000 
#
# Total GULP energy -267875.601645 kJ/mol
# GULP energy per Si atom -5580.741701 kJ/mol
# Density = 2.016568 g / cm^3
# Si number density = 20.211684 Si / 1000 Ang^3
#
#
#
# Elastic Constant Matrix: (Units=GPa)
#
#
# Indices 1 2 3 4 5 6 
#
# 1 25.2923 1.4810 24.2669 0.0000 0.0000 0.0000
# 2 1.4810 88.4794 0.2704 0.0000 0.0000 0.0000
# 3 24.2669 0.2704 124.6921 0.0000 0.0000 0.0000
# 4 0.0000 0.0000 0.0000 36.3994 0.0000 0.0000
# 5 0.0000 0.0000 0.0000 0.0000 -425.8346 0.0000
# 6 0.0000 0.0000 0.0000 0.0000 0.0000 26.8703
#
#
#
# Elastic Compliance Matrix: (Units=1/GPa)
#
#
# Indices 1 2 3 4 5 6 
#
# 1 0.048670 -0.000786 -0.009470 0.000000 0.000000 0.000000
# 2 -0.000786 0.011315 0.000128 0.000000 0.000000 0.000000
# 3 -0.009470 0.000128 0.009863 0.000000 0.000000 0.000000
# 4 0.000000 0.000000 0.000000 0.027473 0.000000 0.000000
# 5 0.000000 0.000000 0.000000 0.000000 -0.002348 0.000000
# 6 0.000000 0.000000 0.000000 0.000000 0.000000 0.037216
#
#
# Mechanical properties :
#
#
# Convention : Reuss Voigt Hill
#
# Bulk Modulus (GPa) = 20.16443 32.27783 26.22113
# Shear Modulus (GPa) = 29.59039 -58.34996 -14.37979
#
# Velocity S-wave (km/s) = 3.83041 -5.37886 -2.67021
# Velocity P-wave (km/s) = 5.43700 4.75095 1.86941
#
# Compressibility (1/GPa) = 0.04959228
#
# Stress axis : x y z
#
# Youngs Moduli (GPa) = 20.54652 88.37966 101.39402
#
# Poissons Ratio (x) = 0.06944 0.96022
# Poissons Ratio (y) = 0.01614 -0.01302
# Poissons Ratio (z) = 0.19458 -0.01135
#
# Static dielectric constant tensor:
#      x y z
#    x 1.705380 0.000000 0.000000 
#    y 0.000000 1.667260 0.000000 
#    z 0.000000 0.000000 1.811920 
# 
# From -- ./inp_files/19654.got.cif
#   From: 2010.05.17/outbox.cif.g08.bks.cpg/sg55_10_cif.got.tgz:19654.got - 2010.06.03 13:27:54.
