data_PCOD9429023
_publ_section_title
;
Structure prediction by ZEFSAII (Michael W. Deem and Ramdas Pophale) SiO2 
 PCOD9429023
Probable space group: P B A M
;
_chemical_formula_sum "Si O2"
_cell_formula_units_Z 40
_cell_length_a 14.217381
_cell_length_b 10.069478
_cell_length_c 13.410591
_cell_angle_alpha 90.000000
_cell_angle_beta 90.000000
_cell_angle_gamma 90.000000
_cell_volume 1919.881734
_symmetry_space_group_name_H-M "P B A M"
_symmetry_group_IT_number 55
_symmetry_cell_setting 'orthorhombic'
loop_
_space_group_symop_operation_xyz
x,y,z
-x,-y,z
1/2+x,1/2-y,-z
1/2-x,1/2+y,-z
-x,-y,-z
x,y,-z
1/2-x,1/2+y,z
1/2+x,1/2-y,z
loop_
_atom_site_type_symbol
_atom_site_label
_atom_site_fract_x
_atom_site_fract_y
_atom_site_fract_z
Si Si1 0.260422 0.835007 0.885983
Si Si2 0.065416 0.126227 0.612915
Si Si3 0.946145 0.359928 0.314855
Si Si4 0.514847 0.158031 0.105276
Si Si5 0.244347 0.091360 0.752559
O O1 0.373770 0.827497 0.887960
O O2 0.234148 0.691616 0.843550
O O3 0.234478 0.947839 0.805095
O O4 0.229364 0.861965 0.000000
O O5 0.102567 0.110235 0.500000
O O6 0.151516 0.131249 0.690914
O O7 0.997368 0.254338 0.615537
O O8 0.000000 0.000000 0.636292
O O9 0.835819 0.393644 0.318533
O O10 0.000000 0.500000 0.321602
O O11 0.966446 0.295973 0.205573
O O12 0.500000 0.000000 0.102461
O O13 0.481049 0.216015 0.000000
#
# Coordination Sequence:
#
# PCOD9429023 Si02
#       5
#     8   8   8   8   8
#     4  11  22  36  61  95 131 168 207 252 307 377
#     4  11  26  46  64  89 128 166 204 263 330 375
#     4  11  21  41  66  93 119 159 215 266 304 364
#     4   9  16  32  58  87 123 162 199 242 301 364
#     4  12  22  41  67  92 127 169 211 255 315 377
#
# _framework density 20.834617000000001
#
# number of rings (size 3 to 8) (size 9 to 14) (size 15 to 20)
#    0.000    1.200    6.000    1.800    0.000    2.000 
#    0.000    5.000    0.000    3.000    0.000    0.000 
#    0.000    0.000    0.000    0.000    0.000    0.000 
#
# Total GULP energy -223131.498462 kJ/mol
# GULP energy per Si atom -5578.287462 kJ/mol
# Density = 2.078720 g / cm^3
# Si number density = 20.834617 Si / 1000 Ang^3
#
#
#
# Elastic Constant Matrix: (Units=GPa)
#
#
# Indices 1 2 3 4 5 6 
#
# 1 75.1442 2.9953 27.3399 0.0000 0.0000 0.0000
# 2 2.9953 68.8105 10.6327 0.0000 0.0000 0.0000
# 3 27.3399 10.6327 91.3275 0.0000 0.0000 0.0000
# 4 0.0000 0.0000 0.0000 25.1799 0.0000 0.0000
# 5 0.0000 0.0000 0.0000 0.0000 11.9671 0.0000
# 6 0.0000 0.0000 0.0000 0.0000 0.0000 22.2014
#
#
#
# Elastic Compliance Matrix: (Units=1/GPa)
#
#
# Indices 1 2 3 4 5 6 
#
# 1 0.014934 0.000041 -0.004476 0.000000 0.000000 0.000000
# 2 0.000041 0.014799 -0.001735 0.000000 0.000000 0.000000
# 3 -0.004476 -0.001735 0.012491 0.000000 0.000000 0.000000
# 4 0.000000 0.000000 0.000000 0.039714 0.000000 0.000000
# 5 0.000000 0.000000 0.000000 0.000000 0.083563 0.000000
# 6 0.000000 0.000000 0.000000 0.000000 0.000000 0.045042
#
#
# Mechanical properties :
#
#
# Convention : Reuss Voigt Hill
#
# Bulk Modulus (GPa) = 33.46058 35.24644 34.35351
# Shear Modulus (GPa) = 21.47351 24.82395 23.14873
#
# Velocity S-wave (km/s) = 3.21388 3.45552 3.33689
# Velocity P-wave (km/s) = 5.46507 5.73366 5.60097
#
# Compressibility (1/GPa) = 0.02988592
#
# Stress axis : x y z
#
# Youngs Moduli (GPa) = 66.95918 67.57205 80.05460
#
# Poissons Ratio (x) = -0.00280 0.35829
# Poissons Ratio (y) = -0.00278 0.13892
# Poissons Ratio (z) = 0.29968 0.11726
#
# Static dielectric constant tensor:
#      x y z
#    x 1.783050 0.000000 0.000000 
#    y 0.000000 1.730180 0.000000 
#    z 0.000000 0.000000 1.840220 
# 
# From -- ./inp_files/17059.got.cif
#   From: 2010.05.17/outbox.cif.g08.bks.cpg/sg55_9_cif.got.tgz:17059.got - 2010.06.03 13:27:54.
