data_PCOD9429669
_publ_section_title
;
Structure prediction by ZEFSAII (Michael W. Deem and Ramdas Pophale) SiO2 
 PCOD9429669
Probable space group: P C C N
;
_chemical_formula_sum "Si O2"
_cell_formula_units_Z 60
_cell_length_a 19.291039
_cell_length_b 5.293100
_cell_length_c 24.507527
_cell_angle_alpha 90.000000
_cell_angle_beta 90.000000
_cell_angle_gamma 90.000000
_cell_volume 2502.448841
_symmetry_space_group_name_H-M "P C C N"
_symmetry_group_IT_number 56
_symmetry_cell_setting 'orthorhombic'
loop_
_space_group_symop_operation_xyz
x,y,z
1/2-x,1/2-y,z
1/2+x,-y,1/2-z
-x,1/2+y,1/2-z
-x,-y,-z
1/2+x,1/2+y,-z
1/2-x,y,1/2+z
x,1/2-y,1/2+z
loop_
_atom_site_type_symbol
_atom_site_label
_atom_site_fract_x
_atom_site_fract_y
_atom_site_fract_z
Si Si1 0.826323 0.267988 0.898453
Si Si2 0.750000 0.250000 0.695229
Si Si3 0.462128 0.682398 0.863143
Si Si4 0.946143 0.931787 0.436508
Si Si5 0.338935 0.409351 0.369725
Si Si6 0.117020 0.473140 0.276504
Si Si7 0.077613 0.276225 0.455878
Si Si8 0.672476 0.732855 0.824170
O O1 0.750000 0.250000 0.925094
O O2 0.891167 0.340002 0.936371
O O3 0.823978 0.526865 0.863913
O O4 0.836178 0.026553 0.858493
O O5 0.730270 0.473051 0.653592
O O6 0.819336 0.322905 0.728801
O O7 0.534918 0.811525 0.877877
O O8 0.396843 0.871116 0.865507
O O9 0.454639 0.581106 0.801112
O O10 0.449839 0.491773 0.914724
O O11 0.921207 0.716265 0.478774
O O12 0.020848 0.053623 0.449527
O O13 0.362433 0.198543 0.327703
O O14 0.348646 0.304882 0.430560
O O15 0.119598 0.297407 0.224055
O O16 0.750000 0.750000 0.797242
#
# Coordination Sequence:
#
# PCOD9429669 Si02
#       8
#     8   4   8   8   8   8   8   8
#     4  10  24  42  64  95 128 167 222 277 321 393
#     4  10  18  28  54  86 122 170 202 272 328 386
#     4   9  19  34  60  88 122 157 213 271 317 404
#     4  10  20  38  65  86 120 167 215 268 330 385
#     4   9  18  32  49  86 124 154 204 265 316 394
#     4  10  20  33  60  88 123 163 218 264 332 394
#     4   9  19  36  60  89 114 166 218 257 327 404
#     4  10  22  39  64  91 124 167 218 263 329 395
#
# _framework density 23.976514000000002
#
# number of rings (size 3 to 8) (size 9 to 14) (size 15 to 20)
#    0.000    2.400    0.000    1.600    8.400    0.000 
#    1.200    0.000    8.800    1.600    0.000    0.000 
#    0.000    0.000    0.000    0.000    0.000    0.000 
#
# Total GULP energy -334197.922384 kJ/mol
# GULP energy per Si atom -5569.965373 kJ/mol
# Density = 2.392194 g / cm^3
# Si number density = 23.976514 Si / 1000 Ang^3
#
#
#
# Elastic Constant Matrix: (Units=GPa)
#
#
# Indices 1 2 3 4 5 6 
#
# 1 51.5366 6.6047 16.7901 0.0000 0.0000 0.0000
# 2 6.6047 74.8659 1.7966 0.0000 0.0000 0.0000
# 3 16.7901 1.7966 56.8410 0.0000 0.0000 0.0000
# 4 0.0000 0.0000 0.0000 25.0419 0.0000 0.0000
# 5 0.0000 0.0000 0.0000 0.0000 16.6248 0.0000
# 6 0.0000 0.0000 0.0000 0.0000 0.0000 31.8271
#
#
#
# Elastic Compliance Matrix: (Units=1/GPa)
#
#
# Indices 1 2 3 4 5 6 
#
# 1 0.021700 -0.001762 -0.006354 0.000000 0.000000 0.000000
# 2 -0.001762 0.013510 0.000093 0.000000 0.000000 0.000000
# 3 -0.006354 0.000093 0.019467 0.000000 0.000000 0.000000
# 4 0.000000 0.000000 0.000000 0.039933 0.000000 0.000000
# 5 0.000000 0.000000 0.000000 0.000000 0.060151 0.000000
# 6 0.000000 0.000000 0.000000 0.000000 0.000000 0.031420
#
#
# Mechanical properties :
#
#
# Convention : Reuss Voigt Hill
#
# Bulk Modulus (GPa) = 25.88541 25.95846 25.92194
# Shear Modulus (GPa) = 23.24465 25.23557 24.24011
#
# Velocity S-wave (km/s) = 3.11702 3.24776 3.18306
# Velocity P-wave (km/s) = 4.87586 4.99140 4.93397
#
# Compressibility (1/GPa) = 0.03863180
#
# Stress axis : x y z
#
# Youngs Moduli (GPa) = 46.08383 74.01700 51.36922
#
# Poissons Ratio (x) = 0.13041 0.32640
# Poissons Ratio (y) = 0.08119 -0.00480
# Poissons Ratio (z) = 0.29282 -0.00691
#
# Static dielectric constant tensor:
#      x y z
#    x 1.988330 0.000000 0.000000 
#    y 0.000000 2.023830 0.000000 
#    z 0.000000 0.000000 2.048030 
# 
# From -- ./inp_files/22542.got.cif
#   From: 2010.05.17/outbox.cif.g08.bks.cpg/sg56_12_cif.got.tgz:22542.got - 2010.06.03 13:42:01.
