data_PCOD9429166
_publ_section_title
;
Structure prediction by ZEFSAII (Michael W. Deem and Ramdas Pophale) SiO2 
 PCOD9429166
Probable space group: P B A M
;
_chemical_formula_sum "Si O2"
_cell_formula_units_Z 32
_cell_length_a 14.895909
_cell_length_b 12.867244
_cell_length_c 7.880216
_cell_angle_alpha 90.000000
_cell_angle_beta 90.000000
_cell_angle_gamma 90.000000
_cell_volume 1510.395451
_symmetry_space_group_name_H-M "P B A M"
_symmetry_group_IT_number 55
_symmetry_cell_setting 'orthorhombic'
loop_
_space_group_symop_operation_xyz
x,y,z
-x,-y,z
1/2+x,1/2-y,-z
1/2-x,1/2+y,-z
-x,-y,-z
x,y,-z
1/2-x,1/2+y,z
1/2+x,1/2-y,z
loop_
_atom_site_type_symbol
_atom_site_label
_atom_site_fract_x
_atom_site_fract_y
_atom_site_fract_z
Si Si1 0.066412 0.399302 0.695245
Si Si2 0.713497 0.954634 0.297758
Si Si3 0.097396 0.971747 0.800313
Si Si4 0.907452 0.264664 0.706820
O O1 0.085657 0.368637 0.500000
O O2 0.157564 0.445751 0.772618
O O3 0.000000 0.500000 0.691365
O O4 0.004688 0.307798 0.768204
O O5 0.697596 0.956803 0.500000
O O6 0.666897 0.848753 0.236733
O O7 0.818349 0.964932 0.269066
O O8 0.112277 0.850051 0.767928
O O9 0.095039 0.992065 0.000000
O O10 0.000000 0.000000 0.726137
O O11 0.908914 0.264094 0.500000
#
# Coordination Sequence:
#
# PCOD9429166 Si02
#       4
#     8   8   8   8
#     4   7  12  27  53  83 108 127 159 214 271 318
#     4   9  18  35  60  86 107 134 180 230 273 321
#     4  11  25  40  51  72 112 154 186 218 261 318
#     4   9  18  35  60  85 108 137 175 224 277 323
#
# _framework density 21.186502999999998
#
# number of rings (size 3 to 8) (size 9 to 14) (size 15 to 20)
#    0.000    3.000    0.000    3.750    0.000    5.000 
#    0.000    8.750    0.000    4.500    0.000    0.000 
#    0.000    0.000    0.000    0.000    0.000    0.000 
#
# Total GULP energy -178371.324599 kJ/mol
# GULP energy per Si atom -5574.103894 kJ/mol
# Density = 2.113828 g / cm^3
# Si number density = 21.186503 Si / 1000 Ang^3
#
#
#
# Elastic Constant Matrix: (Units=GPa)
#
#
# Indices 1 2 3 4 5 6 
#
# 1 149.1387 36.7686 -2.9966 0.0000 0.0000 0.0000
# 2 36.7686 61.9240 -13.0416 0.0000 0.0000 0.0000
# 3 -2.9966 -13.0416 12.4874 0.0000 0.0000 0.0000
# 4 0.0000 0.0000 0.0000 15.4354 0.0000 0.0000
# 5 0.0000 0.0000 0.0000 0.0000 37.5987 0.0000
# 6 0.0000 0.0000 0.0000 0.0000 0.0000 25.2182
#
#
#
# Elastic Compliance Matrix: (Units=1/GPa)
#
#
# Indices 1 2 3 4 5 6 
#
# 1 0.008000 -0.005572 -0.003899 0.000000 0.000000 0.000000
# 2 -0.005572 0.024583 0.024337 0.000000 0.000000 0.000000
# 3 -0.003899 0.024337 0.104562 0.000000 0.000000 0.000000
# 4 0.000000 0.000000 0.000000 0.064786 0.000000 0.000000
# 5 0.000000 0.000000 0.000000 0.000000 0.026597 0.000000
# 6 0.000000 0.000000 0.000000 0.000000 0.000000 0.039654
#
#
# Mechanical properties :
#
#
# Convention : Reuss Voigt Hill
#
# Bulk Modulus (GPa) = 5.99243 29.44565 17.71904
# Shear Modulus (GPa) = 17.00244 29.17177 23.08711
#
# Velocity S-wave (km/s) = 2.83594 3.71469 3.30465
# Velocity P-wave (km/s) = 3.68211 5.68569 4.78983
#
# Compressibility (1/GPa) = 0.16687709
#
# Stress axis : x y z
#
# Youngs Moduli (GPa) = 124.99310 40.67930 9.56370
#
# Poissons Ratio (x) = 0.22665 0.03729
# Poissons Ratio (y) = 0.69641 -0.23275
# Poissons Ratio (z) = 0.48734 -0.98999
#
# Static dielectric constant tensor:
#      x y z
#    x 1.814020 0.000000 0.000000 
#    y 0.000000 1.769590 0.000000 
#    z 0.000000 0.000000 1.782590 
# 
# From -- ./inp_files/3320.got.cif
#   From: 2010.05.17/outbox.cif.g08.bks.cpg/sg55_2_cif.got.tgz:3320.got - 2010.06.03 13:27:54.
