data_PCOD9429593
_publ_section_title
;
Structure prediction by ZEFSAII (Michael W. Deem and Ramdas Pophale) SiO2 
 PCOD9429593
Probable space group: P C C N
;
_chemical_formula_sum "Si O2"
_cell_formula_units_Z 48
_cell_length_a 5.622053
_cell_length_b 21.431635
_cell_length_c 13.431237
_cell_angle_alpha 90.000000
_cell_angle_beta 90.000000
_cell_angle_gamma 90.000000
_cell_volume 1618.326897
_symmetry_space_group_name_H-M "P C C N"
_symmetry_group_IT_number 56
_symmetry_cell_setting 'orthorhombic'
loop_
_space_group_symop_operation_xyz
x,y,z
1/2-x,1/2-y,z
1/2+x,-y,1/2-z
-x,1/2+y,1/2-z
-x,-y,-z
1/2+x,1/2+y,-z
1/2-x,y,1/2+z
x,1/2-y,1/2+z
loop_
_atom_site_type_symbol
_atom_site_label
_atom_site_fract_x
_atom_site_fract_y
_atom_site_fract_z
Si Si1 0.061493 0.170308 0.357872
Si Si2 0.247735 0.964320 0.003217
Si Si3 0.066318 0.817206 0.151310
Si Si4 0.140704 0.353011 0.097921
Si Si5 0.845144 0.335343 0.584916
Si Si6 0.322027 0.008720 0.196173
O O1 0.320021 0.149961 0.317450
O O2 0.102186 0.148559 0.475152
O O3 0.625594 0.178420 0.466950
O O4 0.013513 0.244839 0.348284
O O5 0.255901 0.952824 0.120297
O O6 0.210813 0.909599 0.924481
O O7 0.500000 0.000000 0.000000
O O8 0.000000 0.000000 0.000000
O O9 0.311029 0.843738 0.196884
O O10 0.392728 0.321872 0.122835
O O11 0.169908 0.423366 0.140689
O O12 0.907256 0.312615 0.127650
O O13 0.588873 0.992651 0.233390
#
# Coordination Sequence:
#
# PCOD9429593 Si02
#       6
#     8   8   8   8   8   8
#     4   8  14  24  40  65  96 125 149 197 272 310
#     4  12  21  36  55  74 100 146 187 227 273 328
#     4   8  14  23  40  67  98 117 149 206 267 312
#     4  10  18  31  49  69 100 136 171 218 267 319
#     4  10  17  30  50  73  96 130 172 219 271 313
#     4  12  24  36  50  74 108 146 186 231 273 323
#
# _framework density 29.660260999999998
#
# number of rings (size 3 to 8) (size 9 to 14) (size 15 to 20)
#    0.000    2.000    3.333    2.000    0.000    0.000 
#    0.000    0.000    0.000    0.000    0.000    0.000 
#    0.000   85.333    0.000    4.000    0.000    0.000 
#
# Total GULP energy -267396.089736 kJ/mol
# GULP energy per Si atom -5570.751870 kJ/mol
# Density = 2.959275 g / cm^3
# Si number density = 29.660261 Si / 1000 Ang^3
#
#
#
# Elastic Constant Matrix: (Units=GPa)
#
#
# Indices 1 2 3 4 5 6 
#
# 1 385.9582 57.4059 48.4745 0.0000 0.0000 0.0000
# 2 57.4059 91.4363 21.4303 0.0000 0.0000 0.0000
# 3 48.4745 21.4303 79.0594 0.0000 0.0000 0.0000
# 4 0.0000 0.0000 0.0000 17.3756 0.0000 0.0000
# 5 0.0000 0.0000 0.0000 0.0000 63.2066 0.0000
# 6 0.0000 0.0000 0.0000 0.0000 0.0000 24.8537
#
#
#
# Elastic Compliance Matrix: (Units=1/GPa)
#
#
# Indices 1 2 3 4 5 6 
#
# 1 0.003000 -0.001551 -0.001419 0.000000 0.000000 0.000000
# 2 -0.001551 0.012480 -0.002432 0.000000 0.000000 0.000000
# 3 -0.001419 -0.002432 0.014178 0.000000 0.000000 0.000000
# 4 0.000000 0.000000 0.000000 0.057552 0.000000 0.000000
# 5 0.000000 0.000000 0.000000 0.000000 0.015821 0.000000
# 6 0.000000 0.000000 0.000000 0.000000 0.000000 0.040235
#
#
# Mechanical properties :
#
#
# Convention : Reuss Voigt Hill
#
# Bulk Modulus (GPa) = 53.03819 90.11950 71.57884
# Shear Modulus (GPa) = 31.18080 49.69674 40.43877
#
# Velocity S-wave (km/s) = 3.24584 4.09777 3.69643
# Velocity P-wave (km/s) = 5.65403 7.26903 6.51179
#
# Compressibility (1/GPa) = 0.01885434
#
# Stress axis : x y z
#
# Youngs Moduli (GPa) = 333.35260 80.12678 70.53185
#
# Poissons Ratio (x) = 0.12426 0.10008
# Poissons Ratio (y) = 0.51696 0.17154
# Poissons Ratio (z) = 0.47301 0.19488
#
# Static dielectric constant tensor:
#      x y z
#    x 2.538190 0.000000 0.000000 
#    y 0.000000 2.383090 0.000000 
#    z 0.000000 0.000000 2.572250 
# 
# From -- ./inp_files/9771.got.cif
#   From: 2010.05.17/outbox.cif.g08.bks.cpg/sg56_5_cif.got.tgz:9771.got - 2010.06.03 13:42:01.
