data_PCOD9429080
_publ_section_title
;
Structure prediction by ZEFSAII (Michael W. Deem and Ramdas Pophale) SiO2 
 PCOD9429080
Probable space group: P B A M
;
_chemical_formula_sum "Si O2"
_cell_formula_units_Z 48
_cell_length_a 13.224178
_cell_length_b 9.362696
_cell_length_c 18.926588
_cell_angle_alpha 90.000000
_cell_angle_beta 90.000000
_cell_angle_gamma 90.000000
_cell_volume 2343.375780
_symmetry_space_group_name_H-M "P B A M"
_symmetry_group_IT_number 55
_symmetry_cell_setting 'orthorhombic'
loop_
_space_group_symop_operation_xyz
x,y,z
-x,-y,z
1/2+x,1/2-y,-z
1/2-x,1/2+y,-z
-x,-y,-z
x,y,-z
1/2-x,1/2+y,z
1/2+x,1/2-y,z
loop_
_atom_site_type_symbol
_atom_site_label
_atom_site_fract_x
_atom_site_fract_y
_atom_site_fract_z
Si Si1 0.084744 0.386101 0.780674
Si Si2 0.617474 0.526341 0.084477
Si Si3 0.296235 0.113568 0.299227
Si Si4 0.564394 0.359011 0.324402
Si Si5 0.749027 0.767461 0.853678
Si Si6 0.452535 0.158613 0.580783
O O1 0.154243 0.462965 0.721843
O O2 0.042615 0.246648 0.741674
O O3 0.156613 0.340309 0.843772
O O4 0.000000 0.500000 0.800208
O O5 0.500000 0.500000 0.107996
O O6 0.696485 0.409051 0.115760
O O7 0.661482 0.682463 0.105384
O O8 0.618555 0.512326 0.000000
O O9 0.181350 0.101236 0.322402
O O10 0.292484 0.198408 0.224944
O O11 0.363096 0.175566 0.362315
O O12 0.500000 0.500000 0.317921
O O13 0.535433 0.272599 0.394525
O O14 0.420679 0.178723 0.500000
O O15 0.500000 0.000000 0.587602
#
# Coordination Sequence:
#
# PCOD9429080 Si02
#       6
#     8   8   8   8   8   8
#     4  11  22  42  65  99 138 172 225 281 336 403
#     4  11  26  47  70 103 145 183 225 280 345 417
#     4  11  23  41  68  98 133 178 226 279 335 406
#     4  11  25  38  67  97 131 168 223 287 336 401
#     4  11  25  41  71 103 135 182 229 280 339 404
#     4  11  24  45  67  90 133 184 225 279 349 407
#
# _framework density 20.483271999999999
#
# number of rings (size 3 to 8) (size 9 to 14) (size 15 to 20)
#    0.000    1.000    5.000    0.500    7.000    3.667 
#    0.000    1.667    0.000    4.000    0.000    0.000 
#    0.000    0.000    0.000    0.000    0.000    0.000 
#
# Total GULP energy -268195.183542 kJ/mol
# GULP energy per Si atom -5587.399657 kJ/mol
# Density = 2.043665 g / cm^3
# Si number density = 20.483272 Si / 1000 Ang^3
#
#
#
# Elastic Constant Matrix: (Units=GPa)
#
#
# Indices 1 2 3 4 5 6 
#
# 1 116.5560 45.9556 46.4130 0.0000 0.0000 0.0000
# 2 45.9556 100.5450 23.8163 0.0000 0.0000 0.0000
# 3 46.4130 23.8163 91.7003 0.0000 0.0000 0.0000
# 4 0.0000 0.0000 0.0000 17.8713 0.0000 0.0000
# 5 0.0000 0.0000 0.0000 0.0000 33.5491 0.0000
# 6 0.0000 0.0000 0.0000 0.0000 0.0000 24.7273
#
#
#
# Elastic Compliance Matrix: (Units=1/GPa)
#
#
# Indices 1 2 3 4 5 6 
#
# 1 0.012363 -0.004442 -0.005104 0.000000 0.000000 0.000000
# 2 -0.004442 0.012194 -0.000919 0.000000 0.000000 0.000000
# 3 -0.005104 -0.000919 0.013727 0.000000 0.000000 0.000000
# 4 0.000000 0.000000 0.000000 0.055956 0.000000 0.000000
# 5 0.000000 0.000000 0.000000 0.000000 0.029807 0.000000
# 6 0.000000 0.000000 0.000000 0.000000 0.000000 0.040441
#
#
# Mechanical properties :
#
#
# Convention : Reuss Voigt Hill
#
# Bulk Modulus (GPa) = 57.62046 60.13011 58.87529
# Shear Modulus (GPa) = 26.15040 28.07063 27.11051
#
# Velocity S-wave (km/s) = 3.57693 3.70593 3.64200
# Velocity P-wave (km/s) = 6.72687 6.90879 6.81844
#
# Compressibility (1/GPa) = 0.01735495
#
# Stress axis : x y z
#
# Youngs Moduli (GPa) = 80.88465 82.00996 72.84928
#
# Poissons Ratio (x) = 0.36428 0.37181
# Poissons Ratio (y) = 0.35928 0.06693
# Poissons Ratio (z) = 0.41283 0.07534
#
# Static dielectric constant tensor:
#      x y z
#    x 1.760190 0.000000 0.000000 
#    y 0.000000 1.774450 0.000000 
#    z 0.000000 0.000000 1.711650 
# 
# From -- ./inp_files/21510.got.cif
#   From: 2010.05.17/outbox.cif.g08.bks.cpg/sg55_11_cif.got.tgz:21510.got - 2010.06.03 13:27:54.
