data_PCOD9429628
_publ_section_title
;
Structure prediction by ZEFSAII (Michael W. Deem and Ramdas Pophale) SiO2 
 PCOD9429628
Probable space group: P C C N
;
_chemical_formula_sum "Si O2"
_cell_formula_units_Z 56
_cell_length_a 21.293184
_cell_length_b 9.041830
_cell_length_c 15.365753
_cell_angle_alpha 90.000000
_cell_angle_beta 90.000000
_cell_angle_gamma 90.000000
_cell_volume 2958.358436
_symmetry_space_group_name_H-M "P C C N"
_symmetry_group_IT_number 56
_symmetry_cell_setting 'orthorhombic'
loop_
_space_group_symop_operation_xyz
x,y,z
1/2-x,1/2-y,z
1/2+x,-y,1/2-z
-x,1/2+y,1/2-z
-x,-y,-z
1/2+x,1/2+y,-z
1/2-x,y,1/2+z
x,1/2-y,1/2+z
loop_
_atom_site_type_symbol
_atom_site_label
_atom_site_fract_x
_atom_site_fract_y
_atom_site_fract_z
Si Si1 0.132761 0.025519 0.495574
Si Si2 0.678028 0.764514 0.624237
Si Si3 0.908247 0.340089 0.166544
Si Si4 0.944958 0.642365 0.851044
Si Si5 0.360608 0.975220 0.276965
Si Si6 0.636354 0.913529 0.294479
Si Si7 0.239217 0.070328 0.629177
O O1 0.134925 0.178799 0.442823
O O2 0.078595 0.044558 0.567456
O O3 0.199089 0.017848 0.546463
O O4 0.122072 0.901473 0.422942
O O5 0.750000 0.750000 0.597769
O O6 0.657567 0.931588 0.638195
O O7 0.670355 0.680473 0.717065
O O8 0.901161 0.463032 0.242007
O O9 0.982114 0.322118 0.149381
O O10 0.874415 0.192786 0.200254
O O11 0.922075 0.549124 0.767016
O O12 0.905411 0.794793 0.845773
O O13 0.304061 0.012110 0.209239
O O14 0.690249 0.984046 0.354513
O O15 0.250000 0.250000 0.626071
#
# Coordination Sequence:
#
# PCOD9429628 Si02
#       7
#     8   8   8   8   8   8   8
#     4  10  22  34  62  86 119 161 196 256 296 362
#     4  10  17  34  58  85 107 153 204 241 292 364
#     4  11  23  37  56  95 127 156 194 251 320 347
#     4  10  20  40  62  83 118 170 212 237 284 374
#     4  10  20  36  63  86 120 157 199 261 295 354
#     4  10  19  35  62  85 110 157 211 251 281 355
#     4  11  17  39  65  86 110 156 215 245 296 357
#
# _framework density 18.929416
#
# number of rings (size 3 to 8) (size 9 to 14) (size 15 to 20)
#    0.000    1.714    5.714    1.714    0.000    0.571 
#    0.000    3.571    9.429    0.000    0.000    0.000 
#    0.000    0.000    0.000    0.000    0.000    0.000 
#
# Total GULP energy -312222.979767 kJ/mol
# GULP energy per Si atom -5575.410353 kJ/mol
# Density = 1.888633 g / cm^3
# Si number density = 18.929416 Si / 1000 Ang^3
#
#
#
# Elastic Constant Matrix: (Units=GPa)
#
#
# Indices 1 2 3 4 5 6 
#
# 1 103.4198 35.3320 39.3951 0.0000 0.0000 0.0000
# 2 35.3320 95.4631 31.5303 0.0000 0.0000 0.0000
# 3 39.3951 31.5303 70.1519 0.0000 0.0000 0.0000
# 4 0.0000 0.0000 0.0000 17.1013 0.0000 0.0000
# 5 0.0000 0.0000 0.0000 0.0000 18.7449 0.0000
# 6 0.0000 0.0000 0.0000 0.0000 0.0000 18.5982
#
#
#
# Elastic Compliance Matrix: (Units=1/GPa)
#
#
# Indices 1 2 3 4 5 6 
#
# 1 0.012907 -0.002799 -0.005991 0.000000 0.000000 0.000000
# 2 -0.002799 0.012908 -0.004230 0.000000 0.000000 0.000000
# 3 -0.005991 -0.004230 0.019520 0.000000 0.000000 0.000000
# 4 0.000000 0.000000 0.000000 0.058475 0.000000 0.000000
# 5 0.000000 0.000000 0.000000 0.000000 0.053348 0.000000
# 6 0.000000 0.000000 0.000000 0.000000 0.000000 0.053769
#
#
# Mechanical properties :
#
#
# Convention : Reuss Voigt Hill
#
# Bulk Modulus (GPa) = 51.82077 53.50552 52.66314
# Shear Modulus (GPa) = 20.54247 21.74069 21.14158
#
# Velocity S-wave (km/s) = 3.29783 3.39265 3.34558
# Velocity P-wave (km/s) = 6.47581 6.60863 6.54256
#
# Compressibility (1/GPa) = 0.01929728
#
# Stress axis : x y z
#
# Youngs Moduli (GPa) = 77.47515 77.47018 51.22920
#
# Poissons Ratio (x) = 0.21681 0.30689
# Poissons Ratio (y) = 0.21682 0.21670
# Poissons Ratio (z) = 0.46412 0.32771
#
# Static dielectric constant tensor:
#      x y z
#    x 1.669610 0.000000 0.000000 
#    y 0.000000 1.646770 0.000000 
#    z 0.000000 0.000000 1.685550 
# 
# From -- ./inp_files/13064.got.cif
#   From: 2010.05.17/outbox.cif.g08.bks.cpg/sg56_7_cif.got.tgz:13064.got - 2010.06.03 13:42:01.
