data_PCOD9429970
_publ_section_title
;
Structure prediction by ZEFSAII (Michael W. Deem and Ramdas Pophale) SiO2 
 PCOD9429970
Probable space group: P C C N
;
_chemical_formula_sum "Si O2"
_cell_formula_units_Z 48
_cell_length_a 12.950219
_cell_length_b 8.786580
_cell_length_c 20.675649
_cell_angle_alpha 90.000000
_cell_angle_beta 90.000000
_cell_angle_gamma 90.000000
_cell_volume 2352.643545
_symmetry_space_group_name_H-M "P C C N"
_symmetry_group_IT_number 56
_symmetry_cell_setting 'orthorhombic'
loop_
_space_group_symop_operation_xyz
x,y,z
1/2-x,1/2-y,z
1/2+x,-y,1/2-z
-x,1/2+y,1/2-z
-x,-y,-z
1/2+x,1/2+y,-z
1/2-x,y,1/2+z
x,1/2-y,1/2+z
loop_
_atom_site_type_symbol
_atom_site_label
_atom_site_fract_x
_atom_site_fract_y
_atom_site_fract_z
Si Si1 0.859626 0.015827 0.845672
Si Si2 0.427246 0.403205 0.801328
Si Si3 0.250000 0.250000 0.583319
Si Si4 0.990235 0.945830 0.672147
Si Si5 0.217858 0.574680 0.801594
Si Si6 0.896325 0.492078 0.960429
Si Si7 0.750000 0.250000 0.441979
O O1 0.817657 0.050168 0.773499
O O2 0.814997 0.139600 0.895162
O O3 0.983263 0.020803 0.844613
O O4 0.817768 0.856668 0.870690
O O5 0.451529 0.468430 0.730116
O O6 0.452875 0.223422 0.806596
O O7 0.312446 0.460624 0.816921
O O8 0.327411 0.356112 0.542565
O O9 0.067841 0.948308 0.612318
O O10 0.884323 0.035082 0.657952
O O11 0.250000 0.750000 0.808869
O O12 0.823999 0.355557 0.983552
O O13 0.000000 0.500000 0.000000
#
# Coordination Sequence:
#
# PCOD9429970 Si02
#       7
#     8   8   4   8   8   8   4
#     4  10  20  35  63  89 128 161 214 248 309 383
#     4  11  21  37  60  98 131 167 209 254 330 384
#     4  10  24  38  70  92 114 172 218 260 308 376
#     4  11  24  38  65  93 133 172 204 267 317 386
#     4  11  23  35  56  97 137 169 202 257 328 382
#     4  11  25  48  66  93 126 167 226 266 312 381
#     4  10  18  44  68  88 114 174 204 260 306 374
#
# _framework density 20.40258
#
# number of rings (size 3 to 8) (size 9 to 14) (size 15 to 20)
#    0.000    1.333    2.500    4.500   11.667    0.000 
#    4.500    3.333    0.000    0.000    0.000    0.000 
#    0.000    0.000    0.000    0.000    0.000    0.000 
#
# Total GULP energy -268244.920129 kJ/mol
# GULP energy per Si atom -5588.435836 kJ/mol
# Density = 2.035614 g / cm^3
# Si number density = 20.402580 Si / 1000 Ang^3
#
#
#
# Elastic Constant Matrix: (Units=GPa)
#
#
# Indices 1 2 3 4 5 6 
#
# 1 123.3105 37.7127 2.1969 0.0000 0.0000 0.0000
# 2 37.7127 131.8949 13.3913 0.0000 0.0000 0.0000
# 3 2.1969 13.3913 11.8234 0.0000 0.0000 0.0000
# 4 0.0000 0.0000 0.0000 -1.9624 0.0000 0.0000
# 5 0.0000 0.0000 0.0000 0.0000 -54.1572 0.0000
# 6 0.0000 0.0000 0.0000 0.0000 0.0000 33.8886
#
#
#
# Elastic Compliance Matrix: (Units=1/GPa)
#
#
# Indices 1 2 3 4 5 6 
#
# 1 0.008907 -0.002688 0.001389 0.000000 0.000000 0.000000
# 2 -0.002688 0.009378 -0.010122 0.000000 0.000000 0.000000
# 3 0.001389 -0.010122 0.095784 0.000000 0.000000 0.000000
# 4 0.000000 0.000000 0.000000 -0.509582 0.000000 0.000000
# 5 0.000000 0.000000 0.000000 0.000000 -0.018465 0.000000
# 6 0.000000 0.000000 0.000000 0.000000 0.000000 0.029508
#
#
# Mechanical properties :
#
#
# Convention : Reuss Voigt Hill
#
# Bulk Modulus (GPa) = 10.96158 41.51451 26.23805
# Shear Modulus (GPa) = -15.09576 9.80234 -2.64671
#
# Velocity S-wave (km/s) = -2.72305 2.19429 -1.14020
# Velocity P-wave (km/s) = 2.12188 5.17800 3.33986
#
# Compressibility (1/GPa) = 0.09122769
#
# Stress axis : x y z
#
# Youngs Moduli (GPa) = 112.27271 106.63228 10.44013
#
# Poissons Ratio (x) = 0.28661 -0.01450
# Poissons Ratio (y) = 0.30177 0.10568
# Poissons Ratio (z) = -0.15598 1.07935
#
# Static dielectric constant tensor:
#      x y z
#    x 1.511380 0.000000 0.000000 
#    y 0.000000 1.756710 0.000000 
#    z 0.000000 0.000000 1.716920 
# 
# From -- ./inp_files/20925.got.cif
#   From: 2010.05.17/outbox.cif.g08.bks.cpg/sg56_11_cif.got.tgz:20925.got - 2010.06.03 13:42:01.
