data_PCOD9429122
_publ_section_title
;
Structure prediction by ZEFSAII (Michael W. Deem and Ramdas Pophale) SiO2 
 PCOD9429122
Probable space group: P B A M
;
_chemical_formula_sum "Si O2"
_cell_formula_units_Z 26
_cell_length_a 7.688733
_cell_length_b 9.310168
_cell_length_c 14.149203
_cell_angle_alpha 90.000000
_cell_angle_beta 90.000000
_cell_angle_gamma 90.000000
_cell_volume 1012.848001
_symmetry_space_group_name_H-M "P B A M"
_symmetry_group_IT_number 55
_symmetry_cell_setting 'orthorhombic'
loop_
_space_group_symop_operation_xyz
x,y,z
-x,-y,z
1/2+x,1/2-y,-z
1/2-x,1/2+y,-z
-x,-y,-z
x,y,-z
1/2-x,1/2+y,z
1/2+x,1/2-y,z
loop_
_atom_site_type_symbol
_atom_site_label
_atom_site_fract_x
_atom_site_fract_y
_atom_site_fract_z
Si Si1 0.732896 0.029396 0.324067
Si Si2 0.653511 0.198724 0.000000
Si Si3 0.969187 0.793122 0.393753
Si Si4 0.000000 0.500000 0.845703
Si Si5 0.000000 0.000000 0.000000
O O1 0.589436 0.133724 0.369871
O O2 0.897953 0.137311 0.319541
O O3 0.801773 0.897526 0.385763
O O4 0.663621 0.975724 0.224146
O O5 0.553818 0.134134 0.908878
O O6 0.647967 0.370397 0.000000
O O7 0.844234 0.124750 0.000000
O O8 0.039752 0.806472 0.500000
#
# Coordination Sequence:
#
# PCOD9429122 Si02
#       5
#     8   4   8   4   2
#     4  11  24  41  68  99 143 188 250 311 375 458
#     4  11  28  53  88 118 164 206 262 324 410 488
#     4  11  23  43  68 103 145 201 255 318 388 463
#     4  11  26  50  73 114 152 208 261 332 406 479
#     4  12  28  56  88 124 152 216 266 328 400 492
#
# _framework density 25.670189000000001
#
# number of rings (size 3 to 8) (size 9 to 14) (size 15 to 20)
#    0.000    0.923    0.000    7.385    0.000   12.308 
#    0.000    8.462    0.000    0.000    0.000    0.000 
#    0.000    0.000    0.000    0.000    0.000    0.000 
#
# Total GULP energy -145192.031892 kJ/mol
# GULP energy per Si atom -5584.308919 kJ/mol
# Density = 2.561176 g / cm^3
# Si number density = 25.670189 Si / 1000 Ang^3
#
#
#
# Elastic Constant Matrix: (Units=GPa)
#
#
# Indices 1 2 3 4 5 6 
#
# 1 143.6073 41.5763 35.7696 0.0000 0.0000 0.0000
# 2 41.5763 202.8456 25.7398 0.0000 0.0000 0.0000
# 3 35.7696 25.7398 113.4924 0.0000 0.0000 0.0000
# 4 0.0000 0.0000 0.0000 12.0644 0.0000 0.0000
# 5 0.0000 0.0000 0.0000 0.0000 -4.0394 0.0000
# 6 0.0000 0.0000 0.0000 0.0000 0.0000 66.5150
#
#
#
# Elastic Compliance Matrix: (Units=1/GPa)
#
#
# Indices 1 2 3 4 5 6 
#
# 1 0.007896 -0.001341 -0.002184 0.000000 0.000000 0.000000
# 2 -0.001341 0.005304 -0.000780 0.000000 0.000000 0.000000
# 3 -0.002184 -0.000780 0.009677 0.000000 0.000000 0.000000
# 4 0.000000 0.000000 0.000000 0.082888 0.000000 0.000000
# 5 0.000000 0.000000 0.000000 0.000000 -0.247560 0.000000
# 6 0.000000 0.000000 0.000000 0.000000 0.000000 0.015034
#
#
# Mechanical properties :
#
#
# Convention : Reuss Voigt Hill
#
# Bulk Modulus (GPa) = 70.10324 74.01296 72.05810
# Shear Modulus (GPa) = -44.09363 38.69864 -2.69750
#
# Velocity S-wave (km/s) = -4.14901 3.88691 -1.02621
# Velocity P-wave (km/s) = 2.10146 7.00278 5.16987
#
# Compressibility (1/GPa) = 0.01426468
#
# Stress axis : x y z
#
# Youngs Moduli (GPa) = 126.64948 188.54569 103.34253
#
# Poissons Ratio (x) = 0.25287 0.22574
# Poissons Ratio (y) = 0.16986 0.08063
# Poissons Ratio (z) = 0.27665 0.14710
#
# Static dielectric constant tensor:
#      x y z
#    x 2.211360 0.000000 0.000000 
#    y 0.000000 1.995530 0.000000 
#    z 0.000000 0.000000 1.989150 
# 
# From -- ./inp_files/20573.got.cif
#   From: 2010.05.17/outbox.cif.g08.bks.cpg/sg55_11_cif.got.tgz:20573.got - 2010.06.03 13:27:54.
