data_PCOD9429210
_publ_section_title
;
Structure prediction by ZEFSAII (Michael W. Deem and Ramdas Pophale) SiO2 
 PCOD9429210
Probable space group: P B A M
;
_chemical_formula_sum "Si O2"
_cell_formula_units_Z 48
_cell_length_a 13.524742
_cell_length_b 8.527711
_cell_length_c 17.562556
_cell_angle_alpha 90.000000
_cell_angle_beta 90.000000
_cell_angle_gamma 90.000000
_cell_volume 2025.578997
_symmetry_space_group_name_H-M "P B A M"
_symmetry_group_IT_number 55
_symmetry_cell_setting 'orthorhombic'
loop_
_space_group_symop_operation_xyz
x,y,z
-x,-y,z
1/2+x,1/2-y,-z
1/2-x,1/2+y,-z
-x,-y,-z
x,y,-z
1/2-x,1/2+y,z
1/2+x,1/2-y,z
loop_
_atom_site_type_symbol
_atom_site_label
_atom_site_fract_x
_atom_site_fract_y
_atom_site_fract_z
Si Si1 0.539408 0.840022 0.661169
Si Si2 0.606119 0.872012 0.500000
Si Si3 0.308552 0.316417 0.266197
Si Si4 0.358989 0.656791 0.328590
Si Si5 0.191835 0.276831 0.500000
Si Si6 0.062490 0.841253 0.120613
Si Si7 0.285819 0.473679 0.000000
Si Si8 0.409447 0.793764 0.000000
O O1 0.536325 0.851239 0.571363
O O2 0.653706 0.816001 0.675963
O O3 0.474236 0.692858 0.683907
O O4 0.500000 0.000000 0.695584
O O5 0.689660 0.739248 0.500000
O O6 0.660397 0.040644 0.500000
O O7 0.329920 0.484859 0.301415
O O8 0.193608 0.278398 0.269088
O O9 0.379023 0.282025 0.194495
O O10 0.339249 0.697913 0.418236
O O11 0.156727 0.893332 0.069887
O O12 0.000000 0.000000 0.136757
O O13 0.984912 0.732998 0.072124
O O14 0.167005 0.442223 0.000000
O O15 0.328216 0.651686 0.000000
#
# Coordination Sequence:
#
# PCOD9429210 Si02
#       8
#     8   4   8   8   4   8   4   4
#     4  12  24  43  65  92 129 176 221 283 346 413
#     4  12  24  43  68  94 131 173 229 294 350 408
#     4  12  26  44  65  99 135 177 225 285 347 416
#     4  12  25  43  67  95 131 176 232 287 354 412
#     4  12  23  44  69  94 128 175 232 294 346 412
#     4   9  20  41  65  97 140 178 222 271 329 405
#     4   9  19  37  70 100 130 179 221 259 328 391
#     4   9  19  41  72 102 134 181 223 275 321 399
#
# _framework density 23.696929000000001
#
# number of rings (size 3 to 8) (size 9 to 14) (size 15 to 20)
#    0.000    1.000    3.333    5.250    0.000    4.000 
#    0.000    5.000    0.000    2.000    0.000    0.000 
#    0.000    0.000    0.000    0.000    0.000    0.000 
#
# Total GULP energy -267622.124801 kJ/mol
# GULP energy per Si atom -5575.460933 kJ/mol
# Density = 2.364299 g / cm^3
# Si number density = 23.696929 Si / 1000 Ang^3
#
#
#
# Elastic Constant Matrix: (Units=GPa)
#
#
# Indices 1 2 3 4 5 6 
#
# 1 117.6393 34.7822 24.5995 0.0000 0.0000 0.0000
# 2 34.7822 91.1921 1.9667 0.0000 0.0000 0.0000
# 3 24.5995 1.9667 92.2063 0.0000 0.0000 0.0000
# 4 0.0000 0.0000 0.0000 11.6100 0.0000 0.0000
# 5 0.0000 0.0000 0.0000 0.0000 14.5721 0.0000
# 6 0.0000 0.0000 0.0000 0.0000 0.0000 54.8638
#
#
#
# Elastic Compliance Matrix: (Units=1/GPa)
#
#
# Indices 1 2 3 4 5 6 
#
# 1 0.010183 -0.003827 -0.002635 0.000000 0.000000 0.000000
# 2 -0.003827 0.012409 0.000756 0.000000 0.000000 0.000000
# 3 -0.002635 0.000756 0.011532 0.000000 0.000000 0.000000
# 4 0.000000 0.000000 0.000000 0.086133 0.000000 0.000000
# 5 0.000000 0.000000 0.000000 0.000000 0.068624 0.000000
# 6 0.000000 0.000000 0.000000 0.000000 0.000000 0.018227
#
#
# Mechanical properties :
#
#
# Convention : Reuss Voigt Hill
#
# Bulk Modulus (GPa) = 44.02819 47.08161 45.55490
# Shear Modulus (GPa) = 22.11498 32.18847 27.15173
#
# Velocity S-wave (km/s) = 3.05822 3.68956 3.38863
# Velocity P-wave (km/s) = 5.57587 6.16943 5.88014
#
# Compressibility (1/GPa) = 0.02271272
#
# Stress axis : x y z
#
# Youngs Moduli (GPa) = 98.20126 80.58463 86.71423
#
# Poissons Ratio (x) = 0.30841 0.22850
# Poissons Ratio (y) = 0.37584 -0.06559
# Poissons Ratio (z) = 0.25877 -0.06095
#
# Static dielectric constant tensor:
#      x y z
#    x 1.843100 0.000000 0.000000 
#    y 0.000000 1.895250 0.000000 
#    z 0.000000 0.000000 2.124560 
# 
# From -- ./inp_files/21562.got.cif
#   From: 2010.05.17/outbox.cif.g08.bks.cpg/sg55_11_cif.got.tgz:21562.got - 2010.06.03 13:27:54.
