data_PCOD9429189
_publ_section_title
;
Structure prediction by ZEFSAII (Michael W. Deem and Ramdas Pophale) SiO2 
 PCOD9429189
Probable space group: P B A M
;
_chemical_formula_sum "Si O2"
_cell_formula_units_Z 26
_cell_length_a 14.984486
_cell_length_b 8.948119
_cell_length_c 7.844016
_cell_angle_alpha 90.000000
_cell_angle_beta 90.000000
_cell_angle_gamma 90.000000
_cell_volume 1051.748914
_symmetry_space_group_name_H-M "P B A M"
_symmetry_group_IT_number 55
_symmetry_cell_setting 'orthorhombic'
loop_
_space_group_symop_operation_xyz
x,y,z
-x,-y,z
1/2+x,1/2-y,-z
1/2-x,1/2+y,-z
-x,-y,-z
x,y,-z
1/2-x,1/2+y,z
1/2+x,1/2-y,z
loop_
_atom_site_type_symbol
_atom_site_label
_atom_site_fract_x
_atom_site_fract_y
_atom_site_fract_z
Si Si1 0.300288 0.544606 0.198491
Si Si2 0.058475 0.309456 0.188741
Si Si3 0.367676 0.235290 0.691704
Si Si4 0.000000 0.500000 0.500000
O O1 0.377328 0.668798 0.216909
O O2 0.208743 0.623428 0.250334
O O3 0.323582 0.398429 0.305176
O O4 0.296055 0.499337 0.000000
O O5 0.955325 0.257764 0.193650
O O6 0.062198 0.421938 0.345161
O O7 0.079050 0.372048 0.000000
O O8 0.402943 0.194369 0.500000
#
# Coordination Sequence:
#
# PCOD9429189 Si02
#       4
#     8   8   8   2
#     4  11  26  46  71 101 140 186 233 288 351 415
#     4  11  26  47  72 102 143 187 233 287 352 419
#     4  12  26  44  72 104 140 184 235 288 348 418
#     4  12  26  44  74 110 136 186 232 300 340 422
#
# _framework density 24.720728000000001
#
# number of rings (size 3 to 8) (size 9 to 14) (size 15 to 20)
#    0.000    0.615    1.538    5.077    8.615    3.692 
#    0.000    0.000    0.000    0.000    0.000    0.000 
#    0.000    0.000    0.000    0.000    0.000    0.000 
#
# Total GULP energy -145456.355610 kJ/mol
# GULP energy per Si atom -5594.475216 kJ/mol
# Density = 2.466446 g / cm^3
# Si number density = 24.720728 Si / 1000 Ang^3
#
#
#
# Elastic Constant Matrix: (Units=GPa)
#
#
# Indices 1 2 3 4 5 6 
#
# 1 172.4115 48.4213 17.4760 0.0000 0.0000 0.0000
# 2 48.4213 96.9864 58.7304 0.0000 0.0000 0.0000
# 3 17.4760 58.7304 194.3903 0.0000 0.0000 0.0000
# 4 0.0000 0.0000 0.0000 51.6832 0.0000 0.0000
# 5 0.0000 0.0000 0.0000 0.0000 6.8096 0.0000
# 6 0.0000 0.0000 0.0000 0.0000 0.0000 52.6631
#
#
#
# Elastic Compliance Matrix: (Units=1/GPa)
#
#
# Indices 1 2 3 4 5 6 
#
# 1 0.006786 -0.003695 0.000506 0.000000 0.000000 0.000000
# 2 -0.003695 0.014631 -0.004088 0.000000 0.000000 0.000000
# 3 0.000506 -0.004088 0.006334 0.000000 0.000000 0.000000
# 4 0.000000 0.000000 0.000000 0.019349 0.000000 0.000000
# 5 0.000000 0.000000 0.000000 0.000000 0.146852 0.000000
# 6 0.000000 0.000000 0.000000 0.000000 0.000000 0.018989
#
#
# Mechanical properties :
#
#
# Convention : Reuss Voigt Hill
#
# Bulk Modulus (GPa) = 75.77021 79.22706 77.49863
# Shear Modulus (GPa) = 21.56161 44.84189 33.20175
#
# Velocity S-wave (km/s) = 2.95652 4.26366 3.66877
# Velocity P-wave (km/s) = 6.50935 7.50711 7.02597
#
# Compressibility (1/GPa) = 0.01319780
#
# Stress axis : x y z
#
# Youngs Moduli (GPa) = 147.35333 68.34820 157.87943
#
# Poissons Ratio (x) = 0.25252 -0.07991
# Poissons Ratio (y) = 0.54442 0.64545
# Poissons Ratio (z) = -0.07458 0.27942
#
# Static dielectric constant tensor:
#      x y z
#    x 1.800780 0.000000 0.000000 
#    y 0.000000 1.671220 0.000000 
#    z 0.000000 0.000000 1.931260 
# 
# From -- ./inp_files/1850.got.cif
#   From: 2010.05.17/outbox.cif.g08.bks.cpg/sg55_1_cif.got.tgz:1850.got - 2010.06.03 13:27:54.
