data_PCOD9429645
_publ_section_title
;
Structure prediction by ZEFSAII (Michael W. Deem and Ramdas Pophale) SiO2 
 PCOD9429645
Probable space group: P C C N
;
_chemical_formula_sum "Si O2"
_cell_formula_units_Z 56
_cell_length_a 16.774425
_cell_length_b 8.821760
_cell_length_c 19.948924
_cell_angle_alpha 90.000000
_cell_angle_beta 90.000000
_cell_angle_gamma 90.000000
_cell_volume 2952.040806
_symmetry_space_group_name_H-M "P C C N"
_symmetry_group_IT_number 56
_symmetry_cell_setting 'orthorhombic'
loop_
_space_group_symop_operation_xyz
x,y,z
1/2-x,1/2-y,z
1/2+x,-y,1/2-z
-x,1/2+y,1/2-z
-x,-y,-z
1/2+x,1/2+y,-z
1/2-x,y,1/2+z
x,1/2-y,1/2+z
loop_
_atom_site_type_symbol
_atom_site_label
_atom_site_fract_x
_atom_site_fract_y
_atom_site_fract_z
Si Si1 0.721370 0.076468 0.863252
Si Si2 0.578474 0.769851 0.703672
Si Si3 0.647035 0.496115 0.121229
Si Si4 0.601452 0.350516 0.622001
Si Si5 0.729530 0.069977 0.015060
Si Si6 0.708160 0.520478 0.725161
Si Si7 0.455984 0.994484 0.178519
O O1 0.750000 0.250000 0.863187
O O2 0.729101 0.015655 0.938930
O O3 0.770955 0.999989 0.802990
O O4 0.628142 0.062928 0.847491
O O5 0.587253 0.867594 0.635987
O O6 0.660326 0.676548 0.714526
O O7 0.561341 0.889630 0.761556
O O8 0.508387 0.647967 0.701784
O O9 0.606978 0.330867 0.117493
O O10 0.710573 0.500790 0.182821
O O11 0.701505 0.513847 0.056114
O O12 0.649979 0.430101 0.561067
O O13 0.648660 0.397738 0.690488
O O14 0.512838 0.415366 0.626975
O O15 0.750000 0.250000 0.014408
#
# Coordination Sequence:
#
# PCOD9429645 Si02
#       7
#     8   8   8   8   8   8   8
#     4  11  22  37  61  89 123 155 198 247 303 353
#     4  11  23  36  57  88 121 149 200 247 300 354
#     4  10  17  36  64  86 113 148 202 245 288 352
#     4   9  19  37  61  87 114 157 196 240 297 361
#     4   8  18  36  62  88 115 158 203 240 292 364
#     4  10  20  34  60  84 116 149 196 246 297 343
#     4  11  24  36  58  89 123 157 194 248 306 355
#
# _framework density 18.969927999999999
#
# number of rings (size 3 to 8) (size 9 to 14) (size 15 to 20)
#    0.000    2.000    1.429    3.429    4.000    0.571 
#    0.000    0.000   22.000    2.571    0.000    0.000 
#    0.000    0.000    0.000    0.000    0.000    0.000 
#
# Total GULP energy -312374.626615 kJ/mol
# GULP energy per Si atom -5578.118332 kJ/mol
# Density = 1.892675 g / cm^3
# Si number density = 18.969928 Si / 1000 Ang^3
#
#
#
# Elastic Constant Matrix: (Units=GPa)
#
#
# Indices 1 2 3 4 5 6 
#
# 1 70.1358 41.3573 29.6104 0.0000 0.0000 0.0000
# 2 41.3573 84.3082 27.3910 0.0000 0.0000 0.0000
# 3 29.6104 27.3910 123.8897 0.0000 0.0000 0.0000
# 4 0.0000 0.0000 0.0000 11.2739 0.0000 0.0000
# 5 0.0000 0.0000 0.0000 0.0000 4.6024 0.0000
# 6 0.0000 0.0000 0.0000 0.0000 0.0000 35.1123
#
#
#
# Elastic Compliance Matrix: (Units=1/GPa)
#
#
# Indices 1 2 3 4 5 6 
#
# 1 0.021020 -0.009351 -0.002957 0.000000 0.000000 0.000000
# 2 -0.009351 0.016939 -0.001510 0.000000 0.000000 0.000000
# 3 -0.002957 -0.001510 0.009112 0.000000 0.000000 0.000000
# 4 0.000000 0.000000 0.000000 0.088701 0.000000 0.000000
# 5 0.000000 0.000000 0.000000 0.000000 0.217278 0.000000
# 6 0.000000 0.000000 0.000000 0.000000 0.000000 0.028480
#
#
# Mechanical properties :
#
#
# Convention : Reuss Voigt Hill
#
# Bulk Modulus (GPa) = 51.45035 52.78345 52.11690
# Shear Modulus (GPa) = 12.02953 22.19606 17.11279
#
# Velocity S-wave (km/s) = 2.52094 3.42433 3.00676
# Velocity P-wave (km/s) = 5.97113 6.59696 6.29184
#
# Compressibility (1/GPa) = 0.01943621
#
# Stress axis : x y z
#
# Youngs Moduli (GPa) = 47.57312 59.03557 109.74284
#
# Poissons Ratio (x) = 0.55204 0.32446
# Poissons Ratio (y) = 0.44485 0.16573
# Poissons Ratio (z) = 0.14065 0.08915
#
# Static dielectric constant tensor:
#      x y z
#    x 1.677330 0.000000 0.000000 
#    y 0.000000 1.676180 0.000000 
#    z 0.000000 0.000000 1.679340 
# 
# From -- ./inp_files/19136.got.cif
#   From: 2010.05.17/outbox.cif.g08.bks.cpg/sg56_10_cif.got.tgz:19136.got - 2010.06.03 13:42:01.
