data_PCOD9429977
_publ_section_title
;
Structure prediction by ZEFSAII (Michael W. Deem and Ramdas Pophale) SiO2 
 PCOD9429977
Probable space group: P C C N
;
_chemical_formula_sum "Si O2"
_cell_formula_units_Z 56
_cell_length_a 25.872196
_cell_length_b 16.625416
_cell_length_c 5.058341
_cell_angle_alpha 90.000000
_cell_angle_beta 90.000000
_cell_angle_gamma 90.000000
_cell_volume 2175.774672
_symmetry_space_group_name_H-M "P C C N"
_symmetry_group_IT_number 56
_symmetry_cell_setting 'orthorhombic'
loop_
_space_group_symop_operation_xyz
x,y,z
1/2-x,1/2-y,z
1/2+x,-y,1/2-z
-x,1/2+y,1/2-z
-x,-y,-z
1/2+x,1/2+y,-z
1/2-x,y,1/2+z
x,1/2-y,1/2+z
loop_
_atom_site_type_symbol
_atom_site_label
_atom_site_fract_x
_atom_site_fract_y
_atom_site_fract_z
Si Si1 0.719684 0.953835 0.278702
Si Si2 0.175363 0.290255 0.722728
Si Si3 0.509981 0.878493 0.889378
Si Si4 0.285767 0.642013 0.281265
Si Si5 0.070546 0.336924 0.579076
Si Si6 0.606283 0.398531 0.658629
Si Si7 0.913936 0.996479 0.176634
O O1 0.769470 0.946391 0.089204
O O2 0.684985 0.880408 0.185651
O O3 0.704422 0.045651 0.234189
O O4 0.196756 0.229093 0.935959
O O5 0.114295 0.278097 0.683163
O O6 0.529993 0.819250 0.655033
O O7 0.449637 0.864716 0.926915
O O8 0.528616 0.966268 0.771118
O O9 0.540322 0.868116 0.162916
O O10 0.246597 0.661625 0.518741
O O11 0.345984 0.664506 0.321267
O O12 0.103188 0.410775 0.442978
O O13 0.614197 0.466160 0.429381
O O14 0.593442 0.440432 0.940283
#
# Coordination Sequence:
#
# PCOD9429977 Si02
#       7
#     8   8   8   8   8   8   8
#     4  10  22  38  53  67  90 121 165 217 264 298
#     4  12  25  38  55  72  90 121 167 214 270 314
#     4  10  20  31  49  74 100 124 154 194 246 289
#     4  10  22  37  49  70  98 133 168 203 246 291
#     4  10  21  35  47  70 100 120 151 197 257 304
#     4  12  19  30  51  74  98 129 165 192 233 284
#     4  10  19  29  48  73 100 121 156 197 241 291
#
# _framework density 25.737960999999999
#
# number of rings (size 3 to 8) (size 9 to 14) (size 15 to 20)
#    0.857    0.571    1.429    5.143    0.000    4.000 
#    0.000    0.000    0.000    0.000    0.000    0.000 
#    0.000    0.000    0.000    0.000    0.000   50.000 
#
# Total GULP energy -312618.063641 kJ/mol
# GULP energy per Si atom -5582.465422 kJ/mol
# Density = 2.567938 g / cm^3
# Si number density = 25.737961 Si / 1000 Ang^3
#
#
#
# Elastic Constant Matrix: (Units=GPa)
#
#
# Indices 1 2 3 4 5 6 
#
# 1 144.3303 -0.0412 39.9532 0.0000 0.0000 0.0000
# 2 -0.0412 55.1926 16.6148 0.0000 0.0000 0.0000
# 3 39.9532 16.6148 170.2496 0.0000 0.0000 0.0000
# 4 0.0000 0.0000 0.0000 -72.9260 0.0000 0.0000
# 5 0.0000 0.0000 0.0000 0.0000 -18.7176 0.0000
# 6 0.0000 0.0000 0.0000 0.0000 0.0000 20.4342
#
#
#
# Elastic Compliance Matrix: (Units=1/GPa)
#
#
# Indices 1 2 3 4 5 6 
#
# 1 0.007426 0.000546 -0.001796 0.000000 0.000000 0.000000
# 2 0.000546 0.018707 -0.001954 0.000000 0.000000 0.000000
# 3 -0.001796 -0.001954 0.006486 0.000000 0.000000 0.000000
# 4 0.000000 0.000000 0.000000 -0.013713 0.000000 0.000000
# 5 0.000000 0.000000 0.000000 0.000000 -0.053426 0.000000
# 6 0.000000 0.000000 0.000000 0.000000 0.000000 0.048938
#
#
# Mechanical properties :
#
#
# Convention : Reuss Voigt Hill
#
# Bulk Modulus (GPa) = 38.15119 53.64736 45.89928
# Shear Modulus (GPa) = 169.13469 6.64117 87.88793
#
# Velocity S-wave (km/s) = 8.11522 1.60807 5.84990
# Velocity P-wave (km/s) = 10.13233 4.93323 7.96872
#
# Compressibility (1/GPa) = 0.02621150
#
# Stress axis : x y z
#
# Youngs Moduli (GPa) = 134.66451 53.45613 154.18140
#
# Poissons Ratio (x) = -0.02920 0.27690
# Poissons Ratio (y) = -0.07355 0.30124
# Poissons Ratio (z) = 0.24185 0.10444
#
# Static dielectric constant tensor:
#      x y z
#    x 2.037050 0.000000 0.000000 
#    y 0.000000 1.819010 0.000000 
#    z 0.000000 0.000000 2.044460 
# 
# From -- ./inp_files/1140.got.cif
#   From: 2010.05.17/outbox.cif.g08.bks.cpg/sg56_1_cif.got.tgz:1140.got - 2010.06.03 13:42:01.
