data_PCOD9429286
_publ_section_title
;
Structure prediction by ZEFSAII (Michael W. Deem and Ramdas Pophale) SiO2 
 PCOD9429286
Probable space group: P B A M
;
_chemical_formula_sum "Si O2"
_cell_formula_units_Z 56
_cell_length_a 18.000000
_cell_length_b 21.000000
_cell_length_c 9.000000
_cell_angle_alpha 90.000000
_cell_angle_beta 90.000000
_cell_angle_gamma 90.000000
_cell_volume 3402.000000
_symmetry_space_group_name_H-M "P B A M"
_symmetry_group_IT_number 55
_symmetry_cell_setting 'orthorhombic'
loop_
_space_group_symop_operation_xyz
x,y,z
-x,-y,z
1/2+x,1/2-y,-z
1/2-x,1/2+y,-z
-x,-y,-z
x,y,-z
1/2-x,1/2+y,z
1/2+x,1/2-y,z
loop_
_atom_site_type_symbol
_atom_site_label
_atom_site_fract_x
_atom_site_fract_y
_atom_site_fract_z
Si Si1 0.857064 0.616307 0.327556
Si Si2 0.919708 0.742138 0.826072
Si Si3 0.088096 0.508101 0.167345
Si Si4 0.283875 0.309603 0.671929
Si Si5 0.934673 0.237613 0.333106
Si Si6 0.779601 0.811967 0.825876
Si Si7 0.349437 0.127097 0.330755
O O1 0.876369 0.615674 0.500000
O O2 0.898946 0.676609 0.255808
O O3 0.878291 0.550254 0.256576
O O4 0.769465 0.630759 0.310817
O O5 0.864059 0.798825 0.780916
O O6 0.002123 0.761807 0.787036
O O7 0.908734 0.731213 0.000000
O O8 0.107955 0.575504 0.236033
O O9 0.000000 0.500000 0.167626
O O10 0.116127 0.505217 0.000000
O O11 0.271899 0.285836 0.500000
O O12 0.371589 0.315513 0.687927
O O13 0.256799 0.256639 0.787571
O O14 0.966194 0.232647 0.500000
O O15 0.891679 0.305206 0.324867
O O16 0.732579 0.861752 0.732819
O O17 0.773694 0.825715 0.000000
O O18 0.346941 0.106002 0.500000
#
# Coordination Sequence:
#
# PCOD9429286 Si02
#       7
#     8   8   8   8   8   8   8
#     4  10  19  32  49  66  89 122 157 191 225 265
#     4  10  19  29  44  69  97 122 150 185 227 272
#     4  11  23  35  47  66  93 124 156 188 222 264
#     4   8  16  30  46  65  88 116 151 188 226 269
#     4   9  17  29  46  68  93 119 148 185 227 269
#     4   9  17  29  45  65  90 119 150 186 226 268
#     4  10  20  33  48  66  90 122 158 191 224 266
#
# _framework density 16.460905
#
# number of rings (size 3 to 8) (size 9 to 14) (size 15 to 20)
#    0.000    2.429    0.000    3.857    0.000    8.571 
#    0.000    0.000    0.000    0.000    0.000    1.000 
#    0.000    8.000    0.000    0.000    0.000    0.000 
#
# Total GULP energy -311790.596894 kJ/mol
# GULP energy per Si atom -5567.689230 kJ/mol
# Density = 1.642344 g / cm^3
# Si number density = 16.460905 Si / 1000 Ang^3
#
#
#
# Elastic Constant Matrix: (Units=GPa)
#
#
# Indices 1 2 3 4 5 6 
#
# 1 40.4559 14.7828 31.0991 0.0000 0.0000 0.0000
# 2 14.7828 10.8694 12.5099 0.0000 0.0000 0.0000
# 3 31.0991 12.5099 41.9245 0.0000 0.0000 0.0000
# 4 0.0000 0.0000 0.0000 12.9330 0.0000 0.0000
# 5 0.0000 0.0000 0.0000 0.0000 19.7476 0.0000
# 6 0.0000 0.0000 0.0000 0.0000 0.0000 13.9619
#
#
#
# Elastic Compliance Matrix: (Units=1/GPa)
#
#
# Indices 1 2 3 4 5 6 
#
# 1 0.076084 -0.058670 -0.038932 0.000000 0.000000 0.000000
# 2 -0.058670 0.185364 -0.011790 0.000000 0.000000 0.000000
# 3 -0.038932 -0.011790 0.056250 0.000000 0.000000 0.000000
# 4 0.000000 0.000000 0.000000 0.077322 0.000000 0.000000
# 5 0.000000 0.000000 0.000000 0.000000 0.050639 0.000000
# 6 0.000000 0.000000 0.000000 0.000000 0.000000 0.071624
#
#
# Mechanical properties :
#
#
# Convention : Reuss Voigt Hill
#
# Bulk Modulus (GPa) = 10.10979 23.33704 16.72341
# Shear Modulus (GPa) = 6.50164 11.65237 9.07700
#
# Velocity S-wave (km/s) = 1.98955 2.66349 2.35080
# Velocity P-wave (km/s) = 3.38124 4.86487 4.18926
#
# Compressibility (1/GPa) = 0.09891405
#
# Stress axis : x y z
#
# Youngs Moduli (GPa) = 13.14336 5.39480 17.77786
#
# Poissons Ratio (x) = 0.31651 0.69213
# Poissons Ratio (y) = 0.77112 0.20961
# Poissons Ratio (z) = 0.51170 0.06361
#
# Static dielectric constant tensor:
#      x y z
#    x 1.599500 0.000000 0.000000 
#    y 0.000000 1.517460 0.000000 
#    z 0.000000 0.000000 1.715510 
# 
# From -- ./inp_files/7849.got.cif
#   From: 2010.05.17/outbox.ucp.g08.bks.cvg/sg55_4_cif.got.tgz:7849.got - 2010.06.11 16:36:00.
