data_PCOD9429497
_publ_section_title
;
Structure prediction by ZEFSAII (Michael W. Deem and Ramdas Pophale) SiO2 
 PCOD9429497
Probable space group: P C C N
;
_chemical_formula_sum "Si O2"
_cell_formula_units_Z 40
_cell_length_a 7.762455
_cell_length_b 20.568423
_cell_length_c 9.212990
_cell_angle_alpha 90.000000
_cell_angle_beta 90.000000
_cell_angle_gamma 90.000000
_cell_volume 1470.959416
_symmetry_space_group_name_H-M "P C C N"
_symmetry_group_IT_number 56
_symmetry_cell_setting 'orthorhombic'
loop_
_space_group_symop_operation_xyz
x,y,z
1/2-x,1/2-y,z
1/2+x,-y,1/2-z
-x,1/2+y,1/2-z
-x,-y,-z
1/2+x,1/2+y,-z
1/2-x,y,1/2+z
x,1/2-y,1/2+z
loop_
_atom_site_type_symbol
_atom_site_label
_atom_site_fract_x
_atom_site_fract_y
_atom_site_fract_z
Si Si1 0.978703 0.611578 0.789117
Si Si2 0.459350 0.250684 0.854653
Si Si3 0.461715 0.834797 0.397841
Si Si4 0.721767 0.584153 0.537412
Si Si5 0.164259 0.954538 0.043478
O O1 0.003578 0.685114 0.738126
O O2 0.800282 0.588347 0.700008
O O3 0.948069 0.612130 0.960785
O O4 0.121238 0.568093 0.706376
O O5 0.250000 0.250000 0.867027
O O6 0.523708 0.188258 0.766514
O O7 0.543759 0.269491 0.006647
O O8 0.635161 0.871168 0.454253
O O9 0.328257 0.889723 0.446643
O O10 0.698430 0.509412 0.487179
O O11 0.000000 0.000000 0.000000
#
# Coordination Sequence:
#
# PCOD9429497 Si02
#       5
#     8   8   8   8   8
#     4   9  17  25  41  61  83 117 137 169 210 250
#     4  10  16  22  35  60  89 108 136 154 203 259
#     4   9  17  24  38  57  85 117 130 165 201 252
#     4   9  16  29  42  57  86 114 147 173 207 253
#     4   7  15  29  40  55  83 117 145 168 203 252
#
# _framework density 27.193135000000002
#
# number of rings (size 3 to 8) (size 9 to 14) (size 15 to 20)
#    0.000    4.000    2.000    0.600    2.800    0.000 
#    0.000    1.000    0.000    7.200    0.000    1.400 
#    0.000  172.800    0.000    0.000    0.000    0.000 
#
# Total GULP energy -222998.352414 kJ/mol
# GULP energy per Si atom -5574.958810 kJ/mol
# Density = 2.713124 g / cm^3
# Si number density = 27.193135 Si / 1000 Ang^3
#
#
#
# Elastic Constant Matrix: (Units=GPa)
#
#
# Indices 1 2 3 4 5 6 
#
# 1 72.0595 12.8390 15.3077 0.0000 0.0000 0.0000
# 2 12.8390 131.9135 65.1237 0.0000 0.0000 0.0000
# 3 15.3077 65.1237 182.3454 0.0000 0.0000 0.0000
# 4 0.0000 0.0000 0.0000 56.2325 0.0000 0.0000
# 5 0.0000 0.0000 0.0000 0.0000 11.3037 0.0000
# 6 0.0000 0.0000 0.0000 0.0000 0.0000 13.6975
#
#
#
# Elastic Compliance Matrix: (Units=1/GPa)
#
#
# Indices 1 2 3 4 5 6 
#
# 1 0.014230 -0.000965 -0.000850 0.000000 0.000000 0.000000
# 2 -0.000965 0.009269 -0.003229 0.000000 0.000000 0.000000
# 3 -0.000850 -0.003229 0.006709 0.000000 0.000000 0.000000
# 4 0.000000 0.000000 0.000000 0.017783 0.000000 0.000000
# 5 0.000000 0.000000 0.000000 0.000000 0.088467 0.000000
# 6 0.000000 0.000000 0.000000 0.000000 0.000000 0.073006
#
#
# Mechanical properties :
#
#
# Convention : Reuss Voigt Hill
#
# Bulk Modulus (GPa) = 49.70531 63.65103 56.67817
# Shear Modulus (GPa) = 22.09857 35.78327 28.94092
#
# Velocity S-wave (km/s) = 2.85380 3.63146 3.26586
# Velocity P-wave (km/s) = 5.40159 6.40634 5.92530
#
# Compressibility (1/GPa) = 0.02011858
#
# Stress axis : x y z
#
# Youngs Moduli (GPa) = 70.27429 107.88706 149.05866
#
# Poissons Ratio (x) = 0.10416 0.12667
# Poissons Ratio (y) = 0.06785 0.48136
# Poissons Ratio (z) = 0.05972 0.34840
#
# Static dielectric constant tensor:
#      x y z
#    x 2.423860 0.000000 0.000000 
#    y 0.000000 2.248880 0.000000 
#    z 0.000000 0.000000 2.201030 
# 
# From -- ./inp_files/3449.got.cif
#   From: 2010.05.17/outbox.cif.g08.bks.cpg/sg56_2_cif.got.tgz:3449.got - 2010.06.03 13:42:01.
