data_PCOD9430425
_publ_section_title
;
Structure prediction by ZEFSAII (Michael W. Deem and Ramdas Pophale) SiO2 
 PCOD9430425
Probable space group: P C C N
;
_chemical_formula_sum "Si O2"
_cell_formula_units_Z 56
_cell_length_a 13.274678
_cell_length_b 14.948815
_cell_length_c 12.422640
_cell_angle_alpha 90.000000
_cell_angle_beta 90.000000
_cell_angle_gamma 90.000000
_cell_volume 2465.157447
_symmetry_space_group_name_H-M "P C C N"
_symmetry_group_IT_number 56
_symmetry_cell_setting 'orthorhombic'
loop_
_space_group_symop_operation_xyz
x,y,z
1/2-x,1/2-y,z
1/2+x,-y,1/2-z
-x,1/2+y,1/2-z
-x,-y,-z
1/2+x,1/2+y,-z
1/2-x,y,1/2+z
x,1/2-y,1/2+z
loop_
_atom_site_type_symbol
_atom_site_label
_atom_site_fract_x
_atom_site_fract_y
_atom_site_fract_z
Si Si1 0.061868 0.832290 0.354436
Si Si2 0.750000 0.250000 0.233464
Si Si3 0.948728 0.671887 0.065660
Si Si4 0.250000 0.250000 0.982691
Si Si5 0.375453 0.899330 0.195982
Si Si6 0.502584 0.963672 0.664006
Si Si7 0.340426 0.991422 0.979107
Si Si8 0.641636 0.925410 0.473101
O O1 0.143828 0.757474 0.327171
O O2 0.129751 0.903966 0.416894
O O3 0.982624 0.800953 0.444720
O O4 0.016871 0.887037 0.253474
O O5 0.771892 0.156796 0.293478
O O6 0.914791 0.568878 0.058099
O O7 0.040912 0.670436 0.147874
O O8 0.845079 0.721642 0.089815
O O9 0.204500 0.165896 0.049040
O O10 0.424442 0.957535 0.291004
O O11 0.356672 0.972787 0.104120
O O12 0.550364 0.916458 0.558374
O O13 0.402995 0.018386 0.626208
O O14 0.225853 0.017687 0.964480
#
# Coordination Sequence:
#
# PCOD9430425 Si02
#       8
#     8   4   8   4   8   8   8   8
#     4  11  22  42  66  92 128 170 211 266 318 390
#     4  12  28  34  60 106 132 156 216 262 336 362
#     4  10  21  42  67  91 127 173 213 264 319 385
#     4  10  24  44  60  98 134 170 210 266 334 384
#     4  11  22  42  66  92 128 170 211 266 318 390
#     4  11  22  43  68  92 126 173 220 263 310 390
#     4  10  19  44  66  92 118 177 216 254 311 395
#     4  10  24  39  66  94 130 165 217 267 317 377
#
# _framework density 22.716602000000002
#
# number of rings (size 3 to 8) (size 9 to 14) (size 15 to 20)
#    0.000    1.429    2.857    2.571    4.000    2.286 
#    0.000    1.429    0.000    0.000    0.000    0.000 
#    0.000    0.000    0.000    0.000    0.000    0.000 
#
# Total GULP energy -312396.985229 kJ/mol
# GULP energy per Si atom -5578.517593 kJ/mol
# Density = 2.266490 g / cm^3
# Si number density = 22.716602 Si / 1000 Ang^3
#
#
#
# Elastic Constant Matrix: (Units=GPa)
#
#
# Indices 1 2 3 4 5 6 
#
# 1 94.5142 20.1320 19.5386 0.0000 0.0000 0.0000
# 2 20.1320 43.1465 3.8275 0.0000 0.0000 0.0000
# 3 19.5386 3.8275 57.2039 0.0000 0.0000 0.0000
# 4 0.0000 0.0000 0.0000 10.1132 0.0000 0.0000
# 5 0.0000 0.0000 0.0000 0.0000 10.6886 0.0000
# 6 0.0000 0.0000 0.0000 0.0000 0.0000 19.2828
#
#
#
# Elastic Compliance Matrix: (Units=1/GPa)
#
#
# Indices 1 2 3 4 5 6 
#
# 1 0.012566 -0.005515 -0.003923 0.000000 0.000000 0.000000
# 2 -0.005515 0.025736 0.000162 0.000000 0.000000 0.000000
# 3 -0.003923 0.000162 0.018810 0.000000 0.000000 0.000000
# 4 0.000000 0.000000 0.000000 0.098880 0.000000 0.000000
# 5 0.000000 0.000000 0.000000 0.000000 0.093558 0.000000
# 6 0.000000 0.000000 0.000000 0.000000 0.000000 0.051860
#
#
# Mechanical properties :
#
#
# Convention : Reuss Voigt Hill
#
# Bulk Modulus (GPa) = 25.93401 31.31788 28.62595
# Shear Modulus (GPa) = 15.02327 18.10802 16.56564
#
# Velocity S-wave (km/s) = 2.57443 2.82641 2.70336
# Velocity P-wave (km/s) = 4.50311 4.94648 4.73000
#
# Compressibility (1/GPa) = 0.03855941
#
# Stress axis : x y z
#
# Youngs Moduli (GPa) = 79.57845 38.85614 53.16193
#
# Poissons Ratio (x) = 0.21431 0.20856
# Poissons Ratio (y) = 0.43890 -0.00860
# Poissons Ratio (z) = 0.31219 -0.00629
#
# Static dielectric constant tensor:
#      x y z
#    x 1.912090 0.000000 0.000000 
#    y 0.000000 1.946460 0.000000 
#    z 0.000000 0.000000 1.886580 
# 
# From -- ./inp_files/7934.got.cif
#   From: 2010.05.17/outbox.cif.g08.bks.cpg/sg56_4_cif.got.tgz:7934.got - 2010.06.03 13:42:01.
