data_PCOD9430614
_publ_section_title
;
Structure prediction by ZEFSAII (Michael W. Deem and Ramdas Pophale) SiO2 
 PCOD9430614
Probable space group: P C C N
;
_chemical_formula_sum "Si O2"
_cell_formula_units_Z 52
_cell_length_a 17.131850
_cell_length_b 15.864988
_cell_length_c 8.852045
_cell_angle_alpha 90.000000
_cell_angle_beta 90.000000
_cell_angle_gamma 90.000000
_cell_volume 2405.955687
_symmetry_space_group_name_H-M "P C C N"
_symmetry_group_IT_number 56
_symmetry_cell_setting 'orthorhombic'
loop_
_space_group_symop_operation_xyz
x,y,z
1/2-x,1/2-y,z
1/2+x,-y,1/2-z
-x,1/2+y,1/2-z
-x,-y,-z
1/2+x,1/2+y,-z
1/2-x,y,1/2+z
x,1/2-y,1/2+z
loop_
_atom_site_type_symbol
_atom_site_label
_atom_site_fract_x
_atom_site_fract_y
_atom_site_fract_z
Si Si1 0.250000 0.250000 0.381708
Si Si2 0.936701 0.533601 0.196445
Si Si3 0.404665 0.864854 0.189729
Si Si4 0.336085 0.468904 0.608345
Si Si5 0.970796 0.864906 0.248427
Si Si6 0.319236 0.366235 0.125728
Si Si7 0.039503 0.729690 0.472348
O O1 0.298576 0.312014 0.274842
O O2 0.190819 0.301046 0.488939
O O3 0.965774 0.439690 0.231721
O O4 0.896184 0.581208 0.336002
O O5 0.014040 0.586038 0.155160
O O6 0.878384 0.533010 0.054559
O O7 0.413220 0.829115 0.357651
O O8 0.339926 0.935841 0.168412
O O9 0.403590 0.787813 0.073236
O O10 0.388216 0.408814 0.717157
O O11 0.250257 0.432593 0.600628
O O12 0.986898 0.791429 0.369764
O O13 0.986776 0.822844 0.087774
#
# Coordination Sequence:
#
# PCOD9430614 Si02
#       7
#     4   8   8   8   8   8   8
#     4  10  24  40  52  90 112 158 184 236 260 368
#     4  11  21  40  58  86 114 161 187 240 279 357
#     4  10  21  37  63  86 119 143 199 233 295 334
#     4  11  21  40  58  86 114 161 187 240 279 357
#     4  10  21  37  63  86 119 143 199 233 295 334
#     4  11  24  38  60  77 124 150 194 221 294 328
#     4  10  20  35  60  96 110 151 180 256 286 335
#
# _framework density 21.613033999999999
#
# number of rings (size 3 to 8) (size 9 to 14) (size 15 to 20)
#    0.000    1.538    4.615    0.923    0.000   12.308 
#    0.000    0.000    0.000    5.538    0.000    0.000 
#    0.000    0.000    0.000    0.000    0.000    0.000 
#
# Total GULP energy -291114.571600 kJ/mol
# GULP energy per Si atom -5598.357146 kJ/mol
# Density = 2.156384 g / cm^3
# Si number density = 21.613034 Si / 1000 Ang^3
#
#
#
# Elastic Constant Matrix: (Units=GPa)
#
#
# Indices 1 2 3 4 5 6 
#
# 1 44.1167 18.1330 5.1278 0.0000 0.0000 0.0000
# 2 18.1330 105.9175 54.2035 0.0000 0.0000 0.0000
# 3 5.1278 54.2035 125.8994 0.0000 0.0000 0.0000
# 4 0.0000 0.0000 0.0000 26.4127 0.0000 0.0000
# 5 0.0000 0.0000 0.0000 0.0000 13.5769 0.0000
# 6 0.0000 0.0000 0.0000 0.0000 0.0000 8.2952
#
#
#
# Elastic Compliance Matrix: (Units=1/GPa)
#
#
# Indices 1 2 3 4 5 6 
#
# 1 0.024488 -0.004722 0.001036 0.000000 0.000000 0.000000
# 2 -0.004722 0.013020 -0.005413 0.000000 0.000000 0.000000
# 3 0.001036 -0.005413 0.010231 0.000000 0.000000 0.000000
# 4 0.000000 0.000000 0.000000 0.037861 0.000000 0.000000
# 5 0.000000 0.000000 0.000000 0.000000 0.073654 0.000000
# 6 0.000000 0.000000 0.000000 0.000000 0.000000 0.120552
#
#
# Mechanical properties :
#
#
# Convention : Reuss Voigt Hill
#
# Bulk Modulus (GPa) = 33.85309 47.87359 40.86334
# Shear Modulus (GPa) = 16.24160 22.88826 19.56493
#
# Velocity S-wave (km/s) = 2.74427 3.25776 3.01198
# Velocity P-wave (km/s) = 5.07333 6.02902 5.57170
#
# Compressibility (1/GPa) = 0.02953940
#
# Stress axis : x y z
#
# Youngs Moduli (GPa) = 40.83676 76.80515 97.74034
#
# Poissons Ratio (x) = 0.36270 -0.10123
# Poissons Ratio (y) = 0.19284 0.52908
# Poissons Ratio (z) = -0.04230 0.41576
#
# Static dielectric constant tensor:
#      x y z
#    x 1.766860 0.000000 0.000000 
#    y 0.000000 1.793610 0.000000 
#    z 0.000000 0.000000 1.814780 
# 
# From -- ./inp_files/4442.got.cif
#   From: 2010.05.17/outbox.cif.g08.bks.cpg/sg56_3_cif.got.tgz:4442.got - 2010.06.03 13:42:01.
