data_PCOD9430172
_publ_section_title
;
Structure prediction by ZEFSAII (Michael W. Deem and Ramdas Pophale) SiO2 
 PCOD9430172
Probable space group: P C C N
;
_chemical_formula_sum "Si O2"
_cell_formula_units_Z 44
_cell_length_a 11.495009
_cell_length_b 11.334709
_cell_length_c 16.267177
_cell_angle_alpha 90.000000
_cell_angle_beta 90.000000
_cell_angle_gamma 90.000000
_cell_volume 2119.492493
_symmetry_space_group_name_H-M "P C C N"
_symmetry_group_IT_number 56
_symmetry_cell_setting 'orthorhombic'
loop_
_space_group_symop_operation_xyz
x,y,z
1/2-x,1/2-y,z
1/2+x,-y,1/2-z
-x,1/2+y,1/2-z
-x,-y,-z
1/2+x,1/2+y,-z
1/2-x,y,1/2+z
x,1/2-y,1/2+z
loop_
_atom_site_type_symbol
_atom_site_label
_atom_site_fract_x
_atom_site_fract_y
_atom_site_fract_z
Si Si1 0.750000 0.250000 0.156531
Si Si2 0.100138 0.594725 0.457696
Si Si3 0.179026 0.369356 0.183512
Si Si4 0.116198 0.992365 0.119591
Si Si5 0.923986 0.443456 0.197347
Si Si6 0.247591 0.113263 0.874641
O O1 0.655447 0.305903 0.097178
O O2 0.818206 0.350145 0.205081
O O3 0.113355 0.614799 0.555054
O O4 0.171873 0.476025 0.430079
O O5 0.967056 0.580964 0.430613
O O6 0.250000 0.250000 0.163106
O O7 0.253132 0.467963 0.136494
O O8 0.194513 0.383066 0.282152
O O9 0.042659 0.384006 0.166038
O O10 0.057999 0.984117 0.208905
O O11 0.873047 0.549914 0.141498
O O12 0.250000 0.250000 0.903361
#
# Coordination Sequence:
#
# PCOD9430172 Si02
#       6
#     4   8   8   8   8   8
#     4  10  22  38  62  84 118 156 192 252 290 368
#     4  10  20  39  57  85 122 151 191 241 314 349
#     4  10  19  35  58  85 114 151 204 243 283 355
#     4  10  21  36  58  84 118 154 192 245 294 361
#     4  10  20  38  61  87 112 155 204 239 295 351
#     4   9  19  36  56  81 115 153 193 245 290 351
#
# _framework density 20.759687
#
# number of rings (size 3 to 8) (size 9 to 14) (size 15 to 20)
#    0.000    2.182    1.818    1.091    0.000    1.455 
#    0.000    7.273    0.000    0.000    0.000    0.000 
#    0.000    0.000    0.000    0.000    0.000    0.000 
#
# Total GULP energy -245057.858148 kJ/mol
# GULP energy per Si atom -5569.496776 kJ/mol
# Density = 2.071244 g / cm^3
# Si number density = 20.759687 Si / 1000 Ang^3
#
#
#
# Elastic Constant Matrix: (Units=GPa)
#
#
# Indices 1 2 3 4 5 6 
#
# 1 118.9014 14.3318 12.6167 0.0000 0.0000 0.0000
# 2 14.3318 60.2540 -0.0052 0.0000 0.0000 0.0000
# 3 12.6167 -0.0052 52.6302 0.0000 0.0000 0.0000
# 4 0.0000 0.0000 0.0000 17.4602 0.0000 0.0000
# 5 0.0000 0.0000 0.0000 0.0000 217.0654 0.0000
# 6 0.0000 0.0000 0.0000 0.0000 0.0000 25.9170
#
#
#
# Elastic Compliance Matrix: (Units=1/GPa)
#
#
# Indices 1 2 3 4 5 6 
#
# 1 0.008891 -0.002115 -0.002132 0.000000 0.000000 0.000000
# 2 -0.002115 0.017100 0.000509 0.000000 0.000000 0.000000
# 3 -0.002132 0.000509 0.019512 0.000000 0.000000 0.000000
# 4 0.000000 0.000000 0.000000 0.057273 0.000000 0.000000
# 5 0.000000 0.000000 0.000000 0.000000 0.004607 0.000000
# 6 0.000000 0.000000 0.000000 0.000000 0.000000 0.038585
#
#
# Mechanical properties :
#
#
# Convention : Reuss Voigt Hill
#
# Bulk Modulus (GPa) = 26.29747 31.74136 29.01942
# Shear Modulus (GPa) = 30.09892 65.74466 47.92179
#
# Velocity S-wave (km/s) = 3.81185 5.63366 4.80980
# Velocity P-wave (km/s) = 5.66292 7.59214 6.69736
#
# Compressibility (1/GPa) = 0.03802646
#
# Stress axis : x y z
#
# Youngs Moduli (GPa) = 112.46736 58.48111 51.25163
#
# Poissons Ratio (x) = 0.12369 0.10925
# Poissons Ratio (y) = 0.23788 -0.02607
# Poissons Ratio (z) = 0.23975 -0.02975
#
# Static dielectric constant tensor:
#      x y z
#    x 1.754710 0.000000 0.000000 
#    y 0.000000 1.830700 0.000000 
#    z 0.000000 0.000000 1.751520 
# 
# From -- ./inp_files/15498.got.cif
#   From: 2010.05.17/outbox.cif.g08.bks.cpg/sg56_8_cif.got.tgz:15498.got - 2010.06.03 13:42:01.
