data_PCOD9430554
_publ_section_title
;
Structure prediction by ZEFSAII (Michael W. Deem and Ramdas Pophale) SiO2 
 PCOD9430554
Probable space group: P C C N
;
_chemical_formula_sum "Si O2"
_cell_formula_units_Z 64
_cell_length_a 13.008379
_cell_length_b 8.289580
_cell_length_c 24.937866
_cell_angle_alpha 90.000000
_cell_angle_beta 90.000000
_cell_angle_gamma 90.000000
_cell_volume 2689.149802
_symmetry_space_group_name_H-M "P C C N"
_symmetry_group_IT_number 56
_symmetry_cell_setting 'orthorhombic'
loop_
_space_group_symop_operation_xyz
x,y,z
1/2-x,1/2-y,z
1/2+x,-y,1/2-z
-x,1/2+y,1/2-z
-x,-y,-z
1/2+x,1/2+y,-z
1/2-x,y,1/2+z
x,1/2-y,1/2+z
loop_
_atom_site_type_symbol
_atom_site_label
_atom_site_fract_x
_atom_site_fract_y
_atom_site_fract_z
Si Si1 0.335159 0.092160 0.262214
Si Si2 0.929104 0.241180 0.624992
Si Si3 0.021566 0.722687 0.256853
Si Si4 0.974155 0.251888 0.508256
Si Si5 0.254845 0.501003 0.374688
Si Si6 0.682460 0.417485 0.933469
Si Si7 0.828169 0.567959 0.012920
Si Si8 0.183708 0.915574 0.189134
O O1 0.414533 0.942418 0.252218
O O2 0.279043 0.079194 0.319407
O O3 0.252684 0.055534 0.215616
O O4 0.408066 0.247721 0.264842
O O5 0.989913 0.257123 0.679455
O O6 0.990622 0.277739 0.571413
O O7 0.832488 0.361725 0.622104
O O8 0.870612 0.070154 0.629617
O O9 0.092183 0.859274 0.228339
O O10 0.914166 0.381578 0.472441
O O11 0.894993 0.098779 0.510382
O O12 0.083520 0.201277 0.485237
O O13 0.259768 0.425698 0.433643
O O14 0.750000 0.250000 0.932596
O O15 0.652868 0.452040 0.872045
O O16 0.754436 0.551213 0.961488
O O17 0.250000 0.750000 0.186666
#
# Coordination Sequence:
#
# PCOD9430554 Si02
#       8
#     8   8   8   8   8   8   8   8
#     4  10  20  35  57  81 111 149 191 236 293 348
#     4   9  15  27  50  72 107 143 184 238 284 338
#     4  10  20  35  54  83 109 148 192 234 283 354
#     4   9  16  25  41  76 109 139 182 242 293 337
#     4   9  15  29  48  71 107 145 186 230 288 349
#     4   9  16  28  44  69 110 142 179 239 287 348
#     4   9  16  25  42  72 105 144 185 232 298 341
#     4   9  18  34  51  74 110 149 183 228 295 346
#
# _framework density 23.799343
#
# number of rings (size 3 to 8) (size 9 to 14) (size 15 to 20)
#    0.000    2.750    2.500    0.000    1.750    0.000 
#    6.750    0.625    0.000    0.750    0.000    0.000 
#    0.000    0.000    0.000    0.000    0.000    2.625 
#
# Total GULP energy -357206.093217 kJ/mol
# GULP energy per Si atom -5581.345207 kJ/mol
# Density = 2.374517 g / cm^3
# Si number density = 23.799343 Si / 1000 Ang^3
#
#
#
# Elastic Constant Matrix: (Units=GPa)
#
#
# Indices 1 2 3 4 5 6 
#
# 1 89.4678 41.5264 76.4762 0.0000 0.0000 0.0000
# 2 41.5264 59.2733 17.6204 0.0000 0.0000 0.0000
# 3 76.4762 17.6204 194.4447 0.0000 0.0000 0.0000
# 4 0.0000 0.0000 0.0000 -63.1338 0.0000 0.0000
# 5 0.0000 0.0000 0.0000 0.0000 31.1829 0.0000
# 6 0.0000 0.0000 0.0000 0.0000 0.0000 46.3471
#
#
#
# Elastic Compliance Matrix: (Units=1/GPa)
#
#
# Indices 1 2 3 4 5 6 
#
# 1 0.025882 -0.015525 -0.008773 0.000000 0.000000 0.000000
# 2 -0.015525 0.026650 0.003691 0.000000 0.000000 0.000000
# 3 -0.008773 0.003691 0.008259 0.000000 0.000000 0.000000
# 4 0.000000 0.000000 0.000000 -0.015839 0.000000 0.000000
# 5 0.000000 0.000000 0.000000 0.000000 0.032069 0.000000
# 6 0.000000 0.000000 0.000000 0.000000 0.000000 0.021576
#
#
# Mechanical properties :
#
#
# Convention : Reuss Voigt Hill
#
# Bulk Modulus (GPa) = 51.07782 68.27022 59.67402
# Shear Modulus (GPa) = 34.16817 16.71676 25.44247
#
# Velocity S-wave (km/s) = 3.79314 2.65317 3.27317
# Velocity P-wave (km/s) = 6.37906 6.17525 6.27798
#
# Compressibility (1/GPa) = 0.01957797
#
# Stress axis : x y z
#
# Youngs Moduli (GPa) = 38.63738 37.52315 121.08457
#
# Poissons Ratio (x) = 0.58253 1.06222
# Poissons Ratio (y) = 0.59983 -0.44691
# Poissons Ratio (z) = 0.33895 -0.13849
#
# Static dielectric constant tensor:
#      x y z
#    x 1.920300 0.000000 0.000000 
#    y 0.000000 2.015820 0.000000 
#    z 0.000000 0.000000 1.865360 
# 
# From -- ./inp_files/21014.got.cif
#   From: 2010.05.17/outbox.cif.g08.bks.cpg/sg56_11_cif.got.tgz:21014.got - 2010.06.03 13:42:01.
