data_PCOD9430992
_publ_section_title
;
Structure prediction by ZEFSAII (Michael W. Deem and Ramdas Pophale) SiO2 
 PCOD9430992
Probable space group: P C C N
;
_chemical_formula_sum "Si O2"
_cell_formula_units_Z 40
_cell_length_a 13.704806
_cell_length_b 7.809210
_cell_length_c 14.174077
_cell_angle_alpha 90.000000
_cell_angle_beta 90.000000
_cell_angle_gamma 90.000000
_cell_volume 1516.962279
_symmetry_space_group_name_H-M "P C C N"
_symmetry_group_IT_number 56
_symmetry_cell_setting 'orthorhombic'
loop_
_space_group_symop_operation_xyz
x,y,z
1/2-x,1/2-y,z
1/2+x,-y,1/2-z
-x,1/2+y,1/2-z
-x,-y,-z
1/2+x,1/2+y,-z
1/2-x,y,1/2+z
x,1/2-y,1/2+z
loop_
_atom_site_type_symbol
_atom_site_label
_atom_site_fract_x
_atom_site_fract_y
_atom_site_fract_z
Si Si1 0.248204 0.562541 0.833753
Si Si2 0.750000 0.250000 0.346011
Si Si3 0.552034 0.837803 0.949046
Si Si4 0.023907 0.027011 0.285732
Si Si5 0.955467 0.139136 0.898332
Si Si6 0.750000 0.750000 0.041738
O O1 0.250000 0.750000 0.882817
O O2 0.290650 0.609189 0.730127
O O3 0.136416 0.511473 0.813383
O O4 0.289962 0.404674 0.892363
O O5 0.661726 0.165416 0.402213
O O6 0.501988 0.676466 0.000559
O O7 0.664330 0.826340 0.978353
O O8 0.536532 0.880572 0.840642
O O9 0.500000 0.000000 0.000000
O O10 0.019077 0.013442 0.173211
O O11 0.992962 0.202492 0.333626
#
# Coordination Sequence:
#
# PCOD9430992 Si02
#       6
#     8   4   8   8   8   4
#     4   9  20  38  62  96 136 165 223 275 329 407
#     4   8  20  36  58  98 134 160 222 284 314 404
#     4  10  22  41  65  97 132 175 234 280 338 421
#     4  10  21  43  62  91 134 167 220 290 321 412
#     4  10  20  39  65  88 132 172 207 276 353 374
#     4  12  20  40  72  92 132 200 202 276 378 382
#
# _framework density 26.368483999999999
#
# number of rings (size 3 to 8) (size 9 to 14) (size 15 to 20)
#    0.600    1.600    4.000    0.000    2.800    0.000 
#    1.800   13.000    0.000    0.000    0.000    0.000 
#    0.000    0.000    0.000    0.000    0.000    0.000 
#
# Total GULP energy -223736.009142 kJ/mol
# GULP energy per Si atom -5593.400229 kJ/mol
# Density = 2.630847 g / cm^3
# Si number density = 26.368484 Si / 1000 Ang^3
#
#
#
# Elastic Constant Matrix: (Units=GPa)
#
#
# Indices 1 2 3 4 5 6 
#
# 1 93.9945 -3.2428 33.7709 0.0000 0.0000 0.0000
# 2 -3.2428 125.9010 10.2974 0.0000 0.0000 0.0000
# 3 33.7709 10.2974 161.1068 0.0000 0.0000 0.0000
# 4 0.0000 0.0000 0.0000 32.1878 0.0000 0.0000
# 5 0.0000 0.0000 0.0000 0.0000 -11.1539 0.0000
# 6 0.0000 0.0000 0.0000 0.0000 0.0000 28.1929
#
#
#
# Elastic Compliance Matrix: (Units=1/GPa)
#
#
# Indices 1 2 3 4 5 6 
#
# 1 0.011536 0.000498 -0.002450 0.000000 0.000000 0.000000
# 2 0.000498 0.008006 -0.000616 0.000000 0.000000 0.000000
# 3 -0.002450 -0.000616 0.006760 0.000000 0.000000 0.000000
# 4 0.000000 0.000000 0.000000 0.031068 0.000000 0.000000
# 5 0.000000 0.000000 0.000000 0.000000 -0.089655 0.000000
# 6 0.000000 0.000000 0.000000 0.000000 0.000000 0.035470
#
#
# Mechanical properties :
#
#
# Convention : Reuss Voigt Hill
#
# Bulk Modulus (GPa) = 47.24716 51.40591 49.32654
# Shear Modulus (GPa) = 325.15459 32.52381 178.83920
#
# Velocity S-wave (km/s) = 11.11663 3.51584 8.24441
# Velocity P-wave (km/s) = 13.51775 6.00159 10.45822
#
# Compressibility (1/GPa) = 0.02116529
#
# Stress axis : x y z
#
# Youngs Moduli (GPa) = 86.68259 124.90712 147.92886
#
# Poissons Ratio (x) = -0.06214 0.36243
# Poissons Ratio (y) = -0.04313 0.09112
# Poissons Ratio (z) = 0.21237 0.07694
#
# Static dielectric constant tensor:
#      x y z
#    x 2.206180 0.000000 0.000000 
#    y 0.000000 2.364140 0.000000 
#    z 0.000000 0.000000 2.046440 
# 
# From -- ./inp_files/16081.got.cif
#   From: 2010.05.17/outbox.cif.g08.bks.cpg/sg56_9_cif.got.tgz:16081.got - 2010.06.03 13:42:01.
