data_PCOD9430691
_publ_section_title
;
Structure prediction by ZEFSAII (Michael W. Deem and Ramdas Pophale) SiO2 
 PCOD9430691
Probable space group: P C C N
;
_chemical_formula_sum "Si O2"
_cell_formula_units_Z 48
_cell_length_a 8.009627
_cell_length_b 18.677665
_cell_length_c 15.437721
_cell_angle_alpha 90.000000
_cell_angle_beta 90.000000
_cell_angle_gamma 90.000000
_cell_volume 2309.500504
_symmetry_space_group_name_H-M "P C C N"
_symmetry_group_IT_number 56
_symmetry_cell_setting 'orthorhombic'
loop_
_space_group_symop_operation_xyz
x,y,z
1/2-x,1/2-y,z
1/2+x,-y,1/2-z
-x,1/2+y,1/2-z
-x,-y,-z
1/2+x,1/2+y,-z
1/2-x,y,1/2+z
x,1/2-y,1/2+z
loop_
_atom_site_type_symbol
_atom_site_label
_atom_site_fract_x
_atom_site_fract_y
_atom_site_fract_z
Si Si1 0.535250 0.076751 0.623466
Si Si2 0.154419 0.944510 0.494782
Si Si3 0.508639 0.693462 0.554916
Si Si4 0.885368 0.062714 0.836533
Si Si5 0.340632 0.676298 0.743619
Si Si6 0.107731 0.149215 0.959553
O O1 0.710674 0.049117 0.582301
O O2 0.546383 0.148707 0.678875
O O3 0.423689 0.096449 0.539849
O O4 0.458612 0.014799 0.683663
O O5 0.257313 0.950167 0.584136
O O6 0.087938 0.862714 0.494705
O O7 0.000000 0.000000 0.500000
O O8 0.434291 0.686594 0.651858
O O9 0.505691 0.776579 0.528118
O O10 0.700621 0.668775 0.553131
O O11 0.789977 0.110867 0.767879
O O12 0.033129 0.110775 0.875732
O O13 0.250000 0.750000 0.763766
#
# Coordination Sequence:
#
# PCOD9430691 Si02
#       6
#     8   8   8   8   8   8
#     4  11  24  37  65  95 126 162 210 278 307 374
#     4  10  20  36  62  92 122 161 213 257 309 375
#     4  10  21  38  65  87 122 175 202 255 320 388
#     4  10  21  39  61  86 123 166 204 253 317 381
#     4  11  24  42  62  92 131 172 208 258 329 389
#     4  10  20  40  64  91 123 159 221 258 310 372
#
# _framework density 20.783714
#
# number of rings (size 3 to 8) (size 9 to 14) (size 15 to 20)
#    0.000    1.667    1.667    4.000    2.333    4.000 
#    0.000    5.000    0.000    0.000    0.000    0.000 
#    0.000    0.000    0.000    0.000    0.000    0.000 
#
# Total GULP energy -268060.879884 kJ/mol
# GULP energy per Si atom -5584.601664 kJ/mol
# Density = 2.073641 g / cm^3
# Si number density = 20.783714 Si / 1000 Ang^3
#
#
#
# Elastic Constant Matrix: (Units=GPa)
#
#
# Indices 1 2 3 4 5 6 
#
# 1 50.3397 33.2157 -9.8738 0.0000 0.0000 0.0000
# 2 33.2157 116.0900 5.1174 0.0000 0.0000 0.0000
# 3 -9.8738 5.1174 17.6073 0.0000 0.0000 0.0000
# 4 0.0000 0.0000 0.0000 17.8852 0.0000 0.0000
# 5 0.0000 0.0000 0.0000 0.0000 3.7536 0.0000
# 6 0.0000 0.0000 0.0000 0.0000 0.0000 43.5648
#
#
#
# Elastic Compliance Matrix: (Units=1/GPa)
#
#
# Indices 1 2 3 4 5 6 
#
# 1 0.029904 -0.009416 0.019506 0.000000 0.000000 0.000000
# 2 -0.009416 0.011691 -0.008678 0.000000 0.000000 0.000000
# 3 0.019506 -0.008678 0.070255 0.000000 0.000000 0.000000
# 4 0.000000 0.000000 0.000000 0.055912 0.000000 0.000000
# 5 0.000000 0.000000 0.000000 0.000000 0.266409 0.000000
# 6 0.000000 0.000000 0.000000 0.000000 0.000000 0.022954
#
#
# Mechanical properties :
#
#
# Convention : Reuss Voigt Hill
#
# Bulk Modulus (GPa) = 8.72036 26.77284 17.74660
# Shear Modulus (GPa) = 10.15174 23.41257 16.78216
#
# Velocity S-wave (km/s) = 2.21248 3.35996 2.84468
# Velocity P-wave (km/s) = 3.27592 5.28791 4.39850
#
# Compressibility (1/GPa) = 0.11467411
#
# Stress axis : x y z
#
# Youngs Moduli (GPa) = 33.44038 85.53848 14.23380
#
# Poissons Ratio (x) = 0.80543 -0.27765
# Poissons Ratio (y) = 0.31487 0.12352
# Poissons Ratio (z) = -0.65229 0.74231
#
# Static dielectric constant tensor:
#      x y z
#    x 1.790430 0.000000 0.000000 
#    y 0.000000 1.767780 0.000000 
#    z 0.000000 0.000000 1.720090 
# 
# From -- ./inp_files/14978.got.cif
#   From: 2010.05.17/outbox.cif.g08.bks.cpg/sg56_8_cif.got.tgz:14978.got - 2010.06.03 13:42:01.
