data_PCOD9430577
_publ_section_title
;
Structure prediction by ZEFSAII (Michael W. Deem and Ramdas Pophale) SiO2 
 PCOD9430577
Probable space group: P C C N
;
_chemical_formula_sum "Si O2"
_cell_formula_units_Z 48
_cell_length_a 11.731406
_cell_length_b 12.991849
_cell_length_c 15.348521
_cell_angle_alpha 90.000000
_cell_angle_beta 90.000000
_cell_angle_gamma 90.000000
_cell_volume 2339.308841
_symmetry_space_group_name_H-M "P C C N"
_symmetry_group_IT_number 56
_symmetry_cell_setting 'orthorhombic'
loop_
_space_group_symop_operation_xyz
x,y,z
1/2-x,1/2-y,z
1/2+x,-y,1/2-z
-x,1/2+y,1/2-z
-x,-y,-z
1/2+x,1/2+y,-z
1/2-x,y,1/2+z
x,1/2-y,1/2+z
loop_
_atom_site_type_symbol
_atom_site_label
_atom_site_fract_x
_atom_site_fract_y
_atom_site_fract_z
Si Si1 0.096500 0.416131 0.518982
Si Si2 0.369101 0.416646 0.825191
Si Si3 0.047257 0.854764 0.818716
Si Si4 0.826501 0.854172 0.468734
Si Si5 0.881961 0.593930 0.163321
Si Si6 0.469071 0.867645 0.830704
O O1 0.110942 0.371258 0.421586
O O2 0.043970 0.359907 0.602141
O O3 0.227938 0.442001 0.541738
O O4 0.000000 0.500000 0.500000
O O5 0.377663 0.541902 0.827885
O O6 0.242815 0.385296 0.796506
O O7 0.466560 0.379782 0.761235
O O8 0.979281 0.865229 0.727573
O O9 0.097486 0.740533 0.828384
O O10 0.750000 0.750000 0.458153
O O11 0.878226 0.863161 0.565474
O O12 0.928592 0.865240 0.401199
O O13 0.897784 0.470773 0.155597
#
# Coordination Sequence:
#
# PCOD9430577 Si02
#       6
#     8   8   8   8   8   8
#     4   9  18  35  54  79 109 141 188 229 270 334
#     4   9  21  36  55  81 113 151 187 234 283 339
#     4  10  20  35  57  82 111 150 191 231 284 341
#     4  11  21  35  58  86 108 150 189 234 286 341
#     4  10  23  37  54  84 118 146 188 243 288 335
#     4  11  22  36  57  85 115 147 189 243 287 339
#
# _framework density 20.518879999999999
#
# number of rings (size 3 to 8) (size 9 to 14) (size 15 to 20)
#    0.000    2.000    1.667    1.500    4.667    0.667 
#    0.000    0.000    0.000    0.000    0.000    9.333 
#    0.000    0.000    0.000    0.000    0.000    0.000 
#
# Total GULP energy -267366.120830 kJ/mol
# GULP energy per Si atom -5570.127517 kJ/mol
# Density = 2.047218 g / cm^3
# Si number density = 20.518880 Si / 1000 Ang^3
#
#
#
# Elastic Constant Matrix: (Units=GPa)
#
#
# Indices 1 2 3 4 5 6 
#
# 1 50.7831 3.7319 6.5569 0.0000 0.0000 0.0000
# 2 3.7319 106.3344 1.2867 0.0000 0.0000 0.0000
# 3 6.5569 1.2867 64.3127 0.0000 0.0000 0.0000
# 4 0.0000 0.0000 0.0000 7.0352 0.0000 0.0000
# 5 0.0000 0.0000 0.0000 0.0000 22.7747 0.0000
# 6 0.0000 0.0000 0.0000 0.0000 0.0000 -4.4731
#
#
#
# Elastic Compliance Matrix: (Units=1/GPa)
#
#
# Indices 1 2 3 4 5 6 
#
# 1 0.020003 -0.000678 -0.002026 0.000000 0.000000 0.000000
# 2 -0.000678 0.009430 -0.000120 0.000000 0.000000 0.000000
# 3 -0.002026 -0.000120 0.015758 0.000000 0.000000 0.000000
# 4 0.000000 0.000000 0.000000 0.142143 0.000000 0.000000
# 5 0.000000 0.000000 0.000000 0.000000 0.043908 0.000000
# 6 0.000000 0.000000 0.000000 0.000000 0.000000 -0.223560
#
#
# Mechanical properties :
#
#
# Convention : Reuss Voigt Hill
#
# Bulk Modulus (GPa) = 25.28790 27.17569 26.23180
# Shear Modulus (GPa) = 188.61482 19.05766 103.83624
#
# Velocity S-wave (km/s) = 9.59803 3.05091 7.12145
# Velocity P-wave (km/s) = 11.62671 5.06791 8.96839
#
# Compressibility (1/GPa) = 0.03954461
#
# Stress axis : x y z
#
# Youngs Moduli (GPa) = 49.99260 106.04993 63.46001
#
# Poissons Ratio (x) = 0.07185 0.12856
# Poissons Ratio (y) = 0.03387 0.00759
# Poissons Ratio (z) = 0.10128 0.01268
#
# Static dielectric constant tensor:
#      x y z
#    x 1.717430 0.000000 0.000000 
#    y 0.000000 1.847510 0.000000 
#    z 0.000000 0.000000 1.714710 
# 
# From -- ./inp_files/11589.got.cif
#   From: 2010.05.17/outbox.cif.g08.bks.cpg/sg56_6_cif.got.tgz:11589.got - 2010.06.03 13:42:01.
