data_PCOD9430479
_publ_section_title
;
Structure prediction by ZEFSAII (Michael W. Deem and Ramdas Pophale) SiO2 
 PCOD9430479
Probable space group: P C C N
;
_chemical_formula_sum "Si O2"
_cell_formula_units_Z 64
_cell_length_a 28.767760
_cell_length_b 13.829181
_cell_length_c 8.646274
_cell_angle_alpha 90.000000
_cell_angle_beta 90.000000
_cell_angle_gamma 90.000000
_cell_volume 3439.786612
_symmetry_space_group_name_H-M "P C C N"
_symmetry_group_IT_number 56
_symmetry_cell_setting 'orthorhombic'
loop_
_space_group_symop_operation_xyz
x,y,z
1/2-x,1/2-y,z
1/2+x,-y,1/2-z
-x,1/2+y,1/2-z
-x,-y,-z
1/2+x,1/2+y,-z
1/2-x,y,1/2+z
x,1/2-y,1/2+z
loop_
_atom_site_type_symbol
_atom_site_label
_atom_site_fract_x
_atom_site_fract_y
_atom_site_fract_z
Si Si1 0.930402 0.349960 0.488433
Si Si2 0.471482 0.166426 0.334271
Si Si3 0.435742 0.137763 0.680932
Si Si4 0.191534 0.828535 0.639839
Si Si5 0.025100 0.959955 0.720532
Si Si6 0.281774 0.874827 0.786142
Si Si7 0.903502 0.364164 0.987741
Si Si8 0.867044 0.482318 0.279282
O O1 0.952807 0.409064 0.628412
O O2 0.910674 0.246381 0.539755
O O3 0.891660 0.417309 0.411060
O O4 0.973213 0.326456 0.370733
O O5 0.447726 0.146152 0.499859
O O6 0.449558 0.261189 0.258786
O O7 0.464893 0.073164 0.226717
O O8 0.470825 0.060391 0.758852
O O9 0.385370 0.091226 0.704923
O O10 0.227286 0.883708 0.751559
O O11 0.198730 0.717007 0.688086
O O12 0.208780 0.848087 0.464592
O O13 0.137684 0.858630 0.640583
O O14 0.049014 0.907138 0.578137
O O15 0.312092 0.965251 0.730254
O O16 0.885372 0.432392 0.122419
#
# Coordination Sequence:
#
# PCOD9430479 Si02
#       8
#     8   8   8   8   8   8   8   8
#     4  11  19  36  52  77 113 153 189 216 277 323
#     4  11  23  37  55  76 110 151 188 233 270 321
#     4  11  23  39  55  79 111 148 192 233 277 328
#     4  10  20  33  51  80 108 146 182 215 275 337
#     4  11  22  36  54  80 113 149 192 226 275 329
#     4  10  20  34  53  78 114 144 177 223 272 334
#     4  11  23  32  55  84 109 152 183 228 268 338
#     4  11  22  36  53  79 115 147 184 228 274 329
#
# _framework density 18.605806000000001
#
# number of rings (size 3 to 8) (size 9 to 14) (size 15 to 20)
#    0.000    1.250    5.000    3.000    5.250    1.500 
#    0.000    0.000    0.000    0.000    0.000    0.875 
#    0.000    0.000    0.000    0.000    0.000    0.000 
#
# Total GULP energy -357573.101860 kJ/mol
# GULP energy per Si atom -5587.079717 kJ/mol
# Density = 1.856346 g / cm^3
# Si number density = 18.605806 Si / 1000 Ang^3
#
#
#
# Elastic Constant Matrix: (Units=GPa)
#
#
# Indices 1 2 3 4 5 6 
#
# 1 46.2170 9.1216 -5.2132 0.0000 0.0000 0.0000
# 2 9.1216 101.8663 1.9167 0.0000 0.0000 0.0000
# 3 -5.2132 1.9167 33.6396 0.0000 0.0000 0.0000
# 4 0.0000 0.0000 0.0000 11.5544 0.0000 0.0000
# 5 0.0000 0.0000 0.0000 0.0000 22.2314 0.0000
# 6 0.0000 0.0000 0.0000 0.0000 0.0000 30.6972
#
#
#
# Elastic Compliance Matrix: (Units=1/GPa)
#
#
# Indices 1 2 3 4 5 6 
#
# 1 0.022453 -0.002078 0.003598 0.000000 0.000000 0.000000
# 2 -0.002078 0.010020 -0.000893 0.000000 0.000000 0.000000
# 3 0.003598 -0.000893 0.030335 0.000000 0.000000 0.000000
# 4 0.000000 0.000000 0.000000 0.086547 0.000000 0.000000
# 5 0.000000 0.000000 0.000000 0.000000 0.044981 0.000000
# 6 0.000000 0.000000 0.000000 0.000000 0.000000 0.032576
#
#
# Mechanical properties :
#
#
# Convention : Reuss Voigt Hill
#
# Bulk Modulus (GPa) = 15.60997 21.48590 18.54793
# Shear Modulus (GPa) = 20.24183 24.62311 22.43247
#
# Velocity S-wave (km/s) = 3.30196 3.64182 3.47604
# Velocity P-wave (km/s) = 4.79012 5.40896 5.10892
#
# Compressibility (1/GPa) = 0.06406164
#
# Stress axis : x y z
#
# Youngs Moduli (GPa) = 44.53732 99.80346 32.96486
#
# Poissons Ratio (x) = 0.20742 -0.11861
# Poissons Ratio (y) = 0.09256 0.02944
# Poissons Ratio (z) = -0.16024 0.08912
#
# Static dielectric constant tensor:
#      x y z
#    x 1.677710 0.000000 0.000000 
#    y 0.000000 1.629620 0.000000 
#    z 0.000000 0.000000 1.677580 
# 
# From -- ./inp_files/5238.got.cif
#   From: 2010.05.17/outbox.cif.g08.bks.cpg/sg56_3_cif.got.tgz:5238.got - 2010.06.03 13:42:01.
