data_PCOD9430810
_publ_section_title
;
Structure prediction by ZEFSAII (Michael W. Deem and Ramdas Pophale) SiO2 
 PCOD9430810
Probable space group: P C C N
;
_chemical_formula_sum "Si O2"
_cell_formula_units_Z 48
_cell_length_a 5.724083
_cell_length_b 22.981727
_cell_length_c 14.949079
_cell_angle_alpha 90.000000
_cell_angle_beta 90.000000
_cell_angle_gamma 90.000000
_cell_volume 1966.541070
_symmetry_space_group_name_H-M "P C C N"
_symmetry_group_IT_number 56
_symmetry_cell_setting 'orthorhombic'
loop_
_space_group_symop_operation_xyz
x,y,z
1/2-x,1/2-y,z
1/2+x,-y,1/2-z
-x,1/2+y,1/2-z
-x,-y,-z
1/2+x,1/2+y,-z
1/2-x,y,1/2+z
x,1/2-y,1/2+z
loop_
_atom_site_type_symbol
_atom_site_label
_atom_site_fract_x
_atom_site_fract_y
_atom_site_fract_z
Si Si1 0.500420 0.281799 0.311736
Si Si2 0.957527 0.468719 0.392755
Si Si3 0.678318 0.921612 0.930219
Si Si4 0.456414 0.660416 0.876540
Si Si5 0.809680 0.133386 0.457274
Si Si6 0.798393 0.453149 0.196710
O O1 0.750000 0.250000 0.327127
O O2 0.505209 0.296844 0.205833
O O3 0.545748 0.335433 0.379478
O O4 0.250000 0.250000 0.330593
O O5 0.843783 0.523278 0.446098
O O6 0.918687 0.403454 0.427581
O O7 0.807838 0.465116 0.300485
O O8 0.207110 0.491119 0.357691
O O9 0.547624 0.931715 0.836943
O O10 0.803965 0.859569 0.922237
O O11 0.476278 0.916070 0.002215
O O12 0.369819 0.600263 0.829516
O O13 0.275294 0.672431 0.957737
#
# Coordination Sequence:
#
# PCOD9430810 Si02
#       6
#     8   8   8   8   8   8
#     4  12  31  56  86 115 149 211 278 342 415 476
#     4  11  20  38  67 109 154 201 255 307 385 491
#     4  10  23  41  68 110 151 201 244 316 388 474
#     4  10  25  49  73 108 153 199 253 334 399 470
#     4  11  26  47  75 112 156 199 266 325 404 474
#     4  10  20  37  68 103 154 206 249 300 384 468
#
# _framework density 24.408339999999999
#
# number of rings (size 3 to 8) (size 9 to 14) (size 15 to 20)
#    0.000    1.333    3.333    0.500    7.000    8.000 
#    0.000    0.000    0.000    0.000    0.000    0.000 
#    0.000    0.000    0.000    0.000    0.000    0.000 
#
# Total GULP energy -267998.056380 kJ/mol
# GULP energy per Si atom -5583.292841 kJ/mol
# Density = 2.435279 g / cm^3
# Si number density = 24.408340 Si / 1000 Ang^3
#
#
#
# Elastic Constant Matrix: (Units=GPa)
#
#
# Indices 1 2 3 4 5 6 
#
# 1 82.2856 19.7532 1.8117 0.0000 0.0000 0.0000
# 2 19.7532 45.0562 20.1685 0.0000 0.0000 0.0000
# 3 1.8117 20.1685 89.0228 0.0000 0.0000 0.0000
# 4 0.0000 0.0000 0.0000 45.1759 0.0000 0.0000
# 5 0.0000 0.0000 0.0000 0.0000 31.8983 0.0000
# 6 0.0000 0.0000 0.0000 0.0000 0.0000 39.8626
#
#
#
# Elastic Compliance Matrix: (Units=1/GPa)
#
#
# Indices 1 2 3 4 5 6 
#
# 1 0.013697 -0.006544 0.001204 0.000000 0.000000 0.000000
# 2 -0.006544 0.027826 -0.006171 0.000000 0.000000 0.000000
# 3 0.001204 -0.006171 0.012607 0.000000 0.000000 0.000000
# 4 0.000000 0.000000 0.000000 0.022136 0.000000 0.000000
# 5 0.000000 0.000000 0.000000 0.000000 0.031350 0.000000
# 6 0.000000 0.000000 0.000000 0.000000 0.000000 0.025086
#
#
# Mechanical properties :
#
#
# Convention : Reuss Voigt Hill
#
# Bulk Modulus (GPa) = 32.14649 33.31462 32.73056
# Shear Modulus (GPa) = 30.10379 35.02944 32.56662
#
# Velocity S-wave (km/s) = 3.51570 3.79244 3.65669
# Velocity P-wave (km/s) = 5.44785 5.73195 5.59171
#
# Compressibility (1/GPa) = 0.03110759
#
# Stress axis : x y z
#
# Youngs Moduli (GPa) = 73.00769 35.93804 79.32344
#
# Poissons Ratio (x) = 0.23517 -0.09549
# Poissons Ratio (y) = 0.47775 0.48949
# Poissons Ratio (z) = -0.08789 0.22177
#
# Static dielectric constant tensor:
#      x y z
#    x 1.975890 0.000000 0.000000 
#    y 0.000000 1.973010 0.000000 
#    z 0.000000 0.000000 2.019720 
# 
# From -- ./inp_files/9698.got.cif
#   From: 2010.05.17/outbox.cif.g08.bks.cpg/sg56_5_cif.got.tgz:9698.got - 2010.06.03 13:42:01.
