data_PCOD9430223
_publ_section_title
;
Structure prediction by ZEFSAII (Michael W. Deem and Ramdas Pophale) SiO2 
 PCOD9430223
Probable space group: P C C N
;
_chemical_formula_sum "Si O2"
_cell_formula_units_Z 52
_cell_length_a 9.719415
_cell_length_b 15.552272
_cell_length_c 16.478312
_cell_angle_alpha 90.000000
_cell_angle_beta 90.000000
_cell_angle_gamma 90.000000
_cell_volume 2490.844929
_symmetry_space_group_name_H-M "P C C N"
_symmetry_group_IT_number 56
_symmetry_cell_setting 'orthorhombic'
loop_
_space_group_symop_operation_xyz
x,y,z
1/2-x,1/2-y,z
1/2+x,-y,1/2-z
-x,1/2+y,1/2-z
-x,-y,-z
1/2+x,1/2+y,-z
1/2-x,y,1/2+z
x,1/2-y,1/2+z
loop_
_atom_site_type_symbol
_atom_site_label
_atom_site_fract_x
_atom_site_fract_y
_atom_site_fract_z
Si Si1 0.029714 0.248241 0.421239
Si Si2 0.253339 0.394064 0.237444
Si Si3 0.389961 0.629506 0.972585
Si Si4 0.515614 0.742859 0.258007
Si Si5 0.734059 0.604695 0.582090
Si Si6 0.750000 0.250000 0.129678
Si Si7 0.850377 0.980005 0.921867
O O1 0.959791 0.254175 0.333976
O O2 0.153405 0.318320 0.415259
O O3 0.091120 0.153678 0.429801
O O4 0.950778 0.278948 0.499911
O O5 0.110747 0.341471 0.229146
O O6 0.375614 0.322215 0.234798
O O7 0.259057 0.435098 0.327746
O O8 0.278363 0.456588 0.161889
O O9 0.368672 0.579731 0.057470
O O10 0.262521 0.659911 0.919931
O O11 0.503261 0.570866 0.926716
O O12 0.388928 0.748871 0.317879
O O13 0.769977 0.550577 0.503030
#
# Coordination Sequence:
#
# PCOD9430223 Si02
#       7
#     8   8   8   8   8   4   8
#     4   8  16  34  54  82 110 150 186 242 277 343
#     4   9  17  35  60  87 106 149 194 242 283 339
#     4  10  22  35  55  81 120 152 189 228 305 354
#     4   9  19  33  58  84 110 143 198 234 286 344
#     4   8  16  30  60  88 108 135 208 245 270 330
#     4  12  22  36  52  84 116 148 182 240 282 364
#     4  10  19  36  59  86 112 153 192 240 288 352
#
# _framework density 20.876450999999999
#
# number of rings (size 3 to 8) (size 9 to 14) (size 15 to 20)
#    0.000    2.769    1.538    1.846    2.154    1.846 
#    2.769    0.769    0.000    0.000    0.000    0.000 
#    0.000    0.000    0.000    0.000    0.000    0.000 
#
# Total GULP energy -289744.669650 kJ/mol
# GULP energy per Si atom -5572.012878 kJ/mol
# Density = 2.082894 g / cm^3
# Si number density = 20.876451 Si / 1000 Ang^3
#
#
#
# Elastic Constant Matrix: (Units=GPa)
#
#
# Indices 1 2 3 4 5 6 
#
# 1 53.2640 13.4207 21.7077 0.0000 0.0000 0.0000
# 2 13.4207 33.6075 18.9603 0.0000 0.0000 0.0000
# 3 21.7077 18.9603 85.4187 0.0000 0.0000 0.0000
# 4 0.0000 0.0000 0.0000 -21.5774 0.0000 0.0000
# 5 0.0000 0.0000 0.0000 0.0000 20.3747 0.0000
# 6 0.0000 0.0000 0.0000 0.0000 0.0000 14.9395
#
#
#
# Elastic Compliance Matrix: (Units=1/GPa)
#
#
# Indices 1 2 3 4 5 6 
#
# 1 0.022109 -0.006469 -0.004183 0.000000 0.000000 0.000000
# 2 -0.006469 0.035908 -0.006326 0.000000 0.000000 0.000000
# 3 -0.004183 -0.006326 0.014174 0.000000 0.000000 0.000000
# 4 0.000000 0.000000 0.000000 -0.046345 0.000000 0.000000
# 5 0.000000 0.000000 0.000000 0.000000 0.049080 0.000000
# 6 0.000000 0.000000 0.000000 0.000000 0.000000 0.066937
#
#
# Mechanical properties :
#
#
# Convention : Reuss Voigt Hill
#
# Bulk Modulus (GPa) = 26.15431 31.16306 28.65868
# Shear Modulus (GPa) = 26.51611 10.62748 18.57179
#
# Velocity S-wave (km/s) = 3.56778 2.25870 2.98586
# Velocity P-wave (km/s) = 5.43391 4.66498 5.06406
#
# Compressibility (1/GPa) = 0.03823462
#
# Stress axis : x y z
#
# Youngs Moduli (GPa) = 45.23032 27.84908 70.55047
#
# Poissons Ratio (x) = 0.18016 0.29509
# Poissons Ratio (y) = 0.29260 0.44633
# Poissons Ratio (z) = 0.18918 0.17618
#
# Static dielectric constant tensor:
#      x y z
#    x 1.818850 0.000000 0.000000 
#    y 0.000000 1.780430 0.000000 
#    z 0.000000 0.000000 1.782420 
# 
# From -- ./inp_files/15019.got.cif
#   From: 2010.05.17/outbox.cif.g08.bks.cpg/sg56_8_cif.got.tgz:15019.got - 2010.06.03 13:42:01.
