data_PCOD9430602
_publ_section_title
;
Structure prediction by ZEFSAII (Michael W. Deem and Ramdas Pophale) SiO2 
 PCOD9430602
Probable space group: P C C N
;
_chemical_formula_sum "Si O2"
_cell_formula_units_Z 44
_cell_length_a 20.043221
_cell_length_b 9.424200
_cell_length_c 7.967990
_cell_angle_alpha 90.000000
_cell_angle_beta 90.000000
_cell_angle_gamma 90.000000
_cell_volume 1505.084176
_symmetry_space_group_name_H-M "P C C N"
_symmetry_group_IT_number 56
_symmetry_cell_setting 'orthorhombic'
loop_
_space_group_symop_operation_xyz
x,y,z
1/2-x,1/2-y,z
1/2+x,-y,1/2-z
-x,1/2+y,1/2-z
-x,-y,-z
1/2+x,1/2+y,-z
1/2-x,y,1/2+z
x,1/2-y,1/2+z
loop_
_atom_site_type_symbol
_atom_site_label
_atom_site_fract_x
_atom_site_fract_y
_atom_site_fract_z
Si Si1 0.989052 0.386257 0.246012
Si Si2 0.219943 0.938794 0.029034
Si Si3 0.148321 0.945397 0.393908
Si Si4 0.250000 0.250000 0.087080
Si Si5 0.609494 0.739457 0.430334
Si Si6 0.584525 0.053497 0.581984
O O1 0.923606 0.374193 0.132265
O O2 0.956325 0.377783 0.429725
O O3 0.044793 0.281464 0.180873
O O4 0.035841 0.529316 0.260357
O O5 0.187230 0.940113 0.214171
O O6 0.239590 0.103511 0.987961
O O7 0.160324 0.892306 0.904293
O O8 0.295068 0.878462 0.016255
O O9 0.122169 0.101264 0.453857
O O10 0.178739 0.262565 0.174785
O O11 0.599336 0.891176 0.517137
#
# Coordination Sequence:
#
# PCOD9430602 Si02
#       6
#     8   8   8   4   8   8
#     4  10  21  37  55  87 126 162 211 252 316 375
#     4   9  19  32  52  79 121 154 200 246 309 371
#     4  10  21  35  53  89 119 164 201 250 311 373
#     4   8  18  30  50  88 114 156 184 240 314 374
#     4  10  20  35  59  85 131 156 205 252 309 385
#     4   9  21  36  56  87 122 166 202 259 314 368
#
# _framework density 29.234245999999999
#
# number of rings (size 3 to 8) (size 9 to 14) (size 15 to 20)
#    0.000    2.545    0.000    0.545   12.727    2.909 
#    0.000    0.000    0.000    0.000    0.000   26.727 
#    0.000    0.000    0.000    0.000    0.000    0.000 
#
# Total GULP energy -245768.072505 kJ/mol
# GULP energy per Si atom -5585.638011 kJ/mol
# Density = 2.916771 g / cm^3
# Si number density = 29.234246 Si / 1000 Ang^3
#
#
#
# Elastic Constant Matrix: (Units=GPa)
#
#
# Indices 1 2 3 4 5 6 
#
# 1 340.3402 74.6942 72.5467 0.0000 0.0000 0.0000
# 2 74.6942 73.0898 25.4507 0.0000 0.0000 0.0000
# 3 72.5467 25.4507 99.9471 0.0000 0.0000 0.0000
# 4 0.0000 0.0000 0.0000 28.4312 0.0000 0.0000
# 5 0.0000 0.0000 0.0000 0.0000 53.5358 0.0000
# 6 0.0000 0.0000 0.0000 0.0000 0.0000 58.8502
#
#
#
# Elastic Compliance Matrix: (Units=1/GPa)
#
#
# Indices 1 2 3 4 5 6 
#
# 1 0.004163 -0.003513 -0.002127 0.000000 0.000000 0.000000
# 2 -0.003513 0.017979 -0.002028 0.000000 0.000000 0.000000
# 3 -0.002127 -0.002028 0.012065 0.000000 0.000000 0.000000
# 4 0.000000 0.000000 0.000000 0.035173 0.000000 0.000000
# 5 0.000000 0.000000 0.000000 0.000000 0.018679 0.000000
# 6 0.000000 0.000000 0.000000 0.000000 0.000000 0.016992
#
#
# Mechanical properties :
#
#
# Convention : Reuss Voigt Hill
#
# Bulk Modulus (GPa) = 52.99308 95.41782 74.20545
# Shear Modulus (GPa) = 39.47047 50.87580 45.17313
#
# Velocity S-wave (km/s) = 3.67842 4.17619 3.93518
# Velocity P-wave (km/s) = 6.01726 7.48091 6.78865
#
# Compressibility (1/GPa) = 0.01887039
#
# Stress axis : x y z
#
# Youngs Moduli (GPa) = 240.22935 55.62199 82.88160
#
# Poissons Ratio (x) = 0.19543 0.17627
# Poissons Ratio (y) = 0.84404 0.16807
# Poissons Ratio (z) = 0.51092 0.11279
#
# Static dielectric constant tensor:
#      x y z
#    x 2.326240 0.000000 0.000000 
#    y 0.000000 2.436950 0.000000 
#    z 0.000000 0.000000 2.293330 
# 
# From -- ./inp_files/3977.got.cif
#   From: 2010.05.17/outbox.cif.g08.bks.cpg/sg56_2_cif.got.tgz:3977.got - 2010.06.03 13:42:01.
