data_PCOD9430494
_publ_section_title
;
Structure prediction by ZEFSAII (Michael W. Deem and Ramdas Pophale) SiO2 
 PCOD9430494
Probable space group: P C C N
;
_chemical_formula_sum "Si O2"
_cell_formula_units_Z 48
_cell_length_a 13.291384
_cell_length_b 8.921222
_cell_length_c 13.466912
_cell_angle_alpha 90.000000
_cell_angle_beta 90.000000
_cell_angle_gamma 90.000000
_cell_volume 1596.844307
_symmetry_space_group_name_H-M "P C C N"
_symmetry_group_IT_number 56
_symmetry_cell_setting 'orthorhombic'
loop_
_space_group_symop_operation_xyz
x,y,z
1/2-x,1/2-y,z
1/2+x,-y,1/2-z
-x,1/2+y,1/2-z
-x,-y,-z
1/2+x,1/2+y,-z
1/2-x,y,1/2+z
x,1/2-y,1/2+z
loop_
_atom_site_type_symbol
_atom_site_label
_atom_site_fract_x
_atom_site_fract_y
_atom_site_fract_z
Si Si1 0.250000 0.250000 0.218625
Si Si2 0.806742 0.000000 0.545943
Si Si3 0.916943 0.759399 0.924799
Si Si4 0.969300 0.500000 0.197773
Si Si5 0.632160 0.000000 0.660929
Si Si6 0.916943 0.240600 0.924799
Si Si7 0.250000 0.750000 0.218625
O O1 0.167408 0.170845 0.147267
O O2 0.181484 0.356399 0.285625
O O3 0.850817 0.855667 0.491742
O O4 0.856902 1.000000 0.656087
O O5 0.686398 0.000000 0.554747
O O6 0.850817 0.144333 0.491742
O O7 0.981680 0.646012 0.854743
O O8 1.000000 0.827651 0.000000
O O9 0.015160 0.500000 0.309071
O O10 0.018320 0.646011 0.145257
O O11 0.681484 0.143601 0.714375
O O12 0.832592 0.170845 0.852733
#
# Coordination Sequence:
#
# PCOD9430494 Si02
#       7
#     4   8   8   8   8   8   4
#     4  10  20  36  52  72 106 138 160 202 262 302
#     4   9  16  31  55  77  94 129 180 210 230 293
#     4   8  15  31  53  71  94 136 176 197 234 306
#     4   7  14  31  51  69 100 139 164 190 250 315
#     4  10  20  34  51  76 105 132 160 206 262 298
#     4   8  15  31  53  71  94 136 176 197 234 306
#     4  10  20  36  52  72 106 138 160 202 262 302
#
# _framework density 30.059284999999999
#
# number of rings (size 3 to 8) (size 9 to 14) (size 15 to 20)
#    0.000    3.333    0.000    3.000    0.000    1.333 
#    0.000   19.167    0.000    0.000    0.000    0.000 
#    0.000    0.000    0.000    0.000    0.000    0.000 
#
# Total GULP energy -268921.669675 kJ/mol
# GULP energy per Si atom -5602.534785 kJ/mol
# Density = 2.999087 g / cm^3
# Si number density = 30.059285 Si / 1000 Ang^3
#
#
#
# Elastic Constant Matrix: (Units=GPa)
#
#
# Indices 1 2 3 4 5 6 
#
# 1 195.6968 17.7959 -8.5205 0.0000 0.0000 0.0000
# 2 17.7959 104.0557 19.5907 0.0000 0.0000 0.0000
# 3 -8.5205 19.5907 93.1224 0.0000 0.0000 0.0000
# 4 0.0000 0.0000 0.0000 -191.8510 0.0000 0.0000
# 5 0.0000 0.0000 0.0000 0.0000 69.4350 0.0000
# 6 0.0000 0.0000 0.0000 0.0000 0.0000 38.6584
#
#
#
# Elastic Compliance Matrix: (Units=1/GPa)
#
#
# Indices 1 2 3 4 5 6 
#
# 1 0.005233 -0.001026 0.000695 0.000000 0.000000 0.000000
# 2 -0.001026 0.010208 -0.002241 0.000000 0.000000 0.000000
# 3 0.000695 -0.002241 0.011274 0.000000 0.000000 0.000000
# 4 0.000000 0.000000 0.000000 -0.005212 0.000000 0.000000
# 5 0.000000 0.000000 0.000000 0.000000 0.014402 0.000000
# 6 0.000000 0.000000 0.000000 0.000000 0.000000 0.025868
#
#
# Mechanical properties :
#
#
# Convention : Reuss Voigt Hill
#
# Bulk Modulus (GPa) = 46.36107 50.06744 48.21426
# Shear Modulus (GPa) = 67.47020 7.51575 37.49298
#
# Velocity S-wave (km/s) = 4.74283 1.58295 3.53555
# Velocity P-wave (km/s) = 6.74161 4.47587 5.72200
#
# Compressibility (1/GPa) = 0.02156982
#
# Stress axis : x y z
#
# Youngs Moduli (GPa) = 191.07757 97.96572 88.70251
#
# Poissons Ratio (x) = 0.10050 -0.06162
# Poissons Ratio (y) = 0.19601 0.19881
# Poissons Ratio (z) = -0.13273 0.21957
#
# Static dielectric constant tensor:
#      x y z
#    x 2.244540 0.000000 0.000000 
#    y 0.000000 2.330870 0.000000 
#    z 0.000000 0.000000 2.379660 
# 
# From -- ./inp_files/7176.got.cif
#   From: 2010.05.17/outbox.cif.g08.bks.cpg/sg56_4_cif.got.tgz:7176.got - 2010.06.03 13:42:01.
