data_PCOD9430621
_publ_section_title
;
Structure prediction by ZEFSAII (Michael W. Deem and Ramdas Pophale) SiO2 
 PCOD9430621
Probable space group: P C C N
;
_chemical_formula_sum "Si O2"
_cell_formula_units_Z 64
_cell_length_a 8.211624
_cell_length_b 23.428245
_cell_length_c 15.876973
_cell_angle_alpha 90.000000
_cell_angle_beta 90.000000
_cell_angle_gamma 90.000000
_cell_volume 3054.474604
_symmetry_space_group_name_H-M "P C C N"
_symmetry_group_IT_number 56
_symmetry_cell_setting 'orthorhombic'
loop_
_space_group_symop_operation_xyz
x,y,z
1/2-x,1/2-y,z
1/2+x,-y,1/2-z
-x,1/2+y,1/2-z
-x,-y,-z
1/2+x,1/2+y,-z
1/2-x,y,1/2+z
x,1/2-y,1/2+z
loop_
_atom_site_type_symbol
_atom_site_label
_atom_site_fract_x
_atom_site_fract_y
_atom_site_fract_z
Si Si1 0.538635 0.390576 0.383194
Si Si2 0.091601 0.523872 0.371074
Si Si3 0.478228 0.356431 0.091036
Si Si4 0.215007 0.428133 0.464173
Si Si5 0.169576 0.188242 0.255095
Si Si6 0.474219 0.371339 0.806015
Si Si7 0.213163 0.532065 0.714513
Si Si8 0.824735 0.188378 0.935509
O O1 0.401015 0.417888 0.441450
O O2 0.447286 0.342978 0.324029
O O3 0.630684 0.440579 0.331990
O O4 0.681804 0.358376 0.432281
O O5 0.092780 0.592161 0.376041
O O6 0.157513 0.493769 0.455897
O O7 0.215712 0.503494 0.297789
O O8 0.909257 0.505938 0.341377
O O9 0.422112 0.315823 0.166303
O O10 0.334482 0.392881 0.046246
O O11 0.564241 0.322376 0.016424
O O12 0.105451 0.401245 0.388372
O O13 0.250000 0.250000 0.276042
O O14 0.327929 0.148027 0.248534
O O15 0.598506 0.414241 0.763181
O O16 0.574407 0.320144 0.848993
O O17 0.750000 0.250000 0.938467
#
# Coordination Sequence:
#
# PCOD9430621 Si02
#       8
#     8   8   8   8   8   8   8   8
#     4  10  20  41  63  94 116 160 219 257 296 392
#     4  11  21  38  62  89 125 165 200 256 322 376
#     4  11  24  41  56  91 132 158 202 265 314 373
#     4   9  20  38  61  83 122 163 197 243 315 383
#     4  11  22  40  64  90 122 159 211 269 316 355
#     4   8  19  38  62  88 115 159 210 255 299 373
#     4  10  20  35  63  92 120 155 208 260 314 366
#     4  10  21  41  64  87 124 170 208 254 316 373
#
# _framework density 20.952866
#
# number of rings (size 3 to 8) (size 9 to 14) (size 15 to 20)
#    0.000    2.000    1.250    2.625    3.500    1.000 
#    4.500    3.125    0.000    0.000    0.000    0.000 
#    0.000    0.000    0.000    0.000    0.000    0.000 
#
# Total GULP energy -357096.448190 kJ/mol
# GULP energy per Si atom -5579.632003 kJ/mol
# Density = 2.090518 g / cm^3
# Si number density = 20.952866 Si / 1000 Ang^3
#
#
#
# Elastic Constant Matrix: (Units=GPa)
#
#
# Indices 1 2 3 4 5 6 
#
# 1 77.8038 -13.8046 17.1168 0.0000 0.0000 0.0000
# 2 -13.8046 42.1872 0.4114 0.0000 0.0000 0.0000
# 3 17.1168 0.4114 45.8151 0.0000 0.0000 0.0000
# 4 0.0000 0.0000 0.0000 14.4746 0.0000 0.0000
# 5 0.0000 0.0000 0.0000 0.0000 19.3874 0.0000
# 6 0.0000 0.0000 0.0000 0.0000 0.0000 23.4819
#
#
#
# Elastic Compliance Matrix: (Units=1/GPa)
#
#
# Indices 1 2 3 4 5 6 
#
# 1 0.014972 0.004954 -0.005638 0.000000 0.000000 0.000000
# 2 0.004954 0.025345 -0.002079 0.000000 0.000000 0.000000
# 3 -0.005638 -0.002079 0.023952 0.000000 0.000000 0.000000
# 4 0.000000 0.000000 0.000000 0.069087 0.000000 0.000000
# 5 0.000000 0.000000 0.000000 0.000000 0.051580 0.000000
# 6 0.000000 0.000000 0.000000 0.000000 0.000000 0.042586
#
#
# Mechanical properties :
#
#
# Convention : Reuss Voigt Hill
#
# Bulk Modulus (GPa) = 17.02283 19.25034 18.13659
# Shear Modulus (GPa) = 19.79190 22.27428 21.03309
#
# Velocity S-wave (km/s) = 3.07676 3.26401 3.17176
# Velocity P-wave (km/s) = 4.55674 4.83863 4.69980
#
# Compressibility (1/GPa) = 0.05874463
#
# Stress axis : x y z
#
# Youngs Moduli (GPa) = 66.79009 39.45504 41.75015
#
# Poissons Ratio (x) = -0.19547 0.23540
# Poissons Ratio (y) = -0.33090 0.08678
# Poissons Ratio (z) = 0.37658 0.08201
#
# Static dielectric constant tensor:
#      x y z
#    x 1.746990 0.000000 0.000000 
#    y 0.000000 1.796510 0.000000 
#    z 0.000000 0.000000 1.765580 
# 
# From -- ./inp_files/11070.got.cif
#   From: 2010.05.17/outbox.cif.g08.bks.cpg/sg56_6_cif.got.tgz:11070.got - 2010.06.03 13:42:01.
