data_PCOD9430357
_publ_section_title
;
Structure prediction by ZEFSAII (Michael W. Deem and Ramdas Pophale) SiO2 
 PCOD9430357
Probable space group: P C C N
;
_chemical_formula_sum "Si O2"
_cell_formula_units_Z 40
_cell_length_a 11.527466
_cell_length_b 7.686068
_cell_length_c 18.287118
_cell_angle_alpha 90.000000
_cell_angle_beta 90.000000
_cell_angle_gamma 90.000000
_cell_volume 1620.254885
_symmetry_space_group_name_H-M "P C C N"
_symmetry_group_IT_number 56
_symmetry_cell_setting 'orthorhombic'
loop_
_space_group_symop_operation_xyz
x,y,z
1/2-x,1/2-y,z
1/2+x,-y,1/2-z
-x,1/2+y,1/2-z
-x,-y,-z
1/2+x,1/2+y,-z
1/2-x,y,1/2+z
x,1/2-y,1/2+z
loop_
_atom_site_type_symbol
_atom_site_label
_atom_site_fract_x
_atom_site_fract_y
_atom_site_fract_z
Si Si1 0.906876 0.342428 0.903600
Si Si2 0.366488 0.815716 0.755487
Si Si3 0.633995 0.681778 0.115197
Si Si4 0.454030 0.108029 0.669453
Si Si5 0.807246 0.982117 0.960686
O O1 0.872541 0.300644 0.819258
O O2 0.868574 0.170736 0.949905
O O3 0.825029 0.490373 0.935567
O O4 0.045518 0.339525 0.903662
O O5 0.250000 0.750000 0.794057
O O6 0.479933 0.774765 0.802161
O O7 0.371827 0.013151 0.728344
O O8 0.750000 0.750000 0.152955
O O9 0.554840 0.538241 0.155769
O O10 0.676371 0.590114 0.040837
O O11 0.379686 0.130987 0.597085
#
# Coordination Sequence:
#
# PCOD9430357 Si02
#       5
#     8   8   8   8   8
#     4   9  17  37  63  73 111 164 186 232 305 354
#     4  10  19  39  60  84 119 158 193 241 305 356
#     4  10  21  36  55  88 122 148 194 257 296 351
#     4  10  21  38  61  86 115 155 202 245 295 360
#     4   9  17  38  59  77 112 156 194 229 297 356
#
# _framework density 24.687473000000001
#
# number of rings (size 3 to 8) (size 9 to 14) (size 15 to 20)
#    0.000    2.800    4.000    2.400    0.000    4.000 
#   10.800    0.000    0.000    0.000    0.000    0.000 
#    0.000    0.000    0.000    0.000    0.000    0.000 
#
# Total GULP energy -223604.870073 kJ/mol
# GULP energy per Si atom -5590.121752 kJ/mol
# Density = 2.463128 g / cm^3
# Si number density = 24.687473 Si / 1000 Ang^3
#
#
#
# Elastic Constant Matrix: (Units=GPa)
#
#
# Indices 1 2 3 4 5 6 
#
# 1 145.4204 23.0416 11.8770 0.0000 0.0000 0.0000
# 2 23.0416 54.4046 21.0988 0.0000 0.0000 0.0000
# 3 11.8770 21.0988 62.0594 0.0000 0.0000 0.0000
# 4 0.0000 0.0000 0.0000 -1.3109 0.0000 0.0000
# 5 0.0000 0.0000 0.0000 0.0000 -4.0357 0.0000
# 6 0.0000 0.0000 0.0000 0.0000 0.0000 30.1096
#
#
#
# Elastic Compliance Matrix: (Units=1/GPa)
#
#
# Indices 1 2 3 4 5 6 
#
# 1 0.007380 -0.002969 -0.000403 0.000000 0.000000 0.000000
# 2 -0.002969 0.022367 -0.007036 0.000000 0.000000 0.000000
# 3 -0.000403 -0.007036 0.018583 0.000000 0.000000 0.000000
# 4 0.000000 0.000000 0.000000 -0.762846 0.000000 0.000000
# 5 0.000000 0.000000 0.000000 0.000000 -0.247791 0.000000
# 6 0.000000 0.000000 0.000000 0.000000 0.000000 0.033212
#
#
# Mechanical properties :
#
#
# Convention : Reuss Voigt Hill
#
# Bulk Modulus (GPa) = 36.34602 41.54658 38.94630
# Shear Modulus (GPa) = -5.56107 18.67707 6.55800
#
# Velocity S-wave (km/s) = -1.50249 2.75351 1.63162
# Velocity P-wave (km/s) = 3.42702 5.19371 4.39995
#
# Compressibility (1/GPa) = 0.02751333
#
# Stress axis : x y z
#
# Youngs Moduli (GPa) = 135.50119 44.70866 53.81322
#
# Poissons Ratio (x) = 0.13276 0.02168
# Poissons Ratio (y) = 0.40235 0.37863
# Poissons Ratio (z) = 0.05459 0.31457
#
# Static dielectric constant tensor:
#      x y z
#    x 2.029330 0.000000 0.000000 
#    y 0.000000 2.023150 0.000000 
#    z 0.000000 0.000000 1.907700 
# 
# From -- ./inp_files/14478.got.cif
#   From: 2010.05.17/outbox.cif.g08.bks.cpg/sg56_8_cif.got.tgz:14478.got - 2010.06.03 13:42:01.
