data_PCOD9430374
_publ_section_title
;
Structure prediction by ZEFSAII (Michael W. Deem and Ramdas Pophale) SiO2 
 PCOD9430374
Probable space group: P C C N
;
_chemical_formula_sum "Si O2"
_cell_formula_units_Z 52
_cell_length_a 16.798756
_cell_length_b 13.744939
_cell_length_c 8.380590
_cell_angle_alpha 90.000000
_cell_angle_beta 90.000000
_cell_angle_gamma 90.000000
_cell_volume 1935.060435
_symmetry_space_group_name_H-M "P C C N"
_symmetry_group_IT_number 56
_symmetry_cell_setting 'orthorhombic'
loop_
_space_group_symop_operation_xyz
x,y,z
1/2-x,1/2-y,z
1/2+x,-y,1/2-z
-x,1/2+y,1/2-z
-x,-y,-z
1/2+x,1/2+y,-z
1/2-x,y,1/2+z
x,1/2-y,1/2+z
loop_
_atom_site_type_symbol
_atom_site_label
_atom_site_fract_x
_atom_site_fract_y
_atom_site_fract_z
Si Si1 0.859749 0.600654 0.916757
Si Si2 0.714226 0.452373 0.224048
Si Si3 0.250000 0.750000 0.438052
Si Si4 0.506972 0.377227 0.770268
Si Si5 0.040959 0.397181 0.756686
Si Si6 0.578239 0.284122 0.451861
Si Si7 0.185585 0.419298 0.579322
O O1 0.915200 0.643434 0.777395
O O2 0.841334 0.486681 0.872047
O O3 0.769274 0.638839 0.927182
O O4 0.909717 0.608777 0.076830
O O5 0.729494 0.345419 0.163986
O O6 0.681579 0.516238 0.078109
O O7 0.672098 0.270842 0.458094
O O8 0.797212 0.501768 0.279739
O O9 0.517715 0.492397 0.781924
O O10 0.554538 0.338761 0.614286
O O11 0.539721 0.322552 0.924835
O O12 0.105332 0.364832 0.624363
O O13 0.961748 0.338228 0.800302
#
# Coordination Sequence:
#
# PCOD9430374 Si02
#       7
#     8   8   4   8   8   8   8
#     4   9  20  41  70  93 132 187 239 279 355 431
#     4  10  22  36  68 100 139 182 235 288 356 430
#     4  12  26  42  62 108 150 182 230 304 356 432
#     4  11  25  46  68  99 142 187 233 298 353 428
#     4  11  22  45  72  97 143 195 232 294 360 423
#     4  11  27  43  70 106 143 190 239 289 364 430
#     4  10  19  39  66 101 128 184 241 282 347 421
#
# _framework density 26.872544999999999
#
# number of rings (size 3 to 8) (size 9 to 14) (size 15 to 20)
#    0.923    0.615    1.538    3.692    2.154    6.154 
#    0.000    3.077    0.000    3.692    0.000    0.000 
#    0.000    0.000    0.000    0.000    0.000    0.000 
#
# Total GULP energy -291107.604272 kJ/mol
# GULP energy per Si atom -5598.223159 kJ/mol
# Density = 2.681138 g / cm^3
# Si number density = 26.872545 Si / 1000 Ang^3
#
#
#
# Elastic Constant Matrix: (Units=GPa)
#
#
# Indices 1 2 3 4 5 6 
#
# 1 135.8363 66.1431 13.4165 0.0000 0.0000 0.0000
# 2 66.1431 90.5586 24.1163 0.0000 0.0000 0.0000
# 3 13.4165 24.1163 83.5661 0.0000 0.0000 0.0000
# 4 0.0000 0.0000 0.0000 36.1043 0.0000 0.0000
# 5 0.0000 0.0000 0.0000 0.0000 32.2648 0.0000
# 6 0.0000 0.0000 0.0000 0.0000 0.0000 40.0366
#
#
#
# Elastic Compliance Matrix: (Units=1/GPa)
#
#
# Indices 1 2 3 4 5 6 
#
# 1 0.011455 -0.008533 0.000623 0.000000 0.000000 0.000000
# 2 -0.008533 0.018318 -0.003916 0.000000 0.000000 0.000000
# 3 0.000623 -0.003916 0.012997 0.000000 0.000000 0.000000
# 4 0.000000 0.000000 0.000000 0.027698 0.000000 0.000000
# 5 0.000000 0.000000 0.000000 0.000000 0.030994 0.000000
# 6 0.000000 0.000000 0.000000 0.000000 0.000000 0.024977
#
#
# Mechanical properties :
#
#
# Convention : Reuss Voigt Hill
#
# Bulk Modulus (GPa) = 52.30654 57.47921 54.89288
# Shear Modulus (GPa) = 31.95668 35.43347 33.69508
#
# Velocity S-wave (km/s) = 3.45221 3.63516 3.54487
# Velocity P-wave (km/s) = 5.94956 6.24941 6.10133
#
# Compressibility (1/GPa) = 0.01911807
#
# Stress axis : x y z
#
# Youngs Moduli (GPa) = 87.29763 54.59206 76.94247
#
# Poissons Ratio (x) = 0.46582 -0.04796
# Poissons Ratio (y) = 0.74488 0.30133
# Poissons Ratio (z) = -0.05441 0.21380
#
# Static dielectric constant tensor:
#      x y z
#    x 2.132750 0.000000 0.000000 
#    y 0.000000 2.129210 0.000000 
#    z 0.000000 0.000000 2.114780 
# 
# From -- ./inp_files/4458.got.cif
#   From: 2010.05.17/outbox.cif.g08.bks.cpg/sg56_3_cif.got.tgz:4458.got - 2010.06.03 13:42:01.
