data_PCOD9430499
_publ_section_title
;
Structure prediction by ZEFSAII (Michael W. Deem and Ramdas Pophale) SiO2 
 PCOD9430499
Probable space group: P C C N
;
_chemical_formula_sum "Si O2"
_cell_formula_units_Z 48
_cell_length_a 9.841476
_cell_length_b 11.019261
_cell_length_c 21.749909
_cell_angle_alpha 90.000000
_cell_angle_beta 90.000000
_cell_angle_gamma 90.000000
_cell_volume 2358.686122
_symmetry_space_group_name_H-M "P C C N"
_symmetry_group_IT_number 56
_symmetry_cell_setting 'orthorhombic'
loop_
_space_group_symop_operation_xyz
x,y,z
1/2-x,1/2-y,z
1/2+x,-y,1/2-z
-x,1/2+y,1/2-z
-x,-y,-z
1/2+x,1/2+y,-z
1/2-x,y,1/2+z
x,1/2-y,1/2+z
loop_
_atom_site_type_symbol
_atom_site_label
_atom_site_fract_x
_atom_site_fract_y
_atom_site_fract_z
Si Si1 0.474383 0.178899 0.139265
Si Si2 0.015845 0.960778 0.888779
Si Si3 0.531109 0.030709 0.258160
Si Si4 0.280356 0.997790 0.078424
Si Si5 0.691506 0.118707 0.793838
Si Si6 0.788549 0.389541 0.048180
O O1 0.487739 0.322690 0.133822
O O2 0.485566 0.131390 0.208877
O O3 0.600184 0.120490 0.101636
O O4 0.343454 0.122056 0.105235
O O5 0.155636 0.955874 0.925183
O O6 0.019113 0.044888 0.828238
O O7 0.882592 0.995995 0.926957
O O8 0.694298 0.028979 0.264645
O O9 0.454879 0.911846 0.232989
O O10 0.311740 0.903512 0.133289
O O11 0.337182 0.956372 0.013216
O O12 0.750000 0.250000 0.779260
O O13 0.750000 0.250000 0.032252
#
# Coordination Sequence:
#
# PCOD9430499 Si02
#       6
#     8   8   8   8   8   8
#     4  10  20  34  54  78 106 140 176 220 269 320
#     4  10  20  34  54  78 106 140 176 220 269 320
#     4  10  20  34  56  82 108 142 182 224 276 330
#     4  10  20  34  53  77 105 140 179 217 265 323
#     4  10  20  35  54  78 111 144 180 229 274 322
#     4  10  20  35  55  77 102 136 177 218 265 319
#
# _framework density 20.350311999999999
#
# number of rings (size 3 to 8) (size 9 to 14) (size 15 to 20)
#    0.000    2.000    0.000    4.000    0.000    1.333 
#    0.000    2.500    0.000    6.000    0.000    0.000 
#    0.000    0.000    0.000    0.000    0.000    0.000 
#
# Total GULP energy -267851.318778 kJ/mol
# GULP energy per Si atom -5580.235808 kJ/mol
# Density = 2.030399 g / cm^3
# Si number density = 20.350312 Si / 1000 Ang^3
#
#
#
# Elastic Constant Matrix: (Units=GPa)
#
#
# Indices 1 2 3 4 5 6 
#
# 1 85.7136 9.4117 36.3291 0.0000 0.0000 0.0000
# 2 9.4117 43.1586 29.7276 0.0000 0.0000 0.0000
# 3 36.3291 29.7276 101.1132 0.0000 0.0000 0.0000
# 4 0.0000 0.0000 0.0000 17.2197 0.0000 0.0000
# 5 0.0000 0.0000 0.0000 0.0000 19.8653 0.0000
# 6 0.0000 0.0000 0.0000 0.0000 0.0000 20.6559
#
#
#
# Elastic Compliance Matrix: (Units=1/GPa)
#
#
# Indices 1 2 3 4 5 6 
#
# 1 0.013771 0.000508 -0.005097 0.000000 0.000000 0.000000
# 2 0.000508 0.029073 -0.008730 0.000000 0.000000 0.000000
# 3 -0.005097 -0.008730 0.014288 0.000000 0.000000 0.000000
# 4 0.000000 0.000000 0.000000 0.058073 0.000000 0.000000
# 5 0.000000 0.000000 0.000000 0.000000 0.050339 0.000000
# 6 0.000000 0.000000 0.000000 0.000000 0.000000 0.048412
#
#
# Mechanical properties :
#
#
# Convention : Reuss Voigt Hill
#
# Bulk Modulus (GPa) = 32.79401 42.32469 37.55935
# Shear Modulus (GPa) = 19.93939 21.84930 20.89434
#
# Velocity S-wave (km/s) = 3.13358 3.28023 3.20774
# Velocity P-wave (km/s) = 5.40760 5.93209 5.67591
#
# Compressibility (1/GPa) = 0.03049338
#
# Stress axis : x y z
#
# Youngs Moduli (GPa) = 72.61406 34.39643 69.98912
#
# Poissons Ratio (x) = -0.01747 0.35675
# Poissons Ratio (y) = -0.03687 0.61100
# Poissons Ratio (z) = 0.37013 0.30028
#
# Static dielectric constant tensor:
#      x y z
#    x 1.739600 0.000000 0.000000 
#    y 0.000000 1.732480 0.000000 
#    z 0.000000 0.000000 1.703320 
# 
# From -- ./inp_files/15602.got.cif
#   From: 2010.05.17/outbox.cif.g08.bks.cpg/sg56_8_cif.got.tgz:15602.got - 2010.06.03 13:42:01.
