data_PCOD9430817
_publ_section_title
;
Structure prediction by ZEFSAII (Michael W. Deem and Ramdas Pophale) SiO2 
 PCOD9430817
Probable space group: P C C N
;
_chemical_formula_sum "Si O2"
_cell_formula_units_Z 56
_cell_length_a 20.875479
_cell_length_b 13.479109
_cell_length_c 9.904774
_cell_angle_alpha 90.000000
_cell_angle_beta 90.000000
_cell_angle_gamma 90.000000
_cell_volume 2787.033605
_symmetry_space_group_name_H-M "P C C N"
_symmetry_group_IT_number 56
_symmetry_cell_setting 'orthorhombic'
loop_
_space_group_symop_operation_xyz
x,y,z
1/2-x,1/2-y,z
1/2+x,-y,1/2-z
-x,1/2+y,1/2-z
-x,-y,-z
1/2+x,1/2+y,-z
1/2-x,y,1/2+z
x,1/2-y,1/2+z
loop_
_atom_site_type_symbol
_atom_site_label
_atom_site_fract_x
_atom_site_fract_y
_atom_site_fract_z
Si Si1 0.390104 0.981775 0.280833
Si Si2 0.816418 0.467344 0.999690
Si Si3 0.022854 0.685773 0.210935
Si Si4 0.094334 0.808515 0.434868
Si Si5 0.796294 0.334510 0.560279
Si Si6 0.110832 0.291771 0.256504
Si Si7 0.688087 0.692169 0.514342
O O1 0.357867 0.978884 0.134154
O O2 0.456128 0.920219 0.272839
O O3 0.337857 0.918277 0.363883
O O4 0.400881 0.096745 0.312878
O O5 0.797420 0.576959 0.043829
O O6 0.865817 0.408330 0.095726
O O7 0.754564 0.398280 0.975624
O O8 0.065900 0.761905 0.299441
O O9 0.951165 0.722605 0.230288
O O10 0.041774 0.681501 0.052707
O O11 0.147887 0.734566 0.499236
O O12 0.750000 0.250000 0.631839
O O13 0.134378 0.299955 0.102241
O O14 0.164823 0.244006 0.349879
O O15 0.750000 0.750000 0.462910
#
# Coordination Sequence:
#
# PCOD9430817 Si02
#       7
#     8   8   8   8   8   8   8
#     4   9  20  36  54  80 113 144 183 229 273 323
#     4   9  19  34  55  79 109 148 182 219 274 331
#     4  10  20  38  57  81 111 145 183 225 270 324
#     4   9  19  35  57  84 112 141 183 228 270 322
#     4   9  17  31  54  83 111 143 180 228 276 317
#     4  11  23  40  60  80 110 148 182 226 277 325
#     4  11  23  40  58  81 109 143 184 225 271 330
#
# _framework density 20.093049000000001
#
# number of rings (size 3 to 8) (size 9 to 14) (size 15 to 20)
#    0.000    2.286    0.000    2.143    0.000    7.429 
#    0.000   15.000    0.000    0.000    0.000    0.000 
#    0.000    0.000    0.000    0.000    0.000    0.000 
#
# Total GULP energy -311794.140219 kJ/mol
# GULP energy per Si atom -5567.752504 kJ/mol
# Density = 2.004732 g / cm^3
# Si number density = 20.093049 Si / 1000 Ang^3
#
#
#
# Elastic Constant Matrix: (Units=GPa)
#
#
# Indices 1 2 3 4 5 6 
#
# 1 79.2896 26.8818 -5.5140 0.0000 0.0000 0.0000
# 2 26.8818 112.8057 0.4930 0.0000 0.0000 0.0000
# 3 -5.5140 0.4930 23.9967 0.0000 0.0000 0.0000
# 4 0.0000 0.0000 0.0000 12.7088 0.0000 0.0000
# 5 0.0000 0.0000 0.0000 0.0000 18.4287 0.0000
# 6 0.0000 0.0000 0.0000 0.0000 0.0000 18.8287
#
#
#
# Elastic Compliance Matrix: (Units=1/GPa)
#
#
# Indices 1 2 3 4 5 6 
#
# 1 0.013974 -0.003344 0.003280 0.000000 0.000000 0.000000
# 2 -0.003344 0.009666 -0.000967 0.000000 0.000000 0.000000
# 3 0.003280 -0.000967 0.042446 0.000000 0.000000 0.000000
# 4 0.000000 0.000000 0.000000 0.078686 0.000000 0.000000
# 5 0.000000 0.000000 0.000000 0.000000 0.054263 0.000000
# 6 0.000000 0.000000 0.000000 0.000000 0.000000 0.053111
#
#
# Mechanical properties :
#
#
# Convention : Reuss Voigt Hill
#
# Bulk Modulus (GPa) = 15.61953 28.86816 22.24385
# Shear Modulus (GPa) = 18.14557 22.94198 20.54378
#
# Velocity S-wave (km/s) = 3.00838 3.38270 3.20102
# Velocity P-wave (km/s) = 4.45619 5.44567 4.97559
#
# Compressibility (1/GPa) = 0.06402240
#
# Stress axis : x y z
#
# Youngs Moduli (GPa) = 71.56194 103.45555 23.55939
#
# Poissons Ratio (x) = 0.34599 -0.07727
# Poissons Ratio (y) = 0.23933 0.02278
# Poissons Ratio (z) = -0.23470 0.10005
#
# Static dielectric constant tensor:
#      x y z
#    x 1.727980 0.000000 0.000000 
#    y 0.000000 1.758830 0.000000 
#    z 0.000000 0.000000 1.699120 
# 
# From -- ./inp_files/8641.got.cif
#   From: 2010.05.17/outbox.cif.g08.bks.cpg/sg56_5_cif.got.tgz:8641.got - 2010.06.03 13:42:01.
