data_PCOD9430191
_publ_section_title
;
Structure prediction by ZEFSAII (Michael W. Deem and Ramdas Pophale) SiO2 
 PCOD9430191
Probable space group: P C C N
;
_chemical_formula_sum "Si O2"
_cell_formula_units_Z 64
_cell_length_a 7.826253
_cell_length_b 20.150795
_cell_length_c 19.285369
_cell_angle_alpha 90.000000
_cell_angle_beta 90.000000
_cell_angle_gamma 90.000000
_cell_volume 3041.403357
_symmetry_space_group_name_H-M "P C C N"
_symmetry_group_IT_number 56
_symmetry_cell_setting 'orthorhombic'
loop_
_space_group_symop_operation_xyz
x,y,z
1/2-x,1/2-y,z
1/2+x,-y,1/2-z
-x,1/2+y,1/2-z
-x,-y,-z
1/2+x,1/2+y,-z
1/2-x,y,1/2+z
x,1/2-y,1/2+z
loop_
_atom_site_type_symbol
_atom_site_label
_atom_site_fract_x
_atom_site_fract_y
_atom_site_fract_z
Si Si1 0.274169 0.822862 0.348026
Si Si2 0.958314 0.612895 0.779172
Si Si3 0.834127 0.041974 0.144741
Si Si4 0.363413 0.103298 0.492125
Si Si5 0.339007 0.321466 0.133948
Si Si6 0.840284 0.018468 0.923291
Si Si7 0.735293 0.604498 0.647139
Si Si8 0.578916 0.457152 0.302636
O O1 0.250000 0.750000 0.379775
O O2 0.263019 0.891903 0.390803
O O3 0.475762 0.821700 0.328798
O O4 0.117749 0.838117 0.294847
O O5 0.800082 0.632688 0.828261
O O6 0.887093 0.619092 0.700921
O O7 0.985548 0.534197 0.794438
O O8 0.742825 0.973888 0.128751
O O9 0.837368 0.053118 0.227412
O O10 0.025573 0.025946 0.120944
O O11 0.373135 0.153627 0.555774
O O12 0.543708 0.074118 0.461686
O O13 0.265181 0.136233 0.427243
O O14 0.273555 0.036046 0.522114
O O15 0.250000 0.250000 0.133870
O O16 0.705340 0.044569 0.868078
O O17 0.556278 0.602175 0.686119
#
# Coordination Sequence:
#
# PCOD9430191 Si02
#       8
#     8   8   8   8   8   8   8   8
#     4  12  23  39  67  95 121 171 222 280 324 391
#     4  11  23  41  65 102 128 166 225 275 335 396
#     4  10  19  35  59  92 128 157 214 268 327 379
#     4  10  22  39  56  89 133 172 208 267 340 397
#     4  12  24  46  67  90 129 174 228 283 323 391
#     4  10  20  35  59  91 130 173 205 271 340 399
#     4  10  22  36  61  96 134 166 198 273 337 395
#     4  11  19  35  63  97 130 167 212 272 333 395
#
# _framework density 21.042918
#
# number of rings (size 3 to 8) (size 9 to 14) (size 15 to 20)
#    0.000    1.250    5.000    2.250    3.500    0.500 
#    2.250    0.625    0.000    0.750    0.000    0.000 
#    0.000    0.000    0.000    0.000    0.000    0.000 
#
# Total GULP energy -356310.724220 kJ/mol
# GULP energy per Si atom -5567.355066 kJ/mol
# Density = 2.099502 g / cm^3
# Si number density = 21.042918 Si / 1000 Ang^3
#
#
#
# Elastic Constant Matrix: (Units=GPa)
#
#
# Indices 1 2 3 4 5 6 
#
# 1 96.6178 20.7880 42.0921 0.0000 0.0000 0.0000
# 2 20.7880 62.9398 9.1843 0.0000 0.0000 0.0000
# 3 42.0921 9.1843 125.4218 0.0000 0.0000 0.0000
# 4 0.0000 0.0000 0.0000 8.3673 0.0000 0.0000
# 5 0.0000 0.0000 0.0000 0.0000 32.1018 0.0000
# 6 0.0000 0.0000 0.0000 0.0000 0.0000 31.0118
#
#
#
# Elastic Compliance Matrix: (Units=1/GPa)
#
#
# Indices 1 2 3 4 5 6 
#
# 1 0.012910 -0.003671 -0.004064 0.000000 0.000000 0.000000
# 2 -0.003671 0.017104 -0.000020 0.000000 0.000000 0.000000
# 3 -0.004064 -0.000020 0.009338 0.000000 0.000000 0.000000
# 4 0.000000 0.000000 0.000000 0.119512 0.000000 0.000000
# 5 0.000000 0.000000 0.000000 0.000000 0.031151 0.000000
# 6 0.000000 0.000000 0.000000 0.000000 0.000000 0.032246
#
#
# Mechanical properties :
#
#
# Convention : Reuss Voigt Hill
#
# Bulk Modulus (GPa) = 41.94344 47.67867 44.81105
# Shear Modulus (GPa) = 20.34839 28.49052 24.41946
#
# Velocity S-wave (km/s) = 3.11303 3.68356 3.41025
# Velocity P-wave (km/s) = 5.73558 6.38737 6.07023
#
# Compressibility (1/GPa) = 0.02384163
#
# Stress axis : x y z
#
# Youngs Moduli (GPa) = 77.45693 58.46697 107.08391
#
# Poissons Ratio (x) = 0.21464 0.43518
# Poissons Ratio (y) = 0.28435 0.00219
# Poissons Ratio (z) = 0.31478 0.00119
#
# Static dielectric constant tensor:
#      x y z
#    x 1.913310 0.000000 0.000000 
#    y 0.000000 1.809750 0.000000 
#    z 0.000000 0.000000 1.825230 
# 
# From -- ./inp_files/15246.got.cif
#   From: 2010.05.17/outbox.cif.g08.bks.cpg/sg56_8_cif.got.tgz:15246.got - 2010.06.03 13:42:01.
