data_PCOD9430809
_publ_section_title
;
Structure prediction by ZEFSAII (Michael W. Deem and Ramdas Pophale) SiO2 
 PCOD9430809
Probable space group: P C C N
;
_chemical_formula_sum "Si O2"
_cell_formula_units_Z 36
_cell_length_a 8.184998
_cell_length_b 16.506468
_cell_length_c 13.734071
_cell_angle_alpha 90.000000
_cell_angle_beta 90.000000
_cell_angle_gamma 90.000000
_cell_volume 1855.547260
_symmetry_space_group_name_H-M "P C C N"
_symmetry_group_IT_number 56
_symmetry_cell_setting 'orthorhombic'
loop_
_space_group_symop_operation_xyz
x,y,z
1/2-x,1/2-y,z
1/2+x,-y,1/2-z
-x,1/2+y,1/2-z
-x,-y,-z
1/2+x,1/2+y,-z
1/2-x,y,1/2+z
x,1/2-y,1/2+z
loop_
_atom_site_type_symbol
_atom_site_label
_atom_site_fract_x
_atom_site_fract_y
_atom_site_fract_z
Si Si1 0.519734 0.979544 0.333629
Si Si2 0.667677 0.614940 0.279419
Si Si3 0.928577 0.626774 0.998579
Si Si4 0.250000 0.250000 0.367409
Si Si5 0.263777 0.959035 0.491550
O O1 0.440625 0.038618 0.254528
O O2 0.624322 0.030803 0.412952
O O3 0.645408 0.916154 0.287792
O O4 0.376392 0.940207 0.398697
O O5 0.611520 0.642684 0.385690
O O6 0.659209 0.685680 0.201128
O O7 0.116895 0.602502 0.008210
O O8 0.873221 0.700321 0.064886
O O9 0.820350 0.547150 0.025779
#
# Coordination Sequence:
#
# PCOD9430809 Si02
#       5
#     8   8   8   4   8
#     4  10  20  37  67  98 119 166 231 263 314 391
#     4  11  23  38  68  91 128 168 218 268 327 397
#     4  10  21  40  64  91 127 173 212 263 340 381
#     4  12  24  40  62  94 134 166 208 278 332 384
#     4   9  19  39  68  90 123 168 223 271 306 400
#
# _framework density 19.401285000000001
#
# number of rings (size 3 to 8) (size 9 to 14) (size 15 to 20)
#    0.000    1.778    2.222    2.000    6.222    0.000 
#    0.000    1.111    0.000    0.000    0.000    0.000 
#    0.000    0.000    0.000    0.000    0.000    0.000 
#
# Total GULP energy -201241.331198 kJ/mol
# GULP energy per Si atom -5590.036978 kJ/mol
# Density = 1.935713 g / cm^3
# Si number density = 19.401285 Si / 1000 Ang^3
#
#
#
# Elastic Constant Matrix: (Units=GPa)
#
#
# Indices 1 2 3 4 5 6 
#
# 1 113.7628 40.5303 35.9347 0.0000 0.0000 0.0000
# 2 40.5303 73.7061 47.3596 0.0000 0.0000 0.0000
# 3 35.9347 47.3596 94.7823 0.0000 0.0000 0.0000
# 4 0.0000 0.0000 0.0000 40.7754 0.0000 0.0000
# 5 0.0000 0.0000 0.0000 0.0000 24.7228 0.0000
# 6 0.0000 0.0000 0.0000 0.0000 0.0000 22.2584
#
#
#
# Elastic Compliance Matrix: (Units=1/GPa)
#
#
# Indices 1 2 3 4 5 6 
#
# 1 0.011117 -0.005015 -0.001709 0.000000 0.000000 0.000000
# 2 -0.005015 0.022246 -0.009214 0.000000 0.000000 0.000000
# 3 -0.001709 -0.009214 0.015802 0.000000 0.000000 0.000000
# 4 0.000000 0.000000 0.000000 0.024525 0.000000 0.000000
# 5 0.000000 0.000000 0.000000 0.000000 0.040449 0.000000
# 6 0.000000 0.000000 0.000000 0.000000 0.000000 0.044927
#
#
# Mechanical properties :
#
#
# Convention : Reuss Voigt Hill
#
# Bulk Modulus (GPa) = 57.84079 58.87784 58.35931
# Shear Modulus (GPa) = 25.41901 28.11308 26.76604
#
# Velocity S-wave (km/s) = 3.62356 3.81074 3.71833
# Velocity P-wave (km/s) = 6.88364 7.05519 6.96994
#
# Compressibility (1/GPa) = 0.01728884
#
# Stress axis : x y z
#
# Youngs Moduli (GPa) = 89.95491 44.95288 63.28189
#
# Poissons Ratio (x) = 0.22544 0.10814
# Poissons Ratio (y) = 0.45112 0.58308
# Poissons Ratio (z) = 0.15372 0.41420
#
# Static dielectric constant tensor:
#      x y z
#    x 1.675460 0.000000 0.000000 
#    y 0.000000 1.658450 0.000000 
#    z 0.000000 0.000000 1.690720 
# 
# From -- ./inp_files/10327.got.cif
#   From: 2010.05.17/outbox.cif.g08.bks.cpg/sg56_6_cif.got.tgz:10327.got - 2010.06.03 13:42:01.
