data_PCOD9430816
_publ_section_title
;
Structure prediction by ZEFSAII (Michael W. Deem and Ramdas Pophale) SiO2 
 PCOD9430816
Probable space group: P C C N
;
_chemical_formula_sum "Si O2"
_cell_formula_units_Z 64
_cell_length_a 5.079287
_cell_length_b 19.715442
_cell_length_c 33.721913
_cell_angle_alpha 90.000000
_cell_angle_beta 90.000000
_cell_angle_gamma 90.000000
_cell_volume 3376.925460
_symmetry_space_group_name_H-M "P C C N"
_symmetry_group_IT_number 56
_symmetry_cell_setting 'orthorhombic'
loop_
_space_group_symop_operation_xyz
x,y,z
1/2-x,1/2-y,z
1/2+x,-y,1/2-z
-x,1/2+y,1/2-z
-x,-y,-z
1/2+x,1/2+y,-z
1/2-x,y,1/2+z
x,1/2-y,1/2+z
loop_
_atom_site_type_symbol
_atom_site_label
_atom_site_fract_x
_atom_site_fract_y
_atom_site_fract_z
Si Si1 0.419158 0.530432 0.382763
Si Si2 0.986904 0.794203 0.292852
Si Si3 0.437211 0.683675 0.380181
Si Si4 0.629814 0.963186 0.200964
Si Si5 0.631046 0.415468 0.764660
Si Si6 0.199612 0.935172 0.498954
Si Si7 0.485363 0.204758 0.031566
Si Si8 0.443380 0.497462 0.067529
O O1 0.313437 0.608190 0.380643
O O2 0.454871 0.499437 0.339392
O O3 0.690807 0.528883 0.407804
O O4 0.188926 0.488451 0.404095
O O5 0.750000 0.750000 0.276903
O O6 0.250000 0.750000 0.295748
O O7 0.912728 0.815888 0.338070
O O8 0.044430 0.855156 0.263592
O O9 0.250000 0.750000 0.379779
O O10 0.583700 0.688422 0.422245
O O11 0.414621 0.909340 0.215455
O O12 0.917161 0.930587 0.201513
O O13 0.641356 0.020658 0.234864
O O14 0.046583 0.866326 0.489649
O O15 0.344183 0.939691 0.541117
O O16 0.422111 0.946757 0.464956
O O17 0.000000 0.000000 0.500000
O O18 0.750000 0.250000 0.031246
O O19 0.250000 0.250000 0.014639
#
# Coordination Sequence:
#
# PCOD9430816 Si02
#       8
#     8   8   8   8   8   8   8   8
#     4  12  22  39  59  92 120 165 202 248 304 362
#     4  11  22  36  56  84 118 162 203 235 285 360
#     4  10  22  37  53  83 129 170 198 230 278 363
#     4  10  21  36  59  80 120 151 196 249 295 346
#     4  10  20  38  55  84 113 158 194 248 296 336
#     4  11  23  42  64  89 126 166 207 260 301 359
#     4  11  25  38  58  88 126 166 203 241 300 364
#     4  11  24  36  64  87 121 157 212 252 305 354
#
# _framework density 18.952151000000001
#
# number of rings (size 3 to 8) (size 9 to 14) (size 15 to 20)
#    0.000    1.250    3.750    1.875    5.250    2.000 
#    0.000    0.000    0.000    0.000    0.000   13.125 
#    0.000    0.000    0.000    0.000    0.000    0.000 
#
# Total GULP energy -356990.585191 kJ/mol
# GULP energy per Si atom -5577.977894 kJ/mol
# Density = 1.890902 g / cm^3
# Si number density = 18.952151 Si / 1000 Ang^3
#
#
#
# Elastic Constant Matrix: (Units=GPa)
#
#
# Indices 1 2 3 4 5 6 
#
# 1 90.9942 19.1576 20.1208 0.0000 0.0000 0.0000
# 2 19.1576 78.6752 20.6490 0.0000 0.0000 0.0000
# 3 20.1208 20.6490 63.9272 0.0000 0.0000 0.0000
# 4 0.0000 0.0000 0.0000 22.7886 0.0000 0.0000
# 5 0.0000 0.0000 0.0000 0.0000 17.2718 0.0000
# 6 0.0000 0.0000 0.0000 0.0000 0.0000 29.3810
#
#
#
# Elastic Compliance Matrix: (Units=1/GPa)
#
#
# Indices 1 2 3 4 5 6 
#
# 1 0.012131 -0.002133 -0.003129 0.000000 0.000000 0.000000
# 2 -0.002133 0.014263 -0.003936 0.000000 0.000000 0.000000
# 3 -0.003129 -0.003936 0.017899 0.000000 0.000000 0.000000
# 4 0.000000 0.000000 0.000000 0.043882 0.000000 0.000000
# 5 0.000000 0.000000 0.000000 0.000000 0.057898 0.000000
# 6 0.000000 0.000000 0.000000 0.000000 0.000000 0.034036
#
#
# Mechanical properties :
#
#
# Convention : Reuss Voigt Hill
#
# Bulk Modulus (GPa) = 38.61409 39.27237 38.94323
# Shear Modulus (GPa) = 24.13883 25.46621 24.80252
#
# Velocity S-wave (km/s) = 3.57273 3.66964 3.62151
# Velocity P-wave (km/s) = 6.11865 6.22269 6.17089
#
# Compressibility (1/GPa) = 0.02589728
#
# Stress axis : x y z
#
# Youngs Moduli (GPa) = 82.43596 70.11275 55.86906
#
# Poissons Ratio (x) = 0.14952 0.17483
# Poissons Ratio (y) = 0.17580 0.21989
# Poissons Ratio (z) = 0.25796 0.27595
#
# Static dielectric constant tensor:
#      x y z
#    x 1.704300 0.000000 0.000000 
#    y 0.000000 1.655440 0.000000 
#    z 0.000000 0.000000 1.678330 
# 
# From -- ./inp_files/22975.got.cif
#   From: 2010.05.17/outbox.cif.g08.bks.cpg/sg56_12_cif.got.tgz:22975.got - 2010.06.03 13:42:01.
