data_PCOD9430576
_publ_section_title
;
Structure prediction by ZEFSAII (Michael W. Deem and Ramdas Pophale) SiO2 
 PCOD9430576
Probable space group: P C C N
;
_chemical_formula_sum "Si O2"
_cell_formula_units_Z 64
_cell_length_a 21.127740
_cell_length_b 9.231497
_cell_length_c 14.367974
_cell_angle_alpha 90.000000
_cell_angle_beta 90.000000
_cell_angle_gamma 90.000000
_cell_volume 2802.339253
_symmetry_space_group_name_H-M "P C C N"
_symmetry_group_IT_number 56
_symmetry_cell_setting 'orthorhombic'
loop_
_space_group_symop_operation_xyz
x,y,z
1/2-x,1/2-y,z
1/2+x,-y,1/2-z
-x,1/2+y,1/2-z
-x,-y,-z
1/2+x,1/2+y,-z
1/2-x,y,1/2+z
x,1/2-y,1/2+z
loop_
_atom_site_type_symbol
_atom_site_label
_atom_site_fract_x
_atom_site_fract_y
_atom_site_fract_z
Si Si1 0.306193 0.654059 0.466400
Si Si2 0.432522 0.695511 0.012355
Si Si3 0.437760 0.364157 0.780862
Si Si4 0.316515 0.323086 0.263698
Si Si5 0.694428 0.147477 0.248794
Si Si6 0.185603 0.167653 0.490705
Si Si7 0.436592 0.692240 0.713638
Si Si8 0.930873 0.862985 0.992388
O O1 0.250000 0.750000 0.507189
O O2 0.371076 0.743897 0.461916
O O3 0.287603 0.624067 0.359610
O O4 0.313971 0.500971 0.517313
O O5 0.439411 0.796116 0.102103
O O6 0.500016 0.691675 0.960996
O O7 0.421094 0.527763 0.040439
O O8 0.377593 0.274894 0.743317
O O9 0.438044 0.528047 0.746433
O O10 0.502204 0.282330 0.754281
O O11 0.434339 0.370432 0.894117
O O12 0.250000 0.250000 0.239635
O O13 0.316118 0.482705 0.218442
O O14 0.319016 0.331277 0.377393
O O15 0.750000 0.250000 0.287629
O O16 0.628645 0.231687 0.257626
O O17 0.250000 0.250000 0.515252
O O18 0.125942 0.255518 0.528914
#
# Coordination Sequence:
#
# PCOD9430576 Si02
#       8
#     8   8   8   8   8   8   8   8
#     4  10  20  35  57  82 110 145 186 232 278 330
#     4  10  21  36  54  80 112 146 182 228 286 334
#     4  10  20  36  57  81 112 149 188 229 280 339
#     4   9  17  32  55  81 106 137 185 235 272 323
#     4  10  20  35  57  83 109 145 190 232 280 335
#     4   9  17  31  55  81 104 138 185 230 270 321
#     4  11  22  36  56  81 112 147 184 233 283 334
#     4   9  19  37  57  79 111 148 184 225 277 338
#
# _framework density 22.838062999999998
#
# number of rings (size 3 to 8) (size 9 to 14) (size 15 to 20)
#    0.000    2.250    0.000    3.000    0.000    6.000 
#    0.000    5.000    0.000    1.500    0.000    0.000 
#    0.000    0.000    0.000    0.000    0.000    0.000 
#
# Total GULP energy -357838.259013 kJ/mol
# GULP energy per Si atom -5591.222797 kJ/mol
# Density = 2.278608 g / cm^3
# Si number density = 22.838063 Si / 1000 Ang^3
#
#
#
# Elastic Constant Matrix: (Units=GPa)
#
#
# Indices 1 2 3 4 5 6 
#
# 1 205.3770 126.6096 -6.1169 0.0000 0.0000 0.0000
# 2 126.6096 196.9574 1.6423 0.0000 0.0000 0.0000
# 3 -6.1169 1.6423 61.9405 0.0000 0.0000 0.0000
# 4 0.0000 0.0000 0.0000 20.3301 0.0000 0.0000
# 5 0.0000 0.0000 0.0000 0.0000 -50.3308 0.0000
# 6 0.0000 0.0000 0.0000 0.0000 0.0000 42.7334
#
#
#
# Elastic Compliance Matrix: (Units=1/GPa)
#
#
# Indices 1 2 3 4 5 6 
#
# 1 0.008120 -0.005227 0.000940 0.000000 0.000000 0.000000
# 2 -0.005227 0.008444 -0.000740 0.000000 0.000000 0.000000
# 3 0.000940 -0.000740 0.016257 0.000000 0.000000 0.000000
# 4 0.000000 0.000000 0.000000 0.049188 0.000000 0.000000
# 5 0.000000 0.000000 0.000000 0.000000 -0.019869 0.000000
# 6 0.000000 0.000000 0.000000 0.000000 0.000000 0.023401
#
#
# Mechanical properties :
#
#
# Convention : Reuss Voigt Hill
#
# Bulk Modulus (GPa) = 43.92455 78.72722 61.32588
# Shear Modulus (GPa) = 48.45723 25.35586 36.90654
#
# Velocity S-wave (km/s) = 4.61127 3.33565 4.02432
# Velocity P-wave (km/s) = 6.90120 7.02725 6.96451
#
# Compressibility (1/GPa) = 0.02276631
#
# Stress axis : x y z
#
# Youngs Moduli (GPa) = 123.15813 118.43138 61.51192
#
# Poissons Ratio (x) = 0.61908 -0.05785
# Poissons Ratio (y) = 0.64379 0.04553
# Poissons Ratio (z) = -0.11582 0.08765
#
# Static dielectric constant tensor:
#      x y z
#    x 1.814960 0.000000 0.000000 
#    y 0.000000 1.805570 0.000000 
#    z 0.000000 0.000000 1.906330 
# 
# From -- ./inp_files/19369.got.cif
#   From: 2010.05.17/outbox.cif.g08.bks.cpg/sg56_10_cif.got.tgz:19369.got - 2010.06.03 13:42:01.
