data_PCOD9430342
_publ_section_title
;
Structure prediction by ZEFSAII (Michael W. Deem and Ramdas Pophale) SiO2 
 PCOD9430342
Probable space group: P C C N
;
_chemical_formula_sum "Si O2"
_cell_formula_units_Z 64
_cell_length_a 18.143178
_cell_length_b 11.605478
_cell_length_c 15.348471
_cell_angle_alpha 90.000000
_cell_angle_beta 90.000000
_cell_angle_gamma 90.000000
_cell_volume 3231.777939
_symmetry_space_group_name_H-M "P C C N"
_symmetry_group_IT_number 56
_symmetry_cell_setting 'orthorhombic'
loop_
_space_group_symop_operation_xyz
x,y,z
1/2-x,1/2-y,z
1/2+x,-y,1/2-z
-x,1/2+y,1/2-z
-x,-y,-z
1/2+x,1/2+y,-z
1/2-x,y,1/2+z
x,1/2-y,1/2+z
loop_
_atom_site_type_symbol
_atom_site_label
_atom_site_fract_x
_atom_site_fract_y
_atom_site_fract_z
Si Si1 0.905291 0.371770 0.137129
Si Si2 0.949333 0.761780 0.812536
Si Si3 0.329908 0.809490 0.682753
Si Si4 0.394122 0.879013 0.059438
Si Si5 0.675619 0.614046 0.369932
Si Si6 0.837232 0.935997 0.893321
Si Si7 0.671686 0.723932 0.040655
Si Si8 0.451665 0.133514 0.868202
O O1 0.858896 0.326096 0.218960
O O2 0.914206 0.509786 0.148130
O O3 0.984262 0.305835 0.141080
O O4 0.872588 0.356140 0.040433
O O5 0.882025 0.669964 0.802856
O O6 0.910120 0.869140 0.861318
O O7 0.978276 0.814375 0.722937
O O8 0.250000 0.750000 0.685165
O O9 0.377098 0.725284 0.622978
O O10 0.335275 0.931802 0.633443
O O11 0.482111 0.893186 0.066002
O O12 0.352993 0.990010 0.098822
O O13 0.761914 0.610661 0.347278
O O14 0.670825 0.694158 0.455292
O O15 0.830846 0.902400 0.996129
O O16 0.750000 0.750000 0.085398
O O17 0.603761 0.770331 0.095080
#
# Coordination Sequence:
#
# PCOD9430342 Si02
#       8
#     8   8   8   8   8   8   8   8
#     4  12  25  44  66  99 133 176 230 274 336 416
#     4  11  22  38  66  97 132 170 222 280 338 389
#     4  12  26  45  66  94 134 180 223 275 340 411
#     4  12  23  41  71  95 129 181 226 273 337 409
#     4  10  19  38  65  95 125 171 221 271 337 401
#     4  10  21  41  63  92 137 171 214 284 335 395
#     4   9  20  37  62  98 127 165 224 274 335 405
#     4  12  22  40  68  96 136 174 221 287 340 403
#
# _framework density 19.803342000000001
#
# number of rings (size 3 to 8) (size 9 to 14) (size 15 to 20)
#    0.000    1.000    6.250    3.000    0.000    1.500 
#    0.000    5.000    0.000    0.000    0.000    0.000 
#    0.000    0.000    0.000    0.000    0.000    0.000 
#
# Total GULP energy -356908.892573 kJ/mol
# GULP energy per Si atom -5576.701446 kJ/mol
# Density = 1.975827 g / cm^3
# Si number density = 19.803342 Si / 1000 Ang^3
#
#
#
# Elastic Constant Matrix: (Units=GPa)
#
#
# Indices 1 2 3 4 5 6 
#
# 1 71.9065 27.7170 6.8607 0.0000 0.0000 0.0000
# 2 27.7170 110.7292 40.5439 0.0000 0.0000 0.0000
# 3 6.8607 40.5439 79.3076 0.0000 0.0000 0.0000
# 4 0.0000 0.0000 0.0000 31.3680 0.0000 0.0000
# 5 0.0000 0.0000 0.0000 0.0000 10.3040 0.0000
# 6 0.0000 0.0000 0.0000 0.0000 0.0000 27.8531
#
#
#
# Elastic Compliance Matrix: (Units=1/GPa)
#
#
# Indices 1 2 3 4 5 6 
#
# 1 0.015432 -0.004151 0.000787 0.000000 0.000000 0.000000
# 2 -0.004151 0.012227 -0.005892 0.000000 0.000000 0.000000
# 3 0.000787 -0.005892 0.015553 0.000000 0.000000 0.000000
# 4 0.000000 0.000000 0.000000 0.031880 0.000000 0.000000
# 5 0.000000 0.000000 0.000000 0.000000 0.097050 0.000000
# 6 0.000000 0.000000 0.000000 0.000000 0.000000 0.035903
#
#
# Mechanical properties :
#
#
# Convention : Reuss Voigt Hill
#
# Bulk Modulus (GPa) = 40.48431 45.79849 43.14140
# Shear Modulus (GPa) = 21.29568 26.35980 23.82774
#
# Velocity S-wave (km/s) = 3.28282 3.65235 3.47251
# Velocity P-wave (km/s) = 5.90396 6.40024 6.15710
#
# Compressibility (1/GPa) = 0.02470092
#
# Stress axis : x y z
#
# Youngs Moduli (GPa) = 64.80087 81.78341 64.29595
#
# Poissons Ratio (x) = 0.33948 -0.05061
# Poissons Ratio (y) = 0.26899 0.37882
# Poissons Ratio (z) = -0.05101 0.48186
#
# Static dielectric constant tensor:
#      x y z
#    x 1.760910 0.000000 0.000000 
#    y 0.000000 1.728820 0.000000 
#    z 0.000000 0.000000 1.692430 
# 
# From -- ./inp_files/12857.got.cif
#   From: 2010.05.17/outbox.cif.g08.bks.cpg/sg56_7_cif.got.tgz:12857.got - 2010.06.03 13:42:01.
