data_PCOD9430765
_publ_section_title
;
Structure prediction by ZEFSAII (Michael W. Deem and Ramdas Pophale) SiO2 
 PCOD9430765
Probable space group: P C C N
;
_chemical_formula_sum "Si O2"
_cell_formula_units_Z 48
_cell_length_a 16.491284
_cell_length_b 8.676310
_cell_length_c 17.005186
_cell_angle_alpha 90.000000
_cell_angle_beta 90.000000
_cell_angle_gamma 90.000000
_cell_volume 2433.161400
_symmetry_space_group_name_H-M "P C C N"
_symmetry_group_IT_number 56
_symmetry_cell_setting 'orthorhombic'
loop_
_space_group_symop_operation_xyz
x,y,z
1/2-x,1/2-y,z
1/2+x,-y,1/2-z
-x,1/2+y,1/2-z
-x,-y,-z
1/2+x,1/2+y,-z
1/2-x,y,1/2+z
x,1/2-y,1/2+z
loop_
_atom_site_type_symbol
_atom_site_label
_atom_site_fract_x
_atom_site_fract_y
_atom_site_fract_z
Si Si1 0.667717 0.810302 0.092421
Si Si2 0.494632 0.183313 0.331975
Si Si3 0.332313 0.181162 0.583713
Si Si4 0.996657 0.187625 0.157751
Si Si5 0.330630 0.851261 0.848399
Si Si6 0.170132 0.850920 0.159051
O O1 0.750000 0.750000 0.134234
O O2 0.582889 0.756127 0.127611
O O3 0.672145 0.993980 0.100645
O O4 0.669226 0.733741 0.006465
O O5 0.491681 0.241472 0.243407
O O6 0.584543 0.230290 0.361395
O O7 0.490905 0.997829 0.338260
O O8 0.250000 0.250000 0.621350
O O9 0.421016 0.231061 0.613086
O O10 0.326303 0.001324 0.604850
O O11 0.911370 0.256479 0.128944
O O12 0.250000 0.750000 0.859281
O O13 0.334996 0.889721 0.753586
O O14 0.250000 0.750000 0.148134
#
# Coordination Sequence:
#
# PCOD9430765 Si02
#       6
#     8   8   8   8   8   8
#     4  11  23  39  57  83 121 159 197 241 296 360
#     4  10  20  37  61  89 119 153 198 248 298 349
#     4  10  23  39  55  83 120 158 197 237 294 355
#     4  10  21  37  60  88 117 152 198 248 295 350
#     4  10  21  39  63  92 118 151 199 248 300 353
#     4   9  20  38  62  89 117 151 195 245 293 348
#
# _framework density 19.727421
#
# number of rings (size 3 to 8) (size 9 to 14) (size 15 to 20)
#    0.000    2.000    0.000    4.000    0.000   11.333 
#    0.000    8.333    0.000    0.000    0.000    0.000 
#    0.000    0.000    0.000    0.000    0.000    0.000 
#
# Total GULP energy -267609.094130 kJ/mol
# GULP energy per Si atom -5575.189461 kJ/mol
# Density = 1.968252 g / cm^3
# Si number density = 19.727421 Si / 1000 Ang^3
#
#
#
# Elastic Constant Matrix: (Units=GPa)
#
#
# Indices 1 2 3 4 5 6 
#
# 1 240.3084 84.8337 60.8037 0.0000 0.0000 0.0000
# 2 84.8337 107.7919 46.2571 0.0000 0.0000 0.0000
# 3 60.8037 46.2571 47.4249 0.0000 0.0000 0.0000
# 4 0.0000 0.0000 0.0000 22.7780 0.0000 0.0000
# 5 0.0000 0.0000 0.0000 0.0000 72.6075 0.0000
# 6 0.0000 0.0000 0.0000 0.0000 0.0000 43.8315
#
#
#
# Elastic Compliance Matrix: (Units=1/GPa)
#
#
# Indices 1 2 3 4 5 6 
#
# 1 0.006581 -0.002680 -0.005823 0.000000 0.000000 0.000000
# 2 -0.002680 0.017047 -0.013191 0.000000 0.000000 0.000000
# 3 -0.005823 -0.013191 0.041418 0.000000 0.000000 0.000000
# 4 0.000000 0.000000 0.000000 0.043902 0.000000 0.000000
# 5 0.000000 0.000000 0.000000 0.000000 0.013773 0.000000
# 6 0.000000 0.000000 0.000000 0.000000 0.000000 0.022815
#
#
# Mechanical properties :
#
#
# Convention : Reuss Voigt Hill
#
# Bulk Modulus (GPa) = 46.17387 86.59045 66.38216
# Shear Modulus (GPa) = 25.49154 41.41877 33.45515
#
# Velocity S-wave (km/s) = 3.59860 4.58706 4.12256
# Velocity P-wave (km/s) = 6.38148 8.48785 7.50889
#
# Compressibility (1/GPa) = 0.02165727
#
# Stress axis : x y z
#
# Youngs Moduli (GPa) = 151.95445 58.66007 24.14418
#
# Poissons Ratio (x) = 0.15723 0.14059
# Poissons Ratio (y) = 0.40730 0.31849
# Poissons Ratio (z) = 0.88483 0.77379
#
# Static dielectric constant tensor:
#      x y z
#    x 1.755430 0.000000 0.000000 
#    y 0.000000 1.677060 0.000000 
#    z 0.000000 0.000000 1.445030 
# 
# From -- ./inp_files/16155.got.cif
#   From: 2010.05.17/outbox.cif.g08.bks.cpg/sg56_9_cif.got.tgz:16155.got - 2010.06.03 13:42:01.
