data_PCOD9430367
_publ_section_title
;
Structure prediction by ZEFSAII (Michael W. Deem and Ramdas Pophale) SiO2 
 PCOD9430367
Probable space group: P C C N
;
_chemical_formula_sum "Si O2"
_cell_formula_units_Z 44
_cell_length_a 14.467260
_cell_length_b 13.061399
_cell_length_c 11.163210
_cell_angle_alpha 90.000000
_cell_angle_beta 90.000000
_cell_angle_gamma 90.000000
_cell_volume 2109.429803
_symmetry_space_group_name_H-M "P C C N"
_symmetry_group_IT_number 56
_symmetry_cell_setting 'orthorhombic'
loop_
_space_group_symop_operation_xyz
x,y,z
1/2-x,1/2-y,z
1/2+x,-y,1/2-z
-x,1/2+y,1/2-z
-x,-y,-z
1/2+x,1/2+y,-z
1/2-x,y,1/2+z
x,1/2-y,1/2+z
loop_
_atom_site_type_symbol
_atom_site_label
_atom_site_fract_x
_atom_site_fract_y
_atom_site_fract_z
Si Si1 0.750000 0.750000 0.758670
Si Si2 0.144497 0.404270 0.884335
Si Si3 0.600621 0.187140 0.494342
Si Si4 0.568850 0.418355 0.747961
Si Si5 0.064560 0.212522 0.596580
Si Si6 0.801453 0.384389 0.047660
O O1 0.731356 0.652334 0.674181
O O2 0.659163 0.757949 0.839714
O O3 0.086718 0.462632 0.781063
O O4 0.173968 0.497019 0.972859
O O5 0.086691 0.324794 0.962058
O O6 0.566909 0.123104 0.380773
O O7 0.515027 0.202362 0.583618
O O8 0.640502 0.302852 0.469325
O O9 0.693217 0.133782 0.542296
O O10 0.482051 0.378452 0.672636
O O11 0.658586 0.367879 0.681844
#
# Coordination Sequence:
#
# PCOD9430367 Si02
#       6
#     4   8   8   8   8   8
#     4  12  26  44  66  94 134 186 222 274 328 406
#     4  10  23  44  64  92 134 181 222 262 340 399
#     4  10  19  39  64 100 131 162 219 280 331 391
#     4   9  21  39  66  97 127 175 221 265 339 396
#     4  11  23  42  66  94 134 175 224 283 326 394
#     4   8  21  37  65  96 133 170 214 276 331 396
#
# _framework density 20.858718
#
# number of rings (size 3 to 8) (size 9 to 14) (size 15 to 20)
#    1.091    1.091    0.000    2.182    2.545    5.818 
#    3.273    0.909    0.000    0.000    0.000    0.000 
#    0.000    0.000    0.000    0.000    0.000    0.000 
#
# Total GULP energy -245029.403101 kJ/mol
# GULP energy per Si atom -5568.850070 kJ/mol
# Density = 2.081124 g / cm^3
# Si number density = 20.858718 Si / 1000 Ang^3
#
#
#
# Elastic Constant Matrix: (Units=GPa)
#
#
# Indices 1 2 3 4 5 6 
#
# 1 124.0416 9.6602 29.9518 0.0000 0.0000 0.0000
# 2 9.6602 40.9217 15.5266 0.0000 0.0000 0.0000
# 3 29.9518 15.5266 32.1663 0.0000 0.0000 0.0000
# 4 0.0000 0.0000 0.0000 34.7405 0.0000 0.0000
# 5 0.0000 0.0000 0.0000 0.0000 25.2983 0.0000
# 6 0.0000 0.0000 0.0000 0.0000 0.0000 25.9527
#
#
#
# Elastic Compliance Matrix: (Units=1/GPa)
#
#
# Indices 1 2 3 4 5 6 
#
# 1 0.010475 0.001503 -0.010480 0.000000 0.000000 0.000000
# 2 0.001503 0.030132 -0.015944 0.000000 0.000000 0.000000
# 3 -0.010480 -0.015944 0.048543 0.000000 0.000000 0.000000
# 4 0.000000 0.000000 0.000000 0.028785 0.000000 0.000000
# 5 0.000000 0.000000 0.000000 0.000000 0.039528 0.000000
# 6 0.000000 0.000000 0.000000 0.000000 0.000000 0.038532
#
#
# Mechanical properties :
#
#
# Convention : Reuss Voigt Hill
#
# Bulk Modulus (GPa) = 25.43981 34.15633 29.79807
# Shear Modulus (GPa) = 19.30955 26.66436 22.98696
#
# Velocity S-wave (km/s) = 3.04588 3.57926 3.32329
# Velocity P-wave (km/s) = 4.95909 5.78723 5.38909
#
# Compressibility (1/GPa) = 0.03930848
#
# Stress axis : x y z
#
# Youngs Moduli (GPa) = 95.46318 33.18772 20.60024
#
# Poissons Ratio (x) = -0.04989 0.21589
# Poissons Ratio (y) = -0.14352 0.32846
# Poissons Ratio (z) = 1.00043 0.52916
#
# Static dielectric constant tensor:
#      x y z
#    x 1.726050 0.000000 0.000000 
#    y 0.000000 1.802790 0.000000 
#    z 0.000000 0.000000 1.736710 
# 
# From -- ./inp_files/7767.got.cif
#   From: 2010.05.17/outbox.cif.g08.bks.cpg/sg56_4_cif.got.tgz:7767.got - 2010.06.03 13:42:01.
