data_PCOD9430460
_publ_section_title
;
Structure prediction by ZEFSAII (Michael W. Deem and Ramdas Pophale) SiO2 
 PCOD9430460
Probable space group: P C C N
;
_chemical_formula_sum "Si O2"
_cell_formula_units_Z 52
_cell_length_a 15.630942
_cell_length_b 18.357611
_cell_length_c 9.166235
_cell_angle_alpha 90.000000
_cell_angle_beta 90.000000
_cell_angle_gamma 90.000000
_cell_volume 2630.221369
_symmetry_space_group_name_H-M "P C C N"
_symmetry_group_IT_number 56
_symmetry_cell_setting 'orthorhombic'
loop_
_space_group_symop_operation_xyz
x,y,z
1/2-x,1/2-y,z
1/2+x,-y,1/2-z
-x,1/2+y,1/2-z
-x,-y,-z
1/2+x,1/2+y,-z
1/2-x,y,1/2+z
x,1/2-y,1/2+z
loop_
_atom_site_type_symbol
_atom_site_label
_atom_site_fract_x
_atom_site_fract_y
_atom_site_fract_z
Si Si1 0.075846 0.182002 0.810576
Si Si2 0.426462 0.490233 0.883399
Si Si3 0.750000 0.750000 0.222407
Si Si4 0.023489 0.185610 0.472401
Si Si5 0.927194 0.449184 0.925196
Si Si6 0.258535 0.478691 0.036114
Si Si7 0.325738 0.389641 0.295328
O O1 0.075363 0.096053 0.842642
O O2 0.167071 0.217003 0.856123
O O3 0.062139 0.190874 0.635920
O O4 0.012344 0.234585 0.901275
O O5 0.445198 0.538777 0.744280
O O6 0.500000 0.500000 0.000000
O O7 0.334191 0.513834 0.943243
O O8 0.788300 0.678693 0.294886
O O9 0.085461 0.139003 0.362470
O O10 0.941400 0.132940 0.479075
O O11 0.830026 0.477515 0.946662
O O12 0.000000 0.500000 0.000000
O O13 0.306866 0.455696 0.185480
O O14 0.227216 0.410098 0.939721
#
# Coordination Sequence:
#
# PCOD9430460 Si02
#       7
#     8   8   4   8   8   8   8
#     4  11  24  41  62 104 137 182 223 275 352 417
#     4  12  26  42  68 102 136 178 236 284 342 415
#     4  10  20  32  54  86 142 170 206 250 332 424
#     4  11  25  40  66  96 140 180 221 277 341 415
#     4  12  23  44  65  93 137 185 222 282 339 403
#     4  12  23  40  61  96 133 171 233 273 337 396
#     4  11  21  35  57  90 135 176 210 269 328 410
#
# _framework density 19.770198000000001
#
# number of rings (size 3 to 8) (size 9 to 14) (size 15 to 20)
#    0.000    0.615    6.154    1.846    6.462    3.077 
#    0.000    0.000    0.000    0.923    0.000    0.000 
#    0.000    0.000    0.000    0.000    0.000    0.000 
#
# Total GULP energy -289618.709943 kJ/mol
# GULP energy per Si atom -5569.590576 kJ/mol
# Density = 1.972520 g / cm^3
# Si number density = 19.770198 Si / 1000 Ang^3
#
#
#
# Elastic Constant Matrix: (Units=GPa)
#
#
# Indices 1 2 3 4 5 6 
#
# 1 73.5775 12.4911 29.1328 0.0000 0.0000 0.0000
# 2 12.4911 65.2658 16.3421 0.0000 0.0000 0.0000
# 3 29.1328 16.3421 107.5679 0.0000 0.0000 0.0000
# 4 0.0000 0.0000 0.0000 26.3570 0.0000 0.0000
# 5 0.0000 0.0000 0.0000 0.0000 27.9798 0.0000
# 6 0.0000 0.0000 0.0000 0.0000 0.0000 25.7914
#
#
#
# Elastic Compliance Matrix: (Units=1/GPa)
#
#
# Indices 1 2 3 4 5 6 
#
# 1 0.015468 -0.001987 -0.003887 0.000000 0.000000 0.000000
# 2 -0.001987 0.016183 -0.001920 0.000000 0.000000 0.000000
# 3 -0.003887 -0.001920 0.010641 0.000000 0.000000 0.000000
# 4 0.000000 0.000000 0.000000 0.037941 0.000000 0.000000
# 5 0.000000 0.000000 0.000000 0.000000 0.035740 0.000000
# 6 0.000000 0.000000 0.000000 0.000000 0.000000 0.038773
#
#
# Mechanical properties :
#
#
# Convention : Reuss Voigt Hill
#
# Bulk Modulus (GPa) = 37.44989 40.26035 38.85512
# Shear Modulus (GPa) = 27.89632 28.58865 28.24249
#
# Velocity S-wave (km/s) = 3.76044 3.80682 3.78370
# Velocity P-wave (km/s) = 6.15128 6.30324 6.22773
#
# Compressibility (1/GPa) = 0.02670235
#
# Stress axis : x y z
#
# Youngs Moduli (GPa) = 64.65132 61.79284 93.97607
#
# Poissons Ratio (x) = 0.12278 0.36531
# Poissons Ratio (y) = 0.12846 0.18048
# Poissons Ratio (z) = 0.25132 0.11867
#
# Static dielectric constant tensor:
#      x y z
#    x 1.707100 0.000000 0.000000 
#    y 0.000000 1.738460 0.000000 
#    z 0.000000 0.000000 1.732500 
# 
# From -- ./inp_files/3537.got.cif
#   From: 2010.05.17/outbox.cif.g08.bks.cpg/sg56_2_cif.got.tgz:3537.got - 2010.06.03 13:42:01.
