data_PCOD9430060
_publ_section_title
;
Structure prediction by ZEFSAII (Michael W. Deem and Ramdas Pophale) SiO2 
 PCOD9430060
Probable space group: P C C N
;
_chemical_formula_sum "Si O2"
_cell_formula_units_Z 56
_cell_length_a 16.349164
_cell_length_b 14.626942
_cell_length_c 8.858615
_cell_angle_alpha 90.000000
_cell_angle_beta 90.000000
_cell_angle_gamma 90.000000
_cell_volume 2118.433897
_symmetry_space_group_name_H-M "P C C N"
_symmetry_group_IT_number 56
_symmetry_cell_setting 'orthorhombic'
loop_
_space_group_symop_operation_xyz
x,y,z
1/2-x,1/2-y,z
1/2+x,-y,1/2-z
-x,1/2+y,1/2-z
-x,-y,-z
1/2+x,1/2+y,-z
1/2-x,y,1/2+z
x,1/2-y,1/2+z
loop_
_atom_site_type_symbol
_atom_site_label
_atom_site_fract_x
_atom_site_fract_y
_atom_site_fract_z
Si Si1 0.950060 0.014028 0.345558
Si Si2 0.081915 0.432084 0.621906
Si Si3 0.364786 0.641223 0.069011
Si Si4 0.783550 0.577547 0.126397
Si Si5 0.290373 0.894901 0.275595
Si Si6 0.175097 0.313274 0.163516
Si Si7 0.465458 0.175404 0.332307
O O1 0.955665 0.913893 0.272681
O O2 0.860291 0.059442 0.331539
O O3 0.000000 0.000000 0.500000
O O4 0.005593 0.072498 0.233127
O O5 0.094858 0.537710 0.561378
O O6 0.159800 0.423123 0.727354
O O7 0.069155 0.359896 0.490702
O O8 0.285831 0.641826 0.178653
O O9 0.440341 0.699691 0.136972
O O10 0.334763 0.667314 0.901449
O O11 0.748196 0.475537 0.118215
O O12 0.709015 0.637825 0.185651
O O13 0.828766 0.618213 0.980414
O O14 0.250000 0.250000 0.116037
O O15 0.404237 0.262587 0.733933
#
# Coordination Sequence:
#
# PCOD9430060 Si02
#       7
#     8   8   8   8   8   8   8
#     4  11  20  31  52  82 117 159 204 239 287 365
#     4  10  19  33  54  75 112 162 198 235 294 359
#     4  10  20  31  49  79 114 155 198 241 284 363
#     4  11  22  36  55  81 113 154 201 249 302 358
#     4  11  20  33  53  81 118 161 199 234 296 369
#     4  12  24  39  58  78 106 155 209 261 309 359
#     4  11  20  38  51  74 115 158 207 252 303 353
#
# _framework density 26.434622000000001
#
# number of rings (size 3 to 8) (size 9 to 14) (size 15 to 20)
#    0.000    1.143    4.286    4.714    6.000    0.000 
#    0.000    0.714    0.000    0.000    0.000    0.000 
#    0.000    1.143    1.143    1.571    0.857    0.000 
#
# Total GULP energy -313149.155331 kJ/mol
# GULP energy per Si atom -5591.949202 kJ/mol
# Density = 2.637446 g / cm^3
# Si number density = 26.434622 Si / 1000 Ang^3
#
#
#
# Elastic Constant Matrix: (Units=GPa)
#
#
# Indices 1 2 3 4 5 6 
#
# 1 180.3474 0.0915 81.8631 0.0000 0.0000 0.0000
# 2 0.0915 27.0392 14.2451 0.0000 0.0000 0.0000
# 3 81.8631 14.2451 198.7736 0.0000 0.0000 0.0000
# 4 0.0000 0.0000 0.0000 25.6131 0.0000 0.0000
# 5 0.0000 0.0000 0.0000 0.0000 72.0752 0.0000
# 6 0.0000 0.0000 0.0000 0.0000 0.0000 17.7644
#
#
#
# Elastic Compliance Matrix: (Units=1/GPa)
#
#
# Indices 1 2 3 4 5 6 
#
# 1 0.006880 0.001527 -0.002943 0.000000 0.000000 0.000000
# 2 0.001527 0.038773 -0.003408 0.000000 0.000000 0.000000
# 3 -0.002943 -0.003408 0.006487 0.000000 0.000000 0.000000
# 4 0.000000 0.000000 0.000000 0.039043 0.000000 0.000000
# 5 0.000000 0.000000 0.000000 0.000000 0.013874 0.000000
# 6 0.000000 0.000000 0.000000 0.000000 0.000000 0.056293
#
#
# Mechanical properties :
#
#
# Convention : Reuss Voigt Hill
#
# Bulk Modulus (GPa) = 23.53293 66.50664 45.01979
# Shear Modulus (GPa) = 27.00351 43.75456 35.37903
#
# Velocity S-wave (km/s) = 3.19959 4.07283 3.66233
# Velocity P-wave (km/s) = 4.75095 6.87974 5.91195
#
# Compressibility (1/GPa) = 0.04249364
#
# Stress axis : x y z
#
# Youngs Moduli (GPa) = 145.35095 25.79084 154.15333
#
# Poissons Ratio (x) = -0.03939 0.45365
# Poissons Ratio (y) = -0.22197 0.52530
# Poissons Ratio (z) = 0.42775 0.08789
#
# Static dielectric constant tensor:
#      x y z
#    x 2.317050 0.000000 0.000000 
#    y 0.000000 2.358470 0.000000 
#    z 0.000000 0.000000 1.989960 
# 
# From -- ./inp_files/4254.got.cif
#   From: 2010.05.17/outbox.cif.g08.bks.cpg/sg56_3_cif.got.tgz:4254.got - 2010.06.03 13:42:01.
