data_PCOD9430317
_publ_section_title
;
Structure prediction by ZEFSAII (Michael W. Deem and Ramdas Pophale) SiO2 
 PCOD9430317
Probable space group: P C C N
;
_chemical_formula_sum "Si O2"
_cell_formula_units_Z 60
_cell_length_a 10.966759
_cell_length_b 7.592967
_cell_length_c 29.023093
_cell_angle_alpha 90.000000
_cell_angle_beta 90.000000
_cell_angle_gamma 90.000000
_cell_volume 2416.759896
_symmetry_space_group_name_H-M "P C C N"
_symmetry_group_IT_number 56
_symmetry_cell_setting 'orthorhombic'
loop_
_space_group_symop_operation_xyz
x,y,z
1/2-x,1/2-y,z
1/2+x,-y,1/2-z
-x,1/2+y,1/2-z
-x,-y,-z
1/2+x,1/2+y,-z
1/2-x,y,1/2+z
x,1/2-y,1/2+z
loop_
_atom_site_type_symbol
_atom_site_label
_atom_site_fract_x
_atom_site_fract_y
_atom_site_fract_z
Si Si1 0.023501 0.541656 0.196785
Si Si2 0.402688 0.179856 0.038801
Si Si3 0.274705 0.057384 0.839940
Si Si4 0.844115 0.471497 0.433275
Si Si5 0.526005 0.961717 0.698297
Si Si6 0.250000 0.750000 0.495194
Si Si7 0.777254 0.059660 0.831189
Si Si8 0.133757 0.057078 0.443207
O O1 0.058576 0.498103 0.248988
O O2 0.141148 0.480479 0.167195
O O3 0.890059 0.464350 0.184328
O O4 0.000292 0.752402 0.190472
O O5 0.436015 0.368743 0.060022
O O6 0.280985 0.078573 0.055637
O O7 0.507720 0.047842 0.053759
O O8 0.382063 0.201092 0.983552
O O9 0.250000 0.250000 0.817773
O O10 0.139147 0.976717 0.833758
O O11 0.323368 0.093917 0.891775
O O12 0.854029 0.313097 0.469102
O O13 0.831358 0.405909 0.381890
O O14 0.389623 0.042423 0.691848
O O15 0.226512 0.915425 0.463922
O O16 0.750000 0.250000 0.808143
#
# Coordination Sequence:
#
# PCOD9430317 Si02
#       8
#     8   8   8   8   8   4   8   8
#     4  10  21  42  64  86 120 160 201 251 316 381
#     4   9  21  37  60  80 123 164 211 247 303 370
#     4  10  22  39  65  90 125 162 207 253 311 385
#     4  10  19  38  57  87 117 159 206 252 299 362
#     4  10  22  41  62  92 117 159 201 255 322 375
#     4  10  22  34  58  84 124 156 200 256 302 364
#     4  10  20  37  64  88 122 160 204 250 310 384
#     4  10  21  40  56  89 121 166 205 253 311 363
#
# _framework density 24.826627999999999
#
# number of rings (size 3 to 8) (size 9 to 14) (size 15 to 20)
#    0.000    2.133    0.667    1.600    3.733    1.600 
#   12.000    0.000    0.000    0.000    0.000    0.000 
#    0.000    0.000    0.000    0.000    0.000    0.000 
#
# Total GULP energy -334505.552332 kJ/mol
# GULP energy per Si atom -5575.092539 kJ/mol
# Density = 2.477012 g / cm^3
# Si number density = 24.826628 Si / 1000 Ang^3
#
#
#
# Elastic Constant Matrix: (Units=GPa)
#
#
# Indices 1 2 3 4 5 6 
#
# 1 161.0353 8.1144 26.4647 0.0000 0.0000 0.0000
# 2 8.1144 61.2367 -12.8773 0.0000 0.0000 0.0000
# 3 26.4647 -12.8773 81.4365 0.0000 0.0000 0.0000
# 4 0.0000 0.0000 0.0000 23.4137 0.0000 0.0000
# 5 0.0000 0.0000 0.0000 0.0000 32.8940 0.0000
# 6 0.0000 0.0000 0.0000 0.0000 0.0000 13.4732
#
#
#
# Elastic Compliance Matrix: (Units=1/GPa)
#
#
# Indices 1 2 3 4 5 6 
#
# 1 0.006672 -0.001386 -0.002387 0.000000 0.000000 0.000000
# 2 -0.001386 0.017180 0.003167 0.000000 0.000000 0.000000
# 3 -0.002387 0.003167 0.013556 0.000000 0.000000 0.000000
# 4 0.000000 0.000000 0.000000 0.042710 0.000000 0.000000
# 5 0.000000 0.000000 0.000000 0.000000 0.030401 0.000000
# 6 0.000000 0.000000 0.000000 0.000000 0.000000 0.074222
#
#
# Mechanical properties :
#
#
# Convention : Reuss Voigt Hill
#
# Bulk Modulus (GPa) = 27.62821 38.56799 33.09810
# Shear Modulus (GPa) = 25.25021 32.75662 29.00342
#
# Velocity S-wave (km/s) = 3.19260 3.63632 3.42166
# Velocity P-wave (km/s) = 4.97422 5.76186 5.38247
#
# Compressibility (1/GPa) = 0.03619490
#
# Stress axis : x y z
#
# Youngs Moduli (GPa) = 149.87976 58.20807 73.76726
#
# Poissons Ratio (x) = 0.08068 0.17611
# Poissons Ratio (y) = 0.20776 -0.23362
# Poissons Ratio (z) = 0.35782 -0.18435
#
# Static dielectric constant tensor:
#      x y z
#    x 2.146370 0.000000 0.000000 
#    y 0.000000 2.015020 0.000000 
#    z 0.000000 0.000000 1.925010 
# 
# From -- ./inp_files/23503.got.cif
#   From: 2010.05.17/outbox.cif.g08.bks.cpg/sg56_12_cif.got.tgz:23503.got - 2010.06.03 13:42:01.
