data_PCOD9430579
_publ_section_title
;
Structure prediction by ZEFSAII (Michael W. Deem and Ramdas Pophale) SiO2 
 PCOD9430579
Probable space group: P C C N
;
_chemical_formula_sum "Si O2"
_cell_formula_units_Z 56
_cell_length_a 12.541083
_cell_length_b 20.353802
_cell_length_c 10.036155
_cell_angle_alpha 90.000000
_cell_angle_beta 90.000000
_cell_angle_gamma 90.000000
_cell_volume 2561.816082
_symmetry_space_group_name_H-M "P C C N"
_symmetry_group_IT_number 56
_symmetry_cell_setting 'orthorhombic'
loop_
_space_group_symop_operation_xyz
x,y,z
1/2-x,1/2-y,z
1/2+x,-y,1/2-z
-x,1/2+y,1/2-z
-x,-y,-z
1/2+x,1/2+y,-z
1/2-x,y,1/2+z
x,1/2-y,1/2+z
loop_
_atom_site_type_symbol
_atom_site_label
_atom_site_fract_x
_atom_site_fract_y
_atom_site_fract_z
Si Si1 0.119278 0.973143 0.009454
Si Si2 0.139551 0.217956 0.134635
Si Si3 0.841025 0.030483 0.584671
Si Si4 0.155347 0.639078 0.700572
Si Si5 0.497112 0.251489 0.878232
Si Si6 0.396032 0.074916 0.726581
Si Si7 0.603168 0.114621 0.833248
O O1 0.156044 0.021658 0.129711
O O2 0.125065 0.900338 0.066896
O O3 0.212914 0.977963 0.902572
O O4 0.000000 0.000000 0.000000
O O5 0.250000 0.250000 0.089925
O O6 0.092716 0.254342 0.263982
O O7 0.155035 0.143812 0.187534
O O8 0.053529 0.221970 0.015141
O O9 0.879116 0.089933 0.680828
O O10 0.870441 0.057312 0.438938
O O11 0.885579 0.960022 0.629567
O O12 0.282949 0.643343 0.711094
O O13 0.094508 0.706841 0.683135
O O14 0.537043 0.176252 0.893949
O O15 0.524012 0.087656 0.718892
#
# Coordination Sequence:
#
# PCOD9430579 Si02
#       7
#     8   8   8   8   8   8   8
#     4  10  20  35  57  84 119 157 201 253 311 379
#     4  11  25  43  63  92 128 168 218 268 321 387
#     4  10  21  38  61  90 124 167 213 266 325 389
#     4  10  21  37  59  90 122 158 205 259 317 380
#     4  11  23  41  65  93 125 169 211 264 327 388
#     4  10  22  38  60  88 120 165 213 266 322 380
#     4  10  21  38  60  89 125 162 209 264 323 391
#
# _framework density 21.859491999999999
#
# number of rings (size 3 to 8) (size 9 to 14) (size 15 to 20)
#    0.000    1.714    0.000    3.857    0.000    8.000 
#    0.000   10.000    0.000    0.000    0.000    0.000 
#    0.000    0.000    0.000    0.000    0.000    0.000 
#
# Total GULP energy -312242.895961 kJ/mol
# GULP energy per Si atom -5575.765999 kJ/mol
# Density = 2.180974 g / cm^3
# Si number density = 21.859492 Si / 1000 Ang^3
#
#
#
# Elastic Constant Matrix: (Units=GPa)
#
#
# Indices 1 2 3 4 5 6 
#
# 1 102.1803 31.3619 8.5625 0.0000 0.0000 0.0000
# 2 31.3619 99.4566 21.5048 0.0000 0.0000 0.0000
# 3 8.5625 21.5048 61.2416 0.0000 0.0000 0.0000
# 4 0.0000 0.0000 0.0000 19.6314 0.0000 0.0000
# 5 0.0000 0.0000 0.0000 0.0000 37.5717 0.0000
# 6 0.0000 0.0000 0.0000 0.0000 0.0000 33.8669
#
#
#
# Elastic Compliance Matrix: (Units=1/GPa)
#
#
# Indices 1 2 3 4 5 6 
#
# 1 0.010842 -0.003345 -0.000341 0.000000 0.000000 0.000000
# 2 -0.003345 0.011913 -0.003715 0.000000 0.000000 0.000000
# 3 -0.000341 -0.003715 0.017681 0.000000 0.000000 0.000000
# 4 0.000000 0.000000 0.000000 0.050939 0.000000 0.000000
# 5 0.000000 0.000000 0.000000 0.000000 0.026616 0.000000
# 6 0.000000 0.000000 0.000000 0.000000 0.000000 0.029527
#
#
# Mechanical properties :
#
#
# Convention : Reuss Voigt Hill
#
# Bulk Modulus (GPa) = 39.01315 42.85964 40.93640
# Shear Modulus (GPa) = 29.26280 31.64394 30.45337
#
# Velocity S-wave (km/s) = 3.66276 3.80887 3.73653
# Velocity P-wave (km/s) = 5.98112 6.24442 6.11419
#
# Compressibility (1/GPa) = 0.02563238
#
# Stress axis : x y z
#
# Youngs Moduli (GPa) = 92.23482 83.94334 56.55733
#
# Poissons Ratio (x) = 0.28079 0.01930
# Poissons Ratio (y) = 0.30853 0.21014
# Poissons Ratio (z) = 0.03148 0.31189
#
# Static dielectric constant tensor:
#      x y z
#    x 1.861900 0.000000 0.000000 
#    y 0.000000 1.790740 0.000000 
#    z 0.000000 0.000000 1.921360 
# 
# From -- ./inp_files/7269.got.cif
#   From: 2010.05.17/outbox.cif.g08.bks.cpg/sg56_4_cif.got.tgz:7269.got - 2010.06.03 13:42:01.
