data_PCOD9430333
_publ_section_title
;
Structure prediction by ZEFSAII (Michael W. Deem and Ramdas Pophale) SiO2 
 PCOD9430333
Probable space group: P C C N
;
_chemical_formula_sum "Si O2"
_cell_formula_units_Z 60
_cell_length_a 26.947823
_cell_length_b 11.862671
_cell_length_c 8.760030
_cell_angle_alpha 90.000000
_cell_angle_beta 90.000000
_cell_angle_gamma 90.000000
_cell_volume 2800.346458
_symmetry_space_group_name_H-M "P C C N"
_symmetry_group_IT_number 56
_symmetry_cell_setting 'orthorhombic'
loop_
_space_group_symop_operation_xyz
x,y,z
1/2-x,1/2-y,z
1/2+x,-y,1/2-z
-x,1/2+y,1/2-z
-x,-y,-z
1/2+x,1/2+y,-z
1/2-x,y,1/2+z
x,1/2-y,1/2+z
loop_
_atom_site_type_symbol
_atom_site_label
_atom_site_fract_x
_atom_site_fract_y
_atom_site_fract_z
Si Si1 0.844586 0.879543 0.039094
Si Si2 0.320624 0.447463 0.311562
Si Si3 0.694666 0.301204 0.775820
Si Si4 0.250000 0.250000 0.874069
Si Si5 0.585253 0.824641 0.058588
Si Si6 0.467787 0.889237 0.536175
Si Si7 0.644143 0.376007 0.080688
Si Si8 0.982004 0.718945 0.807114
O O1 0.805587 0.798054 0.118197
O O2 0.893580 0.802975 0.032893
O O3 0.845797 0.995792 0.129316
O O4 0.828092 0.907980 0.865662
O O5 0.311261 0.580835 0.314471
O O6 0.273052 0.380028 0.372442
O O7 0.370482 0.408690 0.398728
O O8 0.750000 0.250000 0.762851
O O9 0.653837 0.211817 0.715574
O O10 0.681802 0.333890 0.949611
O O11 0.547433 0.806061 0.197726
O O12 0.557504 0.854801 0.902300
O O13 0.409708 0.891133 0.498120
O O14 0.480731 0.855036 0.708145
O O15 0.488870 0.790569 0.430407
O O16 0.500000 0.000000 0.500000
#
# Coordination Sequence:
#
# PCOD9430333 Si02
#       8
#     8   8   8   4   8   8   8   8
#     4  10  20  37  63  85 129 161 203 260 331 379
#     4  10  21  37  60  91 130 161 214 261 331 381
#     4  11  24  42  64  90 129 174 221 269 319 387
#     4  10  20  34  60 100 120 160 206 264 318 398
#     4  10  19  38  63  95 124 167 205 272 331 394
#     4  11  24  43  68  96 134 178 220 279 340 403
#     4  11  23  43  64  89 129 171 219 261 325 388
#     4  10  21  40  64  95 129 163 224 261 333 391
#
# _framework density 21.425920000000001
#
# number of rings (size 3 to 8) (size 9 to 14) (size 15 to 20)
#    0.000    1.600    1.333    4.000    1.867    1.067 
#    7.200    1.333    0.000    0.000    0.000    0.000 
#    0.000    0.000    0.000    0.000    0.000    0.000 
#
# Total GULP energy -334085.540762 kJ/mol
# GULP energy per Si atom -5568.092346 kJ/mol
# Density = 2.137715 g / cm^3
# Si number density = 21.425920 Si / 1000 Ang^3
#
#
#
# Elastic Constant Matrix: (Units=GPa)
#
#
# Indices 1 2 3 4 5 6 
#
# 1 61.7906 7.8279 -9.0767 0.0000 0.0000 0.0000
# 2 7.8279 108.3091 4.9220 0.0000 0.0000 0.0000
# 3 -9.0767 4.9220 47.2986 0.0000 0.0000 0.0000
# 4 0.0000 0.0000 0.0000 -11.9178 0.0000 0.0000
# 5 0.0000 0.0000 0.0000 0.0000 27.9792 0.0000
# 6 0.0000 0.0000 0.0000 0.0000 0.0000 13.3982
#
#
#
# Elastic Compliance Matrix: (Units=1/GPa)
#
#
# Indices 1 2 3 4 5 6 
#
# 1 0.016853 -0.001372 0.003377 0.000000 0.000000 0.000000
# 2 -0.001372 0.009388 -0.001240 0.000000 0.000000 0.000000
# 3 0.003377 -0.001240 0.021919 0.000000 0.000000 0.000000
# 4 0.000000 0.000000 0.000000 -0.083908 0.000000 0.000000
# 5 0.000000 0.000000 0.000000 0.000000 0.035741 0.000000
# 6 0.000000 0.000000 0.000000 0.000000 0.000000 0.074637
#
#
# Mechanical properties :
#
#
# Convention : Reuss Voigt Hill
#
# Bulk Modulus (GPa) = 20.12411 24.97165 22.54788
# Shear Modulus (GPa) = 55.76345 20.14025 37.95185
#
# Velocity S-wave (km/s) = 5.10712 3.06926 4.21325
# Velocity P-wave (km/s) = 6.64753 4.92348 5.84937
#
# Compressibility (1/GPa) = 0.04969164
#
# Stress axis : x y z
#
# Youngs Moduli (GPa) = 59.33490 106.51532 45.62174
#
# Poissons Ratio (x) = 0.14609 -0.15406
# Poissons Ratio (y) = 0.08138 0.05658
# Poissons Ratio (z) = -0.20037 0.13210
#
# Static dielectric constant tensor:
#      x y z
#    x 1.805910 0.000000 0.000000 
#    y 0.000000 1.850310 0.000000 
#    z 0.000000 0.000000 1.813910 
# 
# From -- ./inp_files/2913.got.cif
#   From: 2010.05.17/outbox.cif.g08.bks.cpg/sg56_2_cif.got.tgz:2913.got - 2010.06.03 13:42:01.
