data_PCOD9430636
_publ_section_title
;
Structure prediction by ZEFSAII (Michael W. Deem and Ramdas Pophale) SiO2 
 PCOD9430636
Probable space group: P C C N
;
_chemical_formula_sum "Si O2"
_cell_formula_units_Z 52
_cell_length_a 16.911363
_cell_length_b 16.190092
_cell_length_c 7.695425
_cell_angle_alpha 90.000000
_cell_angle_beta 90.000000
_cell_angle_gamma 90.000000
_cell_volume 2106.980607
_symmetry_space_group_name_H-M "P C C N"
_symmetry_group_IT_number 56
_symmetry_cell_setting 'orthorhombic'
loop_
_space_group_symop_operation_xyz
x,y,z
1/2-x,1/2-y,z
1/2+x,-y,1/2-z
-x,1/2+y,1/2-z
-x,-y,-z
1/2+x,1/2+y,-z
1/2-x,y,1/2+z
x,1/2-y,1/2+z
loop_
_atom_site_type_symbol
_atom_site_label
_atom_site_fract_x
_atom_site_fract_y
_atom_site_fract_z
Si Si1 0.174007 0.922022 0.969638
Si Si2 0.174417 0.355514 0.070614
Si Si3 0.087165 0.826542 0.352431
Si Si4 0.478274 0.660144 0.976442
Si Si5 0.750000 0.250000 0.585465
Si Si6 0.665889 0.012477 0.151606
Si Si7 0.148927 0.168520 0.974299
O O1 0.090581 0.894107 0.887051
O O2 0.154523 0.972435 0.143654
O O3 0.220367 0.834842 0.004871
O O4 0.239345 0.972219 0.865293
O O5 0.145494 0.429847 0.949988
O O6 0.150281 0.268215 0.986647
O O7 0.270244 0.357826 0.066501
O O8 0.149774 0.356758 0.271863
O O9 0.039939 0.849202 0.180111
O O10 0.036555 0.757744 0.448745
O O11 0.170053 0.778005 0.317904
O O12 0.116573 0.911860 0.435151
O O13 0.568001 0.638718 0.938378
#
# Coordination Sequence:
#
# PCOD9430636 Si02
#       7
#     8   8   8   8   4   8   8
#     4   9  19  33  56  85 120 153 183 226 276 333
#     4  11  23  41  65  83 105 147 200 243 281 335
#     4   9  19  33  57  85 119 153 182 226 277 333
#     4  10  20  36  55  85 117 147 187 230 280 336
#     4   8  16  30  52  82 116 160 194 208 256 352
#     4  10  20  36  58  89 117 149 189 230 278 336
#     4  11  23  41  62  81 103 146 196 242 283 336
#
# _framework density 24.679866000000001
#
# number of rings (size 3 to 8) (size 9 to 14) (size 15 to 20)
#    0.000    2.154    0.000    3.692    0.000   18.462 
#    0.000    7.692    0.000    0.000    0.000    0.000 
#    0.000    0.000    0.000    0.000    0.000    0.000 
#
# Total GULP energy -290430.408446 kJ/mol
# GULP energy per Si atom -5585.200162 kJ/mol
# Density = 2.462369 g / cm^3
# Si number density = 24.679866 Si / 1000 Ang^3
#
#
#
# Elastic Constant Matrix: (Units=GPa)
#
#
# Indices 1 2 3 4 5 6 
#
# 1 116.6274 13.7608 21.5033 0.0000 0.0000 0.0000
# 2 13.7608 94.1724 3.8573 0.0000 0.0000 0.0000
# 3 21.5033 3.8573 15.9573 0.0000 0.0000 0.0000
# 4 0.0000 0.0000 0.0000 25.6616 0.0000 0.0000
# 5 0.0000 0.0000 0.0000 0.0000 23.3447 0.0000
# 6 0.0000 0.0000 0.0000 0.0000 0.0000 12.8958
#
#
#
# Elastic Compliance Matrix: (Units=1/GPa)
#
#
# Indices 1 2 3 4 5 6 
#
# 1 0.011512 -0.001057 -0.015258 0.000000 0.000000 0.000000
# 2 -0.001057 0.010822 -0.001191 0.000000 0.000000 0.000000
# 3 -0.015258 -0.001191 0.083516 0.000000 0.000000 0.000000
# 4 0.000000 0.000000 0.000000 0.038969 0.000000 0.000000
# 5 0.000000 0.000000 0.000000 0.000000 0.042836 0.000000
# 6 0.000000 0.000000 0.000000 0.000000 0.000000 0.077545
#
#
# Mechanical properties :
#
#
# Convention : Reuss Voigt Hill
#
# Bulk Modulus (GPa) = 14.11676 33.88887 24.00281
# Shear Modulus (GPa) = 15.44041 24.88948 20.16494
#
# Velocity S-wave (km/s) = 2.50397 3.17912 2.86153
# Velocity P-wave (km/s) = 3.75396 5.21890 4.54583
#
# Compressibility (1/GPa) = 0.07083780
#
# Stress axis : x y z
#
# Youngs Moduli (GPa) = 86.86415 92.40351 11.97373
#
# Poissons Ratio (x) = 0.09769 0.18269
# Poissons Ratio (y) = 0.09184 0.01426
# Poissons Ratio (z) = 1.32536 0.11008
#
# Static dielectric constant tensor:
#      x y z
#    x 1.962870 0.000000 0.000000 
#    y 0.000000 2.014780 0.000000 
#    z 0.000000 0.000000 1.972110 
# 
# From -- ./inp_files/4105.got.cif
#   From: 2010.05.17/outbox.cif.g08.bks.cpg/sg56_3_cif.got.tgz:4105.got - 2010.06.03 13:42:01.
