data_PCOD9430196
_publ_section_title
;
Structure prediction by ZEFSAII (Michael W. Deem and Ramdas Pophale) SiO2 
 PCOD9430196
Probable space group: P C C N
;
_chemical_formula_sum "Si O2"
_cell_formula_units_Z 24
_cell_length_a 10.202531
_cell_length_b 9.427771
_cell_length_c 9.504334
_cell_angle_alpha 90.000000
_cell_angle_beta 90.000000
_cell_angle_gamma 90.000000
_cell_volume 914.194571
_symmetry_space_group_name_H-M "P C C N"
_symmetry_group_IT_number 56
_symmetry_cell_setting 'orthorhombic'
loop_
_space_group_symop_operation_xyz
x,y,z
1/2-x,1/2-y,z
1/2+x,-y,1/2-z
-x,1/2+y,1/2-z
-x,-y,-z
1/2+x,1/2+y,-z
1/2-x,y,1/2+z
x,1/2-y,1/2+z
loop_
_atom_site_type_symbol
_atom_site_label
_atom_site_fract_x
_atom_site_fract_y
_atom_site_fract_z
Si Si1 0.639578 0.142428 0.021580
Si Si2 0.565348 0.644547 0.044958
Si Si3 0.375246 0.119334 0.155642
O O1 0.750000 0.250000 0.075993
O O2 0.549083 0.240522 0.919540
O O3 0.688372 0.007414 0.933883
O O4 0.533972 0.088412 0.136179
O O5 0.654181 0.620171 0.180640
O O6 0.500000 0.500000 0.000000
O O7 0.628326 0.724706 0.912586
#
# Coordination Sequence:
#
# PCOD9430196 Si02
#       3
#     8   8   8
#     4   9  20  36  60  86 120 159 211 253 305 383
#     4  10  19  35  60  86 122 164 201 251 323 363
#     4   9  20  37  60  86 123 164 203 258 318 371
#
# _framework density 26.252616
#
# number of rings (size 3 to 8) (size 9 to 14) (size 15 to 20)
#    2.000    0.667    0.000    2.000    0.000    1.333 
#    0.000    1.667    0.000    4.000    0.000    0.000 
#    0.000    0.000    0.000    0.000    0.000    0.000 
#
# Total GULP energy -134078.977438 kJ/mol
# GULP energy per Si atom -5586.624060 kJ/mol
# Density = 2.619286 g / cm^3
# Si number density = 26.252616 Si / 1000 Ang^3
#
#
#
# Elastic Constant Matrix: (Units=GPa)
#
#
# Indices 1 2 3 4 5 6 
#
# 1 70.8752 20.1216 -5.8744 0.0000 0.0000 0.0000
# 2 20.1216 213.1622 55.7009 0.0000 0.0000 0.0000
# 3 -5.8744 55.7009 149.0114 0.0000 0.0000 0.0000
# 4 0.0000 0.0000 0.0000 28.0068 0.0000 0.0000
# 5 0.0000 0.0000 0.0000 0.0000 25.2470 0.0000
# 6 0.0000 0.0000 0.0000 0.0000 0.0000 45.8105
#
#
#
# Elastic Compliance Matrix: (Units=1/GPa)
#
#
# Indices 1 2 3 4 5 6 
#
# 1 0.014694 -0.001705 0.001217 0.000000 0.000000 0.000000
# 2 -0.001705 0.005397 -0.002085 0.000000 0.000000 0.000000
# 3 0.001217 -0.002085 0.007538 0.000000 0.000000 0.000000
# 4 0.000000 0.000000 0.000000 0.035706 0.000000 0.000000
# 5 0.000000 0.000000 0.000000 0.000000 0.039609 0.000000
# 6 0.000000 0.000000 0.000000 0.000000 0.000000 0.021829
#
#
# Mechanical properties :
#
#
# Convention : Reuss Voigt Hill
#
# Bulk Modulus (GPa) = 44.47753 63.66055 54.06904
# Shear Modulus (GPa) = 36.38668 44.01958 40.20313
#
# Velocity S-wave (km/s) = 3.72697 4.09928 3.91755
# Velocity P-wave (km/s) = 5.95813 6.83428 6.41119
#
# Compressibility (1/GPa) = 0.02248326
#
# Stress axis : x y z
#
# Youngs Moduli (GPa) = 68.05408 185.29065 132.65970
#
# Poissons Ratio (x) = 0.31592 -0.16139
# Poissons Ratio (y) = 0.11603 0.27654
# Poissons Ratio (z) = -0.08279 0.38626
#
# Static dielectric constant tensor:
#      x y z
#    x 2.373730 0.000000 0.000000 
#    y 0.000000 2.057630 0.000000 
#    z 0.000000 0.000000 1.974040 
# 
# From -- ./inp_files/3826.got.cif
#   From: 2010.05.17/outbox.cif.g08.bks.cpg/sg56_2_cif.got.tgz:3826.got - 2010.06.03 13:42:01.
