data_PCOD9430898
_publ_section_title
;
Structure prediction by ZEFSAII (Michael W. Deem and Ramdas Pophale) SiO2 
 PCOD9430898
Probable space group: P C C N
;
_chemical_formula_sum "Si O2"
_cell_formula_units_Z 48
_cell_length_a 5.235311
_cell_length_b 30.485398
_cell_length_c 11.572767
_cell_angle_alpha 90.000000
_cell_angle_beta 90.000000
_cell_angle_gamma 90.000000
_cell_volume 1847.019857
_symmetry_space_group_name_H-M "P C C N"
_symmetry_group_IT_number 56
_symmetry_cell_setting 'orthorhombic'
loop_
_space_group_symop_operation_xyz
x,y,z
1/2-x,1/2-y,z
1/2+x,-y,1/2-z
-x,1/2+y,1/2-z
-x,-y,-z
1/2+x,1/2+y,-z
1/2-x,y,1/2+z
x,1/2-y,1/2+z
loop_
_atom_site_type_symbol
_atom_site_label
_atom_site_fract_x
_atom_site_fract_y
_atom_site_fract_z
Si Si1 0.250000 0.750000 0.692178
Si Si2 0.908795 0.091970 0.371949
Si Si3 0.750000 0.750000 0.032261
Si Si4 0.756193 0.500512 0.830068
Si Si5 0.694083 0.593926 0.858571
Si Si6 0.033488 0.660822 0.740041
Si Si7 0.268667 0.156352 0.504750
O O1 0.495255 0.742157 0.609689
O O2 0.186844 0.705581 0.762762
O O3 0.118529 0.083335 0.271345
O O4 0.042176 0.122181 0.465283
O O5 0.714002 0.121260 0.298565
O O6 0.798631 0.044242 0.401357
O O7 0.770793 0.793198 0.952821
O O8 0.987160 0.504027 0.737094
O O9 0.763549 0.545798 0.902361
O O10 0.516409 0.620643 0.947092
O O11 0.862166 0.639286 0.840694
O O12 0.863032 0.669043 0.627549
#
# Coordination Sequence:
#
# PCOD9430898 Si02
#       7
#     4   8   4   8   8   8   8
#     4  10  20  38  66  86 118 164 208 242 310 366
#     4  10  20  39  63  84 121 166 202 250 312 369
#     4  10  20  40  60  88 124 164 192 258 308 356
#     4  10  20  38  63  89 125 163 203 255 313 361
#     4  10  22  39  60  92 123 160 205 260 304 369
#     4  10  20  40  62  87 120 167 203 255 308 372
#     4  10  22  39  60  88 125 158 208 252 311 366
#
# _framework density 25.987811000000001
#
# number of rings (size 3 to 8) (size 9 to 14) (size 15 to 20)
#    0.000    2.000    3.333    0.000    0.000    2.000 
#    3.000    0.833    0.000    0.000    0.000    0.000 
#    0.000    0.000    0.000    0.000    0.000    0.000 
#
# Total GULP energy -267415.622915 kJ/mol
# GULP energy per Si atom -5571.158811 kJ/mol
# Density = 2.592866 g / cm^3
# Si number density = 25.987811 Si / 1000 Ang^3
#
#
#
# Elastic Constant Matrix: (Units=GPa)
#
#
# Indices 1 2 3 4 5 6 
#
# 1 91.4051 53.5218 1.5399 0.0000 0.0000 0.0000
# 2 53.5218 257.9845 18.4018 0.0000 0.0000 0.0000
# 3 1.5399 18.4018 53.2823 0.0000 0.0000 0.0000
# 4 0.0000 0.0000 0.0000 18.9921 0.0000 0.0000
# 5 0.0000 0.0000 0.0000 0.0000 19.3957 0.0000
# 6 0.0000 0.0000 0.0000 0.0000 0.0000 40.6878
#
#
#
# Elastic Compliance Matrix: (Units=1/GPa)
#
#
# Indices 1 2 3 4 5 6 
#
# 1 0.012469 -0.002626 0.000546 0.000000 0.000000 0.000000
# 2 -0.002626 0.004527 -0.001488 0.000000 0.000000 0.000000
# 3 0.000546 -0.001488 0.019266 0.000000 0.000000 0.000000
# 4 0.000000 0.000000 0.000000 0.052653 0.000000 0.000000
# 5 0.000000 0.000000 0.000000 0.000000 0.051558 0.000000
# 6 0.000000 0.000000 0.000000 0.000000 0.000000 0.024577
#
#
# Mechanical properties :
#
#
# Convention : Reuss Voigt Hill
#
# Bulk Modulus (GPa) = 34.33140 61.06655 47.69897
# Shear Modulus (GPa) = 27.48868 37.76236 32.62552
#
# Velocity S-wave (km/s) = 3.25584 3.81606 3.54703
# Velocity P-wave (km/s) = 5.23194 6.55482 5.93038
#
# Compressibility (1/GPa) = 0.02912786
#
# Stress axis : x y z
#
# Youngs Moduli (GPa) = 80.20151 220.89446 51.90513
#
# Poissons Ratio (x) = 0.58001 -0.02836
# Poissons Ratio (y) = 0.21059 0.07721
# Poissons Ratio (z) = -0.04383 0.32860
#
# Static dielectric constant tensor:
#      x y z
#    x 2.535050 0.000000 0.000000 
#    y 0.000000 2.267850 0.000000 
#    z 0.000000 0.000000 3.035930 
# 
# From -- ./inp_files/9715.got.cif
#   From: 2010.05.17/outbox.cif.g08.bks.cpg/sg56_5_cif.got.tgz:9715.got - 2010.06.03 13:42:01.
