data_PCOD9430215
_publ_section_title
;
Structure prediction by ZEFSAII (Michael W. Deem and Ramdas Pophale) SiO2 
 PCOD9430215
Probable space group: P C C N
;
_chemical_formula_sum "Si O2"
_cell_formula_units_Z 56
_cell_length_a 9.227153
_cell_length_b 20.071455
_cell_length_c 17.293082
_cell_angle_alpha 90.000000
_cell_angle_beta 90.000000
_cell_angle_gamma 90.000000
_cell_volume 3202.720051
_symmetry_space_group_name_H-M "P C C N"
_symmetry_group_IT_number 56
_symmetry_cell_setting 'orthorhombic'
loop_
_space_group_symop_operation_xyz
x,y,z
1/2-x,1/2-y,z
1/2+x,-y,1/2-z
-x,1/2+y,1/2-z
-x,-y,-z
1/2+x,1/2+y,-z
1/2-x,y,1/2+z
x,1/2-y,1/2+z
loop_
_atom_site_type_symbol
_atom_site_label
_atom_site_fract_x
_atom_site_fract_y
_atom_site_fract_z
Si Si1 0.771702 0.912558 0.094160
Si Si2 0.059521 0.967592 0.833984
Si Si3 0.142347 0.692684 0.074802
Si Si4 0.609200 0.714776 0.023040
Si Si5 0.448232 0.934886 0.154576
Si Si6 0.209809 0.492626 0.562933
Si Si7 0.145094 0.877567 0.965084
O O1 0.829703 0.837374 0.086716
O O2 0.611400 0.922598 0.126978
O O3 0.873079 0.960906 0.144507
O O4 0.771426 0.940919 0.006494
O O5 0.057715 0.955094 0.743465
O O6 0.149328 0.911174 0.881107
O O7 0.900261 0.966787 0.872301
O O8 0.250000 0.750000 0.102015
O O9 0.132186 0.634415 0.136739
O O10 0.989168 0.726394 0.057641
O O11 0.215463 0.662435 0.996631
O O12 0.750000 0.750000 0.985363
O O13 0.494343 0.670419 0.974025
O O14 0.361978 0.987520 0.101301
O O15 0.138465 0.558644 0.523157
#
# Coordination Sequence:
#
# PCOD9430215 Si02
#       7
#     8   8   8   8   8   8   8
#     4  11  20  36  58  85 108 147 191 228 281 330
#     4  11  20  36  58  83 115 145 177 239 294 331
#     4   9  20  35  55  80 107 149 195 220 264 336
#     4  11  18  33  60  81 104 145 199 228 263 328
#     4  11  22  34  55  88 116 141 181 238 288 330
#     4  10  19  36  58  80 110 143 187 232 272 337
#     4   9  18  36  57  78 105 143 189 230 269 328
#
# _framework density 17.485137999999999
#
# number of rings (size 3 to 8) (size 9 to 14) (size 15 to 20)
#    0.000    1.714    4.286    2.143    0.000    0.000 
#    0.000    2.143    3.143    0.000    0.000    0.000 
#    0.000    0.000    0.000    0.000    0.000    0.000 
#
# Total GULP energy -312163.728359 kJ/mol
# GULP energy per Si atom -5574.352292 kJ/mol
# Density = 1.744534 g / cm^3
# Si number density = 17.485138 Si / 1000 Ang^3
#
#
#
# Elastic Constant Matrix: (Units=GPa)
#
#
# Indices 1 2 3 4 5 6 
#
# 1 89.6952 24.6453 27.8402 0.0000 0.0000 0.0000
# 2 24.6453 67.1298 24.9036 0.0000 0.0000 0.0000
# 3 27.8402 24.9036 68.1577 0.0000 0.0000 0.0000
# 4 0.0000 0.0000 0.0000 15.5165 0.0000 0.0000
# 5 0.0000 0.0000 0.0000 0.0000 21.5809 0.0000
# 6 0.0000 0.0000 0.0000 0.0000 0.0000 22.0690
#
#
#
# Elastic Compliance Matrix: (Units=1/GPa)
#
#
# Indices 1 2 3 4 5 6 
#
# 1 0.013384 -0.003338 -0.004247 0.000000 0.000000 0.000000
# 2 -0.003338 0.018065 -0.005237 0.000000 0.000000 0.000000
# 3 -0.004247 -0.005237 0.018320 0.000000 0.000000 0.000000
# 4 0.000000 0.000000 0.000000 0.064448 0.000000 0.000000
# 5 0.000000 0.000000 0.000000 0.000000 0.046337 0.000000
# 6 0.000000 0.000000 0.000000 0.000000 0.000000 0.045313
#
#
# Mechanical properties :
#
#
# Convention : Reuss Voigt Hill
#
# Bulk Modulus (GPa) = 41.45178 42.19565 41.82371
# Shear Modulus (GPa) = 20.87214 21.67283 21.27249
#
# Velocity S-wave (km/s) = 3.45876 3.52447 3.49177
# Velocity P-wave (km/s) = 6.30151 6.38336 6.34256
#
# Compressibility (1/GPa) = 0.02412442
#
# Stress axis : x y z
#
# Youngs Moduli (GPa) = 74.71383 55.35609 54.58420
#
# Poissons Ratio (x) = 0.18478 0.23184
# Poissons Ratio (y) = 0.24940 0.28586
# Poissons Ratio (z) = 0.31734 0.28990
#
# Static dielectric constant tensor:
#      x y z
#    x 1.643620 0.000000 0.000000 
#    y 0.000000 1.620330 0.000000 
#    z 0.000000 0.000000 1.549160 
# 
# From -- ./inp_files/13070.got.cif
#   From: 2010.05.17/outbox.cif.g08.bks.cpg/sg56_7_cif.got.tgz:13070.got - 2010.06.03 13:42:01.
