data_PCOD9430850
_publ_section_title
;
Structure prediction by ZEFSAII (Michael W. Deem and Ramdas Pophale) SiO2 
 PCOD9430850
Probable space group: P C C N
;
_chemical_formula_sum "Si O2"
_cell_formula_units_Z 48
_cell_length_a 13.667514
_cell_length_b 6.444719
_cell_length_c 27.767048
_cell_angle_alpha 90.000000
_cell_angle_beta 90.000000
_cell_angle_gamma 90.000000
_cell_volume 2445.812863
_symmetry_space_group_name_H-M "P C C N"
_symmetry_group_IT_number 56
_symmetry_cell_setting 'orthorhombic'
loop_
_space_group_symop_operation_xyz
x,y,z
1/2-x,1/2-y,z
1/2+x,-y,1/2-z
-x,1/2+y,1/2-z
-x,-y,-z
1/2+x,1/2+y,-z
1/2-x,y,1/2+z
x,1/2-y,1/2+z
loop_
_atom_site_type_symbol
_atom_site_label
_atom_site_fract_x
_atom_site_fract_y
_atom_site_fract_z
Si Si1 0.067036 0.298768 0.987574
Si Si2 0.483326 0.419755 0.075529
Si Si3 0.630339 0.263895 0.740753
Si Si4 0.668151 0.391776 0.573008
Si Si5 0.502883 0.564098 0.177226
Si Si6 0.839279 0.884809 0.669249
O O1 0.152580 0.404323 0.958044
O O2 0.015209 0.130286 0.952600
O O3 0.000000 0.500000 0.000000
O O4 0.090636 0.187523 0.037909
O O5 0.574278 0.257811 0.077761
O O6 0.454954 0.452142 0.131082
O O7 0.750000 0.250000 0.744260
O O8 0.576259 0.313615 0.790794
O O9 0.615517 0.469520 0.709211
O O10 0.571901 0.081939 0.711617
O O11 0.750000 0.250000 0.550265
O O12 0.697195 0.471562 0.625896
O O13 0.577535 0.726923 0.153043
O O14 0.750000 0.750000 0.688751
#
# Coordination Sequence:
#
# PCOD9430850 Si02
#       6
#     8   8   8   8   8   8
#     4   9  20  36  58  88 119 160 203 262 308 388
#     4  10  20  38  60  89 121 164 211 249 317 394
#     4  12  25  41  61  98 128 166 222 270 325 399
#     4  11  21  33  59  97 126 157 204 267 329 372
#     4  12  23  39  65  92 125 175 209 267 334 385
#     4  12  22  36  61  97 133 158 212 275 325 384
#
# _framework density 19.625378000000001
#
# number of rings (size 3 to 8) (size 9 to 14) (size 15 to 20)
#    0.000    1.000    6.667    1.500    0.000    0.000 
#    0.000    0.000    0.000   11.000    4.333    0.000 
#    0.000    0.000    0.000    0.000    0.000    0.000 
#
# Total GULP energy -267475.146059 kJ/mol
# GULP energy per Si atom -5572.398876 kJ/mol
# Density = 1.958071 g / cm^3
# Si number density = 19.625378 Si / 1000 Ang^3
#
#
#
# Elastic Constant Matrix: (Units=GPa)
#
#
# Indices 1 2 3 4 5 6 
#
# 1 28.3397 14.5261 22.4780 0.0000 0.0000 0.0000
# 2 14.5261 93.6319 32.7763 0.0000 0.0000 0.0000
# 3 22.4780 32.7763 118.3202 0.0000 0.0000 0.0000
# 4 0.0000 0.0000 0.0000 -218.4337 0.0000 0.0000
# 5 0.0000 0.0000 0.0000 0.0000 0.4876 0.0000
# 6 0.0000 0.0000 0.0000 0.0000 0.0000 21.7617
#
#
#
# Elastic Compliance Matrix: (Units=1/GPa)
#
#
# Indices 1 2 3 4 5 6 
#
# 1 0.043002 -0.004221 -0.007000 0.000000 0.000000 0.000000
# 2 -0.004221 0.012241 -0.002589 0.000000 0.000000 0.000000
# 3 -0.007000 -0.002589 0.010499 0.000000 0.000000 0.000000
# 4 0.000000 0.000000 0.000000 -0.004578 0.000000 0.000000
# 5 0.000000 0.000000 0.000000 0.000000 2.050914 0.000000
# 6 0.000000 0.000000 0.000000 0.000000 0.000000 0.045952
#
#
# Mechanical properties :
#
#
# Convention : Reuss Voigt Hill
#
# Bulk Modulus (GPa) = 26.23181 42.20585 34.21883
# Shear Modulus (GPa) = 2.27443 -27.86947 -12.79752
#
# Velocity S-wave (km/s) = 1.07770 -3.77247 -2.55638
# Velocity P-wave (km/s) = 3.86573 1.60531 2.95981
#
# Compressibility (1/GPa) = 0.03812165
#
# Stress axis : x y z
#
# Youngs Moduli (GPa) = 23.25476 81.69071 95.24980
#
# Poissons Ratio (x) = 0.34481 0.66676
# Poissons Ratio (y) = 0.09816 0.24661
# Poissons Ratio (z) = 0.16279 0.21151
#
# Static dielectric constant tensor:
#      x y z
#    x 1.730780 0.000000 0.000000 
#    y 0.000000 1.734060 0.000000 
#    z 0.000000 0.000000 1.705120 
# 
# From -- ./inp_files/21654.got.cif
#   From: 2010.05.17/outbox.cif.g08.bks.cpg/sg56_11_cif.got.tgz:21654.got - 2010.06.03 13:42:01.
