data_PCOD9430781
_publ_section_title
;
Structure prediction by ZEFSAII (Michael W. Deem and Ramdas Pophale) SiO2 
 PCOD9430781
Probable space group: P C C N
;
_chemical_formula_sum "Si O2"
_cell_formula_units_Z 52
_cell_length_a 17.995497
_cell_length_b 14.899708
_cell_length_c 8.870804
_cell_angle_alpha 90.000000
_cell_angle_beta 90.000000
_cell_angle_gamma 90.000000
_cell_volume 2378.507836
_symmetry_space_group_name_H-M "P C C N"
_symmetry_group_IT_number 56
_symmetry_cell_setting 'orthorhombic'
loop_
_space_group_symop_operation_xyz
x,y,z
1/2-x,1/2-y,z
1/2+x,-y,1/2-z
-x,1/2+y,1/2-z
-x,-y,-z
1/2+x,1/2+y,-z
1/2-x,y,1/2+z
x,1/2-y,1/2+z
loop_
_atom_site_type_symbol
_atom_site_label
_atom_site_fract_x
_atom_site_fract_y
_atom_site_fract_z
Si Si1 0.316243 0.871163 0.866144
Si Si2 0.332018 0.369145 0.217349
Si Si3 0.429210 0.530011 0.181370
Si Si4 0.373838 0.288128 0.505846
Si Si5 0.306838 0.491511 0.971535
Si Si6 0.250000 0.750000 0.107237
Si Si7 0.080555 0.371482 0.301026
O O1 0.393227 0.917633 0.823167
O O2 0.287688 0.821155 0.717218
O O3 0.309791 0.799623 0.000711
O O4 0.257395 0.948189 0.907579
O O5 0.411238 0.423928 0.207222
O O6 0.322298 0.343069 0.389994
O O7 0.333000 0.279329 0.119854
O O8 0.282230 0.438353 0.123285
O O9 0.376623 0.549262 0.036422
O O10 0.511493 0.564837 0.160652
O O11 0.421346 0.221832 0.396419
O O12 0.416980 0.351036 0.623071
O O13 0.344927 0.421336 0.857913
#
# Coordination Sequence:
#
# PCOD9430781 Si02
#       7
#     8   8   8   8   8   4   8
#     4  11  21  41  60  86 121 165 202 245 302 350
#     4   8  18  35  58  83 118 151 200 237 303 346
#     4  10  21  37  62  89 121 161 206 242 296 371
#     4   9  18  35  58  91 121 155 190 256 303 362
#     4   9  20  39  60  81 116 163 197 249 292 359
#     4  10  22  38  60  86 124 158 204 250 284 370
#     4  10  20  37  62  89 125 156 202 250 307 354
#
# _framework density 21.862445000000001
#
# number of rings (size 3 to 8) (size 9 to 14) (size 15 to 20)
#    0.923    1.538    1.538    0.462    0.000    3.077 
#    0.000    0.000    0.000   15.692    0.000    0.000 
#    0.000    0.000    0.000    0.000    0.000    0.000 
#
# Total GULP energy -289899.456953 kJ/mol
# GULP energy per Si atom -5574.989557 kJ/mol
# Density = 2.181269 g / cm^3
# Si number density = 21.862445 Si / 1000 Ang^3
#
#
#
# Elastic Constant Matrix: (Units=GPa)
#
#
# Indices 1 2 3 4 5 6 
#
# 1 63.2683 25.1388 28.9509 0.0000 0.0000 0.0000
# 2 25.1388 86.7273 44.9208 0.0000 0.0000 0.0000
# 3 28.9509 44.9208 145.9249 0.0000 0.0000 0.0000
# 4 0.0000 0.0000 0.0000 43.7293 0.0000 0.0000
# 5 0.0000 0.0000 0.0000 0.0000 28.5410 0.0000
# 6 0.0000 0.0000 0.0000 0.0000 0.0000 12.4645
#
#
#
# Elastic Compliance Matrix: (Units=1/GPa)
#
#
# Indices 1 2 3 4 5 6 
#
# 1 0.018549 -0.004129 -0.002409 0.000000 0.000000 0.000000
# 2 -0.004129 0.014637 -0.003687 0.000000 0.000000 0.000000
# 3 -0.002409 -0.003687 0.008466 0.000000 0.000000 0.000000
# 4 0.000000 0.000000 0.000000 0.022868 0.000000 0.000000
# 5 0.000000 0.000000 0.000000 0.000000 0.035037 0.000000
# 6 0.000000 0.000000 0.000000 0.000000 0.000000 0.080228
#
#
# Mechanical properties :
#
#
# Convention : Reuss Voigt Hill
#
# Bulk Modulus (GPa) = 47.16482 54.88240 51.02361
# Shear Modulus (GPa) = 24.11966 30.07430 27.09698
#
# Velocity S-wave (km/s) = 3.32512 3.71295 3.52437
# Velocity P-wave (km/s) = 6.03010 6.59844 6.32066
#
# Compressibility (1/GPa) = 0.02120224
#
# Stress axis : x y z
#
# Youngs Moduli (GPa) = 53.91260 68.32182 118.12490
#
# Poissons Ratio (x) = 0.28208 0.28456
# Poissons Ratio (y) = 0.22259 0.43547
# Poissons Ratio (z) = 0.12987 0.25187
#
# Static dielectric constant tensor:
#      x y z
#    x 1.785630 0.000000 0.000000 
#    y 0.000000 1.861810 0.000000 
#    z 0.000000 0.000000 1.836810 
# 
# From -- ./inp_files/4440.got.cif
#   From: 2010.05.17/outbox.cif.g08.bks.cpg/sg56_3_cif.got.tgz:4440.got - 2010.06.03 13:42:01.
