data_PCOD9430768
_publ_section_title
;
Structure prediction by ZEFSAII (Michael W. Deem and Ramdas Pophale) SiO2 
 PCOD9430768
Probable space group: P C C N
;
_chemical_formula_sum "Si O2"
_cell_formula_units_Z 60
_cell_length_a 8.579709
_cell_length_b 12.026480
_cell_length_c 29.553048
_cell_angle_alpha 90.000000
_cell_angle_beta 90.000000
_cell_angle_gamma 90.000000
_cell_volume 3049.392800
_symmetry_space_group_name_H-M "P C C N"
_symmetry_group_IT_number 56
_symmetry_cell_setting 'orthorhombic'
loop_
_space_group_symop_operation_xyz
x,y,z
1/2-x,1/2-y,z
1/2+x,-y,1/2-z
-x,1/2+y,1/2-z
-x,-y,-z
1/2+x,1/2+y,-z
1/2-x,y,1/2+z
x,1/2-y,1/2+z
loop_
_atom_site_type_symbol
_atom_site_label
_atom_site_fract_x
_atom_site_fract_y
_atom_site_fract_z
Si Si1 0.043815 0.471616 0.646844
Si Si2 0.972420 0.468862 0.148124
Si Si3 0.729550 0.621322 0.286569
Si Si4 0.697053 0.018573 0.928008
Si Si5 0.250000 0.750000 0.026853
Si Si6 0.300490 0.372783 0.820803
Si Si7 0.417935 0.737000 0.898377
Si Si8 0.593829 0.695869 0.481751
O O1 0.113714 0.436224 0.695315
O O2 0.176017 0.474067 0.608213
O O3 0.956910 0.587030 0.654694
O O4 0.929026 0.375306 0.629602
O O5 0.830641 0.539850 0.165509
O O6 0.929817 0.344889 0.132621
O O7 0.096887 0.447009 0.187485
O O8 0.046635 0.530193 0.104465
O O9 0.750000 0.750000 0.301923
O O10 0.692309 0.623212 0.233703
O O11 0.642847 0.930670 0.967096
O O12 0.767192 0.133106 0.946791
O O13 0.426434 0.779172 0.005866
O O14 0.250000 0.250000 0.834320
O O15 0.250000 0.750000 0.922296
O O16 0.558689 0.745238 0.933580
O O17 0.750000 0.750000 0.502930
#
# Coordination Sequence:
#
# PCOD9430768 Si02
#       8
#     8   8   8   8   4   8   8   8
#     4  11  21  40  66  88 125 167 220 266 321 387
#     4  10  21  38  62  85 122 159 211 265 308 375
#     4  10  20  37  61  90 123 163 214 273 328 368
#     4  10  25  42  66  92 126 168 212 260 321 392
#     4  12  26  46  64  94 140 172 204 256 340 408
#     4  11  24  37  56  91 132 170 209 262 324 392
#     4  11  19  37  67  94 113 154 217 276 319 364
#     4  11  23  44  69  99 126 160 217 277 323 385
#
# _framework density 19.676048000000002
#
# number of rings (size 3 to 8) (size 9 to 14) (size 15 to 20)
#    0.000    1.333    4.667    1.200    1.867    0.533 
#    2.400    0.000    0.000    0.000    0.000    0.000 
#    0.000    0.000    0.000    0.000    0.000    0.000 
#
# Total GULP energy -334005.483653 kJ/mol
# GULP energy per Si atom -5566.758061 kJ/mol
# Density = 1.963126 g / cm^3
# Si number density = 19.676048 Si / 1000 Ang^3
#
#
#
# Elastic Constant Matrix: (Units=GPa)
#
#
# Indices 1 2 3 4 5 6 
#
# 1 79.2545 10.1125 15.6929 0.0000 0.0000 0.0000
# 2 10.1125 86.3024 25.1094 0.0000 0.0000 0.0000
# 3 15.6929 25.1094 28.5043 0.0000 0.0000 0.0000
# 4 0.0000 0.0000 0.0000 14.4370 0.0000 0.0000
# 5 0.0000 0.0000 0.0000 0.0000 -9.7867 0.0000
# 6 0.0000 0.0000 0.0000 0.0000 0.0000 35.3674
#
#
#
# Elastic Compliance Matrix: (Units=1/GPa)
#
#
# Indices 1 2 3 4 5 6 
#
# 1 0.014204 0.000821 -0.008544 0.000000 0.000000 0.000000
# 2 0.000821 0.015628 -0.014219 0.000000 0.000000 0.000000
# 3 -0.008544 -0.014219 0.052311 0.000000 0.000000 0.000000
# 4 0.000000 0.000000 0.000000 0.069267 0.000000 0.000000
# 5 0.000000 0.000000 0.000000 0.000000 -0.102180 0.000000
# 6 0.000000 0.000000 0.000000 0.000000 0.000000 0.028275
#
#
# Mechanical properties :
#
#
# Convention : Reuss Voigt Hill
#
# Bulk Modulus (GPa) = 26.13594 32.87674 29.50634
# Shear Modulus (GPa) = 37.27422 17.54664 27.41043
#
# Velocity S-wave (km/s) = 4.35719 2.98950 3.73646
# Velocity P-wave (km/s) = 6.21493 5.35364 5.80030
#
# Compressibility (1/GPa) = 0.03826149
#
# Stress axis : x y z
#
# Youngs Moduli (GPa) = 70.40031 63.98861 19.11634
#
# Poissons Ratio (x) = -0.05256 0.16332
# Poissons Ratio (y) = -0.05782 0.27181
# Poissons Ratio (z) = 0.60148 0.90983
#
# Static dielectric constant tensor:
#      x y z
#    x 1.736850 0.000000 0.000000 
#    y 0.000000 1.021740 0.000000 
#    z 0.000000 0.000000 1.707310 
# 
# From -- ./inp_files/23349.got.cif
#   From: 2010.05.17/outbox.cif.g08.bks.cpg/sg56_12_cif.got.tgz:23349.got - 2010.06.03 13:42:01.
