data_PCOD9430525
_publ_section_title
;
Structure prediction by ZEFSAII (Michael W. Deem and Ramdas Pophale) SiO2 
 PCOD9430525
Probable space group: P C C N
;
_chemical_formula_sum "Si O2"
_cell_formula_units_Z 48
_cell_length_a 14.362598
_cell_length_b 9.769178
_cell_length_c 13.103662
_cell_angle_alpha 90.000000
_cell_angle_beta 90.000000
_cell_angle_gamma 90.000000
_cell_volume 1838.584989
_symmetry_space_group_name_H-M "P C C N"
_symmetry_group_IT_number 56
_symmetry_cell_setting 'orthorhombic'
loop_
_space_group_symop_operation_xyz
x,y,z
1/2-x,1/2-y,z
1/2+x,-y,1/2-z
-x,1/2+y,1/2-z
-x,-y,-z
1/2+x,1/2+y,-z
1/2-x,y,1/2+z
x,1/2-y,1/2+z
loop_
_atom_site_type_symbol
_atom_site_label
_atom_site_fract_x
_atom_site_fract_y
_atom_site_fract_z
Si Si1 0.454985 0.091725 0.440098
Si Si2 0.446278 0.417550 0.680143
Si Si3 0.039237 0.404483 0.938275
Si Si4 0.746025 0.597454 0.612502
Si Si5 0.497311 0.381618 0.188154
Si Si6 0.306819 0.623863 0.736225
O O1 0.456540 0.060406 0.308441
O O2 0.494994 0.245599 0.433152
O O3 0.342148 0.082919 0.449864
O O4 0.483969 0.061010 0.567645
O O5 0.494017 0.430911 0.563344
O O6 0.432854 0.254030 0.681551
O O7 0.354405 0.513952 0.662277
O O8 0.150764 0.404461 0.948438
O O9 0.027467 0.434629 0.807442
O O10 0.750000 0.750000 0.661048
O O11 0.745142 0.469847 0.689787
O O12 0.603231 0.317839 0.201413
O O13 0.250000 0.750000 0.691973
#
# Coordination Sequence:
#
# PCOD9430525 Si02
#       6
#     8   8   8   8   8   8
#     4  10  20  38  61  89 120 164 203 247 304 367
#     4  10  20  34  58  86 118 150 202 240 302 355
#     4  11  22  38  62  87 121 163 204 253 303 364
#     4   9  20  37  60  85 118 158 204 243 304 366
#     4   9  19  33  58  86 119 150 200 240 304 363
#     4   9  19  34  55  85 117 149 193 248 297 359
#
# _framework density 26.107032
#
# number of rings (size 3 to 8) (size 9 to 14) (size 15 to 20)
#    1.000    1.333    0.000    3.000    2.333    1.333 
#    0.000    1.667    0.000    1.000    0.000    0.000 
#    0.000    0.000    0.000    0.000    0.000    0.000 
#
# Total GULP energy -267457.715419 kJ/mol
# GULP energy per Si atom -5572.035738 kJ/mol
# Density = 2.604761 g / cm^3
# Si number density = 26.107032 Si / 1000 Ang^3
#
#
#
# Elastic Constant Matrix: (Units=GPa)
#
#
# Indices 1 2 3 4 5 6 
#
# 1 102.6031 83.8699 44.7889 0.0000 0.0000 0.0000
# 2 83.8699 207.7166 93.2502 0.0000 0.0000 0.0000
# 3 44.7889 93.2502 201.9107 0.0000 0.0000 0.0000
# 4 0.0000 0.0000 0.0000 83.4125 0.0000 0.0000
# 5 0.0000 0.0000 0.0000 0.0000 27.1821 0.0000
# 6 0.0000 0.0000 0.0000 0.0000 0.0000 36.7310
#
#
#
# Elastic Compliance Matrix: (Units=1/GPa)
#
#
# Indices 1 2 3 4 5 6 
#
# 1 0.014615 -0.005609 -0.000652 0.000000 0.000000 0.000000
# 2 -0.005609 0.008226 -0.002555 0.000000 0.000000 0.000000
# 3 -0.000652 -0.002555 0.006277 0.000000 0.000000 0.000000
# 4 0.000000 0.000000 0.000000 0.011989 0.000000 0.000000
# 5 0.000000 0.000000 0.000000 0.000000 0.036789 0.000000
# 6 0.000000 0.000000 0.000000 0.000000 0.000000 0.027225
#
#
# Mechanical properties :
#
#
# Convention : Reuss Voigt Hill
#
# Bulk Modulus (GPa) = 87.04844 106.22757 96.63801
# Shear Modulus (GPa) = 39.50041 48.81989 44.16015
#
# Velocity S-wave (km/s) = 3.89397 4.32903 4.11725
# Velocity P-wave (km/s) = 7.32343 8.10956 7.72650
#
# Compressibility (1/GPa) = 0.01148786
#
# Stress axis : x y z
#
# Youngs Moduli (GPa) = 68.42062 121.56824 159.30686
#
# Poissons Ratio (x) = 0.68184 0.10383
# Poissons Ratio (y) = 0.38375 0.40701
# Poissons Ratio (z) = 0.04459 0.31059
#
# Static dielectric constant tensor:
#      x y z
#    x 1.978230 0.000000 0.000000 
#    y 0.000000 2.111210 0.000000 
#    z 0.000000 0.000000 2.144390 
# 
# From -- ./inp_files/12203.got.cif
#   From: 2010.05.17/outbox.cif.g08.bks.cpg/sg56_7_cif.got.tgz:12203.got - 2010.06.03 13:42:01.
