data_PCOD9430734
_publ_section_title
;
Structure prediction by ZEFSAII (Michael W. Deem and Ramdas Pophale) SiO2 
 PCOD9430734
Probable space group: P C C N
;
_chemical_formula_sum "Si O2"
_cell_formula_units_Z 60
_cell_length_a 12.702673
_cell_length_b 11.823926
_cell_length_c 16.882238
_cell_angle_alpha 90.000000
_cell_angle_beta 90.000000
_cell_angle_gamma 90.000000
_cell_volume 2535.635596
_symmetry_space_group_name_H-M "P C C N"
_symmetry_group_IT_number 56
_symmetry_cell_setting 'orthorhombic'
loop_
_space_group_symop_operation_xyz
x,y,z
1/2-x,1/2-y,z
1/2+x,-y,1/2-z
-x,1/2+y,1/2-z
-x,-y,-z
1/2+x,1/2+y,-z
1/2-x,y,1/2+z
x,1/2-y,1/2+z
loop_
_atom_site_type_symbol
_atom_site_label
_atom_site_fract_x
_atom_site_fract_y
_atom_site_fract_z
Si Si1 0.750289 0.884097 0.597554
Si Si2 0.927089 0.612226 0.494174
Si Si3 0.479034 0.274401 0.166811
Si Si4 0.750000 0.250000 0.506010
Si Si5 0.080201 0.696071 0.615703
Si Si6 0.652005 0.096070 0.143195
Si Si7 0.655288 0.387775 0.263336
Si Si8 0.078928 0.392742 0.270203
O O1 0.750000 0.750000 0.598311
O O2 0.692415 0.916490 0.516074
O O3 0.663210 0.918145 0.661710
O O4 0.847348 0.963633 0.621049
O O5 0.000000 0.500000 0.500000
O O6 0.930739 0.672145 0.409921
O O7 0.978983 0.701516 0.556983
O O8 0.539957 0.154358 0.157091
O O9 0.570337 0.356684 0.195749
O O10 0.404030 0.234871 0.237656
O O11 0.828021 0.320041 0.448777
O O12 0.805195 0.163405 0.566509
O O13 0.126537 0.799641 0.667334
O O14 0.033240 0.608880 0.681796
O O15 0.731369 0.118293 0.218637
O O16 0.618685 0.511461 0.290373
#
# Coordination Sequence:
#
# PCOD9430734 Si02
#       8
#     8   8   8   4   8   8   8   8
#     4  10  23  44  65  87 127 173 216 259 326 398
#     4  11  21  41  66  91 126 170 212 264 329 392
#     4  11  20  36  63  89 119 159 215 263 316 380
#     4  12  20  34  58 102 128 152 206 268 330 362
#     4  10  21  33  60  91 123 156 207 264 306 387
#     4  11  21  37  64  90 123 165 209 270 324 380
#     4  10  20  37  57  86 124 158 208 261 318 374
#     4   9  22  39  60  84 120 171 207 253 319 387
#
# _framework density 23.662707999999999
#
# number of rings (size 3 to 8) (size 9 to 14) (size 15 to 20)
#    0.000    1.600    2.667    3.200    3.733    3.200 
#    2.400    2.000    2.933    0.000    0.000    0.000 
#    0.000    0.000    0.000    0.000    0.000    0.000 
#
# Total GULP energy -334153.986418 kJ/mol
# GULP energy per Si atom -5569.233107 kJ/mol
# Density = 2.360885 g / cm^3
# Si number density = 23.662708 Si / 1000 Ang^3
#
#
#
# Elastic Constant Matrix: (Units=GPa)
#
#
# Indices 1 2 3 4 5 6 
#
# 1 25.2782 -5.0119 -1.1290 0.0000 0.0000 0.0000
# 2 -5.0119 97.6530 0.4099 0.0000 0.0000 0.0000
# 3 -1.1290 0.4099 85.5272 0.0000 0.0000 0.0000
# 4 0.0000 0.0000 0.0000 14.3588 0.0000 0.0000
# 5 0.0000 0.0000 0.0000 0.0000 5.2893 0.0000
# 6 0.0000 0.0000 0.0000 0.0000 0.0000 32.4042
#
#
#
# Elastic Compliance Matrix: (Units=1/GPa)
#
#
# Indices 1 2 3 4 5 6 
#
# 1 0.039989 0.002050 0.000518 0.000000 0.000000 0.000000
# 2 0.002050 0.010346 -0.000023 0.000000 0.000000 0.000000
# 3 0.000518 -0.000023 0.011699 0.000000 0.000000 0.000000
# 4 0.000000 0.000000 0.000000 0.069644 0.000000 0.000000
# 5 0.000000 0.000000 0.000000 0.000000 0.189059 0.000000
# 6 0.000000 0.000000 0.000000 0.000000 0.000000 0.030860
#
#
# Mechanical properties :
#
#
# Convention : Reuss Voigt Hill
#
# Bulk Modulus (GPa) = 14.89742 21.88849 18.39295
# Shear Modulus (GPa) = 13.55451 24.68978 19.12214
#
# Velocity S-wave (km/s) = 2.39597 3.23368 2.84582
# Velocity P-wave (km/s) = 3.73679 4.81794 4.31139
#
# Compressibility (1/GPa) = 0.06712572
#
# Stress axis : x y z
#
# Youngs Moduli (GPa) = 25.00662 96.65883 85.47643
#
# Poissons Ratio (x) = -0.19817 -0.04428
# Poissons Ratio (y) = -0.05127 0.00193
# Poissons Ratio (z) = -0.01295 0.00218
#
# Static dielectric constant tensor:
#      x y z
#    x 2.135970 0.000000 0.000000 
#    y 0.000000 1.989190 0.000000 
#    z 0.000000 0.000000 2.043230 
# 
# From -- ./inp_files/16308.got.cif
#   From: 2010.05.17/outbox.cif.g08.bks.cpg/sg56_9_cif.got.tgz:16308.got - 2010.06.03 13:42:01.
