data_PCOD9430125
_publ_section_title
;
Structure prediction by ZEFSAII (Michael W. Deem and Ramdas Pophale) SiO2 
 PCOD9430125
Probable space group: P C C N
;
_chemical_formula_sum "Si O2"
_cell_formula_units_Z 64
_cell_length_a 8.125795
_cell_length_b 14.832229
_cell_length_c 25.941274
_cell_angle_alpha 90.000000
_cell_angle_beta 90.000000
_cell_angle_gamma 90.000000
_cell_volume 3126.537086
_symmetry_space_group_name_H-M "P C C N"
_symmetry_group_IT_number 56
_symmetry_cell_setting 'orthorhombic'
loop_
_space_group_symop_operation_xyz
x,y,z
1/2-x,1/2-y,z
1/2+x,-y,1/2-z
-x,1/2+y,1/2-z
-x,-y,-z
1/2+x,1/2+y,-z
1/2-x,y,1/2+z
x,1/2-y,1/2+z
loop_
_atom_site_type_symbol
_atom_site_label
_atom_site_fract_x
_atom_site_fract_y
_atom_site_fract_z
Si Si1 0.029995 0.826390 0.381207
Si Si2 0.093478 0.648811 0.103852
Si Si3 0.457284 0.520457 0.213584
Si Si4 0.084682 0.905813 0.486896
Si Si5 0.088583 0.873029 0.855868
Si Si6 0.087975 0.998681 0.945631
Si Si7 0.011931 0.844747 0.125328
Si Si8 0.590066 0.513951 0.324103
O O1 0.014917 0.840081 0.442772
O O2 0.215047 0.858429 0.364177
O O3 0.012636 0.725273 0.361748
O O4 0.903373 0.893506 0.355036
O O5 0.993734 0.737047 0.122319
O O6 0.289925 0.648745 0.115718
O O7 0.029671 0.561695 0.135207
O O8 0.090235 0.642866 0.041942
O O9 0.550198 0.429719 0.195017
O O10 0.523602 0.605172 0.179610
O O11 0.476662 0.528074 0.274405
O O12 0.267701 0.511061 0.197918
O O13 0.248686 0.945012 0.460858
O O14 0.000000 0.000000 0.500000
O O15 0.013184 0.936076 0.900940
O O16 0.083398 0.097433 0.918772
O O17 0.000000 0.000000 0.000000
#
# Coordination Sequence:
#
# PCOD9430125 Si02
#       8
#     8   8   8   8   8   8   8   8
#     4  10  21  37  60  86 117 155 194 236 288 356
#     4  10  20  36  60  89 115 152 195 242 293 347
#     4  10  22  40  61  86 115 153 196 251 299 346
#     4  11  21  35  57  86 125 155 187 235 294 346
#     4   9  21  37  58  87 113 150 201 238 285 348
#     4  10  19  34  58  83 116 158 194 231 279 344
#     4   9  20  37  60  87 115 149 202 241 283 354
#     4  11  22  39  62  84 116 155 195 247 302 347
#
# _framework density 20.469930999999999
#
# number of rings (size 3 to 8) (size 9 to 14) (size 15 to 20)
#    0.000    2.000    2.500    0.750    1.750    2.500 
#    0.000    3.125    0.000    0.000    0.000    0.000 
#    0.000    0.000    0.000    0.000    0.000    0.000 
#
# Total GULP energy -356680.959374 kJ/mol
# GULP energy per Si atom -5573.139990 kJ/mol
# Density = 2.042334 g / cm^3
# Si number density = 20.469931 Si / 1000 Ang^3
#
#
#
# Elastic Constant Matrix: (Units=GPa)
#
#
# Indices 1 2 3 4 5 6 
#
# 1 8.9542 6.9829 15.3524 0.0000 0.0000 0.0000
# 2 6.9829 107.0440 35.6903 0.0000 0.0000 0.0000
# 3 15.3524 35.6903 124.8975 0.0000 0.0000 0.0000
# 4 0.0000 0.0000 0.0000 4.8160 0.0000 0.0000
# 5 0.0000 0.0000 0.0000 0.0000 24.2189 0.0000
# 6 0.0000 0.0000 0.0000 0.0000 0.0000 23.8753
#
#
#
# Elastic Compliance Matrix: (Units=1/GPa)
#
#
# Indices 1 2 3 4 5 6 
#
# 1 0.142908 -0.003830 -0.016472 0.000000 0.000000 0.000000
# 2 -0.003830 0.010428 -0.002509 0.000000 0.000000 0.000000
# 3 -0.016472 -0.002509 0.010748 0.000000 0.000000 0.000000
# 4 0.000000 0.000000 0.000000 0.207640 0.000000 0.000000
# 5 0.000000 0.000000 0.000000 0.000000 0.041290 0.000000
# 6 0.000000 0.000000 0.000000 0.000000 0.000000 0.041884
#
#
# Mechanical properties :
#
#
# Convention : Reuss Voigt Hill
#
# Bulk Modulus (GPa) = 8.44152 39.66078 24.05115
# Shear Modulus (GPa) = 9.25911 22.77339 16.01625
#
# Velocity S-wave (km/s) = 2.12911 3.33908 2.80023
# Velocity P-wave (km/s) = 3.19013 5.85518 4.71487
#
# Compressibility (1/GPa) = 0.11846206
#
# Stress axis : x y z
#
# Youngs Moduli (GPa) = 6.99751 95.89181 93.03815
#
# Poissons Ratio (x) = 0.36731 1.53250
# Poissons Ratio (y) = 0.02680 0.23345
# Poissons Ratio (z) = 0.11526 0.24061
#
# Static dielectric constant tensor:
#      x y z
#    x 1.700050 0.000000 0.000000 
#    y 0.000000 1.608940 0.000000 
#    z 0.000000 0.000000 1.728950 
# 
# From -- ./inp_files/20672.got.cif
#   From: 2010.05.17/outbox.cif.g08.bks.cpg/sg56_11_cif.got.tgz:20672.got - 2010.06.03 13:42:01.
