data_PCOD9430987
_publ_section_title
;
Structure prediction by ZEFSAII (Michael W. Deem and Ramdas Pophale) SiO2 
 PCOD9430987
Probable space group: P C C N
;
_chemical_formula_sum "Si O2"
_cell_formula_units_Z 48
_cell_length_a 15.742225
_cell_length_b 8.237511
_cell_length_c 18.369005
_cell_angle_alpha 90.000000
_cell_angle_beta 90.000000
_cell_angle_gamma 90.000000
_cell_volume 2382.032899
_symmetry_space_group_name_H-M "P C C N"
_symmetry_group_IT_number 56
_symmetry_cell_setting 'orthorhombic'
loop_
_space_group_symop_operation_xyz
x,y,z
1/2-x,1/2-y,z
1/2+x,-y,1/2-z
-x,1/2+y,1/2-z
-x,-y,-z
1/2+x,1/2+y,-z
1/2-x,y,1/2+z
x,1/2-y,1/2+z
loop_
_atom_site_type_symbol
_atom_site_label
_atom_site_fract_x
_atom_site_fract_y
_atom_site_fract_z
Si Si1 0.338499 0.847056 0.550119
Si Si2 0.996144 0.660534 0.798936
Si Si3 0.656948 0.791619 0.387673
Si Si4 0.410163 0.086325 0.977169
Si Si5 0.511287 0.291700 0.355968
Si Si6 0.345727 0.775524 0.898189
O O1 0.250000 0.750000 0.554287
O O2 0.405350 0.748316 0.598287
O O3 0.364019 0.847124 0.464867
O O4 0.337810 0.027063 0.581588
O O5 0.916968 0.763576 0.829194
O O6 0.985620 0.474997 0.824898
O O7 0.001488 0.675286 0.712591
O O8 0.082300 0.725393 0.837025
O O9 0.750000 0.750000 0.358082
O O10 0.632781 0.671536 0.454482
O O11 0.435283 0.212991 0.914322
O O12 0.353161 0.948956 0.939648
O O13 0.500000 0.000000 0.000000
O O14 0.250000 0.750000 0.870948
#
# Coordination Sequence:
#
# PCOD9430987 Si02
#       6
#     8   8   8   8   8   8
#     4  11  22  37  62  93 123 163 221 263 306 377
#     4  11  23  40  59  90 128 169 205 260 319 383
#     4  12  23  39  66  94 125 166 209 263 322 375
#     4  11  20  43  66  88 126 165 206 266 310 369
#     4  11  22  40  63  88 129 168 212 254 321 368
#     4  10  20  39  64  89 125 163 205 260 315 372
#
# _framework density 20.150853999999999
#
# number of rings (size 3 to 8) (size 9 to 14) (size 15 to 20)
#    0.000    1.000    5.000    4.000    0.000    4.667 
#    0.000    4.167    0.000    0.000    0.000    0.000 
#    0.000    0.000    0.000    0.000    0.000    0.000 
#
# Total GULP energy -268335.501516 kJ/mol
# GULP energy per Si atom -5590.322948 kJ/mol
# Density = 2.010499 g / cm^3
# Si number density = 20.150854 Si / 1000 Ang^3
#
#
#
# Elastic Constant Matrix: (Units=GPa)
#
#
# Indices 1 2 3 4 5 6 
#
# 1 125.6373 20.5653 28.4330 0.0000 0.0000 0.0000
# 2 20.5653 43.5692 -19.5413 0.0000 0.0000 0.0000
# 3 28.4330 -19.5413 65.2857 0.0000 0.0000 0.0000
# 4 0.0000 0.0000 0.0000 28.8045 0.0000 0.0000
# 5 0.0000 0.0000 0.0000 0.0000 -3.2123 0.0000
# 6 0.0000 0.0000 0.0000 0.0000 0.0000 25.6419
#
#
#
# Elastic Compliance Matrix: (Units=1/GPa)
#
#
# Indices 1 2 3 4 5 6 
#
# 1 0.011008 -0.008485 -0.007334 0.000000 0.000000 0.000000
# 2 -0.008485 0.033052 0.013589 0.000000 0.000000 0.000000
# 3 -0.007334 0.013589 0.022579 0.000000 0.000000 0.000000
# 4 0.000000 0.000000 0.000000 0.034717 0.000000 0.000000
# 5 0.000000 0.000000 0.000000 0.000000 -0.311305 0.000000
# 6 0.000000 0.000000 0.000000 0.000000 0.000000 0.038999
#
#
# Mechanical properties :
#
#
# Convention : Reuss Voigt Hill
#
# Bulk Modulus (GPa) = 16.08310 32.60069 24.34190
# Shear Modulus (GPa) = -34.30226 23.91585 -5.19320
#
# Velocity S-wave (km/s) = -4.13034 3.44879 -1.60710
# Velocity P-wave (km/s) = 3.84026 5.66324 2.94319
#
# Compressibility (1/GPa) = 0.06217706
#
# Stress axis : x y z
#
# Youngs Moduli (GPa) = 90.84163 30.25542 44.28938
#
# Poissons Ratio (x) = 0.25673 0.32482
# Poissons Ratio (y) = 0.77083 -0.60183
# Poissons Ratio (z) = 0.66624 -0.41113
#
# Static dielectric constant tensor:
#      x y z
#    x 1.727020 0.000000 0.000000 
#    y 0.000000 1.737620 0.000000 
#    z 0.000000 0.000000 1.704210 
# 
# From -- ./inp_files/14782.got.cif
#   From: 2010.05.17/outbox.cif.g08.bks.cpg/sg56_8_cif.got.tgz:14782.got - 2010.06.03 13:42:01.
