data_PCOD9430513
_publ_section_title
;
Structure prediction by ZEFSAII (Michael W. Deem and Ramdas Pophale) SiO2 
 PCOD9430513
Probable space group: P C C N
;
_chemical_formula_sum "Si O2"
_cell_formula_units_Z 44
_cell_length_a 5.377831
_cell_length_b 15.267191
_cell_length_c 23.604362
_cell_angle_alpha 90.000000
_cell_angle_beta 90.000000
_cell_angle_gamma 90.000000
_cell_volume 1938.021343
_symmetry_space_group_name_H-M "P C C N"
_symmetry_group_IT_number 56
_symmetry_cell_setting 'orthorhombic'
loop_
_space_group_symop_operation_xyz
x,y,z
1/2-x,1/2-y,z
1/2+x,-y,1/2-z
-x,1/2+y,1/2-z
-x,-y,-z
1/2+x,1/2+y,-z
1/2-x,y,1/2+z
x,1/2-y,1/2+z
loop_
_atom_site_type_symbol
_atom_site_label
_atom_site_fract_x
_atom_site_fract_y
_atom_site_fract_z
Si Si1 0.271021 0.578777 0.802299
Si Si2 0.441447 0.822558 0.152325
Si Si3 0.297475 0.075487 0.504674
Si Si4 0.475756 0.997210 0.098577
Si Si5 0.730921 0.612256 0.252403
Si Si6 0.750000 0.750000 0.550180
O O1 0.180588 0.544449 0.863038
O O2 0.291444 0.490030 0.764856
O O3 0.040302 0.634367 0.776660
O O4 0.541730 0.621431 0.796758
O O5 0.250000 0.750000 0.174095
O O6 0.344531 0.920949 0.136313
O O7 0.665202 0.840766 0.196172
O O8 0.543310 0.784158 0.093769
O O9 0.366993 0.173465 0.487742
O O10 0.100772 0.050240 0.455292
O O11 0.500000 0.000000 0.500000
O O12 0.196980 0.067660 0.568295
#
# Coordination Sequence:
#
# PCOD9430513 Si02
#       6
#     8   8   8   8   8   4
#     4   9  18  34  54  84 110 151 193 244 294 364
#     4  10  20  34  56  85 117 154 191 260 310 368
#     4  10  20  36  59  87 118 158 206 261 310 381
#     4   9  20  35  56  85 116 155 209 246 307 375
#     4   9  19  32  55  81 115 147 193 238 302 364
#     4  10  22  36  58  88 118 154 202 260 324 364
#
# _framework density 22.703567
#
# number of rings (size 3 to 8) (size 9 to 14) (size 15 to 20)
#    0.000    2.545    0.000    1.091    5.091    0.000 
#    0.000    0.000    4.000    0.000    0.000    0.000 
#    0.000    0.000    0.000    0.000    0.000    0.000 
#
# Total GULP energy -245445.820467 kJ/mol
# GULP energy per Si atom -5578.314102 kJ/mol
# Density = 2.265189 g / cm^3
# Si number density = 22.703567 Si / 1000 Ang^3
#
#
#
# Elastic Constant Matrix: (Units=GPa)
#
#
# Indices 1 2 3 4 5 6 
#
# 1 44.6978 9.6793 -0.0372 0.0000 0.0000 0.0000
# 2 9.6793 89.3835 31.3030 0.0000 0.0000 0.0000
# 3 -0.0372 31.3030 77.1906 0.0000 0.0000 0.0000
# 4 0.0000 0.0000 0.0000 92.8668 0.0000 0.0000
# 5 0.0000 0.0000 0.0000 0.0000 33.6809 0.0000
# 6 0.0000 0.0000 0.0000 0.0000 0.0000 28.4903
#
#
#
# Elastic Compliance Matrix: (Units=1/GPa)
#
#
# Indices 1 2 3 4 5 6 
#
# 1 0.023003 -0.002908 0.001190 0.000000 0.000000 0.000000
# 2 -0.002908 0.013407 -0.005438 0.000000 0.000000 0.000000
# 3 0.001190 -0.005438 0.015161 0.000000 0.000000 0.000000
# 4 0.000000 0.000000 0.000000 0.010768 0.000000 0.000000
# 5 0.000000 0.000000 0.000000 0.000000 0.029690 0.000000
# 6 0.000000 0.000000 0.000000 0.000000 0.000000 0.035100
#
#
# Mechanical properties :
#
#
# Convention : Reuss Voigt Hill
#
# Bulk Modulus (GPa) = 26.83887 32.57359 29.70623
# Shear Modulus (GPa) = 32.49680 42.36272 37.42976
#
# Velocity S-wave (km/s) = 3.78743 4.32430 4.06474
# Velocity P-wave (km/s) = 5.56536 6.26987 5.92809
#
# Compressibility (1/GPa) = 0.03725939
#
# Stress axis : x y z
#
# Youngs Moduli (GPa) = 43.47226 74.58661 65.95888
#
# Poissons Ratio (x) = 0.21689 -0.07851
# Poissons Ratio (y) = 0.12641 0.35871
# Poissons Ratio (z) = -0.05175 0.40563
#
# Static dielectric constant tensor:
#      x y z
#    x 1.913410 0.000000 0.000000 
#    y 0.000000 1.837660 0.000000 
#    z 0.000000 0.000000 1.840050 
# 
# From -- ./inp_files/20032.got.cif
#   From: 2010.05.17/outbox.cif.g08.bks.cpg/sg56_11_cif.got.tgz:20032.got - 2010.06.03 13:42:01.
