data_PCOD9430950
_publ_section_title
;
Structure prediction by ZEFSAII (Michael W. Deem and Ramdas Pophale) SiO2 
 PCOD9430950
Probable space group: P C C N
;
_chemical_formula_sum "Si O2"
_cell_formula_units_Z 28
_cell_length_a 10.274783
_cell_length_b 12.635571
_cell_length_c 9.169862
_cell_angle_alpha 90.000000
_cell_angle_beta 90.000000
_cell_angle_gamma 90.000000
_cell_volume 1190.502552
_symmetry_space_group_name_H-M "P C C N"
_symmetry_group_IT_number 56
_symmetry_cell_setting 'orthorhombic'
loop_
_space_group_symop_operation_xyz
x,y,z
1/2-x,1/2-y,z
1/2+x,-y,1/2-z
-x,1/2+y,1/2-z
-x,-y,-z
1/2+x,1/2+y,-z
1/2-x,y,1/2+z
x,1/2-y,1/2+z
loop_
_atom_site_type_symbol
_atom_site_label
_atom_site_fract_x
_atom_site_fract_y
_atom_site_fract_z
Si Si1 0.425724 0.218619 0.419367
Si Si2 0.750000 0.750000 0.321337
Si Si3 0.122491 0.553907 0.580543
Si Si4 0.625834 0.970198 0.091108
O O1 0.343954 0.176882 0.278849
O O2 0.350112 0.192639 0.569119
O O3 0.571838 0.176558 0.420655
O O4 0.397197 0.343116 0.400603
O O5 0.251160 0.520048 0.494467
O O6 0.128729 0.517975 0.747423
O O7 0.000000 0.500000 0.500000
O O8 0.500000 0.000000 0.000000
#
# Coordination Sequence:
#
# PCOD9430950 Si02
#       4
#     8   4   8   8
#     4  11  22  42  70 102 145 192 246 303 370 447
#     4  10  20  38  70 102 140 192 232 298 376 426
#     4  12  26  45  74 108 142 195 254 305 374 451
#     4  12  26  46  71 105 149 195 244 308 377 446
#
# _framework density 23.519477999999999
#
# number of rings (size 3 to 8) (size 9 to 14) (size 15 to 20)
#    0.000    0.571    0.000   10.286    0.000    1.143 
#    0.000    2.857    0.000    0.000    0.000    0.000 
#    0.000    0.000    0.000    0.000    0.000    0.000 
#
# Total GULP energy -156402.709430 kJ/mol
# GULP energy per Si atom -5585.811051 kJ/mol
# Density = 2.346595 g / cm^3
# Si number density = 23.519478 Si / 1000 Ang^3
#
#
#
# Elastic Constant Matrix: (Units=GPa)
#
#
# Indices 1 2 3 4 5 6 
#
# 1 222.1895 78.7849 107.3003 0.0000 0.0000 0.0000
# 2 78.7849 107.2392 35.7857 0.0000 0.0000 0.0000
# 3 107.3003 35.7857 228.1167 0.0000 0.0000 0.0000
# 4 0.0000 0.0000 0.0000 26.6472 0.0000 0.0000
# 5 0.0000 0.0000 0.0000 0.0000 50.5173 0.0000
# 6 0.0000 0.0000 0.0000 0.0000 0.0000 48.5002
#
#
#
# Elastic Compliance Matrix: (Units=1/GPa)
#
#
# Indices 1 2 3 4 5 6 
#
# 1 0.007465 -0.004551 -0.002798 0.000000 0.000000 0.000000
# 2 -0.004551 0.012614 0.000162 0.000000 0.000000 0.000000
# 3 -0.002798 0.000162 0.005674 0.000000 0.000000 0.000000
# 4 0.000000 0.000000 0.000000 0.037527 0.000000 0.000000
# 5 0.000000 0.000000 0.000000 0.000000 0.019795 0.000000
# 6 0.000000 0.000000 0.000000 0.000000 0.000000 0.020618
#
#
# Mechanical properties :
#
#
# Convention : Reuss Voigt Hill
#
# Bulk Modulus (GPa) = 87.86988 111.25414 99.56201
# Shear Modulus (GPa) = 41.02991 47.51122 44.27056
#
# Velocity S-wave (km/s) = 4.18126 4.49941 4.34325
# Velocity P-wave (km/s) = 7.79437 8.62546 8.22042
#
# Compressibility (1/GPa) = 0.01138046
#
# Stress axis : x y z
#
# Youngs Moduli (GPa) = 133.95120 79.27430 176.23445
#
# Poissons Ratio (x) = 0.36078 0.49303
# Poissons Ratio (y) = 0.60961 -0.02851
# Poissons Ratio (z) = 0.37474 -0.01283
#
# Static dielectric constant tensor:
#      x y z
#    x -1.491120 0.000000 0.000000 
#    y 0.000000 2.311860 0.000000 
#    z 0.000000 0.000000 2.008960 
# 
# From -- ./inp_files/2381.got.cif
#   From: 2010.05.17/outbox.cif.g08.bks.cpg/sg56_2_cif.got.tgz:2381.got - 2010.06.03 13:42:01.
