data_PCOD9430003
_publ_section_title
;
Structure prediction by ZEFSAII (Michael W. Deem and Ramdas Pophale) SiO2 
 PCOD9430003
Probable space group: P C C N
;
_chemical_formula_sum "Si O2"
_cell_formula_units_Z 60
_cell_length_a 20.209800
_cell_length_b 7.989005
_cell_length_c 13.676415
_cell_angle_alpha 90.000000
_cell_angle_beta 90.000000
_cell_angle_gamma 90.000000
_cell_volume 2208.141903
_symmetry_space_group_name_H-M "P C C N"
_symmetry_group_IT_number 56
_symmetry_cell_setting 'orthorhombic'
loop_
_space_group_symop_operation_xyz
x,y,z
1/2-x,1/2-y,z
1/2+x,-y,1/2-z
-x,1/2+y,1/2-z
-x,-y,-z
1/2+x,1/2+y,-z
1/2-x,y,1/2+z
x,1/2-y,1/2+z
loop_
_atom_site_type_symbol
_atom_site_label
_atom_site_fract_x
_atom_site_fract_y
_atom_site_fract_z
Si Si1 0.642872 0.256969 0.228398
Si Si2 0.250000 0.250000 0.548129
Si Si3 0.070722 0.530659 0.885097
Si Si4 0.936588 0.834169 0.026776
Si Si5 0.870703 0.315322 0.943127
Si Si6 0.381131 0.311639 0.647667
Si Si7 0.966773 0.975710 0.208386
Si Si8 0.696968 0.451259 0.067012
O O1 0.637772 0.085953 0.169006
O O2 0.638024 0.216657 0.341719
O O3 0.572516 0.349904 0.205901
O O4 0.695943 0.384937 0.180042
O O5 0.311856 0.229675 0.620935
O O6 0.248741 0.415394 0.477806
O O7 0.075118 0.350853 0.932281
O O8 0.068387 0.657726 0.979646
O O9 0.016258 0.522100 0.799818
O O10 0.935173 0.795233 0.911903
O O11 0.989639 0.914106 0.101505
O O12 0.872478 0.949709 0.048226
O O13 0.868932 0.501589 0.896450
O O14 0.816319 0.220890 0.008092
O O15 0.410387 0.343407 0.753784
#
# Coordination Sequence:
#
# PCOD9430003 Si02
#       8
#     8   4   8   8   8   8   8   8
#     4   9  19  35  54  81 116 150 187 230 273 332
#     4  10  20  38  62  82 106 142 182 234 288 332
#     4  10  19  31  54  82 113 157 191 222 279 334
#     4   9  19  34  52  79 111 143 185 232 272 325
#     4   9  19  36  57  84 116 147 185 229 277 339
#     4   9  20  36  56  80 109 145 184 232 287 332
#     4  10  19  33  53  81 117 152 190 232 275 336
#     4   9  19  37  60  84 111 143 187 235 282 329
#
# _framework density 27.172167000000002
#
# number of rings (size 3 to 8) (size 9 to 14) (size 15 to 20)
#    0.000    2.667    0.000    0.800    0.000    8.533 
#    0.000   10.667    0.000   32.000    0.000    0.000 
#    0.000    0.000    0.000    0.000    0.000    0.000 
#
# Total GULP energy -334458.107487 kJ/mol
# GULP energy per Si atom -5574.301791 kJ/mol
# Density = 2.711032 g / cm^3
# Si number density = 27.172167 Si / 1000 Ang^3
#
#
#
# Elastic Constant Matrix: (Units=GPa)
#
#
# Indices 1 2 3 4 5 6 
#
# 1 61.0208 29.1277 -2.0166 0.0000 0.0000 0.0000
# 2 29.1277 98.6479 10.7222 0.0000 0.0000 0.0000
# 3 -2.0166 10.7222 81.1063 0.0000 0.0000 0.0000
# 4 0.0000 0.0000 0.0000 41.3061 0.0000 0.0000
# 5 0.0000 0.0000 0.0000 0.0000 19.2375 0.0000
# 6 0.0000 0.0000 0.0000 0.0000 0.0000 34.8324
#
#
#
# Elastic Compliance Matrix: (Units=1/GPa)
#
#
# Indices 1 2 3 4 5 6 
#
# 1 0.019200 -0.005804 0.001245 0.000000 0.000000 0.000000
# 2 -0.005804 0.012040 -0.001736 0.000000 0.000000 0.000000
# 3 0.001245 -0.001736 0.012590 0.000000 0.000000 0.000000
# 4 0.000000 0.000000 0.000000 0.024209 0.000000 0.000000
# 5 0.000000 0.000000 0.000000 0.000000 0.051982 0.000000
# 6 0.000000 0.000000 0.000000 0.000000 0.000000 0.028709
#
#
# Mechanical properties :
#
#
# Convention : Reuss Voigt Hill
#
# Bulk Modulus (GPa) = 32.01230 35.16017 33.58624
# Shear Modulus (GPa) = 29.11495 32.60466 30.85981
#
# Velocity S-wave (km/s) = 3.27693 3.46776 3.37369
# Velocity P-wave (km/s) = 5.11122 5.38532 5.25006
#
# Compressibility (1/GPa) = 0.03123799
#
# Stress axis : x y z
#
# Youngs Moduli (GPa) = 52.08430 83.05938 79.42855
#
# Poissons Ratio (x) = 0.48210 -0.09886
# Poissons Ratio (y) = 0.30232 0.13788
# Poissons Ratio (z) = -0.06483 0.14419
#
# Static dielectric constant tensor:
#      x y z
#    x 2.283360 0.000000 0.000000 
#    y 0.000000 2.164260 0.000000 
#    z 0.000000 0.000000 2.229740 
# 
# From -- ./inp_files/13408.got.cif
#   From: 2010.05.17/outbox.cif.g08.bks.cpg/sg56_7_cif.got.tgz:13408.got - 2010.06.03 13:42:01.
