data_PCOD9430410
_publ_section_title
;
Structure prediction by ZEFSAII (Michael W. Deem and Ramdas Pophale) SiO2 
 PCOD9430410
Probable space group: P C C N
;
_chemical_formula_sum "Si O2"
_cell_formula_units_Z 40
_cell_length_a 8.888297
_cell_length_b 12.827752
_cell_length_c 13.706731
_cell_angle_alpha 90.000000
_cell_angle_beta 90.000000
_cell_angle_gamma 90.000000
_cell_volume 1562.798561
_symmetry_space_group_name_H-M "P C C N"
_symmetry_group_IT_number 56
_symmetry_cell_setting 'orthorhombic'
loop_
_space_group_symop_operation_xyz
x,y,z
1/2-x,1/2-y,z
1/2+x,-y,1/2-z
-x,1/2+y,1/2-z
-x,-y,-z
1/2+x,1/2+y,-z
1/2-x,y,1/2+z
x,1/2-y,1/2+z
loop_
_atom_site_type_symbol
_atom_site_label
_atom_site_fract_x
_atom_site_fract_y
_atom_site_fract_z
Si Si1 0.111405 0.520808 0.724330
Si Si2 0.563185 0.092350 0.569147
Si Si3 0.691368 0.366411 0.437525
Si Si4 0.893331 0.697313 0.997253
Si Si5 0.829983 0.859852 0.283267
O O1 0.224662 0.568884 0.644531
O O2 0.228097 0.443033 0.775884
O O3 0.995470 0.439033 0.674379
O O4 0.003814 0.613511 0.760239
O O5 0.738608 0.101485 0.542633
O O6 0.490665 0.203590 0.541322
O O7 0.500000 0.000000 0.500000
O O8 0.750000 0.250000 0.419017
O O9 0.511961 0.368975 0.441273
O O10 0.750000 0.750000 0.047932
O O11 0.831134 0.636091 0.902758
O O12 0.750000 0.750000 0.264650
#
# Coordination Sequence:
#
# PCOD9430410 Si02
#       5
#     8   8   8   8   8
#     4  11  23  43  65  99 138 183 236 278 355 425
#     4   9  18  39  64  92 132 171 228 281 334 413
#     4   9  21  39  65 101 131 174 227 291 342 407
#     4  10  19  41  67  98 138 176 225 292 351 408
#     4  11  25  44  67 101 143 187 231 285 351 431
#
# _framework density 25.595110999999999
#
# number of rings (size 3 to 8) (size 9 to 14) (size 15 to 20)
#    0.000    2.000    4.000    0.000    2.800    2.400 
#    0.000   11.000    0.000    0.000    0.000    0.000 
#    0.000    0.000    0.000    0.000    0.000    0.000 
#
# Total GULP energy -223235.237799 kJ/mol
# GULP energy per Si atom -5580.880945 kJ/mol
# Density = 2.553686 g / cm^3
# Si number density = 25.595111 Si / 1000 Ang^3
#
#
#
# Elastic Constant Matrix: (Units=GPa)
#
#
# Indices 1 2 3 4 5 6 
#
# 1 209.0245 42.2928 35.0400 0.0000 0.0000 0.0000
# 2 42.2928 117.2982 3.2487 0.0000 0.0000 0.0000
# 3 35.0400 3.2487 28.7823 0.0000 0.0000 0.0000
# 4 0.0000 0.0000 0.0000 15.2643 0.0000 0.0000
# 5 0.0000 0.0000 0.0000 0.0000 41.2437 0.0000
# 6 0.0000 0.0000 0.0000 0.0000 0.0000 53.8325
#
#
#
# Elastic Compliance Matrix: (Units=1/GPa)
#
#
# Indices 1 2 3 4 5 6 
#
# 1 0.006502 -0.002132 -0.007675 0.000000 0.000000 0.000000
# 2 -0.002132 0.009251 0.001551 0.000000 0.000000 0.000000
# 3 -0.007675 0.001551 0.043912 0.000000 0.000000 0.000000
# 4 0.000000 0.000000 0.000000 0.065512 0.000000 0.000000
# 5 0.000000 0.000000 0.000000 0.000000 0.024246 0.000000
# 6 0.000000 0.000000 0.000000 0.000000 0.000000 0.018576
#
#
# Mechanical properties :
#
#
# Convention : Reuss Voigt Hill
#
# Bulk Modulus (GPa) = 23.17298 57.36312 40.26805
# Shear Modulus (GPa) = 25.13877 40.36967 32.75422
#
# Velocity S-wave (km/s) = 3.13736 3.97576 3.58118
# Velocity P-wave (km/s) = 4.71141 6.59818 5.73294
#
# Compressibility (1/GPa) = 0.04315370
#
# Stress axis : x y z
#
# Youngs Moduli (GPa) = 153.79673 108.09685 22.77268
#
# Poissons Ratio (x) = 0.23044 0.17478
# Poissons Ratio (y) = 0.32787 -0.03532
# Poissons Ratio (z) = 1.18041 -0.16767
#
# Static dielectric constant tensor:
#      x y z
#    x 2.082370 0.000000 0.000000 
#    y 0.000000 2.104380 0.000000 
#    z 0.000000 0.000000 2.099270 
# 
# From -- ./inp_files/14440.got.cif
#   From: 2010.05.17/outbox.cif.g08.bks.cpg/sg56_8_cif.got.tgz:14440.got - 2010.06.03 13:42:01.
