data_PCOD9430921
_publ_section_title
;
Structure prediction by ZEFSAII (Michael W. Deem and Ramdas Pophale) SiO2 
 PCOD9430921
Probable space group: P C C N
;
_chemical_formula_sum "Si O2"
_cell_formula_units_Z 60
_cell_length_a 8.441223
_cell_length_b 19.734244
_cell_length_c 14.231282
_cell_angle_alpha 90.000000
_cell_angle_beta 90.000000
_cell_angle_gamma 90.000000
_cell_volume 2370.663383
_symmetry_space_group_name_H-M "P C C N"
_symmetry_group_IT_number 56
_symmetry_cell_setting 'orthorhombic'
loop_
_space_group_symop_operation_xyz
x,y,z
1/2-x,1/2-y,z
1/2+x,-y,1/2-z
-x,1/2+y,1/2-z
-x,-y,-z
1/2+x,1/2+y,-z
1/2-x,y,1/2+z
x,1/2-y,1/2+z
loop_
_atom_site_type_symbol
_atom_site_label
_atom_site_fract_x
_atom_site_fract_y
_atom_site_fract_z
Si Si1 0.750000 0.250000 0.144472
Si Si2 0.323264 0.347151 0.005886
Si Si3 0.422299 0.732609 0.533303
Si Si4 0.881446 0.501493 0.791568
Si Si5 0.297880 0.038507 0.880920
Si Si6 0.343740 0.159747 0.180673
Si Si7 0.842990 0.511176 0.441772
Si Si8 0.516549 0.791347 0.232902
O O1 0.643922 0.300217 0.207166
O O2 0.860218 0.291185 0.069542
O O3 0.270013 0.388345 0.913478
O O4 0.366230 0.409011 0.074915
O O5 0.033708 0.202201 0.985046
O O6 0.180383 0.318069 0.069981
O O7 0.250000 0.750000 0.577267
O O8 0.500332 0.695713 0.622121
O O9 0.832154 0.501359 0.683645
O O10 0.901362 0.582255 0.813654
O O11 0.036902 0.463562 0.826704
O O12 0.724916 0.477342 0.849293
O O13 0.299960 0.002489 0.982472
O O14 0.169962 0.171802 0.226267
O O15 0.448647 0.211752 0.241937
O O16 0.000000 0.500000 0.500000
#
# Coordination Sequence:
#
# PCOD9430921 Si02
#       8
#     4   8   8   8   8   8   8   8
#     4  10  20  40  60  88 128 162 216 260 330 370
#     4   9  20  40  63  90 125 168 219 264 335 397
#     4  10  20  38  65  91 132 169 216 272 323 399
#     4  11  21  42  62  93 127 172 216 275 341 396
#     4  10  22  38  66  89 130 167 220 278 332 408
#     4  10  22  40  65  88 129 169 219 267 333 397
#     4   9  20  38  63  89 129 164 211 272 327 396
#     4  11  21  42  63  93 127 176 212 275 323 394
#
# _framework density 25.309372
#
# number of rings (size 3 to 8) (size 9 to 14) (size 15 to 20)
#    1.200    0.800    2.000    2.000    0.000    0.000 
#    9.600    2.667    0.000    0.000    0.000    0.000 
#    0.000    0.000    0.000    0.000    0.000    0.000 
#
# Total GULP energy -334201.388187 kJ/mol
# GULP energy per Si atom -5570.023136 kJ/mol
# Density = 2.525177 g / cm^3
# Si number density = 25.309372 Si / 1000 Ang^3
#
#
#
# Elastic Constant Matrix: (Units=GPa)
#
#
# Indices 1 2 3 4 5 6 
#
# 1 106.9409 11.4101 12.7576 0.0000 0.0000 0.0000
# 2 11.4101 44.1999 -3.7905 0.0000 0.0000 0.0000
# 3 12.7576 -3.7905 158.2219 0.0000 0.0000 0.0000
# 4 0.0000 0.0000 0.0000 21.0366 0.0000 0.0000
# 5 0.0000 0.0000 0.0000 0.0000 26.1400 0.0000
# 6 0.0000 0.0000 0.0000 0.0000 0.0000 32.9555
#
#
#
# Elastic Compliance Matrix: (Units=1/GPa)
#
#
# Indices 1 2 3 4 5 6 
#
# 1 0.009728 -0.002584 -0.000846 0.000000 0.000000 0.000000
# 2 -0.002584 0.023357 0.000768 0.000000 0.000000 0.000000
# 3 -0.000846 0.000768 0.006407 0.000000 0.000000 0.000000
# 4 0.000000 0.000000 0.000000 0.047536 0.000000 0.000000
# 5 0.000000 0.000000 0.000000 0.000000 0.038256 0.000000
# 6 0.000000 0.000000 0.000000 0.000000 0.000000 0.030344
#
#
# Mechanical properties :
#
#
# Convention : Reuss Voigt Hill
#
# Bulk Modulus (GPa) = 29.26746 38.90189 34.08468
# Shear Modulus (GPa) = 29.01228 35.29212 32.15220
#
# Velocity S-wave (km/s) = 3.38939 3.73826 3.56809
# Velocity P-wave (km/s) = 5.18712 5.83409 5.52010
#
# Compressibility (1/GPa) = 0.03416763
#
# Stress axis : x y z
#
# Youngs Moduli (GPa) = 102.80042 42.81314 156.08250
#
# Poissons Ratio (x) = 0.11062 0.13208
# Poissons Ratio (y) = 0.26561 -0.11985
# Poissons Ratio (z) = 0.08699 -0.03288
#
# Static dielectric constant tensor:
#      x y z
#    x 2.312540 0.000000 0.000000 
#    y 0.000000 2.136100 0.000000 
#    z 0.000000 0.000000 2.101600 
# 
# From -- ./inp_files/11004.got.cif
#   From: 2010.05.17/outbox.cif.g08.bks.cpg/sg56_6_cif.got.tgz:11004.got - 2010.06.03 13:42:01.
