data_PCOD9430572
_publ_section_title
;
Structure prediction by ZEFSAII (Michael W. Deem and Ramdas Pophale) SiO2 
 PCOD9430572
Probable space group: P C C N
;
_chemical_formula_sum "Si O2"
_cell_formula_units_Z 48
_cell_length_a 8.030784
_cell_length_b 15.266010
_cell_length_c 17.942045
_cell_angle_alpha 90.000000
_cell_angle_beta 90.000000
_cell_angle_gamma 90.000000
_cell_volume 2199.659351
_symmetry_space_group_name_H-M "P C C N"
_symmetry_group_IT_number 56
_symmetry_cell_setting 'orthorhombic'
loop_
_space_group_symop_operation_xyz
x,y,z
1/2-x,1/2-y,z
1/2+x,-y,1/2-z
-x,1/2+y,1/2-z
-x,-y,-z
1/2+x,1/2+y,-z
1/2-x,y,1/2+z
x,1/2-y,1/2+z
loop_
_atom_site_type_symbol
_atom_site_label
_atom_site_fract_x
_atom_site_fract_y
_atom_site_fract_z
Si Si1 0.798086 0.522033 0.588035
Si Si2 0.750000 0.750000 0.465777
Si Si3 0.750000 0.750000 0.216356
Si Si4 0.442596 0.084558 0.255511
Si Si5 0.035929 0.152254 0.410700
Si Si6 0.236812 0.553515 0.158033
Si Si7 0.436496 0.089878 0.562437
O O1 0.851025 0.554034 0.668745
O O2 0.612690 0.554636 0.576091
O O3 0.899384 0.576391 0.525041
O O4 0.868353 0.424612 0.577830
O O5 0.892386 0.793451 0.519297
O O6 0.650578 0.820398 0.417962
O O7 0.856208 0.822464 0.260861
O O8 0.620921 0.800212 0.160687
O O9 0.635641 0.088599 0.278975
O O10 0.401124 0.007871 0.197670
O O11 0.846494 0.131309 0.389513
O O12 0.340461 0.487067 0.106089
#
# Coordination Sequence:
#
# PCOD9430572 Si02
#       7
#     8   4   4   8   8   8   8
#     4   8  16  33  54  77 109 147 189 230 285 354
#     4   9  18  33  56  86 118 150 196 256 310 352
#     4   9  18  35  56  78 110 146 188 242 290 336
#     4  10  20  35  56  84 117 154 194 240 291 348
#     4   9  18  34  56  81 112 152 196 242 291 356
#     4  11  22  36  58  85 116 158 202 238 295 368
#     4   9  18  33  56  82 110 150 193 241 298 354
#
# _framework density 21.821560999999999
#
# number of rings (size 3 to 8) (size 9 to 14) (size 15 to 20)
#    0.000    2.667    0.000    3.000    0.000    4.000 
#    0.000    0.000    0.000   13.000    0.000    9.333 
#    0.000    0.000    0.000    0.000    0.000    0.000 
#
# Total GULP energy -267299.193987 kJ/mol
# GULP energy per Si atom -5568.733208 kJ/mol
# Density = 2.177189 g / cm^3
# Si number density = 21.821561 Si / 1000 Ang^3
#
#
#
# Elastic Constant Matrix: (Units=GPa)
#
#
# Indices 1 2 3 4 5 6 
#
# 1 63.9461 38.4110 6.8994 0.0000 0.0000 0.0000
# 2 38.4110 99.4782 12.7652 0.0000 0.0000 0.0000
# 3 6.8994 12.7652 48.3439 0.0000 0.0000 0.0000
# 4 0.0000 0.0000 0.0000 13.3907 0.0000 0.0000
# 5 0.0000 0.0000 0.0000 0.0000 28.5515 0.0000
# 6 0.0000 0.0000 0.0000 0.0000 0.0000 30.3870
#
#
#
# Elastic Compliance Matrix: (Units=1/GPa)
#
#
# Indices 1 2 3 4 5 6 
#
# 1 0.020395 -0.007765 -0.000860 0.000000 0.000000 0.000000
# 2 -0.007765 0.013361 -0.002420 0.000000 0.000000 0.000000
# 3 -0.000860 -0.002420 0.021447 0.000000 0.000000 0.000000
# 4 0.000000 0.000000 0.000000 0.074679 0.000000 0.000000
# 5 0.000000 0.000000 0.000000 0.000000 0.035024 0.000000
# 6 0.000000 0.000000 0.000000 0.000000 0.000000 0.032909
#
#
# Mechanical properties :
#
#
# Convention : Reuss Voigt Hill
#
# Bulk Modulus (GPa) = 30.19944 36.43549 33.31747
# Shear Modulus (GPa) = 21.65040 24.71201 23.18121
#
# Velocity S-wave (km/s) = 3.15327 3.36885 3.26284
# Velocity P-wave (km/s) = 5.20834 5.64495 5.43103
#
# Compressibility (1/GPa) = 0.03311319
#
# Stress axis : x y z
#
# Youngs Moduli (GPa) = 49.03146 74.84418 46.62683
#
# Poissons Ratio (x) = 0.58114 0.04012
# Poissons Ratio (y) = 0.38071 0.11283
# Poissons Ratio (z) = 0.04219 0.18111
#
# Static dielectric constant tensor:
#      x y z
#    x 1.875190 0.000000 0.000000 
#    y 0.000000 1.876730 0.000000 
#    z 0.000000 0.000000 1.797960 
# 
# From -- ./inp_files/14898.got.cif
#   From: 2010.05.17/outbox.cif.g08.bks.cpg/sg56_8_cif.got.tgz:14898.got - 2010.06.03 13:42:01.
