data_PCOD9430978
_publ_section_title
;
Structure prediction by ZEFSAII (Michael W. Deem and Ramdas Pophale) SiO2 
 PCOD9430978
Probable space group: P C C N
;
_chemical_formula_sum "Si O2"
_cell_formula_units_Z 64
_cell_length_a 21.896637
_cell_length_b 9.606827
_cell_length_c 13.847862
_cell_angle_alpha 90.000000
_cell_angle_beta 90.000000
_cell_angle_gamma 90.000000
_cell_volume 2912.997525
_symmetry_space_group_name_H-M "P C C N"
_symmetry_group_IT_number 56
_symmetry_cell_setting 'orthorhombic'
loop_
_space_group_symop_operation_xyz
x,y,z
1/2-x,1/2-y,z
1/2+x,-y,1/2-z
-x,1/2+y,1/2-z
-x,-y,-z
1/2+x,1/2+y,-z
1/2-x,y,1/2+z
x,1/2-y,1/2+z
loop_
_atom_site_type_symbol
_atom_site_label
_atom_site_fract_x
_atom_site_fract_y
_atom_site_fract_z
Si Si1 0.731727 0.590577 0.324849
Si Si2 0.793072 0.124330 0.691644
Si Si3 0.628100 0.982030 0.679784
Si Si4 0.059546 0.099490 0.992752
Si Si5 0.572996 0.272878 0.731162
Si Si6 0.107740 0.674138 0.560059
Si Si7 0.511302 0.354480 0.554899
Si Si8 0.724492 0.422457 0.008802
O O1 0.750000 0.750000 0.328068
O O2 0.775283 0.512493 0.248877
O O3 0.664734 0.566388 0.275029
O O4 0.746416 0.525004 0.429427
O O5 0.750000 0.250000 0.729488
O O6 0.862446 0.157171 0.708767
O O7 0.780127 0.118245 0.578274
O O8 0.586084 0.881716 0.614996
O O9 0.584093 0.111790 0.703799
O O10 0.679052 0.029360 0.598920
O O11 0.043858 0.248278 0.034698
O O12 0.103434 0.994971 0.050963
O O13 0.000000 0.000000 0.000000
O O14 0.570500 0.284141 0.845475
O O15 0.522203 0.353535 0.669893
O O16 0.072132 0.769294 0.481906
O O17 0.181102 0.684525 0.551840
O O18 0.500000 0.500000 0.500000
#
# Coordination Sequence:
#
# PCOD9430978 Si02
#       8
#     8   8   8   8   8   8   8   8
#     4  11  24  39  60  98 134 168 219 274 329 400
#     4  11  21  38  66  94 127 174 217 268 321 393
#     4  10  21  41  66  94 125 176 216 264 330 396
#     4   9  18  43  69  84 130 178 207 264 342 382
#     4  12  21  39  67  98 125 162 232 270 319 400
#     4  10  21  40  70  94 130 176 214 267 335 403
#     4  11  24  43  66 101 130 163 225 280 327 391
#     4  10  20  39  62  92 135 174 207 253 339 387
#
# _framework density 21.970497000000002
#
# number of rings (size 3 to 8) (size 9 to 14) (size 15 to 20)
#    0.000    1.500    7.500    0.000    0.000    6.500 
#    0.000    3.750    0.000    0.000    0.000    0.000 
#    0.000    0.000    0.000    0.000    0.000    0.000 
#
# Total GULP energy -356365.403541 kJ/mol
# GULP energy per Si atom -5568.209430 kJ/mol
# Density = 2.192049 g / cm^3
# Si number density = 21.970497 Si / 1000 Ang^3
#
#
#
# Elastic Constant Matrix: (Units=GPa)
#
#
# Indices 1 2 3 4 5 6 
#
# 1 20.2832 -4.9969 -13.8158 0.0000 0.0000 0.0000
# 2 -4.9969 89.9069 14.2209 0.0000 0.0000 0.0000
# 3 -13.8158 14.2209 88.1499 0.0000 0.0000 0.0000
# 4 0.0000 0.0000 0.0000 72.8925 0.0000 0.0000
# 5 0.0000 0.0000 0.0000 0.0000 21.4045 0.0000
# 6 0.0000 0.0000 0.0000 0.0000 0.0000 23.1106
#
#
#
# Elastic Compliance Matrix: (Units=1/GPa)
#
#
# Indices 1 2 3 4 5 6 
#
# 1 0.055462 0.001752 0.008410 0.000000 0.000000 0.000000
# 2 0.001752 0.011469 -0.001576 0.000000 0.000000 0.000000
# 3 0.008410 -0.001576 0.012917 0.000000 0.000000 0.000000
# 4 0.000000 0.000000 0.000000 0.013719 0.000000 0.000000
# 5 0.000000 0.000000 0.000000 0.000000 0.046719 0.000000
# 6 0.000000 0.000000 0.000000 0.000000 0.000000 0.043270
#
#
# Mechanical properties :
#
#
# Convention : Reuss Voigt Hill
#
# Bulk Modulus (GPa) = 10.30706 21.01738 15.66222
# Shear Modulus (GPa) = 25.16062 37.01030 31.08546
#
# Velocity S-wave (km/s) = 3.38775 4.10877 3.76556
# Velocity P-wave (km/s) = 4.47258 5.66536 5.10394
#
# Compressibility (1/GPa) = 0.09702088
#
# Stress axis : x y z
#
# Youngs Moduli (GPa) = 18.03036 87.18979 77.41977
#
# Poissons Ratio (x) = -0.15278 -0.65109
# Poissons Ratio (y) = -0.03159 0.12199
# Poissons Ratio (z) = -0.15163 0.13738
#
# Static dielectric constant tensor:
#      x y z
#    x 1.886680 0.000000 0.000000 
#    y 0.000000 1.788660 0.000000 
#    z 0.000000 0.000000 1.931190 
# 
# From -- ./inp_files/13275.got.cif
#   From: 2010.05.17/outbox.cif.g08.bks.cpg/sg56_7_cif.got.tgz:13275.got - 2010.06.03 13:42:01.
