data_PCOD9430166
_publ_section_title
;
Structure prediction by ZEFSAII (Michael W. Deem and Ramdas Pophale) SiO2 
 PCOD9430166
Probable space group: P C C N
;
_chemical_formula_sum "Si O2"
_cell_formula_units_Z 32
_cell_length_a 5.334082
_cell_length_b 11.863139
_cell_length_c 21.160750
_cell_angle_alpha 90.000000
_cell_angle_beta 90.000000
_cell_angle_gamma 90.000000
_cell_volume 1339.030172
_symmetry_space_group_name_H-M "P C C N"
_symmetry_group_IT_number 56
_symmetry_cell_setting 'orthorhombic'
loop_
_space_group_symop_operation_xyz
x,y,z
1/2-x,1/2-y,z
1/2+x,-y,1/2-z
-x,1/2+y,1/2-z
-x,-y,-z
1/2+x,1/2+y,-z
1/2-x,y,1/2+z
x,1/2-y,1/2+z
loop_
_atom_site_type_symbol
_atom_site_label
_atom_site_fract_x
_atom_site_fract_y
_atom_site_fract_z
Si Si1 0.517396 0.594415 0.311910
Si Si2 0.309418 0.068873 0.456615
Si Si3 0.017668 0.441957 0.323636
Si Si4 0.538717 0.161335 0.058209
O O1 0.250133 0.528668 0.313722
O O2 0.529665 0.635116 0.239028
O O3 0.523992 0.684764 0.368500
O O4 0.755598 0.511122 0.324194
O O5 0.436328 0.113315 0.392429
O O6 0.164735 0.149690 0.503782
O O7 0.500000 0.000000 0.500000
O O8 0.124033 0.968643 0.436297
O O9 0.750000 0.250000 0.038719
#
# Coordination Sequence:
#
# PCOD9430166 Si02
#       4
#     8   8   8   8
#     4   9  17  32  53  86 114 156 206 261 321 384
#     4  10  19  35  57  87 119 165 217 261 331 398
#     4   9  17  31  56  83 113 155 209 260 316 393
#     4  10  21  35  56  91 124 163 214 273 326 398
#
# _framework density 23.897893
#
# number of rings (size 3 to 8) (size 9 to 14) (size 15 to 20)
#    0.000    2.500    2.500    0.000    0.000    1.000 
#    0.000    0.000    0.000    1.500   52.000    0.000 
#    0.000    0.000    0.000    0.000    0.000    0.000 
#
# Total GULP energy -178333.185341 kJ/mol
# GULP energy per Si atom -5572.912042 kJ/mol
# Density = 2.384350 g / cm^3
# Si number density = 23.897893 Si / 1000 Ang^3
#
#
#
# Elastic Constant Matrix: (Units=GPa)
#
#
# Indices 1 2 3 4 5 6 
#
# 1 144.2145 27.8082 42.5809 0.0000 0.0000 0.0000
# 2 27.8082 53.9913 17.3891 0.0000 0.0000 0.0000
# 3 42.5809 17.3891 247.6230 0.0000 0.0000 0.0000
# 4 0.0000 0.0000 0.0000 -55.1059 0.0000 0.0000
# 5 0.0000 0.0000 0.0000 0.0000 -472.4416 0.0000
# 6 0.0000 0.0000 0.0000 0.0000 0.0000 44.9201
#
#
#
# Elastic Compliance Matrix: (Units=1/GPa)
#
#
# Indices 1 2 3 4 5 6 
#
# 1 0.007986 -0.003756 -0.001109 0.000000 0.000000 0.000000
# 2 -0.003756 0.020716 -0.000809 0.000000 0.000000 0.000000
# 3 -0.001109 -0.000809 0.004286 0.000000 0.000000 0.000000
# 4 0.000000 0.000000 0.000000 -0.018147 0.000000 0.000000
# 5 0.000000 0.000000 0.000000 0.000000 -0.002117 0.000000
# 6 0.000000 0.000000 0.000000 0.000000 0.000000 0.022262
#
#
# Mechanical properties :
#
#
# Convention : Reuss Voigt Hill
#
# Bulk Modulus (GPa) = 46.21102 69.04280 57.62691
# Shear Modulus (GPa) = 93.37355 -72.65542 10.35906
#
# Velocity S-wave (km/s) = 6.25753 -5.51982 2.08426
# Velocity P-wave (km/s) = 8.46096 3.41630 5.47342
#
# Compressibility (1/GPa) = 0.02163986
#
# Stress axis : x y z
#
# Youngs Moduli (GPa) = 125.22040 48.27080 233.31813
#
# Poissons Ratio (x) = 0.18130 0.25887
# Poissons Ratio (y) = 0.47030 0.18874
# Poissons Ratio (z) = 0.13893 0.03905
#
# Static dielectric constant tensor:
#      x y z
#    x 1.747170 0.000000 0.000000 
#    y 0.000000 1.600600 0.000000 
#    z 0.000000 0.000000 2.273140 
# 
# From -- ./inp_files/17256.got.cif
#   From: 2010.05.17/outbox.cif.g08.bks.cpg/sg56_9_cif.got.tgz:17256.got - 2010.06.03 13:42:01.
