data_PCOD9430456
_publ_section_title
;
Structure prediction by ZEFSAII (Michael W. Deem and Ramdas Pophale) SiO2 
 PCOD9430456
Probable space group: P C C N
;
_chemical_formula_sum "Si O2"
_cell_formula_units_Z 56
_cell_length_a 12.718130
_cell_length_b 23.480654
_cell_length_c 10.627811
_cell_angle_alpha 90.000000
_cell_angle_beta 90.000000
_cell_angle_gamma 90.000000
_cell_volume 3173.783306
_symmetry_space_group_name_H-M "P C C N"
_symmetry_group_IT_number 56
_symmetry_cell_setting 'orthorhombic'
loop_
_space_group_symop_operation_xyz
x,y,z
1/2-x,1/2-y,z
1/2+x,-y,1/2-z
-x,1/2+y,1/2-z
-x,-y,-z
1/2+x,1/2+y,-z
1/2-x,y,1/2+z
x,1/2-y,1/2+z
loop_
_atom_site_type_symbol
_atom_site_label
_atom_site_fract_x
_atom_site_fract_y
_atom_site_fract_z
Si Si1 0.637746 0.174382 0.497399
Si Si2 0.933735 0.381192 0.232635
Si Si3 0.904298 0.548991 0.637759
Si Si4 0.068055 0.617855 0.238134
Si Si5 0.415617 0.452881 0.130596
Si Si6 0.254471 0.530848 0.247738
Si Si7 0.889320 0.306414 0.997399
O O1 0.604005 0.142897 0.368633
O O2 0.602914 0.142581 0.625288
O O3 0.594777 0.238776 0.496616
O O4 0.764059 0.180726 0.498695
O O5 0.845564 0.428597 0.196759
O O6 0.934581 0.334652 0.123801
O O7 0.046463 0.410491 0.256641
O O8 0.905457 0.578447 0.502225
O O9 0.796286 0.517018 0.663779
O O10 0.988088 0.497507 0.627904
O O11 0.158375 0.571102 0.204354
O O12 0.954176 0.589122 0.260095
O O13 0.067733 0.664367 0.129027
O O14 0.314593 0.492698 0.145824
#
# Coordination Sequence:
#
# PCOD9430456 Si02
#       7
#     8   8   8   8   8   8   8
#     4  11  20  36  53  76 110 150 178 210 283 328
#     4  11  20  35  54  79 111 146 175 222 270 319
#     4   9  19  34  53  74 106 148 182 209 270 325
#     4  11  20  35  54  79 111 146 175 222 270 319
#     4   9  19  34  53  74 106 148 182 209 270 325
#     4  10  20  32  53  80 105 140 180 220 248 326
#     4  11  22  32  53  82 110 138 182 230 263 320
#
# _framework density 17.644556000000001
#
# number of rings (size 3 to 8) (size 9 to 14) (size 15 to 20)
#    0.000    1.714    4.286    0.857    4.000    2.286 
#    2.571    2.143    0.000    0.000    0.000    6.000 
#    0.000    0.000    0.000    0.000    0.000    0.000 
#
# Total GULP energy -311889.654707 kJ/mol
# GULP energy per Si atom -5569.458120 kJ/mol
# Density = 1.760440 g / cm^3
# Si number density = 17.644556 Si / 1000 Ang^3
#
#
#
# Elastic Constant Matrix: (Units=GPa)
#
#
# Indices 1 2 3 4 5 6 
#
# 1 34.9984 22.8234 12.4528 0.0000 0.0000 0.0000
# 2 22.8234 62.9687 12.1798 0.0000 0.0000 0.0000
# 3 12.4528 12.1798 53.6746 0.0000 0.0000 0.0000
# 4 0.0000 0.0000 0.0000 20.3423 0.0000 0.0000
# 5 0.0000 0.0000 0.0000 0.0000 6.4879 0.0000
# 6 0.0000 0.0000 0.0000 0.0000 0.0000 22.1146
#
#
#
# Elastic Compliance Matrix: (Units=1/GPa)
#
#
# Indices 1 2 3 4 5 6 
#
# 1 0.039267 -0.013043 -0.006150 0.000000 0.000000 0.000000
# 2 -0.013043 0.020942 -0.001726 0.000000 0.000000 0.000000
# 3 -0.006150 -0.001726 0.020449 0.000000 0.000000 0.000000
# 4 0.000000 0.000000 0.000000 0.049159 0.000000 0.000000
# 5 0.000000 0.000000 0.000000 0.000000 0.154133 0.000000
# 6 0.000000 0.000000 0.000000 0.000000 0.000000 0.045219
#
#
# Mechanical properties :
#
#
# Convention : Reuss Voigt Hill
#
# Bulk Modulus (GPa) = 25.76026 27.39488 26.57757
# Shear Modulus (GPa) = 13.02260 16.73468 14.87864
#
# Velocity S-wave (km/s) = 2.71966 3.08300 2.90701
# Velocity P-wave (km/s) = 4.94907 5.31346 5.13450
#
# Compressibility (1/GPa) = 0.03881948
#
# Stress axis : x y z
#
# Youngs Moduli (GPa) = 25.46687 47.75037 48.90108
#
# Poissons Ratio (x) = 0.62280 0.30076
# Poissons Ratio (y) = 0.33216 0.08441
# Poissons Ratio (z) = 0.15663 0.08243
#
# Static dielectric constant tensor:
#      x y z
#    x 1.623880 0.000000 0.000000 
#    y 0.000000 1.603520 0.000000 
#    z 0.000000 0.000000 1.633660 
# 
# From -- ./inp_files/7369.got.cif
#   From: 2010.05.17/outbox.cif.g08.bks.cpg/sg56_4_cif.got.tgz:7369.got - 2010.06.03 13:42:01.
