data_PCOD9430945
_publ_section_title
;
Structure prediction by ZEFSAII (Michael W. Deem and Ramdas Pophale) SiO2 
 PCOD9430945
Probable space group: P C C N
;
_chemical_formula_sum "Si O2"
_cell_formula_units_Z 24
_cell_length_a 7.137574
_cell_length_b 7.855879
_cell_length_c 18.086923
_cell_angle_alpha 90.000000
_cell_angle_beta 90.000000
_cell_angle_gamma 90.000000
_cell_volume 1014.168458
_symmetry_space_group_name_H-M "P C C N"
_symmetry_group_IT_number 56
_symmetry_cell_setting 'orthorhombic'
loop_
_space_group_symop_operation_xyz
x,y,z
1/2-x,1/2-y,z
1/2+x,-y,1/2-z
-x,1/2+y,1/2-z
-x,-y,-z
1/2+x,1/2+y,-z
1/2-x,y,1/2+z
x,1/2-y,1/2+z
loop_
_atom_site_type_symbol
_atom_site_label
_atom_site_fract_x
_atom_site_fract_y
_atom_site_fract_z
Si Si1 0.464901 0.942721 0.082754
Si Si2 0.046669 0.604387 0.644907
Si Si3 0.021559 0.261936 0.194018
O O1 0.543711 0.753571 0.096447
O O2 0.244548 0.930822 0.104667
O O3 0.533085 0.086755 0.139173
O O4 0.500000 0.000000 0.000000
O O5 0.960317 0.420295 0.661744
O O6 0.056313 0.692313 0.725605
O O7 0.250000 0.250000 0.201187
#
# Coordination Sequence:
#
# PCOD9430945 Si02
#       3
#     8   8   8
#     4  10  22  40  63  96 139 173 220 279 345 409
#     4  10  20  40  67  94 128 175 225 277 340 399
#     4  10  20  38  68  98 125 169 230 283 334 407
#
# _framework density 23.664708000000001
#
# number of rings (size 3 to 8) (size 9 to 14) (size 15 to 20)
#    0.000    2.000    3.333    0.000    0.000    1.333 
#    0.000   18.333    0.000    0.000    0.000    0.000 
#    0.000    0.000    0.000    0.000    0.000    0.000 
#
# Total GULP energy -134119.846749 kJ/mol
# GULP energy per Si atom -5588.326948 kJ/mol
# Density = 2.361085 g / cm^3
# Si number density = 23.664708 Si / 1000 Ang^3
#
#
#
# Elastic Constant Matrix: (Units=GPa)
#
#
# Indices 1 2 3 4 5 6 
#
# 1 140.8179 33.2196 54.3996 0.0000 0.0000 0.0000
# 2 33.2196 222.1900 63.1101 0.0000 0.0000 0.0000
# 3 54.3996 63.1101 183.9168 0.0000 0.0000 0.0000
# 4 0.0000 0.0000 0.0000 273.6983 0.0000 0.0000
# 5 0.0000 0.0000 0.0000 0.0000 31.0003 0.0000
# 6 0.0000 0.0000 0.0000 0.0000 0.0000 -7.5806
#
#
#
# Elastic Compliance Matrix: (Units=1/GPa)
#
#
# Indices 1 2 3 4 5 6 
#
# 1 0.008086 -0.000587 -0.002190 0.000000 0.000000 0.000000
# 2 -0.000587 0.005029 -0.001552 0.000000 0.000000 0.000000
# 3 -0.002190 -0.001552 0.006618 0.000000 0.000000 0.000000
# 4 0.000000 0.000000 0.000000 0.003654 0.000000 0.000000
# 5 0.000000 0.000000 0.000000 0.000000 0.032258 0.000000
# 6 0.000000 0.000000 0.000000 0.000000 0.000000 -0.131916
#
#
# Mechanical properties :
#
#
# Convention : Reuss Voigt Hill
#
# Bulk Modulus (GPa) = 90.29926 94.26480 92.28203
# Shear Modulus (GPa) = -78.22041 85.83662 3.80810
#
# Velocity S-wave (km/s) = -5.75546 6.02916 1.26992
# Velocity P-wave (km/s) = 2.43445 9.40147 6.42110
#
# Compressibility (1/GPa) = 0.01107429
#
# Stress axis : x y z
#
# Youngs Moduli (GPa) = 123.67131 198.83615 151.10900
#
# Poissons Ratio (x) = 0.11668 0.33098
# Poissons Ratio (y) = 0.07257 0.23455
# Poissons Ratio (z) = 0.27088 0.30863
#
# Static dielectric constant tensor:
#      x y z
#    x 2.030210 0.000000 0.000000 
#    y 0.000000 1.921310 0.000000 
#    z 0.000000 0.000000 1.806410 
# 
# From -- ./inp_files/9918.got.cif
#   From: 2010.05.17/outbox.cif.g08.bks.cpg/sg56_5_cif.got.tgz:9918.got - 2010.06.03 13:42:01.
