data_PCOD9430246
_publ_section_title
;
Structure prediction by ZEFSAII (Michael W. Deem and Ramdas Pophale) SiO2 
 PCOD9430246
Probable space group: P C C N
;
_chemical_formula_sum "Si O2"
_cell_formula_units_Z 56
_cell_length_a 13.911312
_cell_length_b 18.926168
_cell_length_c 8.895745
_cell_angle_alpha 90.000000
_cell_angle_beta 90.000000
_cell_angle_gamma 90.000000
_cell_volume 2342.141380
_symmetry_space_group_name_H-M "P C C N"
_symmetry_group_IT_number 56
_symmetry_cell_setting 'orthorhombic'
loop_
_space_group_symop_operation_xyz
x,y,z
1/2-x,1/2-y,z
1/2+x,-y,1/2-z
-x,1/2+y,1/2-z
-x,-y,-z
1/2+x,1/2+y,-z
1/2-x,y,1/2+z
x,1/2-y,1/2+z
loop_
_atom_site_type_symbol
_atom_site_label
_atom_site_fract_x
_atom_site_fract_y
_atom_site_fract_z
Si Si1 0.456442 0.834831 0.287084
Si Si2 0.613869 0.284234 0.510668
Si Si3 0.975153 0.959215 0.221435
Si Si4 0.675957 0.051450 0.557422
Si Si5 0.132220 0.083018 0.226187
Si Si6 0.682552 0.946128 0.974040
Si Si7 0.136899 0.849473 0.199679
O O1 0.443836 0.759655 0.365017
O O2 0.372225 0.887650 0.341618
O O3 0.558575 0.861340 0.341720
O O4 0.444220 0.830368 0.108094
O O5 0.652631 0.220945 0.402645
O O6 0.671645 0.332704 0.630367
O O7 0.907691 0.959599 0.367953
O O8 0.028360 0.883436 0.200712
O O9 0.904568 0.989076 0.089039
O O10 0.060377 0.015779 0.241997
O O11 0.687501 0.088672 0.394796
O O12 0.776752 0.012166 0.572484
O O13 0.159029 0.107835 0.394177
O O14 0.228024 0.073019 0.131471
#
# Coordination Sequence:
#
# PCOD9430246 Si02
#       7
#     8   8   8   8   8   8   8
#     4   9  20  38  63  93 130 169 225 266 329 390
#     4   9  19  35  62  96 119 177 224 267 320 386
#     4  11  22  39  66  94 132 171 216 274 338 396
#     4  10  21  37  60  94 130 168 206 275 331 400
#     4  11  24  39  64  96 132 172 213 275 337 402
#     4  12  23  39  59 100 134 169 214 262 349 391
#     4  10  19  36  63  93 130 166 223 266 324 394
#
# _framework density 23.909744
#
# number of rings (size 3 to 8) (size 9 to 14) (size 15 to 20)
#    0.000    1.714    2.857    1.714    4.000    1.143 
#    0.000    0.000    0.000   14.571    0.000  230.000 
#    0.000    0.000    0.000    0.000    0.000    0.000 
#
# Total GULP energy -312293.180256 kJ/mol
# GULP energy per Si atom -5576.663933 kJ/mol
# Density = 2.385532 g / cm^3
# Si number density = 23.909744 Si / 1000 Ang^3
#
#
#
# Elastic Constant Matrix: (Units=GPa)
#
#
# Indices 1 2 3 4 5 6 
#
# 1 121.0309 30.6275 36.9664 0.0000 0.0000 0.0000
# 2 30.6275 70.0535 17.1194 0.0000 0.0000 0.0000
# 3 36.9664 17.1194 145.6493 0.0000 0.0000 0.0000
# 4 0.0000 0.0000 0.0000 32.7847 0.0000 0.0000
# 5 0.0000 0.0000 0.0000 0.0000 45.9658 0.0000
# 6 0.0000 0.0000 0.0000 0.0000 0.0000 15.1526
#
#
#
# Elastic Compliance Matrix: (Units=1/GPa)
#
#
# Indices 1 2 3 4 5 6 
#
# 1 0.009853 -0.003806 -0.002053 0.000000 0.000000 0.000000
# 2 -0.003806 0.016167 -0.000934 0.000000 0.000000 0.000000
# 3 -0.002053 -0.000934 0.007497 0.000000 0.000000 0.000000
# 4 0.000000 0.000000 0.000000 0.030502 0.000000 0.000000
# 5 0.000000 0.000000 0.000000 0.000000 0.021755 0.000000
# 6 0.000000 0.000000 0.000000 0.000000 0.000000 0.065995
#
#
# Mechanical properties :
#
#
# Convention : Reuss Voigt Hill
#
# Bulk Modulus (GPa) = 50.17676 56.24004 53.20840
# Shear Modulus (GPa) = 29.06995 35.58199 32.32597
#
# Velocity S-wave (km/s) = 3.49064 3.86188 3.68094
# Velocity P-wave (km/s) = 6.10554 6.59229 6.35358
#
# Compressibility (1/GPa) = 0.01992954
#
# Stress axis : x y z
#
# Youngs Moduli (GPa) = 101.49651 61.85430 133.39099
#
# Poissons Ratio (x) = 0.23540 0.27389
# Poissons Ratio (y) = 0.38627 0.12463
# Poissons Ratio (z) = 0.20840 0.05779
#
# Static dielectric constant tensor:
#      x y z
#    x 1.902270 0.000000 0.000000 
#    y 0.000000 1.966240 0.000000 
#    z 0.000000 0.000000 2.002310 
# 
# From -- ./inp_files/3584.got.cif
#   From: 2010.05.17/outbox.cif.g08.bks.cpg/sg56_2_cif.got.tgz:3584.got - 2010.06.03 13:42:01.
