data_PCOD9430204
_publ_section_title
;
Structure prediction by ZEFSAII (Michael W. Deem and Ramdas Pophale) SiO2 
 PCOD9430204
Probable space group: P C C N
;
_chemical_formula_sum "Si O2"
_cell_formula_units_Z 56
_cell_length_a 17.367849
_cell_length_b 14.963276
_cell_length_c 8.124447
_cell_angle_alpha 90.000000
_cell_angle_beta 90.000000
_cell_angle_gamma 90.000000
_cell_volume 2111.380621
_symmetry_space_group_name_H-M "P C C N"
_symmetry_group_IT_number 56
_symmetry_cell_setting 'orthorhombic'
loop_
_space_group_symop_operation_xyz
x,y,z
1/2-x,1/2-y,z
1/2+x,-y,1/2-z
-x,1/2+y,1/2-z
-x,-y,-z
1/2+x,1/2+y,-z
1/2-x,y,1/2+z
x,1/2-y,1/2+z
loop_
_atom_site_type_symbol
_atom_site_label
_atom_site_fract_x
_atom_site_fract_y
_atom_site_fract_z
Si Si1 0.925194 0.646047 0.289652
Si Si2 0.575342 0.019964 0.110883
Si Si3 0.423241 0.678448 0.582732
Si Si4 0.214855 0.926541 0.769540
Si Si5 0.313806 0.673920 0.068727
Si Si6 0.653776 0.800907 0.611267
Si Si7 0.703977 0.596862 0.424284
O O1 0.928346 0.537858 0.276444
O O2 0.911004 0.674878 0.477084
O O3 0.003571 0.675329 0.200287
O O4 0.861858 0.697768 0.170909
O O5 0.570530 0.126230 0.090281
O O6 0.647511 0.968925 0.025743
O O7 0.500000 0.000000 0.000000
O O8 0.355342 0.621841 0.674054
O O9 0.393659 0.777469 0.555640
O O10 0.287797 0.862984 0.742925
O O11 0.236167 0.023412 0.706327
O O12 0.192543 0.913384 0.956480
O O13 0.250000 0.750000 0.026411
O O14 0.729035 0.843529 0.512927
O O15 0.655409 0.843746 0.793841
#
# Coordination Sequence:
#
# PCOD9430204 Si02
#       7
#     8   8   8   8   8   8   8
#     4  11  25  44  66 101 143 187 246 296 378 432
#     4   9  20  44  71  96 140 191 231 293 365 436
#     4   9  21  40  67  96 144 187 231 294 363 443
#     4  10  21  40  67  98 138 178 234 295 356 436
#     4  10  19  35  64 100 134 179 231 285 355 421
#     4  12  27  44  73 101 139 186 242 314 356 453
#     4  11  24  45  70 101 138 186 245 300 373 434
#
# _framework density 26.522929000000001
#
# number of rings (size 3 to 8) (size 9 to 14) (size 15 to 20)
#    0.000    1.714    0.000    3.857    2.000    6.857 
#    0.000    9.286    9.429    0.000    0.000    0.000 
#    0.000    0.000    0.000    0.000    0.000    0.000 
#
# Total GULP energy -312327.617804 kJ/mol
# GULP energy per Si atom -5577.278889 kJ/mol
# Density = 2.646256 g / cm^3
# Si number density = 26.522929 Si / 1000 Ang^3
#
#
#
# Elastic Constant Matrix: (Units=GPa)
#
#
# Indices 1 2 3 4 5 6 
#
# 1 83.7653 20.4854 -15.0526 0.0000 0.0000 0.0000
# 2 20.4854 95.1461 13.6420 0.0000 0.0000 0.0000
# 3 -15.0526 13.6420 55.8894 0.0000 0.0000 0.0000
# 4 0.0000 0.0000 0.0000 36.7993 0.0000 0.0000
# 5 0.0000 0.0000 0.0000 0.0000 34.4488 0.0000
# 6 0.0000 0.0000 0.0000 0.0000 0.0000 31.3426
#
#
#
# Elastic Compliance Matrix: (Units=1/GPa)
#
#
# Indices 1 2 3 4 5 6 
#
# 1 0.013633 -0.003587 0.004547 0.000000 0.000000 0.000000
# 2 -0.003587 0.011835 -0.003855 0.000000 0.000000 0.000000
# 3 0.004547 -0.003855 0.020058 0.000000 0.000000 0.000000
# 4 0.000000 0.000000 0.000000 0.027174 0.000000 0.000000
# 5 0.000000 0.000000 0.000000 0.000000 0.029029 0.000000
# 6 0.000000 0.000000 0.000000 0.000000 0.000000 0.031905
#
#
# Mechanical properties :
#
#
# Convention : Reuss Voigt Hill
#
# Bulk Modulus (GPa) = 25.16602 30.32778 27.74690
# Shear Modulus (GPa) = 32.75050 34.89987 33.82519
#
# Velocity S-wave (km/s) = 3.51778 3.63138 3.57503
# Velocity P-wave (km/s) = 5.09988 5.38906 5.24646
#
# Compressibility (1/GPa) = 0.03973613
#
# Stress axis : x y z
#
# Youngs Moduli (GPa) = 73.35405 84.49372 49.85508
#
# Poissons Ratio (x) = 0.30309 -0.22670
# Poissons Ratio (y) = 0.26313 0.19219
# Poissons Ratio (z) = -0.33356 0.32572
#
# Static dielectric constant tensor:
#      x y z
#    x 2.165210 0.000000 0.000000 
#    y 0.000000 2.143390 0.000000 
#    z 0.000000 0.000000 2.165790 
# 
# From -- ./inp_files/4247.got.cif
#   From: 2010.05.17/outbox.cif.g08.bks.cpg/sg56_3_cif.got.tgz:4247.got - 2010.06.03 13:42:01.
