data_PCOD9430048
_publ_section_title
;
Structure prediction by ZEFSAII (Michael W. Deem and Ramdas Pophale) SiO2 
 PCOD9430048
Probable space group: P C C N
;
_chemical_formula_sum "Si O2"
_cell_formula_units_Z 60
_cell_length_a 16.093153
_cell_length_b 23.092824
_cell_length_c 9.323425
_cell_angle_alpha 90.000000
_cell_angle_beta 90.000000
_cell_angle_gamma 90.000000
_cell_volume 3464.923635
_symmetry_space_group_name_H-M "P C C N"
_symmetry_group_IT_number 56
_symmetry_cell_setting 'orthorhombic'
loop_
_space_group_symop_operation_xyz
x,y,z
1/2-x,1/2-y,z
1/2+x,-y,1/2-z
-x,1/2+y,1/2-z
-x,-y,-z
1/2+x,1/2+y,-z
1/2-x,y,1/2+z
x,1/2-y,1/2+z
loop_
_atom_site_type_symbol
_atom_site_label
_atom_site_fract_x
_atom_site_fract_y
_atom_site_fract_z
Si Si1 0.374296 0.092781 0.884259
Si Si2 0.750000 0.750000 0.269292
Si Si3 0.405563 0.436159 0.953564
Si Si4 0.028873 0.454426 0.155972
Si Si5 0.660438 0.037021 0.198029
Si Si6 0.715578 0.831117 0.531249
Si Si7 0.323614 0.559127 0.965976
Si Si8 0.474221 0.922860 0.290104
O O1 0.303430 0.139591 0.920003
O O2 0.455738 0.114095 0.794554
O O3 0.337527 0.034343 0.806495
O O4 0.412497 0.069424 0.033096
O O5 0.717655 0.797571 0.381182
O O6 0.807181 0.785738 0.157485
O O7 0.449838 0.423617 0.804435
O O8 0.347652 0.382860 0.988165
O O9 0.351161 0.493160 0.934227
O O10 0.472165 0.447060 0.076819
O O11 0.044179 0.522891 0.185508
O O12 0.930495 0.448076 0.137536
O O13 0.670299 0.061117 0.360870
O O14 0.731588 0.063164 0.097223
O O15 0.389477 0.596372 0.869817
#
# Coordination Sequence:
#
# PCOD9430048 Si02
#       8
#     8   4   8   8   8   8   8   8
#     4  11  21  31  51  70  95 134 184 205 242 311
#     4  10  24  38  50  74 104 118 166 242 278 288
#     4  11  18  33  53  64  96 137 179 204 247 310
#     4  10  20  31  44  71 101 129 172 222 242 270
#     4  11  21  31  44  71 100 135 175 208 241 275
#     4  11  22  37  54  75  96 136 176 213 267 310
#     4  11  21  30  46  69 100 137 172 211 238 278
#     4  10  19  33  44  67 101 133 170 220 243 270
#
# _framework density 17.316399000000001
#
# number of rings (size 3 to 8) (size 9 to 14) (size 15 to 20)
#    0.000    1.333    5.333    4.000    5.600    0.000 
#    0.000    0.000    0.000    0.000    0.000    0.000 
#    0.000    0.000    0.000   84.000    0.000    0.000 
#
# Total GULP energy -334138.188410 kJ/mol
# GULP energy per Si atom -5568.969807 kJ/mol
# Density = 1.727699 g / cm^3
# Si number density = 17.316399 Si / 1000 Ang^3
#
#
#
# Elastic Constant Matrix: (Units=GPa)
#
#
# Indices 1 2 3 4 5 6 
#
# 1 60.7836 10.5126 34.6531 0.0000 0.0000 0.0000
# 2 10.5126 34.0972 10.0049 0.0000 0.0000 0.0000
# 3 34.6531 10.0049 117.3674 0.0000 0.0000 0.0000
# 4 0.0000 0.0000 0.0000 21.7166 0.0000 0.0000
# 5 0.0000 0.0000 0.0000 0.0000 25.2726 0.0000
# 6 0.0000 0.0000 0.0000 0.0000 0.0000 4.9476
#
#
#
# Elastic Compliance Matrix: (Units=1/GPa)
#
#
# Indices 1 2 3 4 5 6 
#
# 1 0.020478 -0.004656 -0.005649 0.000000 0.000000 0.000000
# 2 -0.004656 0.031139 -0.001280 0.000000 0.000000 0.000000
# 3 -0.005649 -0.001280 0.010297 0.000000 0.000000 0.000000
# 4 0.000000 0.000000 0.000000 0.046048 0.000000 0.000000
# 5 0.000000 0.000000 0.000000 0.000000 0.039569 0.000000
# 6 0.000000 0.000000 0.000000 0.000000 0.000000 0.202120
#
#
# Mechanical properties :
#
#
# Convention : Reuss Voigt Hill
#
# Bulk Modulus (GPa) = 25.81035 35.84328 30.82681
# Shear Modulus (GPa) = 12.96229 20.85918 16.91073
#
# Velocity S-wave (km/s) = 2.73894 3.47449 3.12841
# Velocity P-wave (km/s) = 4.99399 6.06960 5.55788
#
# Compressibility (1/GPa) = 0.03874414
#
# Stress axis : x y z
#
# Youngs Moduli (GPa) = 48.83362 32.11417 97.11284
#
# Poissons Ratio (x) = 0.14952 0.54861
# Poissons Ratio (y) = 0.22736 0.12428
# Poissons Ratio (z) = 0.27587 0.04110
#
# Static dielectric constant tensor:
#      x y z
#    x 1.624680 0.000000 0.000000 
#    y 0.000000 1.576680 0.000000 
#    z 0.000000 0.000000 1.657800 
# 
# From -- ./inp_files/3683.got.cif
#   From: 2010.05.17/outbox.cif.g08.bks.cpg/sg56_2_cif.got.tgz:3683.got - 2010.06.03 13:42:01.
