data_PCOD9430096
_publ_section_title
;
Structure prediction by ZEFSAII (Michael W. Deem and Ramdas Pophale) SiO2 
 PCOD9430096
Probable space group: P C C N
;
_chemical_formula_sum "Si O2"
_cell_formula_units_Z 48
_cell_length_a 5.808094
_cell_length_b 19.029826
_cell_length_c 19.646117
_cell_angle_alpha 90.000000
_cell_angle_beta 90.000000
_cell_angle_gamma 90.000000
_cell_volume 2171.426731
_symmetry_space_group_name_H-M "P C C N"
_symmetry_group_IT_number 56
_symmetry_cell_setting 'orthorhombic'
loop_
_space_group_symop_operation_xyz
x,y,z
1/2-x,1/2-y,z
1/2+x,-y,1/2-z
-x,1/2+y,1/2-z
-x,-y,-z
1/2+x,1/2+y,-z
1/2-x,y,1/2+z
x,1/2-y,1/2+z
loop_
_atom_site_type_symbol
_atom_site_label
_atom_site_fract_x
_atom_site_fract_y
_atom_site_fract_z
Si Si1 0.750000 0.750000 0.093873
Si Si2 0.750000 0.750000 0.817341
Si Si3 0.076489 0.634180 0.640162
Si Si4 0.131345 0.037010 0.749211
Si Si5 0.122239 0.674694 0.257598
Si Si6 0.361747 0.672277 0.514111
Si Si7 0.551218 0.368662 0.631686
O O1 0.561635 0.707586 0.136591
O O2 0.603817 0.806068 0.049504
O O3 0.638623 0.692283 0.768909
O O4 0.931030 0.708124 0.862130
O O5 0.911919 0.580539 0.680256
O O6 0.295292 0.637305 0.690467
O O7 0.189918 0.631425 0.565555
O O8 0.097983 0.077593 0.676599
O O9 0.895792 0.989394 0.749340
O O10 0.250000 0.750000 0.256286
O O11 0.215870 0.635634 0.324197
O O12 0.250000 0.750000 0.498597
O O13 0.401614 0.625272 0.447548
#
# Coordination Sequence:
#
# PCOD9430096 Si02
#       7
#     4   4   8   8   8   8   8
#     4  10  21  37  64 100 141 165 206 272 361 427
#     4  10  19  33  60  98 127 165 212 276 353 411
#     4  10  23  39  65  91 135 170 219 280 339 411
#     4  11  28  50  70  94 129 185 246 292 327 383
#     4   9  18  31  52  88 121 160 205 257 325 395
#     4  10  20  37  61 104 136 168 205 267 358 428
#     4  10  22  38  65  92 138 168 219 279 340 410
#
# _framework density 22.105281999999999
#
# number of rings (size 3 to 8) (size 9 to 14) (size 15 to 20)
#    0.000    2.000    0.000    3.500    7.000   10.667 
#    0.000    1.667    0.000    0.000    0.000    0.000 
#    0.000    0.000    0.000    0.000    0.000    0.000 
#
# Total GULP energy -267540.701162 kJ/mol
# GULP energy per Si atom -5573.764608 kJ/mol
# Density = 2.205497 g / cm^3
# Si number density = 22.105282 Si / 1000 Ang^3
#
#
#
# Elastic Constant Matrix: (Units=GPa)
#
#
# Indices 1 2 3 4 5 6 
#
# 1 102.3387 22.7923 49.0981 0.0000 0.0000 0.0000
# 2 22.7923 39.3791 36.3453 0.0000 0.0000 0.0000
# 3 49.0981 36.3453 155.0223 0.0000 0.0000 0.0000
# 4 0.0000 0.0000 0.0000 32.3033 0.0000 0.0000
# 5 0.0000 0.0000 0.0000 0.0000 17.1624 0.0000
# 6 0.0000 0.0000 0.0000 0.0000 0.0000 48.2290
#
#
#
# Elastic Compliance Matrix: (Units=1/GPa)
#
#
# Indices 1 2 3 4 5 6 
#
# 1 0.012097 -0.004423 -0.002794 0.000000 0.000000 0.000000
# 2 -0.004423 0.034023 -0.006576 0.000000 0.000000 0.000000
# 3 -0.002794 -0.006576 0.008878 0.000000 0.000000 0.000000
# 4 0.000000 0.000000 0.000000 0.030957 0.000000 0.000000
# 5 0.000000 0.000000 0.000000 0.000000 0.058267 0.000000
# 6 0.000000 0.000000 0.000000 0.000000 0.000000 0.020734
#
#
# Mechanical properties :
#
#
# Convention : Reuss Voigt Hill
#
# Bulk Modulus (GPa) = 36.48071 57.02348 46.75210
# Shear Modulus (GPa) = 24.79179 32.10588 28.44884
#
# Velocity S-wave (km/s) = 3.35256 3.81518 3.59133
# Velocity P-wave (km/s) = 5.61473 6.72754 6.19617
#
# Compressibility (1/GPa) = 0.02741174
#
# Stress axis : x y z
#
# Youngs Moduli (GPa) = 82.66431 29.39150 112.64371
#
# Poissons Ratio (x) = 0.12998 0.31478
# Poissons Ratio (y) = 0.36558 0.74077
# Poissons Ratio (z) = 0.23100 0.19328
#
# Static dielectric constant tensor:
#      x y z
#    x 1.875090 0.000000 0.000000 
#    y 0.000000 1.924070 0.000000 
#    z 0.000000 0.000000 1.809880 
# 
# From -- ./inp_files/14013.got.cif
#   From: 2010.05.17/outbox.cif.g08.bks.cpg/sg56_8_cif.got.tgz:14013.got - 2010.06.03 13:42:01.
