data_PCOD9430133
_publ_section_title
;
Structure prediction by ZEFSAII (Michael W. Deem and Ramdas Pophale) SiO2 
 PCOD9430133
Probable space group: P C C N
;
_chemical_formula_sum "Si O2"
_cell_formula_units_Z 32
_cell_length_a 14.665046
_cell_length_b 8.188741
_cell_length_c 13.230001
_cell_angle_alpha 90.000000
_cell_angle_beta 90.000000
_cell_angle_gamma 90.000000
_cell_volume 1588.767845
_symmetry_space_group_name_H-M "P C C N"
_symmetry_group_IT_number 56
_symmetry_cell_setting 'orthorhombic'
loop_
_space_group_symop_operation_xyz
x,y,z
1/2-x,1/2-y,z
1/2+x,-y,1/2-z
-x,1/2+y,1/2-z
-x,-y,-z
1/2+x,1/2+y,-z
1/2-x,y,1/2+z
x,1/2-y,1/2+z
loop_
_atom_site_type_symbol
_atom_site_label
_atom_site_fract_x
_atom_site_fract_y
_atom_site_fract_z
Si Si1 0.122815 0.425452 0.252874
Si Si2 0.298345 0.928099 0.832416
Si Si3 0.056857 0.767499 0.203397
Si Si4 0.101185 0.962797 0.538654
O O1 0.223586 0.442340 0.295840
O O2 0.075284 0.603740 0.268344
O O3 0.125463 0.415182 0.130675
O O4 0.050273 0.302417 0.299490
O O5 0.250000 0.750000 0.828999
O O6 0.384632 0.908301 0.757229
O O7 0.332422 0.963906 0.944519
O O8 0.097197 0.713644 0.095076
O O9 0.000000 0.000000 0.500000
#
# Coordination Sequence:
#
# PCOD9430133 Si02
#       4
#     8   8   8   8
#     4   9  20  36  62  88 117 152 198 242 293 348
#     4  10  19  34  59  90 114 155 205 235 284 367
#     4   9  19  37  59  89 116 152 193 249 290 348
#     4  10  20  36  63  80 123 159 194 242 306 336
#
# _framework density 20.141396
#
# number of rings (size 3 to 8) (size 9 to 14) (size 15 to 20)
#    1.500    1.000    2.500    0.000    3.500    0.000 
#    0.000   10.000    5.500    6.000    0.000    0.000 
#    0.000    0.000    0.000    0.000    0.000    0.000 
#
# Total GULP energy -178152.328883 kJ/mol
# GULP energy per Si atom -5567.260278 kJ/mol
# Density = 2.009555 g / cm^3
# Si number density = 20.141396 Si / 1000 Ang^3
#
#
#
# Elastic Constant Matrix: (Units=GPa)
#
#
# Indices 1 2 3 4 5 6 
#
# 1 52.5685 18.3868 67.6907 0.0000 0.0000 0.0000
# 2 18.3868 33.8744 1.6218 0.0000 0.0000 0.0000
# 3 67.6907 1.6218 124.5783 0.0000 0.0000 0.0000
# 4 0.0000 0.0000 0.0000 5.2893 0.0000 0.0000
# 5 0.0000 0.0000 0.0000 0.0000 50.3014 0.0000
# 6 0.0000 0.0000 0.0000 0.0000 0.0000 34.9273
#
#
#
# Elastic Compliance Matrix: (Units=1/GPa)
#
#
# Indices 1 2 3 4 5 6 
#
# 1 0.148458 -0.076768 -0.079667 0.000000 0.000000 0.000000
# 2 -0.076768 0.069236 0.040811 0.000000 0.000000 0.000000
# 3 -0.079667 0.040811 0.050783 0.000000 0.000000 0.000000
# 4 0.000000 0.000000 0.000000 0.189060 0.000000 0.000000
# 5 0.000000 0.000000 0.000000 0.000000 0.019880 0.000000
# 6 0.000000 0.000000 0.000000 0.000000 0.000000 0.028631
#
#
# Mechanical properties :
#
#
# Convention : Reuss Voigt Hill
#
# Bulk Modulus (GPa) = 26.85948 42.93556 34.89752
# Shear Modulus (GPa) = 6.66929 26.32505 16.49717
#
# Velocity S-wave (km/s) = 1.82165 3.61918 2.86504
# Velocity P-wave (km/s) = 4.21770 6.23121 5.32057
#
# Compressibility (1/GPa) = 0.03723081
#
# Stress axis : x y z
#
# Youngs Moduli (GPa) = 6.73591 14.44330 19.69151
#
# Poissons Ratio (x) = 1.10878 1.56875
# Poissons Ratio (y) = 0.51710 -0.80363
# Poissons Ratio (z) = 0.53663 -0.58945
#
# Static dielectric constant tensor:
#      x y z
#    x 1.718250 0.000000 0.000000 
#    y 0.000000 1.780010 0.000000 
#    z 0.000000 0.000000 1.695910 
# 
# From -- ./inp_files/10247.got.cif
#   From: 2010.05.17/outbox.cif.g08.bks.cpg/sg56_6_cif.got.tgz:10247.got - 2010.06.03 13:42:01.
