data_PCOD9430362
_publ_section_title
;
Structure prediction by ZEFSAII (Michael W. Deem and Ramdas Pophale) SiO2 
 PCOD9430362
Probable space group: P C C N
;
_chemical_formula_sum "Si O2"
_cell_formula_units_Z 52
_cell_length_a 11.847081
_cell_length_b 14.922161
_cell_length_c 12.687285
_cell_angle_alpha 90.000000
_cell_angle_beta 90.000000
_cell_angle_gamma 90.000000
_cell_volume 2242.909627
_symmetry_space_group_name_H-M "P C C N"
_symmetry_group_IT_number 56
_symmetry_cell_setting 'orthorhombic'
loop_
_space_group_symop_operation_xyz
x,y,z
1/2-x,1/2-y,z
1/2+x,-y,1/2-z
-x,1/2+y,1/2-z
-x,-y,-z
1/2+x,1/2+y,-z
1/2-x,y,1/2+z
x,1/2-y,1/2+z
loop_
_atom_site_type_symbol
_atom_site_label
_atom_site_fract_x
_atom_site_fract_y
_atom_site_fract_z
Si Si1 0.695916 0.655832 0.646602
Si Si2 0.750000 0.250000 0.030946
Si Si3 0.486991 0.928515 0.152740
Si Si4 0.105179 0.484245 0.348341
Si Si5 0.450307 0.869807 0.524006
Si Si6 0.373861 0.269634 0.573920
Si Si7 0.575849 0.384420 0.584319
O O1 0.750000 0.750000 0.671141
O O2 0.576918 0.639948 0.703369
O O3 0.785767 0.577811 0.656345
O O4 0.660009 0.666619 0.524674
O O5 0.848624 0.200718 0.965230
O O6 0.813463 0.325203 0.100557
O O7 0.402236 0.960934 0.240826
O O8 0.563596 0.015241 0.124408
O O9 0.433539 0.894066 0.044094
O O10 0.096408 0.553937 0.445061
O O11 0.998761 0.418307 0.372624
O O12 0.557277 0.816204 0.471906
O O13 0.250000 0.250000 0.619394
O O14 0.468941 0.328933 0.630023
#
# Coordination Sequence:
#
# PCOD9430362 Si02
#       7
#     8   4   8   8   8   8   8
#     4  10  19  39  63  80 122 161 187 255 299 336
#     4  10  20  40  64  90 120 158 198 242 314 344
#     4  10  22  40  59  88 121 157 203 240 302 355
#     4  11  22  39  61  90 120 159 205 242 303 356
#     4  10  21  38  62  88 121 157 196 249 293 363
#     4   9  16  36  61  85 114 159 194 238 298 340
#     4   9  20  39  62  86 121 159 193 249 295 358
#
# _framework density 23.184170000000002
#
# number of rings (size 3 to 8) (size 9 to 14) (size 15 to 20)
#    0.000    2.154    3.077    0.923    0.000    1.231 
#    8.308    1.538    0.000    0.000    0.000    0.000 
#    0.000    0.000    0.000    0.000    0.000    0.000 
#
# Total GULP energy -290233.601494 kJ/mol
# GULP energy per Si atom -5581.415413 kJ/mol
# Density = 2.313140 g / cm^3
# Si number density = 23.184170 Si / 1000 Ang^3
#
#
#
# Elastic Constant Matrix: (Units=GPa)
#
#
# Indices 1 2 3 4 5 6 
#
# 1 116.4998 37.4718 7.1584 0.0000 0.0000 0.0000
# 2 37.4718 93.0222 -4.7694 0.0000 0.0000 0.0000
# 3 7.1584 -4.7694 49.2527 0.0000 0.0000 0.0000
# 4 0.0000 0.0000 0.0000 39.4777 0.0000 0.0000
# 5 0.0000 0.0000 0.0000 0.0000 19.0444 0.0000
# 6 0.0000 0.0000 0.0000 0.0000 0.0000 69.1259
#
#
#
# Elastic Compliance Matrix: (Units=1/GPa)
#
#
# Indices 1 2 3 4 5 6 
#
# 1 0.010028 -0.004135 -0.001858 0.000000 0.000000 0.000000
# 2 -0.004135 0.012509 0.001812 0.000000 0.000000 0.000000
# 3 -0.001858 0.001812 0.020749 0.000000 0.000000 0.000000
# 4 0.000000 0.000000 0.000000 0.025331 0.000000 0.000000
# 5 0.000000 0.000000 0.000000 0.000000 0.052509 0.000000
# 6 0.000000 0.000000 0.000000 0.000000 0.000000 0.014466
#
#
# Mechanical properties :
#
#
# Convention : Reuss Voigt Hill
#
# Bulk Modulus (GPa) = 28.63302 37.61070 33.12186
# Shear Modulus (GPa) = 32.13500 40.12385 36.12942
#
# Velocity S-wave (km/s) = 3.72704 4.16463 3.95190
# Velocity P-wave (km/s) = 5.55861 6.27561 5.92796
#
# Compressibility (1/GPa) = 0.03492471
#
# Stress axis : x y z
#
# Youngs Moduli (GPa) = 99.72305 79.94496 48.19518
#
# Poissons Ratio (x) = 0.33055 0.08954
# Poissons Ratio (y) = 0.41233 -0.08734
# Poissons Ratio (z) = 0.18527 -0.14488
#
# Static dielectric constant tensor:
#      x y z
#    x 1.956710 0.000000 0.000000 
#    y 0.000000 2.134730 0.000000 
#    z 0.000000 0.000000 1.869410 
# 
# From -- ./inp_files/11786.got.cif
#   From: 2010.05.17/outbox.cif.g08.bks.cpg/sg56_6_cif.got.tgz:11786.got - 2010.06.03 13:42:01.
