data_PCOD9430746
_publ_section_title
;
Structure prediction by ZEFSAII (Michael W. Deem and Ramdas Pophale) SiO2 
 PCOD9430746
Probable space group: P C C N
;
_chemical_formula_sum "Si O2"
_cell_formula_units_Z 48
_cell_length_a 11.824638
_cell_length_b 17.995151
_cell_length_c 13.142299
_cell_angle_alpha 90.000000
_cell_angle_beta 90.000000
_cell_angle_gamma 90.000000
_cell_volume 2796.499158
_symmetry_space_group_name_H-M "P C C N"
_symmetry_group_IT_number 56
_symmetry_cell_setting 'orthorhombic'
loop_
_space_group_symop_operation_xyz
x,y,z
1/2-x,1/2-y,z
1/2+x,-y,1/2-z
-x,1/2+y,1/2-z
-x,-y,-z
1/2+x,1/2+y,-z
1/2-x,y,1/2+z
x,1/2-y,1/2+z
loop_
_atom_site_type_symbol
_atom_site_label
_atom_site_fract_x
_atom_site_fract_y
_atom_site_fract_z
Si Si1 0.125272 0.222090 0.616006
Si Si2 0.092687 0.517730 0.413319
Si Si3 0.548787 0.870628 0.276809
Si Si4 0.806063 0.927077 0.271132
Si Si5 0.975730 0.878593 0.545470
Si Si6 0.326129 0.987829 0.020991
O O1 0.250000 0.250000 0.583867
O O2 0.069459 0.291117 0.672266
O O3 0.141200 0.150595 0.689221
O O4 0.055751 0.192810 0.520037
O O5 0.133243 0.454633 0.331895
O O6 0.206678 0.535271 0.475293
O O7 0.000000 0.500000 0.500000
O O8 0.036477 0.581541 0.344715
O O9 0.671257 0.911620 0.267171
O O10 0.505672 0.861308 0.162635
O O11 0.822564 0.988361 0.360338
O O12 0.083103 0.923362 0.503690
O O13 0.872472 0.937322 0.533018
#
# Coordination Sequence:
#
# PCOD9430746 Si02
#       6
#     8   8   8   8   8   8
#     4   9  22  37  58  88 123 159 205 251 311 361
#     4  12  23  35  63  95 126 155 212 261 297 368
#     4  11  21  37  60  89 120 159 200 253 306 359
#     4  10  20  38  57  89 122 158 201 249 306 362
#     4  10  20  37  63  81 118 163 199 247 309 369
#     4  10  20  37  59  88 118 160 200 252 306 362
#
# _framework density 17.164318000000002
#
# number of rings (size 3 to 8) (size 9 to 14) (size 15 to 20)
#    0.000    1.667    5.000    0.000    0.000    3.333 
#    0.000    0.833    0.000    2.000    0.000    0.000 
#    0.000    0.000    0.000    0.000    0.000    0.000 
#
# Total GULP energy -267624.393003 kJ/mol
# GULP energy per Si atom -5575.508188 kJ/mol
# Density = 1.712525 g / cm^3
# Si number density = 17.164318 Si / 1000 Ang^3
#
#
#
# Elastic Constant Matrix: (Units=GPa)
#
#
# Indices 1 2 3 4 5 6 
#
# 1 93.4996 38.4045 39.8296 0.0000 0.0000 0.0000
# 2 38.4045 78.5331 45.2654 0.0000 0.0000 0.0000
# 3 39.8296 45.2654 117.1534 0.0000 0.0000 0.0000
# 4 0.0000 0.0000 0.0000 24.1076 0.0000 0.0000
# 5 0.0000 0.0000 0.0000 0.0000 30.0917 0.0000
# 6 0.0000 0.0000 0.0000 0.0000 0.0000 24.8014
#
#
#
# Elastic Compliance Matrix: (Units=1/GPa)
#
#
# Indices 1 2 3 4 5 6 
#
# 1 0.014029 -0.005289 -0.002726 0.000000 0.000000 0.000000
# 2 -0.005289 0.018376 -0.005302 0.000000 0.000000 0.000000
# 3 -0.002726 -0.005302 0.011511 0.000000 0.000000 0.000000
# 4 0.000000 0.000000 0.000000 0.041481 0.000000 0.000000
# 5 0.000000 0.000000 0.000000 0.000000 0.033232 0.000000
# 6 0.000000 0.000000 0.000000 0.000000 0.000000 0.040320
#
#
# Mechanical properties :
#
#
# Convention : Reuss Voigt Hill
#
# Bulk Modulus (GPa) = 57.86369 59.57612 58.71991
# Shear Modulus (GPa) = 26.13100 26.84590 26.48845
#
# Velocity S-wave (km/s) = 3.90603 3.95910 3.93266
# Velocity P-wave (km/s) = 7.35714 7.46217 7.40984
#
# Compressibility (1/GPa) = 0.01728199
#
# Stress axis : x y z
#
# Youngs Moduli (GPa) = 71.28101 54.41886 86.87305
#
# Poissons Ratio (x) = 0.28784 0.23680
# Poissons Ratio (y) = 0.37703 0.46058
# Poissons Ratio (z) = 0.19430 0.28852
#
# Static dielectric constant tensor:
#      x y z
#    x 1.582150 0.000000 0.000000 
#    y 0.000000 1.561060 0.000000 
#    z 0.000000 0.000000 1.599950 
# 
# From -- ./inp_files/7135.got.cif
#   From: 2010.05.17/outbox.cif.g08.bks.cpg/sg56_4_cif.got.tgz:7135.got - 2010.06.03 13:42:01.
