data_PCOD9430596
_publ_section_title
;
Structure prediction by ZEFSAII (Michael W. Deem and Ramdas Pophale) SiO2 
 PCOD9430596
Probable space group: P C C N
;
_chemical_formula_sum "Si O2"
_cell_formula_units_Z 48
_cell_length_a 8.281097
_cell_length_b 7.928096
_cell_length_c 31.235893
_cell_angle_alpha 90.000000
_cell_angle_beta 90.000000
_cell_angle_gamma 90.000000
_cell_volume 2050.740453
_symmetry_space_group_name_H-M "P C C N"
_symmetry_group_IT_number 56
_symmetry_cell_setting 'orthorhombic'
loop_
_space_group_symop_operation_xyz
x,y,z
1/2-x,1/2-y,z
1/2+x,-y,1/2-z
-x,1/2+y,1/2-z
-x,-y,-z
1/2+x,1/2+y,-z
1/2-x,y,1/2+z
x,1/2-y,1/2+z
loop_
_atom_site_type_symbol
_atom_site_label
_atom_site_fract_x
_atom_site_fract_y
_atom_site_fract_z
Si Si1 0.068837 0.582296 0.309574
Si Si2 0.443208 0.771271 0.153944
Si Si3 0.563929 0.816621 0.983088
Si Si4 0.066142 0.196139 0.106106
Si Si5 0.637547 0.585581 0.724514
Si Si6 0.428075 0.820300 0.566516
O O1 0.243955 0.566698 0.287618
O O2 0.024077 0.400713 0.330044
O O3 0.037449 0.700949 0.350428
O O4 0.943913 0.596101 0.270564
O O5 0.250000 0.750000 0.153918
O O6 0.500680 0.907206 0.188064
O O7 0.499390 0.795239 0.104966
O O8 0.750000 0.750000 0.978217
O O9 0.500728 0.800605 0.934474
O O10 0.507140 0.692221 0.020642
O O11 0.500000 0.000000 0.000000
O O12 0.250000 0.250000 0.117016
O O13 0.074588 0.006577 0.086417
O O14 0.750000 0.750000 0.722202
O O15 0.250000 0.750000 0.559800
#
# Coordination Sequence:
#
# PCOD9430596 Si02
#       6
#     8   8   8   8   8   8
#     4  10  20  35  59  87 125 170 217 279 343 419
#     4   9  19  35  58  86 118 162 215 271 336 409
#     4  11  24  43  69 100 137 180 234 297 365 432
#     4  10  21  38  62  94 131 178 232 289 353 421
#     4  10  20  35  58  88 123 167 218 276 343 413
#     4  10  20  38  65  93 127 173 225 284 351 420
#
# _framework density 23.406178000000001
#
# number of rings (size 3 to 8) (size 9 to 14) (size 15 to 20)
#    0.000    2.000    0.000    4.000    0.000    3.333 
#    0.000    3.333    0.000   21.000    0.000    0.000 
#    0.000    0.000    0.000    0.000    0.000    0.000 
#
# Total GULP energy -267818.532567 kJ/mol
# GULP energy per Si atom -5579.552762 kJ/mol
# Density = 2.335290 g / cm^3
# Si number density = 23.406178 Si / 1000 Ang^3
#
#
#
# Elastic Constant Matrix: (Units=GPa)
#
#
# Indices 1 2 3 4 5 6 
#
# 1 71.2392 18.0310 75.4058 0.0000 0.0000 0.0000
# 2 18.0310 83.1376 48.5711 0.0000 0.0000 0.0000
# 3 75.4058 48.5711 223.6022 0.0000 0.0000 0.0000
# 4 0.0000 0.0000 0.0000 27.5673 0.0000 0.0000
# 5 0.0000 0.0000 0.0000 0.0000 32.8038 0.0000
# 6 0.0000 0.0000 0.0000 0.0000 0.0000 23.1559
#
#
#
# Elastic Compliance Matrix: (Units=1/GPa)
#
#
# Indices 1 2 3 4 5 6 
#
# 1 0.021847 -0.000497 -0.007260 0.000000 0.000000 0.000000
# 2 -0.000497 0.013788 -0.002827 0.000000 0.000000 0.000000
# 3 -0.007260 -0.002827 0.007535 0.000000 0.000000 0.000000
# 4 0.000000 0.000000 0.000000 0.036275 0.000000 0.000000
# 5 0.000000 0.000000 0.000000 0.000000 0.030484 0.000000
# 6 0.000000 0.000000 0.000000 0.000000 0.000000 0.043186
#
#
# Mechanical properties :
#
#
# Convention : Reuss Voigt Hill
#
# Bulk Modulus (GPa) = 45.45120 73.55496 59.50308
# Shear Modulus (GPa) = 27.53056 32.43681 29.98368
#
# Velocity S-wave (km/s) = 3.43331 3.72670 3.58301
# Velocity P-wave (km/s) = 5.93106 7.07187 6.52644
#
# Compressibility (1/GPa) = 0.02200162
#
# Stress axis : x y z
#
# Youngs Moduli (GPa) = 45.77241 72.52745 132.72153
#
# Poissons Ratio (x) = 0.03605 0.96351
# Poissons Ratio (y) = 0.02275 0.37526
# Poissons Ratio (z) = 0.33229 0.20506
#
# Static dielectric constant tensor:
#      x y z
#    x 1.954880 0.000000 0.000000 
#    y 0.000000 2.068310 0.000000 
#    z 0.000000 0.000000 1.930720 
# 
# From -- ./inp_files/23213.got.cif
#   From: 2010.05.17/outbox.cif.g08.bks.cpg/sg56_12_cif.got.tgz:23213.got - 2010.06.03 13:42:01.
