data_PCOD9430445
_publ_section_title
;
Structure prediction by ZEFSAII (Michael W. Deem and Ramdas Pophale) SiO2 
 PCOD9430445
Probable space group: P C C N
;
_chemical_formula_sum "Si O2"
_cell_formula_units_Z 52
_cell_length_a 6.496514
_cell_length_b 16.991154
_cell_length_c 20.818464
_cell_angle_alpha 90.000000
_cell_angle_beta 90.000000
_cell_angle_gamma 90.000000
_cell_volume 2298.010129
_symmetry_space_group_name_H-M "P C C N"
_symmetry_group_IT_number 56
_symmetry_cell_setting 'orthorhombic'
loop_
_space_group_symop_operation_xyz
x,y,z
1/2-x,1/2-y,z
1/2+x,-y,1/2-z
-x,1/2+y,1/2-z
-x,-y,-z
1/2+x,1/2+y,-z
1/2-x,y,1/2+z
x,1/2-y,1/2+z
loop_
_atom_site_type_symbol
_atom_site_label
_atom_site_fract_x
_atom_site_fract_y
_atom_site_fract_z
Si Si1 0.687212 0.946594 0.023745
Si Si2 0.569360 0.848529 0.134552
Si Si3 0.917753 0.803029 0.826781
Si Si4 0.774050 0.459436 0.798273
Si Si5 0.750000 0.250000 0.781145
Si Si6 0.012386 0.052558 0.095635
Si Si7 0.615724 0.888902 0.728656
O O1 0.599048 0.869893 0.060326
O O2 0.840105 0.929520 0.964852
O O3 0.821746 0.000400 0.072407
O O4 0.500000 0.000000 0.000000
O O5 0.474634 0.926862 0.167927
O O6 0.411176 0.785502 0.162262
O O7 0.795944 0.848092 0.165482
O O8 0.750000 0.750000 0.864622
O O9 0.039283 0.865207 0.870090
O O10 0.753546 0.852023 0.784036
O O11 0.067295 0.761682 0.775849
O O12 0.643145 0.500726 0.853907
O O13 0.842058 0.518201 0.742288
O O14 0.633770 0.385930 0.773174
#
# Coordination Sequence:
#
# PCOD9430445 Si02
#       7
#     8   8   8   8   4   8   8
#     4  11  22  40  62  92 123 168 222 279 325 378
#     4  11  21  36  59  85 131 164 207 272 328 399
#     4  10  22  42  61  90 133 170 214 269 339 423
#     4  11  18  33  56  90 120 155 207 263 330 387
#     4  10  24  40  60  98 128 176 218 262 350 426
#     4  10  23  38  62  92 120 165 224 275 326 391
#     4  10  20  31  57  91 123 158 204 263 333 399
#
# _framework density 22.628271000000002
#
# number of rings (size 3 to 8) (size 9 to 14) (size 15 to 20)
#    0.000    1.538    4.615    0.923    0.000    1.231 
#    0.000    1.538    0.000    0.000    0.000    0.000 
#    0.000    0.000    0.000    0.000    0.000    0.000 
#
# Total GULP energy -289487.756290 kJ/mol
# GULP energy per Si atom -5567.072236 kJ/mol
# Density = 2.257677 g / cm^3
# Si number density = 22.628271 Si / 1000 Ang^3
#
#
#
# Elastic Constant Matrix: (Units=GPa)
#
#
# Indices 1 2 3 4 5 6 
#
# 1 122.3861 37.6384 38.1600 0.0000 0.0000 0.0000
# 2 37.6384 60.3033 41.1861 0.0000 0.0000 0.0000
# 3 38.1600 41.1861 98.6418 0.0000 0.0000 0.0000
# 4 0.0000 0.0000 0.0000 30.8237 0.0000 0.0000
# 5 0.0000 0.0000 0.0000 0.0000 40.8221 0.0000
# 6 0.0000 0.0000 0.0000 0.0000 0.0000 38.7911
#
#
#
# Elastic Compliance Matrix: (Units=1/GPa)
#
#
# Indices 1 2 3 4 5 6 
#
# 1 0.010342 -0.005207 -0.001827 0.000000 0.000000 0.000000
# 2 -0.005207 0.025820 -0.008766 0.000000 0.000000 0.000000
# 3 -0.001827 -0.008766 0.014505 0.000000 0.000000 0.000000
# 4 0.000000 0.000000 0.000000 0.032443 0.000000 0.000000
# 5 0.000000 0.000000 0.000000 0.000000 0.024497 0.000000
# 6 0.000000 0.000000 0.000000 0.000000 0.000000 0.025779
#
#
# Mechanical properties :
#
#
# Convention : Reuss Voigt Hill
#
# Bulk Modulus (GPa) = 52.44888 57.25559 54.85224
# Shear Modulus (GPa) = 29.18163 33.04382 31.11272
#
# Velocity S-wave (km/s) = 3.59501 3.82552 3.71205
# Velocity P-wave (km/s) = 6.36089 6.69854 6.53190
#
# Compressibility (1/GPa) = 0.01906618
#
# Stress axis : x y z
#
# Youngs Moduli (GPa) = 96.69458 38.72927 68.94410
#
# Poissons Ratio (x) = 0.20168 0.12593
# Poissons Ratio (y) = 0.50353 0.60438
# Poissons Ratio (z) = 0.17662 0.33951
#
# Static dielectric constant tensor:
#      x y z
#    x 1.853570 0.000000 0.000000 
#    y 0.000000 1.854500 0.000000 
#    z 0.000000 0.000000 1.826170 
# 
# From -- ./inp_files/17554.got.cif
#   From: 2010.05.17/outbox.cif.g08.bks.cpg/sg56_9_cif.got.tgz:17554.got - 2010.06.03 13:42:01.
