data_PCOD9430851
_publ_section_title
;
Structure prediction by ZEFSAII (Michael W. Deem and Ramdas Pophale) SiO2 
 PCOD9430851
Probable space group: P C C N
;
_chemical_formula_sum "Si O2"
_cell_formula_units_Z 44
_cell_length_a 7.811661
_cell_length_b 10.742833
_cell_length_c 23.341809
_cell_angle_alpha 90.000000
_cell_angle_beta 90.000000
_cell_angle_gamma 90.000000
_cell_volume 1958.829896
_symmetry_space_group_name_H-M "P C C N"
_symmetry_group_IT_number 56
_symmetry_cell_setting 'orthorhombic'
loop_
_space_group_symop_operation_xyz
x,y,z
1/2-x,1/2-y,z
1/2+x,-y,1/2-z
-x,1/2+y,1/2-z
-x,-y,-z
1/2+x,1/2+y,-z
1/2-x,y,1/2+z
x,1/2-y,1/2+z
loop_
_atom_site_type_symbol
_atom_site_label
_atom_site_fract_x
_atom_site_fract_y
_atom_site_fract_z
Si Si1 0.968929 0.575698 0.704781
Si Si2 0.707249 0.899667 0.819494
Si Si3 0.177646 0.627578 0.369201
Si Si4 0.162622 0.022731 0.459988
Si Si5 0.183428 0.383757 0.564193
Si Si6 0.250000 0.250000 0.874404
O O1 0.936975 0.591928 0.771749
O O2 0.836872 0.475875 0.678762
O O3 0.904419 0.695696 0.666771
O O4 0.148691 0.503580 0.696588
O O5 0.750000 0.750000 0.818151
O O6 0.683745 0.928281 0.886545
O O7 0.250000 0.750000 0.341335
O O8 0.305856 0.593894 0.419751
O O9 0.993715 0.629720 0.401312
O O10 0.312582 0.034850 0.507618
O O11 0.178283 0.141276 0.416794
O O12 0.000000 0.000000 0.500000
O O13 0.250000 0.250000 0.544611
#
# Coordination Sequence:
#
# PCOD9430851 Si02
#       6
#     8   8   8   8   8   4
#     4  10  22  42  68  95 132 175 212 283 325 390
#     4  10  22  40  67  95 130 168 218 268 329 397
#     4  10  22  38  61  93 126 169 217 260 327 393
#     4  11  22  38  65  92 129 176 208 272 324 389
#     4  10  20  38  60  89 123 161 209 266 318 383
#     4  10  22  42  66 100 138 162 226 270 334 386
#
# _framework density 22.462391
#
# number of rings (size 3 to 8) (size 9 to 14) (size 15 to 20)
#    0.000    1.818    1.818    1.636    0.000    7.273 
#    0.000    0.000    4.000    0.000    0.000    0.000 
#    0.000    0.000    0.000    0.000    0.000    0.000 
#
# Total GULP energy -245003.741435 kJ/mol
# GULP energy per Si atom -5568.266851 kJ/mol
# Density = 2.241127 g / cm^3
# Si number density = 22.462391 Si / 1000 Ang^3
#
#
#
# Elastic Constant Matrix: (Units=GPa)
#
#
# Indices 1 2 3 4 5 6 
#
# 1 92.7016 10.5962 22.2548 0.0000 0.0000 0.0000
# 2 10.5962 50.6020 13.5855 0.0000 0.0000 0.0000
# 3 22.2548 13.5855 81.6594 0.0000 0.0000 0.0000
# 4 0.0000 0.0000 0.0000 9.1897 0.0000 0.0000
# 5 0.0000 0.0000 0.0000 0.0000 -12.0245 0.0000
# 6 0.0000 0.0000 0.0000 0.0000 0.0000 25.6689
#
#
#
# Elastic Compliance Matrix: (Units=1/GPa)
#
#
# Indices 1 2 3 4 5 6 
#
# 1 0.011675 -0.001665 -0.002905 0.000000 0.000000 0.000000
# 2 -0.001665 0.020923 -0.003027 0.000000 0.000000 0.000000
# 3 -0.002905 -0.003027 0.013541 0.000000 0.000000 0.000000
# 4 0.000000 0.000000 0.000000 0.108818 0.000000 0.000000
# 5 0.000000 0.000000 0.000000 0.000000 -0.083164 0.000000
# 6 0.000000 0.000000 0.000000 0.000000 0.000000 0.038958
#
#
# Mechanical properties :
#
#
# Convention : Reuss Voigt Hill
#
# Bulk Modulus (GPa) = 32.31459 35.31512 33.81486
# Shear Modulus (GPa) = 36.69441 16.46859 26.58150
#
# Velocity S-wave (km/s) = 4.04616 2.71064 3.44376
# Velocity P-wave (km/s) = 6.02045 5.05497 5.55871
#
# Compressibility (1/GPa) = 0.03094577
#
# Stress axis : x y z
#
# Youngs Moduli (GPa) = 85.65335 47.79324 73.84827
#
# Poissons Ratio (x) = 0.07957 0.21452
# Poissons Ratio (y) = 0.14260 0.22356
# Poissons Ratio (z) = 0.24881 0.14468
#
# Static dielectric constant tensor:
#      x y z
#    x 1.947310 0.000000 0.000000 
#    y 0.000000 1.855210 0.000000 
#    z 0.000000 0.000000 1.811090 
# 
# From -- ./inp_files/20411.got.cif
#   From: 2010.05.17/outbox.cif.g08.bks.cpg/sg56_11_cif.got.tgz:20411.got - 2010.06.03 13:42:01.
