data_PCOD9430931
_publ_section_title
;
Structure prediction by ZEFSAII (Michael W. Deem and Ramdas Pophale) SiO2 
 PCOD9430931
Probable space group: P C C N
;
_chemical_formula_sum "Si O2"
_cell_formula_units_Z 40
_cell_length_a 8.754824
_cell_length_b 7.760894
_cell_length_c 24.490073
_cell_angle_alpha 90.000000
_cell_angle_beta 90.000000
_cell_angle_gamma 90.000000
_cell_volume 1663.984403
_symmetry_space_group_name_H-M "P C C N"
_symmetry_group_IT_number 56
_symmetry_cell_setting 'orthorhombic'
loop_
_space_group_symop_operation_xyz
x,y,z
1/2-x,1/2-y,z
1/2+x,-y,1/2-z
-x,1/2+y,1/2-z
-x,-y,-z
1/2+x,1/2+y,-z
1/2-x,y,1/2+z
x,1/2-y,1/2+z
loop_
_atom_site_type_symbol
_atom_site_label
_atom_site_fract_x
_atom_site_fract_y
_atom_site_fract_z
Si Si1 0.935620 0.558033 0.558039
Si Si2 0.956636 0.884158 0.332721
Si Si3 0.152063 0.916954 0.151681
Si Si4 0.072603 0.206699 0.270373
Si Si5 0.919102 0.971998 0.558172
O O1 0.933786 0.765626 0.567413
O O2 0.761959 0.493175 0.560219
O O3 0.000000 0.500000 0.500000
O O4 0.052060 0.497193 0.604395
O O5 0.975840 0.720240 0.293274
O O6 0.783210 0.953482 0.328861
O O7 0.052144 0.026589 0.299845
O O8 0.004720 0.909300 0.395318
O O9 0.250000 0.750000 0.130256
O O10 0.038805 0.834661 0.196143
O O11 0.250000 0.250000 0.276315
O O12 0.000000 0.000000 0.500000
#
# Coordination Sequence:
#
# PCOD9430931 Si02
#       5
#     8   8   8   8   8
#     4  11  23  41  72  96 129 177 220 270 333 396
#     4  11  23  42  68  96 133 175 217 276 327 394
#     4  10  20  38  66  91 130 173 210 269 335 378
#     4  11  22  41  67  94 132 173 220 267 329 388
#     4  11  24  45  69  98 134 171 219 276 336 388
#
# _framework density 24.038685999999998
#
# number of rings (size 3 to 8) (size 9 to 14) (size 15 to 20)
#    0.000    1.200    4.000    3.600    0.000    0.000 
#   10.800    2.000    4.400    0.000    0.000    0.000 
#    0.000    0.000    0.000    0.000    0.000    0.000 
#
# Total GULP energy -223797.438665 kJ/mol
# GULP energy per Si atom -5594.935967 kJ/mol
# Density = 2.398397 g / cm^3
# Si number density = 24.038686 Si / 1000 Ang^3
#
#
#
# Elastic Constant Matrix: (Units=GPa)
#
#
# Indices 1 2 3 4 5 6 
#
# 1 160.8375 5.5707 57.1023 0.0000 0.0000 0.0000
# 2 5.5707 52.1875 5.7821 0.0000 0.0000 0.0000
# 3 57.1023 5.7821 173.3618 0.0000 0.0000 0.0000
# 4 0.0000 0.0000 0.0000 22.6480 0.0000 0.0000
# 5 0.0000 0.0000 0.0000 0.0000 38.0900 0.0000
# 6 0.0000 0.0000 0.0000 0.0000 0.0000 27.2228
#
#
#
# Elastic Compliance Matrix: (Units=1/GPa)
#
#
# Indices 1 2 3 4 5 6 
#
# 1 0.007054 -0.000497 -0.002307 0.000000 0.000000 0.000000
# 2 -0.000497 0.019268 -0.000479 0.000000 0.000000 0.000000
# 3 -0.002307 -0.000479 0.006544 0.000000 0.000000 0.000000
# 4 0.000000 0.000000 0.000000 0.044154 0.000000 0.000000
# 5 0.000000 0.000000 0.000000 0.000000 0.026254 0.000000
# 6 0.000000 0.000000 0.000000 0.000000 0.000000 0.036734
#
#
# Mechanical properties :
#
#
# Convention : Reuss Voigt Hill
#
# Bulk Modulus (GPa) = 38.02330 58.14410 48.08370
# Shear Modulus (GPa) = 32.18756 38.78761 35.48758
#
# Velocity S-wave (km/s) = 3.66319 4.02126 3.84639
# Velocity P-wave (km/s) = 5.80894 6.76764 6.30653
#
# Compressibility (1/GPa) = 0.02629966
#
# Stress axis : x y z
#
# Youngs Moduli (GPa) = 141.77051 51.90005 152.81037
#
# Poissons Ratio (x) = 0.02581 0.35250
# Poissons Ratio (y) = 0.07051 0.07317
# Poissons Ratio (z) = 0.32703 0.02485
#
# Static dielectric constant tensor:
#      x y z
#    x 1.615310 0.000000 0.000000 
#    y 0.000000 2.063820 0.000000 
#    z 0.000000 0.000000 1.908330 
# 
# From -- ./inp_files/20310.got.cif
#   From: 2010.05.17/outbox.cif.g08.bks.cpg/sg56_11_cif.got.tgz:20310.got - 2010.06.03 13:42:01.
