data_PCOD9430300
_publ_section_title
;
Structure prediction by ZEFSAII (Michael W. Deem and Ramdas Pophale) SiO2 
 PCOD9430300
Probable space group: P C C N
;
_chemical_formula_sum "Si O2"
_cell_formula_units_Z 64
_cell_length_a 8.148862
_cell_length_b 11.857614
_cell_length_c 28.915302
_cell_angle_alpha 90.000000
_cell_angle_beta 90.000000
_cell_angle_gamma 90.000000
_cell_volume 2793.971710
_symmetry_space_group_name_H-M "P C C N"
_symmetry_group_IT_number 56
_symmetry_cell_setting 'orthorhombic'
loop_
_space_group_symop_operation_xyz
x,y,z
1/2-x,1/2-y,z
1/2+x,-y,1/2-z
-x,1/2+y,1/2-z
-x,-y,-z
1/2+x,1/2+y,-z
1/2-x,y,1/2+z
x,1/2-y,1/2+z
loop_
_atom_site_type_symbol
_atom_site_label
_atom_site_fract_x
_atom_site_fract_y
_atom_site_fract_z
Si Si1 0.903659 0.691496 0.022825
Si Si2 0.244855 0.471976 0.702255
Si Si3 0.073651 0.810320 0.181607
Si Si4 0.070497 0.693652 0.933128
Si Si5 0.599405 0.902498 0.204137
Si Si6 0.417777 0.083016 0.605301
Si Si7 0.115506 0.848343 0.078855
Si Si8 0.710422 0.521215 0.605432
O O1 0.750000 0.750000 0.999240
O O2 0.847017 0.608939 0.064725
O O3 0.994226 0.804757 0.040569
O O4 0.014675 0.642662 0.982327
O O5 0.112189 0.573322 0.704931
O O6 0.213288 0.417670 0.751638
O O7 0.429659 0.522615 0.700880
O O8 0.179161 0.412613 0.654732
O O9 0.250000 0.750000 0.179668
O O10 0.030151 0.829764 0.128445
O O11 0.956102 0.726142 0.206229
O O12 0.250000 0.750000 0.939483
O O13 0.950569 0.792223 0.914394
O O14 0.093431 0.588568 0.899005
O O15 0.686655 0.924373 0.155464
O O16 0.604945 0.030608 0.603658
O O17 0.327956 0.978734 0.577728
O O18 0.250000 0.750000 0.077069
#
# Coordination Sequence:
#
# PCOD9430300 Si02
#       8
#     8   8   8   8   8   8   8   8
#     4  12  23  40  63  98 123 158 213 275 322 368
#     4  10  22  38  62  95 121 168 212 257 319 385
#     4   8  17  34  56  82 115 155 204 247 304 371
#     4  10  25  46  63  89 130 177 210 253 323 400
#     4  11  21  39  64  91 128 164 211 265 318 379
#     4  10  22  43  64  90 128 170 217 258 318 389
#     4  10  19  37  64  90 120 162 209 257 314 378
#     4  11  23  42  65  91 130 167 210 270 324 374
#
# _framework density 22.906458000000001
#
# number of rings (size 3 to 8) (size 9 to 14) (size 15 to 20)
#    0.000    1.750    2.500    2.250    0.000    2.500 
#    2.250    6.875    0.000    0.000    0.000    0.000 
#    0.000    0.000    0.000    0.000    0.000    0.000 
#
# Total GULP energy -356717.468661 kJ/mol
# GULP energy per Si atom -5573.710448 kJ/mol
# Density = 2.285432 g / cm^3
# Si number density = 22.906458 Si / 1000 Ang^3
#
#
#
# Elastic Constant Matrix: (Units=GPa)
#
#
# Indices 1 2 3 4 5 6 
#
# 1 65.9925 18.2020 30.1905 0.0000 0.0000 0.0000
# 2 18.2020 75.5138 26.0931 0.0000 0.0000 0.0000
# 3 30.1905 26.0931 72.8794 0.0000 0.0000 0.0000
# 4 0.0000 0.0000 0.0000 11.8569 0.0000 0.0000
# 5 0.0000 0.0000 0.0000 0.0000 -11.0968 0.0000
# 6 0.0000 0.0000 0.0000 0.0000 0.0000 33.0804
#
#
#
# Elastic Compliance Matrix: (Units=1/GPa)
#
#
# Indices 1 2 3 4 5 6 
#
# 1 0.018990 -0.002122 -0.007107 0.000000 0.000000 0.000000
# 2 -0.002122 0.015349 -0.004617 0.000000 0.000000 0.000000
# 3 -0.007107 -0.004617 0.018318 0.000000 0.000000 0.000000
# 4 0.000000 0.000000 0.000000 0.084339 0.000000 0.000000
# 5 0.000000 0.000000 0.000000 0.000000 -0.090116 0.000000
# 6 0.000000 0.000000 0.000000 0.000000 0.000000 0.030229
#
#
# Mechanical properties :
#
#
# Convention : Reuss Voigt Hill
#
# Bulk Modulus (GPa) = 40.05303 40.37299 40.21301
# Shear Modulus (GPa) = 44.20000 16.09478 30.14739
#
# Velocity S-wave (km/s) = 4.39747 2.65359 3.63176
# Velocity P-wave (km/s) = 6.58081 5.20117 5.93124
#
# Compressibility (1/GPa) = 0.02496690
#
# Stress axis : x y z
#
# Youngs Moduli (GPa) = 52.66005 65.14978 54.59028
#
# Poissons Ratio (x) = 0.13822 0.38797
# Poissons Ratio (y) = 0.11172 0.25202
# Poissons Ratio (z) = 0.37425 0.30077
#
# Static dielectric constant tensor:
#      x y z
#    x 1.645430 0.000000 0.000000 
#    y 0.000000 2.137220 0.000000 
#    z 0.000000 0.000000 1.894030 
# 
# From -- ./inp_files/23366.got.cif
#   From: 2010.05.17/outbox.cif.g08.bks.cpg/sg56_12_cif.got.tgz:23366.got - 2010.06.03 13:42:01.
