data_PCOD9430260
_publ_section_title
;
Structure prediction by ZEFSAII (Michael W. Deem and Ramdas Pophale) SiO2 
 PCOD9430260
Probable space group: P C C N
;
_chemical_formula_sum "Si O2"
_cell_formula_units_Z 40
_cell_length_a 10.382871
_cell_length_b 7.001730
_cell_length_c 23.637156
_cell_angle_alpha 90.000000
_cell_angle_beta 90.000000
_cell_angle_gamma 90.000000
_cell_volume 1718.375370
_symmetry_space_group_name_H-M "P C C N"
_symmetry_group_IT_number 56
_symmetry_cell_setting 'orthorhombic'
loop_
_space_group_symop_operation_xyz
x,y,z
1/2-x,1/2-y,z
1/2+x,-y,1/2-z
-x,1/2+y,1/2-z
-x,-y,-z
1/2+x,1/2+y,-z
1/2-x,y,1/2+z
x,1/2-y,1/2+z
loop_
_atom_site_type_symbol
_atom_site_label
_atom_site_fract_x
_atom_site_fract_y
_atom_site_fract_z
Si Si1 0.758629 0.017504 0.620865
Si Si2 0.273079 0.469402 0.629280
Si Si3 0.656638 0.448918 0.497936
Si Si4 0.504836 0.476872 0.829459
Si Si5 0.511376 0.076168 0.197288
O O1 0.750000 0.250000 0.619423
O O2 0.800670 0.963284 0.557841
O O3 0.622616 0.925155 0.636344
O O4 0.860690 0.983636 0.671147
O O5 0.250000 0.250000 0.645672
O O6 0.309029 0.472686 0.563747
O O7 0.388588 0.529574 0.670502
O O8 0.137476 0.571212 0.639421
O O9 0.750000 0.250000 0.497447
O O10 0.500000 0.500000 0.500000
O O11 0.493548 0.707444 0.825064
O O12 0.507269 0.413393 0.764544
#
# Coordination Sequence:
#
# PCOD9430260 Si02
#       5
#     8   8   8   8   8
#     4   9  19  37  60  83 118 162 208 255 326 392
#     4  10  22  39  60  90 129 162 209 272 336 390
#     4  11  23  43  69  92 125 173 222 270 337 418
#     4  10  21  35  58  88 120 164 205 266 322 393
#     4  10  19  37  58  83 123 163 209 257 328 395
#
# _framework density 23.277802000000001
#
# number of rings (size 3 to 8) (size 9 to 14) (size 15 to 20)
#    0.000    2.000    2.000    1.200    2.800    2.400 
#    0.000    0.000    0.000    0.000    0.000    0.000 
#    0.000    0.000    0.000    0.000    0.000    0.000 
#
# Total GULP energy -222889.729972 kJ/mol
# GULP energy per Si atom -5572.243249 kJ/mol
# Density = 2.322482 g / cm^3
# Si number density = 23.277802 Si / 1000 Ang^3
#
#
#
# Elastic Constant Matrix: (Units=GPa)
#
#
# Indices 1 2 3 4 5 6 
#
# 1 218.0725 -6.4499 116.9255 0.0000 0.0000 0.0000
# 2 -6.4499 74.6850 -34.4987 0.0000 0.0000 0.0000
# 3 116.9255 -34.4987 184.1310 0.0000 0.0000 0.0000
# 4 0.0000 0.0000 0.0000 8.3346 0.0000 0.0000
# 5 0.0000 0.0000 0.0000 0.0000 135.4412 0.0000
# 6 0.0000 0.0000 0.0000 0.0000 0.0000 -12.9379
#
#
#
# Elastic Compliance Matrix: (Units=1/GPa)
#
#
# Indices 1 2 3 4 5 6 
#
# 1 0.007127 -0.001615 -0.004828 0.000000 0.000000 0.000000
# 2 -0.001615 0.015024 0.003840 0.000000 0.000000 0.000000
# 3 -0.004828 0.003840 0.009216 0.000000 0.000000 0.000000
# 4 0.000000 0.000000 0.000000 0.119982 0.000000 0.000000
# 5 0.000000 0.000000 0.000000 0.000000 0.007383 0.000000
# 6 0.000000 0.000000 0.000000 0.000000 0.000000 -0.077292
#
#
# Mechanical properties :
#
#
# Convention : Reuss Voigt Hill
#
# Bulk Modulus (GPa) = 38.22343 69.87137 54.04740
# Shear Modulus (GPa) = 52.42985 52.89500 52.66243
#
# Velocity S-wave (km/s) = 4.75105 4.77207 4.76157
# Velocity P-wave (km/s) = 6.82296 7.77464 7.31430
#
# Compressibility (1/GPa) = 0.02616196
#
# Stress axis : x y z
#
# Youngs Moduli (GPa) = 140.32106 66.56010 108.50419
#
# Poissons Ratio (x) = 0.10747 0.52385
# Poissons Ratio (y) = 0.22657 -0.41668
# Poissons Ratio (z) = 0.67746 -0.25561
#
# Static dielectric constant tensor:
#      x y z
#    x 2.017170 0.000000 0.000000 
#    y 0.000000 2.042160 0.000000 
#    z 0.000000 0.000000 1.761620 
# 
# From -- ./inp_files/20286.got.cif
#   From: 2010.05.17/outbox.cif.g08.bks.cpg/sg56_11_cif.got.tgz:20286.got - 2010.06.03 13:42:01.
