data_PCOD9430738
_publ_section_title
;
Structure prediction by ZEFSAII (Michael W. Deem and Ramdas Pophale) SiO2 
 PCOD9430738
Probable space group: P C C N
;
_chemical_formula_sum "Si O2"
_cell_formula_units_Z 64
_cell_length_a 18.028292
_cell_length_b 19.944476
_cell_length_c 9.358361
_cell_angle_alpha 90.000000
_cell_angle_beta 90.000000
_cell_angle_gamma 90.000000
_cell_volume 3364.937549
_symmetry_space_group_name_H-M "P C C N"
_symmetry_group_IT_number 56
_symmetry_cell_setting 'orthorhombic'
loop_
_space_group_symop_operation_xyz
x,y,z
1/2-x,1/2-y,z
1/2+x,-y,1/2-z
-x,1/2+y,1/2-z
-x,-y,-z
1/2+x,1/2+y,-z
1/2-x,y,1/2+z
x,1/2-y,1/2+z
loop_
_atom_site_type_symbol
_atom_site_label
_atom_site_fract_x
_atom_site_fract_y
_atom_site_fract_z
Si Si1 0.830794 0.779998 0.381314
Si Si2 0.517072 0.648605 0.038089
Si Si3 0.340124 0.445666 0.002888
Si Si4 0.586434 0.023567 0.986603
Si Si5 0.578196 0.785711 0.151157
Si Si6 0.977156 0.099920 0.254254
Si Si7 0.806101 0.927247 0.315898
Si Si8 0.433031 0.535205 0.195871
O O1 0.750000 0.750000 0.368449
O O2 0.890845 0.733281 0.305709
O O3 0.852467 0.790295 0.544971
O O4 0.833407 0.851093 0.303766
O O5 0.596148 0.611587 0.006867
O O6 0.528906 0.723665 0.094487
O O7 0.477132 0.601676 0.154999
O O8 0.468913 0.641186 0.892422
O O9 0.308993 0.456541 0.843717
O O10 0.274366 0.425496 0.110353
O O11 0.377954 0.511354 0.071130
O O12 0.586270 0.082666 0.868403
O O13 0.638551 0.966806 0.920554
O O14 0.605778 0.041001 0.149718
O O15 0.500000 0.000000 0.000000
O O16 0.536801 0.856076 0.158539
O O17 0.009522 0.027539 0.206615
#
# Coordination Sequence:
#
# PCOD9430738 Si02
#       8
#     8   8   8   8   8   8   8   8
#     4  12  26  38  52  77 120 165 205 236 289 345
#     4  11  21  39  57  84 114 160 199 254 299 353
#     4  11  22  37  55  84 113 155 195 241 293 347
#     4  10  20  37  58  85 104 148 196 251 301 343
#     4  12  24  38  55  82 117 158 205 245 296 354
#     4  10  21  35  58  78 113 144 198 245 299 341
#     4  12  24  37  59  80 121 159 203 247 290 358
#     4  10  21  37  63  82 113 149 202 250 306 346
#
# _framework density 19.019670000000001
#
# number of rings (size 3 to 8) (size 9 to 14) (size 15 to 20)
#    0.000    1.000    2.500    7.125    5.250    0.000 
#    0.000    0.000    0.000    0.000    0.000    0.875 
#    0.000   10.000    0.000    0.000    0.000    0.000 
#
# Total GULP energy -357425.209777 kJ/mol
# GULP energy per Si atom -5584.768903 kJ/mol
# Density = 1.897638 g / cm^3
# Si number density = 19.019670 Si / 1000 Ang^3
#
#
#
# Elastic Constant Matrix: (Units=GPa)
#
#
# Indices 1 2 3 4 5 6 
#
# 1 33.1474 22.0799 16.7147 0.0000 0.0000 0.0000
# 2 22.0799 57.6732 18.0921 0.0000 0.0000 0.0000
# 3 16.7147 18.0921 124.4985 0.0000 0.0000 0.0000
# 4 0.0000 0.0000 0.0000 28.1236 0.0000 0.0000
# 5 0.0000 0.0000 0.0000 0.0000 16.7961 0.0000
# 6 0.0000 0.0000 0.0000 0.0000 0.0000 19.5282
#
#
#
# Elastic Compliance Matrix: (Units=1/GPa)
#
#
# Indices 1 2 3 4 5 6 
#
# 1 0.041862 -0.014945 -0.003448 0.000000 0.000000 0.000000
# 2 -0.014945 0.023503 -0.001409 0.000000 0.000000 0.000000
# 3 -0.003448 -0.001409 0.008700 0.000000 0.000000 0.000000
# 4 0.000000 0.000000 0.000000 0.035557 0.000000 0.000000
# 5 0.000000 0.000000 0.000000 0.000000 0.059537 0.000000
# 6 0.000000 0.000000 0.000000 0.000000 0.000000 0.051208
#
#
# Mechanical properties :
#
#
# Convention : Reuss Voigt Hill
#
# Bulk Modulus (GPa) = 29.01907 36.56583 32.79245
# Shear Modulus (GPa) = 18.41898 23.45175 20.93536
#
# Velocity S-wave (km/s) = 3.11532 3.51526 3.32131
# Velocity P-wave (km/s) = 5.31327 5.97855 5.65570
#
# Compressibility (1/GPa) = 0.03446009
#
# Stress axis : x y z
#
# Youngs Moduli (GPa) = 23.88787 42.54838 114.94312
#
# Poissons Ratio (x) = 0.63588 0.39638
# Poissons Ratio (y) = 0.35700 0.16195
# Poissons Ratio (z) = 0.08238 0.05995
#
# Static dielectric constant tensor:
#      x y z
#    x 1.661190 0.000000 0.000000 
#    y 0.000000 1.651670 0.000000 
#    z 0.000000 0.000000 1.738870 
# 
# From -- ./inp_files/4208.got.cif
#   From: 2010.05.17/outbox.cif.g08.bks.cpg/sg56_3_cif.got.tgz:4208.got - 2010.06.03 13:42:01.
