data_PCOD9430158
_publ_section_title
;
Structure prediction by ZEFSAII (Michael W. Deem and Ramdas Pophale) SiO2 
 PCOD9430158
Probable space group: P C C N
;
_chemical_formula_sum "Si O2"
_cell_formula_units_Z 32
_cell_length_a 7.757617
_cell_length_b 12.532119
_cell_length_c 13.713292
_cell_angle_alpha 90.000000
_cell_angle_beta 90.000000
_cell_angle_gamma 90.000000
_cell_volume 1333.197738
_symmetry_space_group_name_H-M "P C C N"
_symmetry_group_IT_number 56
_symmetry_cell_setting 'orthorhombic'
loop_
_space_group_symop_operation_xyz
x,y,z
1/2-x,1/2-y,z
1/2+x,-y,1/2-z
-x,1/2+y,1/2-z
-x,-y,-z
1/2+x,1/2+y,-z
1/2-x,y,1/2+z
x,1/2-y,1/2+z
loop_
_atom_site_type_symbol
_atom_site_label
_atom_site_fract_x
_atom_site_fract_y
_atom_site_fract_z
Si Si1 0.379867 0.957437 0.887656
Si Si2 0.639607 0.077334 0.449995
Si Si3 0.000114 0.947280 0.792410
Si Si4 0.060403 0.259589 0.567741
O O1 0.195467 0.947440 0.831493
O O2 0.488342 0.849036 0.888069
O O3 0.475619 0.046244 0.823142
O O4 0.315936 0.963980 0.000407
O O5 0.576608 0.191722 0.490081
O O6 0.500000 0.000000 0.500000
O O7 0.599471 0.050327 0.338612
O O8 0.919844 0.843619 0.843564
O O9 0.250000 0.250000 0.521643
#
# Coordination Sequence:
#
# PCOD9430158 Si02
#       4
#     8   8   8   8
#     4  10  19  36  59  83 114 150 189 237 285 339
#     4   8  18  37  55  76 112 149 186 237 287 337
#     4  10  20  38  58  82 115 152 189 236 292 345
#     4  10  19  35  56  81 113 151 192 238 284 339
#
# _framework density 24.00244
#
# number of rings (size 3 to 8) (size 9 to 14) (size 15 to 20)
#    0.000    3.000    0.000    4.500    0.000    0.000 
#    0.000   38.750    0.000    0.000    0.000    0.000 
#    0.000    0.000    0.000    0.000    0.000    0.000 
#
# Total GULP energy -178384.805403 kJ/mol
# GULP energy per Si atom -5574.525169 kJ/mol
# Density = 2.394781 g / cm^3
# Si number density = 24.002440 Si / 1000 Ang^3
#
#
#
# Elastic Constant Matrix: (Units=GPa)
#
#
# Indices 1 2 3 4 5 6 
#
# 1 108.7846 18.7106 42.6950 0.0000 0.0000 0.0000
# 2 18.7106 80.6183 15.2566 0.0000 0.0000 0.0000
# 3 42.6950 15.2566 121.0724 0.0000 0.0000 0.0000
# 4 0.0000 0.0000 0.0000 19.8112 0.0000 0.0000
# 5 0.0000 0.0000 0.0000 0.0000 34.4839 0.0000
# 6 0.0000 0.0000 0.0000 0.0000 0.0000 28.4380
#
#
#
# Elastic Compliance Matrix: (Units=1/GPa)
#
#
# Indices 1 2 3 4 5 6 
#
# 1 0.010932 -0.001852 -0.003622 0.000000 0.000000 0.000000
# 2 -0.001852 0.013021 -0.000988 0.000000 0.000000 0.000000
# 3 -0.003622 -0.000988 0.009661 0.000000 0.000000 0.000000
# 4 0.000000 0.000000 0.000000 0.050476 0.000000 0.000000
# 5 0.000000 0.000000 0.000000 0.000000 0.028999 0.000000
# 6 0.000000 0.000000 0.000000 0.000000 0.000000 0.035164
#
#
# Mechanical properties :
#
#
# Convention : Reuss Voigt Hill
#
# Bulk Modulus (GPa) = 48.32889 51.53330 49.93109
# Shear Modulus (GPa) = 29.74874 32.13417 30.94146
#
# Velocity S-wave (km/s) = 3.52434 3.66291 3.59429
# Velocity P-wave (km/s) = 6.06135 6.27741 6.17033
#
# Compressibility (1/GPa) = 0.02069156
#
# Stress axis : x y z
#
# Youngs Moduli (GPa) = 91.47057 76.79982 103.50675
#
# Poissons Ratio (x) = 0.14222 0.37489
# Poissons Ratio (y) = 0.16939 0.10224
# Poissons Ratio (z) = 0.33129 0.07586
#
# Static dielectric constant tensor:
#      x y z
#    x 1.995940 0.000000 0.000000 
#    y 0.000000 1.971620 0.000000 
#    z 0.000000 0.000000 2.308690 
# 
# From -- ./inp_files/7550.got.cif
#   From: 2010.05.17/outbox.cif.g08.bks.cpg/sg56_4_cif.got.tgz:7550.got - 2010.06.03 13:42:01.
