data_PCOD9430281
_publ_section_title
;
Structure prediction by ZEFSAII (Michael W. Deem and Ramdas Pophale) SiO2 
 PCOD9430281
Probable space group: P C C N
;
_chemical_formula_sum "Si O2"
_cell_formula_units_Z 48
_cell_length_a 8.215215
_cell_length_b 16.154074
_cell_length_c 17.430242
_cell_angle_alpha 90.000000
_cell_angle_beta 90.000000
_cell_angle_gamma 90.000000
_cell_volume 2313.153315
_symmetry_space_group_name_H-M "P C C N"
_symmetry_group_IT_number 56
_symmetry_cell_setting 'orthorhombic'
loop_
_space_group_symop_operation_xyz
x,y,z
1/2-x,1/2-y,z
1/2+x,-y,1/2-z
-x,1/2+y,1/2-z
-x,-y,-z
1/2+x,1/2+y,-z
1/2-x,y,1/2+z
x,1/2-y,1/2+z
loop_
_atom_site_type_symbol
_atom_site_label
_atom_site_fract_x
_atom_site_fract_y
_atom_site_fract_z
Si Si1 0.994608 0.720050 0.340697
Si Si2 0.811556 0.625415 0.905812
Si Si3 0.159926 0.172484 0.317308
Si Si4 0.425074 0.052359 0.236085
Si Si5 0.877833 0.953475 0.557182
Si Si6 0.270041 0.582062 0.827397
O O1 0.856809 0.662889 0.378482
O O2 0.952730 0.807961 0.380902
O O3 0.947457 0.714312 0.250201
O O4 0.163583 0.671717 0.349071
O O5 0.857012 0.548506 0.850863
O O6 0.791601 0.604167 0.994084
O O7 0.250000 0.250000 0.356901
O O8 0.301831 0.115475 0.278596
O O9 0.070418 0.111045 0.376113
O O10 0.611100 0.080973 0.227289
O O11 0.410105 0.966590 0.280710
O O12 0.775174 0.024612 0.600075
O O13 0.000000 0.000000 0.500000
#
# Coordination Sequence:
#
# PCOD9430281 Si02
#       6
#     8   8   8   8   8   8
#     4  10  21  39  63  92 117 169 218 274 303 400
#     4  10  20  39  60  87 128 163 207 259 340 372
#     4  10  20  40  65  92 123 169 219 258 334 384
#     4  10  19  37  61  89 122 160 214 265 306 391
#     4  11  23  37  61  93 130 172 202 272 331 391
#     4  11  22  38  65  93 124 169 223 264 328 384
#
# _framework density 20.750893000000001
#
# number of rings (size 3 to 8) (size 9 to 14) (size 15 to 20)
#    0.000    1.667    5.000    3.000    2.333    1.333 
#    0.000    0.000    0.000    4.000    0.000    0.000 
#    0.000    0.000    0.000    0.000    0.000    0.000 
#
# Total GULP energy -267441.382318 kJ/mol
# GULP energy per Si atom -5571.695465 kJ/mol
# Density = 2.070366 g / cm^3
# Si number density = 20.750893 Si / 1000 Ang^3
#
#
#
# Elastic Constant Matrix: (Units=GPa)
#
#
# Indices 1 2 3 4 5 6 
#
# 1 66.8081 19.1422 21.0745 0.0000 0.0000 0.0000
# 2 19.1422 111.9737 50.8317 0.0000 0.0000 0.0000
# 3 21.0745 50.8317 117.2177 0.0000 0.0000 0.0000
# 4 0.0000 0.0000 0.0000 33.1713 0.0000 0.0000
# 5 0.0000 0.0000 0.0000 0.0000 22.4774 0.0000
# 6 0.0000 0.0000 0.0000 0.0000 0.0000 40.1378
#
#
#
# Elastic Compliance Matrix: (Units=1/GPa)
#
#
# Indices 1 2 3 4 5 6 
#
# 1 0.016153 -0.001797 -0.002125 0.000000 0.000000 0.000000
# 2 -0.001797 0.011320 -0.004586 0.000000 0.000000 0.000000
# 3 -0.002125 -0.004586 0.010902 0.000000 0.000000 0.000000
# 4 0.000000 0.000000 0.000000 0.030147 0.000000 0.000000
# 5 0.000000 0.000000 0.000000 0.000000 0.044489 0.000000
# 6 0.000000 0.000000 0.000000 0.000000 0.000000 0.024914
#
#
# Mechanical properties :
#
#
# Convention : Reuss Voigt Hill
#
# Bulk Modulus (GPa) = 46.81713 53.12182 49.96948
# Shear Modulus (GPa) = 30.85285 32.82070 31.83678
#
# Velocity S-wave (km/s) = 3.86011 3.98131 3.92118
# Velocity P-wave (km/s) = 6.51750 6.84031 6.68085
#
# Compressibility (1/GPa) = 0.02135970
#
# Stress axis : x y z
#
# Youngs Moduli (GPa) = 61.90648 88.34263 91.72797
#
# Poissons Ratio (x) = 0.15873 0.19493
# Poissons Ratio (y) = 0.11123 0.42064
# Poissons Ratio (z) = 0.13155 0.40511
#
# Static dielectric constant tensor:
#      x y z
#    x 1.812300 0.000000 0.000000 
#    y 0.000000 1.909690 0.000000 
#    z 0.000000 0.000000 1.790510 
# 
# From -- ./inp_files/14939.got.cif
#   From: 2010.05.17/outbox.cif.g08.bks.cpg/sg56_8_cif.got.tgz:14939.got - 2010.06.03 13:42:01.
