data_PCOD9430756
_publ_section_title
;
Structure prediction by ZEFSAII (Michael W. Deem and Ramdas Pophale) SiO2 
 PCOD9430756
Probable space group: P C C N
;
_chemical_formula_sum "Si O2"
_cell_formula_units_Z 40
_cell_length_a 8.598236
_cell_length_b 18.864409
_cell_length_c 9.474507
_cell_angle_alpha 90.000000
_cell_angle_beta 90.000000
_cell_angle_gamma 90.000000
_cell_volume 1536.771105
_symmetry_space_group_name_H-M "P C C N"
_symmetry_group_IT_number 56
_symmetry_cell_setting 'orthorhombic'
loop_
_space_group_symop_operation_xyz
x,y,z
1/2-x,1/2-y,z
1/2+x,-y,1/2-z
-x,1/2+y,1/2-z
-x,-y,-z
1/2+x,1/2+y,-z
1/2-x,y,1/2+z
x,1/2-y,1/2+z
loop_
_atom_site_type_symbol
_atom_site_label
_atom_site_fract_x
_atom_site_fract_y
_atom_site_fract_z
Si Si1 0.625963 0.312618 0.111856
Si Si2 0.574746 0.514554 0.710553
Si Si3 0.792503 0.936357 0.422275
Si Si4 0.105459 0.212572 0.706576
Si Si5 0.176276 0.867491 0.165961
O O1 0.750000 0.250000 0.079931
O O2 0.461468 0.274647 0.106898
O O3 0.663061 0.340498 0.268608
O O4 0.670061 0.373180 0.000869
O O5 0.678388 0.550891 0.587767
O O6 0.402682 0.497890 0.649998
O O7 0.620199 0.554726 0.855722
O O8 0.627951 0.435755 0.748545
O O9 0.848968 0.858677 0.376277
O O10 0.250000 0.250000 0.782338
O O11 0.959131 0.189767 0.801285
#
# Coordination Sequence:
#
# PCOD9430756 Si02
#       5
#     8   8   8   8   8
#     4  10  20  37  60  88 120 155 200 247 301 368
#     4  10  22  41  62  90 123 160 210 258 311 369
#     4  10  23  41  62  89 124 163 207 261 311 369
#     4  10  23  38  57  90 126 159 201 253 314 370
#     4  10  21  39  64  89 118 160 205 253 304 365
#
# _framework density 26.028597999999999
#
# number of rings (size 3 to 8) (size 9 to 14) (size 15 to 20)
#    0.000    2.000    0.000    3.000    0.000    9.600 
#    0.000    0.000    0.000    0.000    0.000    0.000 
#    0.000    0.000    0.000    0.000    0.000    0.000 
#
# Total GULP energy -223582.167532 kJ/mol
# GULP energy per Si atom -5589.554188 kJ/mol
# Density = 2.596936 g / cm^3
# Si number density = 26.028598 Si / 1000 Ang^3
#
#
#
# Elastic Constant Matrix: (Units=GPa)
#
#
# Indices 1 2 3 4 5 6 
#
# 1 71.0230 15.1911 28.8999 0.0000 0.0000 0.0000
# 2 15.1911 76.4577 17.0712 0.0000 0.0000 0.0000
# 3 28.8999 17.0712 93.7237 0.0000 0.0000 0.0000
# 4 0.0000 0.0000 0.0000 19.9958 0.0000 0.0000
# 5 0.0000 0.0000 0.0000 0.0000 29.3301 0.0000
# 6 0.0000 0.0000 0.0000 0.0000 0.0000 36.6437
#
#
#
# Elastic Compliance Matrix: (Units=1/GPa)
#
#
# Indices 1 2 3 4 5 6 
#
# 1 0.016456 -0.002227 -0.004669 0.000000 0.000000 0.000000
# 2 -0.002227 0.013935 -0.001851 0.000000 0.000000 0.000000
# 3 -0.004669 -0.001851 0.012446 0.000000 0.000000 0.000000
# 4 0.000000 0.000000 0.000000 0.050011 0.000000 0.000000
# 5 0.000000 0.000000 0.000000 0.000000 0.034095 0.000000
# 6 0.000000 0.000000 0.000000 0.000000 0.000000 0.027290
#
#
# Mechanical properties :
#
#
# Convention : Reuss Voigt Hill
#
# Bulk Modulus (GPa) = 39.45846 40.39206 39.92526
# Shear Modulus (GPa) = 27.75085 29.19672 28.47379
#
# Velocity S-wave (km/s) = 3.26876 3.35284 3.31107
# Velocity P-wave (km/s) = 5.42577 5.52637 5.47630
#
# Compressibility (1/GPa) = 0.02534311
#
# Stress axis : x y z
#
# Youngs Moduli (GPa) = 60.76811 71.76166 80.34426
#
# Poissons Ratio (x) = 0.15983 0.37509
# Poissons Ratio (y) = 0.13534 0.14875
# Poissons Ratio (z) = 0.28370 0.13286
#
# Static dielectric constant tensor:
#      x y z
#    x 2.072170 0.000000 0.000000 
#    y 0.000000 2.066980 0.000000 
#    z 0.000000 0.000000 2.045070 
# 
# From -- ./inp_files/2038.got.cif
#   From: 2010.05.17/outbox.cif.g08.bks.cpg/sg56_2_cif.got.tgz:2038.got - 2010.06.03 13:42:01.
