data_PCOD9430573
_publ_section_title
;
Structure prediction by ZEFSAII (Michael W. Deem and Ramdas Pophale) SiO2 
 PCOD9430573
Probable space group: P C C N
;
_chemical_formula_sum "Si O2"
_cell_formula_units_Z 48
_cell_length_a 30.165422
_cell_length_b 15.123706
_cell_length_c 4.901537
_cell_angle_alpha 90.000000
_cell_angle_beta 90.000000
_cell_angle_gamma 90.000000
_cell_volume 2236.144770
_symmetry_space_group_name_H-M "P C C N"
_symmetry_group_IT_number 56
_symmetry_cell_setting 'orthorhombic'
loop_
_space_group_symop_operation_xyz
x,y,z
1/2-x,1/2-y,z
1/2+x,-y,1/2-z
-x,1/2+y,1/2-z
-x,-y,-z
1/2+x,1/2+y,-z
1/2-x,y,1/2+z
x,1/2-y,1/2+z
loop_
_atom_site_type_symbol
_atom_site_label
_atom_site_fract_x
_atom_site_fract_y
_atom_site_fract_z
Si Si1 0.776235 0.005315 0.597314
Si Si2 0.606773 0.919954 0.295763
Si Si3 0.131504 0.969875 0.688126
Si Si4 0.520963 0.689067 0.819935
Si Si5 0.311955 0.188730 0.917804
Si Si6 0.078488 0.690209 0.422885
O O1 0.764398 0.031854 0.902541
O O2 0.782671 0.899133 0.606318
O O3 0.821056 0.039507 0.458538
O O4 0.560149 0.878521 0.377371
O O5 0.630901 0.958934 0.564173
O O6 0.638682 0.847083 0.154779
O O7 0.601384 0.993891 0.061119
O O8 0.113195 0.881651 0.823796
O O9 0.525238 0.725128 0.513597
O O10 0.471395 0.654559 0.873660
O O11 0.304737 0.231454 0.210236
O O12 0.082880 0.723147 0.731305
#
# Coordination Sequence:
#
# PCOD9430573 Si02
#       6
#     8   8   8   8   8   8
#     4  11  23  39  57  80 111 148 188 234 288 336
#     4  11  21  35  56  85 120 156 193 231 274 328
#     4  11  23  39  60  85 113 149 191 238 293 347
#     4  10  20  35  56  84 120 159 194 229 272 325
#     4  11  21  34  53  79 113 153 192 226 262 313
#     4  10  22  40  62  86 113 148 188 235 293 350
#
# _framework density 21.465516000000001
#
# number of rings (size 3 to 8) (size 9 to 14) (size 15 to 20)
#    0.000    1.333    0.000    8.000    0.000    3.333 
#    0.000    0.000    0.000    3.000    0.000    0.000 
#    0.000    0.000    0.000    0.000    0.000    0.000 
#
# Total GULP energy -268361.711366 kJ/mol
# GULP energy per Si atom -5590.868987 kJ/mol
# Density = 2.141666 g / cm^3
# Si number density = 21.465516 Si / 1000 Ang^3
#
#
#
# Elastic Constant Matrix: (Units=GPa)
#
#
# Indices 1 2 3 4 5 6 
#
# 1 79.0610 28.4744 -3.1793 0.0000 0.0000 0.0000
# 2 28.4744 20.3361 -2.4967 0.0000 0.0000 0.0000
# 3 -3.1793 -2.4967 52.3245 0.0000 0.0000 0.0000
# 4 0.0000 0.0000 0.0000 12.9431 0.0000 0.0000
# 5 0.0000 0.0000 0.0000 0.0000 22.6592 0.0000
# 6 0.0000 0.0000 0.0000 0.0000 0.0000 19.1705
#
#
#
# Elastic Compliance Matrix: (Units=1/GPa)
#
#
# Indices 1 2 3 4 5 6 
#
# 1 0.025517 -0.035748 -0.000155 0.000000 0.000000 0.000000
# 2 -0.035748 0.099543 0.002578 0.000000 0.000000 0.000000
# 3 -0.000155 0.002578 0.019225 0.000000 0.000000 0.000000
# 4 0.000000 0.000000 0.000000 0.077261 0.000000 0.000000
# 5 0.000000 0.000000 0.000000 0.000000 0.044132 0.000000
# 6 0.000000 0.000000 0.000000 0.000000 0.000000 0.052163
#
#
# Mechanical properties :
#
#
# Convention : Reuss Voigt Hill
#
# Bulk Modulus (GPa) = 12.88075 21.92427 17.40251
# Shear Modulus (GPa) = 12.18410 19.54945 15.86677
#
# Velocity S-wave (km/s) = 2.38505 3.02112 2.72173
# Velocity P-wave (km/s) = 3.68759 4.73344 4.24286
#
# Compressibility (1/GPa) = 0.07763522
#
# Stress axis : x y z
#
# Youngs Moduli (GPa) = 39.18960 10.04587 52.01539
#
# Poissons Ratio (x) = 0.35912 0.00808
# Poissons Ratio (y) = 1.40093 -0.13409
# Poissons Ratio (z) = 0.00609 -0.02590
#
# Static dielectric constant tensor:
#      x y z
#    x 1.807220 0.000000 0.000000 
#    y 0.000000 1.758930 0.000000 
#    z 0.000000 0.000000 1.760040 
# 
# From -- ./inp_files/518.got.cif
#   From: 2010.05.17/outbox.cif.g08.bks.cpg/sg56_1_cif.got.tgz:518.got - 2010.06.03 13:42:01.
