data_PCOD9430373
_publ_section_title
;
Structure prediction by ZEFSAII (Michael W. Deem and Ramdas Pophale) SiO2 
 PCOD9430373
Probable space group: P C C N
;
_chemical_formula_sum "Si O2"
_cell_formula_units_Z 52
_cell_length_a 11.231822
_cell_length_b 8.988080
_cell_length_c 26.678968
_cell_angle_alpha 90.000000
_cell_angle_beta 90.000000
_cell_angle_gamma 90.000000
_cell_volume 2693.308909
_symmetry_space_group_name_H-M "P C C N"
_symmetry_group_IT_number 56
_symmetry_cell_setting 'orthorhombic'
loop_
_space_group_symop_operation_xyz
x,y,z
1/2-x,1/2-y,z
1/2+x,-y,1/2-z
-x,1/2+y,1/2-z
-x,-y,-z
1/2+x,1/2+y,-z
1/2-x,y,1/2+z
x,1/2-y,1/2+z
loop_
_atom_site_type_symbol
_atom_site_label
_atom_site_fract_x
_atom_site_fract_y
_atom_site_fract_z
Si Si1 0.112244 0.707975 0.640797
Si Si2 0.531067 0.551568 0.055816
Si Si3 0.250000 0.250000 0.907772
Si Si4 0.522916 0.089917 0.256278
Si Si5 0.354810 0.856868 0.275714
Si Si6 0.375319 0.777257 0.387449
Si Si7 0.578647 0.961341 0.154634
O O1 0.250000 0.750000 0.640626
O O2 0.074087 0.598842 0.687172
O O3 0.067918 0.639865 0.588171
O O4 0.037605 0.858861 0.650614
O O5 0.651047 0.654247 0.061491
O O6 0.548268 0.395145 0.083782
O O7 0.500000 0.500000 0.000000
O O8 0.319477 0.134845 0.871895
O O9 0.528081 0.258320 0.236389
O O10 0.391868 0.017836 0.256955
O O11 0.598162 0.004899 0.212925
O O12 0.250000 0.750000 0.254831
O O13 0.339939 0.857144 0.335065
O O14 0.250000 0.750000 0.415005
O O15 0.432074 0.618793 0.374037
#
# Coordination Sequence:
#
# PCOD9430373 Si02
#       7
#     8   8   4   8   8   8   8
#     4  11  24  44  60  92 144 173 212 273 334 397
#     4  11  24  45  73  94 125 169 221 283 335 385
#     4  10  22  46  66 102 126 164 230 274 320 404
#     4  11  20  36  59  92 129 172 210 253 320 392
#     4  10  21  35  58  87 126 168 210 257 310 384
#     4  10  19  39  65  92 123 157 216 271 315 374
#     4  10  22  38  67  95 129 174 218 259 324 395
#
# _framework density 19.307106000000001
#
# number of rings (size 3 to 8) (size 9 to 14) (size 15 to 20)
#    0.000    1.538    4.615    0.462    0.000    1.231 
#    2.769    1.538    0.000    0.000    0.000    0.000 
#    0.000    0.000    0.000    0.000    0.000    0.000 
#
# Total GULP energy -289677.960234 kJ/mol
# GULP energy per Si atom -5570.730004 kJ/mol
# Density = 1.926316 g / cm^3
# Si number density = 19.307106 Si / 1000 Ang^3
#
#
#
# Elastic Constant Matrix: (Units=GPa)
#
#
# Indices 1 2 3 4 5 6 
#
# 1 109.0369 54.4040 45.5273 0.0000 0.0000 0.0000
# 2 54.4040 119.8016 44.9844 0.0000 0.0000 0.0000
# 3 45.5273 44.9844 125.8611 0.0000 0.0000 0.0000
# 4 0.0000 0.0000 0.0000 28.3955 0.0000 0.0000
# 5 0.0000 0.0000 0.0000 0.0000 15.2306 0.0000
# 6 0.0000 0.0000 0.0000 0.0000 0.0000 31.1065
#
#
#
# Elastic Compliance Matrix: (Units=1/GPa)
#
#
# Indices 1 2 3 4 5 6 
#
# 1 0.012731 -0.004680 -0.002932 0.000000 0.000000 0.000000
# 2 -0.004680 0.011362 -0.002368 0.000000 0.000000 0.000000
# 3 -0.002932 -0.002368 0.009852 0.000000 0.000000 0.000000
# 4 0.000000 0.000000 0.000000 0.035217 0.000000 0.000000
# 5 0.000000 0.000000 0.000000 0.000000 0.065657 0.000000
# 6 0.000000 0.000000 0.000000 0.000000 0.000000 0.032148
#
#
# Mechanical properties :
#
#
# Convention : Reuss Voigt Hill
#
# Bulk Modulus (GPa) = 71.51054 71.61455 71.56255
# Shear Modulus (GPa) = 26.09764 28.93211 27.51488
#
# Velocity S-wave (km/s) = 3.68055 3.87527 3.77917
# Velocity P-wave (km/s) = 7.42838 7.56284 7.49591
#
# Compressibility (1/GPa) = 0.01398395
#
# Stress axis : x y z
#
# Youngs Moduli (GPa) = 78.54996 88.01577 101.49967
#
# Poissons Ratio (x) = 0.41193 0.29763
# Poissons Ratio (y) = 0.36763 0.24033
# Poissons Ratio (z) = 0.23033 0.20841
#
# Static dielectric constant tensor:
#      x y z
#    x 1.774700 0.000000 0.000000 
#    y 0.000000 1.707530 0.000000 
#    z 0.000000 0.000000 1.688460 
# 
# From -- ./inp_files/23484.got.cif
#   From: 2010.05.17/outbox.cif.g08.bks.cpg/sg56_12_cif.got.tgz:23484.got - 2010.06.03 13:42:01.
