data_PCOD9430299
_publ_section_title
;
Structure prediction by ZEFSAII (Michael W. Deem and Ramdas Pophale) SiO2 
 PCOD9430299
Probable space group: P C C N
;
_chemical_formula_sum "Si O2"
_cell_formula_units_Z 60
_cell_length_a 12.116382
_cell_length_b 14.961893
_cell_length_c 17.266893
_cell_angle_alpha 90.000000
_cell_angle_beta 90.000000
_cell_angle_gamma 90.000000
_cell_volume 3130.211621
_symmetry_space_group_name_H-M "P C C N"
_symmetry_group_IT_number 56
_symmetry_cell_setting 'orthorhombic'
loop_
_space_group_symop_operation_xyz
x,y,z
1/2-x,1/2-y,z
1/2+x,-y,1/2-z
-x,1/2+y,1/2-z
-x,-y,-z
1/2+x,1/2+y,-z
1/2-x,y,1/2+z
x,1/2-y,1/2+z
loop_
_atom_site_type_symbol
_atom_site_label
_atom_site_fract_x
_atom_site_fract_y
_atom_site_fract_z
Si Si1 0.777629 0.548384 0.800300
Si Si2 0.821360 0.161988 0.030207
Si Si3 0.878491 0.893936 0.053329
Si Si4 0.098980 0.972216 0.091566
Si Si5 0.446768 0.254844 0.053780
Si Si6 0.517235 0.953134 0.916536
Si Si7 0.750000 0.750000 0.326636
Si Si8 0.720473 0.008443 0.135863
O O1 0.664126 0.513518 0.837917
O O2 0.774863 0.655777 0.785134
O O3 0.779198 0.498776 0.718525
O O4 0.873270 0.529432 0.864307
O O5 0.750000 0.250000 0.020242
O O6 0.765359 0.092814 0.088162
O O7 0.940439 0.190225 0.062827
O O8 0.838939 0.110812 0.949237
O O9 0.976374 0.934612 0.106326
O O10 0.761639 0.921452 0.087939
O O11 0.897340 0.792404 0.027288
O O12 0.897043 0.951251 0.974519
O O13 0.476966 0.151317 0.060953
O O14 0.354215 0.270467 0.118263
O O15 0.410992 0.980272 0.865303
O O16 0.500000 0.000000 0.000000
#
# Coordination Sequence:
#
# PCOD9430299 Si02
#       8
#     8   8   8   8   8   8   4   8
#     4  11  24  40  61  90 132 168 205 260 330 389
#     4  10  19  37  64  90 117 159 214 264 313 374
#     4   9  18  36  63  92 107 160 214 261 304 376
#     4   9  18  35  64  85 113 154 213 255 300 375
#     4  10  20  37  66  87 117 159 221 262 305 378
#     4  11  24  42  64  95 128 173 214 267 322 383
#     4  10  22  38  58  86 122 170 208 256 314 392
#     4  11  24  38  64  92 131 166 207 269 329 386
#
# _framework density 19.168033999999999
#
# number of rings (size 3 to 8) (size 9 to 14) (size 15 to 20)
#    0.000    1.867    2.667    2.400    3.733    0.000 
#    2.400    0.667    0.000    0.000    0.000    0.000 
#    0.000    0.000    0.000    0.000    0.000    0.000 
#
# Total GULP energy -334437.386222 kJ/mol
# GULP energy per Si atom -5573.956437 kJ/mol
# Density = 1.912441 g / cm^3
# Si number density = 19.168034 Si / 1000 Ang^3
#
#
#
# Elastic Constant Matrix: (Units=GPa)
#
#
# Indices 1 2 3 4 5 6 
#
# 1 63.4440 29.8542 0.6492 0.0000 0.0000 0.0000
# 2 29.8542 69.1935 23.2346 0.0000 0.0000 0.0000
# 3 0.6492 23.2346 37.5099 0.0000 0.0000 0.0000
# 4 0.0000 0.0000 0.0000 12.3486 0.0000 0.0000
# 5 0.0000 0.0000 0.0000 0.0000 21.9246 0.0000
# 6 0.0000 0.0000 0.0000 0.0000 0.0000 31.4810
#
#
#
# Elastic Compliance Matrix: (Units=1/GPa)
#
#
# Indices 1 2 3 4 5 6 
#
# 1 0.021006 -0.011290 0.006629 0.000000 0.000000 0.000000
# 2 -0.011290 0.024315 -0.014866 0.000000 0.000000 0.000000
# 3 0.006629 -0.014866 0.035753 0.000000 0.000000 0.000000
# 4 0.000000 0.000000 0.000000 0.080981 0.000000 0.000000
# 5 0.000000 0.000000 0.000000 0.000000 0.045611 0.000000
# 6 0.000000 0.000000 0.000000 0.000000 0.000000 0.031765
#
#
# Mechanical properties :
#
#
# Convention : Reuss Voigt Hill
#
# Bulk Modulus (GPa) = 23.79669 30.84705 27.32187
# Shear Modulus (GPa) = 17.09451 20.91147 19.00299
#
# Velocity S-wave (km/s) = 2.98958 3.30655 3.15205
# Velocity P-wave (km/s) = 4.93544 5.54126 5.24710
#
# Compressibility (1/GPa) = 0.04202265
#
# Stress axis : x y z
#
# Youngs Moduli (GPa) = 47.60434 41.12673 27.96949
#
# Poissons Ratio (x) = 0.46430 -0.18542
# Poissons Ratio (y) = 0.53743 0.41579
# Poissons Ratio (z) = -0.31559 0.61139
#
# Static dielectric constant tensor:
#      x y z
#    x 1.714520 0.000000 0.000000 
#    y 0.000000 1.637400 0.000000 
#    z 0.000000 0.000000 1.656200 
# 
# From -- ./inp_files/15759.got.cif
#   From: 2010.05.17/outbox.cif.g08.bks.cpg/sg56_8_cif.got.tgz:15759.got - 2010.06.03 13:42:01.
