data_PCOD9430571
_publ_section_title
;
Structure prediction by ZEFSAII (Michael W. Deem and Ramdas Pophale) SiO2 
 PCOD9430571
Probable space group: P C C N
;
_chemical_formula_sum "Si O2"
_cell_formula_units_Z 40
_cell_length_a 14.530956
_cell_length_b 5.128117
_cell_length_c 22.443671
_cell_angle_alpha 90.000000
_cell_angle_beta 90.000000
_cell_angle_gamma 90.000000
_cell_volume 1672.422519
_symmetry_space_group_name_H-M "P C C N"
_symmetry_group_IT_number 56
_symmetry_cell_setting 'orthorhombic'
loop_
_space_group_symop_operation_xyz
x,y,z
1/2-x,1/2-y,z
1/2+x,-y,1/2-z
-x,1/2+y,1/2-z
-x,-y,-z
1/2+x,1/2+y,-z
1/2-x,y,1/2+z
x,1/2-y,1/2+z
loop_
_atom_site_type_symbol
_atom_site_label
_atom_site_fract_x
_atom_site_fract_y
_atom_site_fract_z
Si Si1 0.383464 0.026450 0.707297
Si Si2 0.568958 0.222809 0.178567
Si Si3 0.139926 0.774665 0.948425
Si Si4 0.108750 0.976674 0.643740
Si Si5 0.139778 0.222599 0.514562
O O1 0.365660 0.894206 0.770724
O O2 0.495170 0.071598 0.705090
O O3 0.358751 0.815261 0.656397
O O4 0.349136 0.314764 0.690974
O O5 0.614968 0.334568 0.119518
O O6 0.500090 0.993967 0.156831
O O7 0.250000 0.750000 0.952431
O O8 0.104001 0.493663 0.968645
O O9 0.105940 0.993985 0.994463
O O10 0.122319 0.107285 0.579808
O O11 0.250000 0.250000 0.509714
#
# Coordination Sequence:
#
# PCOD9430571 Si02
#       5
#     8   8   8   8   8
#     4  10  20  35  56  84 111 142 176 232 283 318
#     4  10  21  36  60  79 119 138 186 229 278 331
#     4  10  23  38  57  80 110 151 184 227 279 329
#     4  10  20  35  57  83 107 146 184 221 282 327
#     4  10  22  40  55  78 116 148 185 232 277 326
#
# _framework density 23.917403
#
# number of rings (size 3 to 8) (size 9 to 14) (size 15 to 20)
#    1.200    0.800    2.000    1.200    2.800    1.600 
#    0.000    2.000    0.000    0.000    0.000    0.000 
#    0.000    0.000    0.000    0.000    0.000    0.000 
#
# Total GULP energy -223160.452593 kJ/mol
# GULP energy per Si atom -5579.011315 kJ/mol
# Density = 2.386297 g / cm^3
# Si number density = 23.917403 Si / 1000 Ang^3
#
#
#
# Elastic Constant Matrix: (Units=GPa)
#
#
# Indices 1 2 3 4 5 6 
#
# 1 38.2692 -12.4842 -13.9190 0.0000 0.0000 0.0000
# 2 -12.4842 98.4230 0.7562 0.0000 0.0000 0.0000
# 3 -13.9190 0.7562 94.9678 0.0000 0.0000 0.0000
# 4 0.0000 0.0000 0.0000 31.4353 0.0000 0.0000
# 5 0.0000 0.0000 0.0000 0.0000 -249.6853 0.0000
# 6 0.0000 0.0000 0.0000 0.0000 0.0000 -5.7869
#
#
#
# Elastic Compliance Matrix: (Units=1/GPa)
#
#
# Indices 1 2 3 4 5 6 
#
# 1 0.028840 0.003626 0.004198 0.000000 0.000000 0.000000
# 2 0.003626 0.010617 0.000447 0.000000 0.000000 0.000000
# 3 0.004198 0.000447 0.011142 0.000000 0.000000 0.000000
# 4 0.000000 0.000000 0.000000 0.031811 0.000000 0.000000
# 5 0.000000 0.000000 0.000000 0.000000 -0.004005 0.000000
# 6 0.000000 0.000000 0.000000 0.000000 0.000000 -0.172803
#
#
# Mechanical properties :
#
#
# Convention : Reuss Voigt Hill
#
# Bulk Modulus (GPa) = 14.89410 20.04068 17.46739
# Shear Modulus (GPa) = -56.45937 -27.65359 -42.05648
#
# Velocity S-wave (km/s) = -4.86387 -3.40400 -4.19788
# Velocity P-wave (km/s) = 5.03012 2.65562 4.02209
#
# Compressibility (1/GPa) = 0.06714070
#
# Stress axis : x y z
#
# Youngs Moduli (GPa) = 34.67356 94.19111 89.75351
#
# Poissons Ratio (x) = -0.34153 -0.37680
# Poissons Ratio (y) = -0.12572 -0.04011
# Poissons Ratio (z) = -0.14556 -0.04209
#
# Static dielectric constant tensor:
#      x y z
#    x 1.950280 0.000000 0.000000 
#    y 0.000000 1.904940 0.000000 
#    z 0.000000 0.000000 1.923330 
# 
# From -- ./inp_files/17431.got.cif
#   From: 2010.05.17/outbox.cif.g08.bks.cpg/sg56_9_cif.got.tgz:17431.got - 2010.06.03 13:42:01.
