data_PCOD9430433
_publ_section_title
;
Structure prediction by ZEFSAII (Michael W. Deem and Ramdas Pophale) SiO2 
 PCOD9430433
Probable space group: P C C N
;
_chemical_formula_sum "Si O2"
_cell_formula_units_Z 48
_cell_length_a 22.635924
_cell_length_b 11.310318
_cell_length_c 7.962591
_cell_angle_alpha 90.000000
_cell_angle_beta 90.000000
_cell_angle_gamma 90.000000
_cell_volume 2038.578556
_symmetry_space_group_name_H-M "P C C N"
_symmetry_group_IT_number 56
_symmetry_cell_setting 'orthorhombic'
loop_
_space_group_symop_operation_xyz
x,y,z
1/2-x,1/2-y,z
1/2+x,-y,1/2-z
-x,1/2+y,1/2-z
-x,-y,-z
1/2+x,1/2+y,-z
1/2-x,y,1/2+z
x,1/2-y,1/2+z
loop_
_atom_site_type_symbol
_atom_site_label
_atom_site_fract_x
_atom_site_fract_y
_atom_site_fract_z
Si Si1 0.279402 0.538567 0.720485
Si Si2 0.160194 0.580297 0.903816
Si Si3 0.523955 0.389640 0.614563
Si Si4 0.786555 0.643264 0.518014
Si Si5 0.460467 0.168426 0.444122
Si Si6 0.381956 0.344498 0.236732
O O1 0.221126 0.603412 0.797803
O O2 0.322577 0.608374 0.596850
O O3 0.311728 0.458793 0.860095
O O4 0.254414 0.438813 0.596470
O O5 0.094703 0.629011 0.869592
O O6 0.145534 0.443244 0.856935
O O7 0.500000 0.500000 0.500000
O O8 0.500062 0.271364 0.525707
O O9 0.494736 0.399941 0.798807
O O10 0.750000 0.750000 0.598209
O O11 0.831993 0.699436 0.388993
O O12 0.410609 0.240440 0.340766
O O13 0.430136 0.105399 0.603635
#
# Coordination Sequence:
#
# PCOD9430433 Si02
#       6
#     8   8   8   8   8   8
#     4   9  21  34  51  86 113 156 223 249 307 400
#     4  10  21  42  60  87 125 169 210 268 328 375
#     4  11  23  44  69  91 135 173 209 274 334 372
#     4  10  20  28  48  77 119 166 198 249 312 377
#     4  10  24  40  59 100 126 164 229 254 311 411
#     4  10  22  35  56  85 132 164 207 262 310 394
#
# _framework density 23.545818000000001
#
# number of rings (size 3 to 8) (size 9 to 14) (size 15 to 20)
#    0.000    2.000    1.667    0.500   11.667    0.667 
#    0.000    0.000    0.000    3.000    0.000    0.000 
#    0.000    0.000    0.000    0.000    0.000    0.000 
#
# Total GULP energy -267563.052500 kJ/mol
# GULP energy per Si atom -5574.230260 kJ/mol
# Density = 2.349223 g / cm^3
# Si number density = 23.545818 Si / 1000 Ang^3
#
#
#
# Elastic Constant Matrix: (Units=GPa)
#
#
# Indices 1 2 3 4 5 6 
#
# 1 111.2465 12.2162 35.3423 0.0000 0.0000 0.0000
# 2 12.2162 18.7584 12.7447 0.0000 0.0000 0.0000
# 3 35.3423 12.7447 84.6053 0.0000 0.0000 0.0000
# 4 0.0000 0.0000 0.0000 17.6666 0.0000 0.0000
# 5 0.0000 0.0000 0.0000 0.0000 54.6672 0.0000
# 6 0.0000 0.0000 0.0000 0.0000 0.0000 26.8787
#
#
#
# Elastic Compliance Matrix: (Units=1/GPa)
#
#
# Indices 1 2 3 4 5 6 
#
# 1 0.010677 -0.004370 -0.003802 0.000000 0.000000 0.000000
# 2 -0.004370 0.061176 -0.007390 0.000000 0.000000 0.000000
# 3 -0.003802 -0.007390 0.014521 0.000000 0.000000 0.000000
# 4 0.000000 0.000000 0.000000 0.056604 0.000000 0.000000
# 5 0.000000 0.000000 0.000000 0.000000 0.018293 0.000000
# 6 0.000000 0.000000 0.000000 0.000000 0.000000 0.037204
#
#
# Mechanical properties :
#
#
# Convention : Reuss Voigt Hill
#
# Bulk Modulus (GPa) = 18.09946 37.24630 27.67288
# Shear Modulus (GPa) = 20.16012 30.12964 25.14488
#
# Velocity S-wave (km/s) = 2.92928 3.58106 3.27144
# Velocity P-wave (km/s) = 4.37544 5.74035 5.10373
#
# Compressibility (1/GPa) = 0.05525028
#
# Stress axis : x y z
#
# Youngs Moduli (GPa) = 93.66178 16.34625 68.86640
#
# Poissons Ratio (x) = 0.07144 0.26181
# Poissons Ratio (y) = 0.40932 0.50891
# Poissons Ratio (z) = 0.35607 0.12080
#
# Static dielectric constant tensor:
#      x y z
#    x 2.025810 0.000000 0.000000 
#    y 0.000000 1.898620 0.000000 
#    z 0.000000 0.000000 1.921810 
# 
# From -- ./inp_files/4419.got.cif
#   From: 2010.05.17/outbox.cif.g08.bks.cpg/sg56_3_cif.got.tgz:4419.got - 2010.06.03 13:42:01.
