data_PCOD9430400
_publ_section_title
;
Structure prediction by ZEFSAII (Michael W. Deem and Ramdas Pophale) SiO2 
 PCOD9430400
Probable space group: P C C N
;
_chemical_formula_sum "Si O2"
_cell_formula_units_Z 40
_cell_length_a 10.956063
_cell_length_b 9.257148
_cell_length_c 14.891072
_cell_angle_alpha 90.000000
_cell_angle_beta 90.000000
_cell_angle_gamma 90.000000
_cell_volume 1510.280766
_symmetry_space_group_name_H-M "P C C N"
_symmetry_group_IT_number 56
_symmetry_cell_setting 'orthorhombic'
loop_
_space_group_symop_operation_xyz
x,y,z
1/2-x,1/2-y,z
1/2+x,-y,1/2-z
-x,1/2+y,1/2-z
-x,-y,-z
1/2+x,1/2+y,-z
1/2-x,y,1/2+z
x,1/2-y,1/2+z
loop_
_atom_site_type_symbol
_atom_site_label
_atom_site_fract_x
_atom_site_fract_y
_atom_site_fract_z
Si Si1 0.955716 0.068830 0.707394
Si Si2 0.883522 0.679404 0.327156
Si Si3 0.778701 0.996406 0.558365
Si Si4 0.351367 0.653445 0.622157
Si Si5 0.926458 0.696079 0.537981
O O1 0.891092 0.977130 0.784146
O O2 0.853704 0.088050 0.630148
O O3 0.067602 0.967882 0.671146
O O4 0.020997 0.219235 0.726129
O O5 0.750000 0.750000 0.318616
O O6 0.920370 0.678328 0.431016
O O7 0.852021 0.844345 0.555848
O O8 0.642449 0.942361 0.579692
O O9 0.789563 0.069080 0.461611
O O10 0.250000 0.750000 0.672156
O O11 0.442862 0.767720 0.575959
#
# Coordination Sequence:
#
# PCOD9430400 Si02
#       5
#     8   8   8   8   8
#     4  11  25  44  69 101 143 182 233 288 352 427
#     4  12  24  45  69 103 144 190 223 292 365 424
#     4  10  19  42  72  93 125 177 233 284 337 406
#     4  11  22  40  69  98 134 179 234 294 341 411
#     4  10  19  40  71  94 126 176 234 279 350 409
#
# _framework density 26.485140999999999
#
# number of rings (size 3 to 8) (size 9 to 14) (size 15 to 20)
#    0.000    1.200    6.000    1.200    5.600    4.000 
#    3.600    1.000    0.000    0.000    0.000    0.000 
#    0.000    0.000    0.000    0.000    0.000    0.000 
#
# Total GULP energy -224430.596395 kJ/mol
# GULP energy per Si atom -5610.764910 kJ/mol
# Density = 2.642486 g / cm^3
# Si number density = 26.485141 Si / 1000 Ang^3
#
#
#
# Elastic Constant Matrix: (Units=GPa)
#
#
# Indices 1 2 3 4 5 6 
#
# 1 101.7716 50.4012 -6.6334 0.0000 0.0000 0.0000
# 2 50.4012 106.7194 16.1804 0.0000 0.0000 0.0000
# 3 -6.6334 16.1804 45.3031 0.0000 0.0000 0.0000
# 4 0.0000 0.0000 0.0000 41.0973 0.0000 0.0000
# 5 0.0000 0.0000 0.0000 0.0000 -1.1159 0.0000
# 6 0.0000 0.0000 0.0000 0.0000 0.0000 45.4830
#
#
#
# Elastic Compliance Matrix: (Units=1/GPa)
#
#
# Indices 1 2 3 4 5 6 
#
# 1 0.013659 -0.007141 0.004550 0.000000 0.000000 0.000000
# 2 -0.007141 0.013640 -0.005917 0.000000 0.000000 0.000000
# 3 0.004550 -0.005917 0.024853 0.000000 0.000000 0.000000
# 4 0.000000 0.000000 0.000000 0.024332 0.000000 0.000000
# 5 0.000000 0.000000 0.000000 0.000000 -0.896175 0.000000
# 6 0.000000 0.000000 0.000000 0.000000 0.000000 0.021986
#
#
# Mechanical properties :
#
#
# Convention : Reuss Voigt Hill
#
# Bulk Modulus (GPa) = 28.46013 41.52119 34.99066
# Shear Modulus (GPa) = -6.50214 30.01595 11.75690
#
# Velocity S-wave (km/s) = -1.56855 3.37012 2.10919
# Velocity P-wave (km/s) = 2.73652 5.55471 4.37855
#
# Compressibility (1/GPa) = 0.03513688
#
# Stress axis : x y z
#
# Youngs Moduli (GPa) = 73.21265 73.31439 40.23626
#
# Poissons Ratio (x) = 0.52351 -0.18309
# Poissons Ratio (y) = 0.52279 0.23808
# Poissons Ratio (z) = -0.33314 0.43381
#
# Static dielectric constant tensor:
#      x y z
#    x 2.100820 0.000000 0.000000 
#    y 0.000000 2.034750 0.000000 
#    z 0.000000 0.000000 2.046490 
# 
# From -- ./inp_files/15422.got.cif
#   From: 2010.05.17/outbox.cif.g08.bks.cpg/sg56_8_cif.got.tgz:15422.got - 2010.06.03 13:42:01.
