data_PCOD9430688
_publ_section_title
;
Structure prediction by ZEFSAII (Michael W. Deem and Ramdas Pophale) SiO2 
 PCOD9430688
Probable space group: P C C N
;
_chemical_formula_sum "Si O2"
_cell_formula_units_Z 64
_cell_length_a 18.264693
_cell_length_b 18.927937
_cell_length_c 9.163475
_cell_angle_alpha 90.000000
_cell_angle_beta 90.000000
_cell_angle_gamma 90.000000
_cell_volume 3167.932052
_symmetry_space_group_name_H-M "P C C N"
_symmetry_group_IT_number 56
_symmetry_cell_setting 'orthorhombic'
loop_
_space_group_symop_operation_xyz
x,y,z
1/2-x,1/2-y,z
1/2+x,-y,1/2-z
-x,1/2+y,1/2-z
-x,-y,-z
1/2+x,1/2+y,-z
1/2-x,y,1/2+z
x,1/2-y,1/2+z
loop_
_atom_site_type_symbol
_atom_site_label
_atom_site_fract_x
_atom_site_fract_y
_atom_site_fract_z
Si Si1 0.657407 0.918642 0.336573
Si Si2 0.827546 0.314695 0.165081
Si Si3 0.096261 0.922841 0.132861
Si Si4 0.800426 0.557383 0.649392
Si Si5 0.187911 0.603789 0.367678
Si Si6 0.476932 0.396389 0.362895
Si Si7 0.544124 0.946901 0.807553
Si Si8 0.616974 0.186414 0.855903
O O1 0.681123 0.899490 0.501827
O O2 0.730906 0.917765 0.240873
O O3 0.593958 0.884369 0.237801
O O4 0.621793 0.996341 0.362971
O O5 0.853169 0.383750 0.250423
O O6 0.747673 0.335424 0.103375
O O7 0.844877 0.251519 0.274965
O O8 0.876267 0.302119 0.025535
O O9 0.013349 0.915994 0.188417
O O10 0.118304 0.891443 0.975700
O O11 0.782563 0.474983 0.611254
O O12 0.874223 0.555110 0.745368
O O13 0.162660 0.618790 0.202772
O O14 0.460569 0.406971 0.536285
O O15 0.516373 0.471943 0.326770
O O16 0.533453 0.333732 0.328816
#
# Coordination Sequence:
#
# PCOD9430688 Si02
#       8
#     8   8   8   8   8   8   8   8
#     4  10  22  34  59  91 128 156 196 257 321 385
#     4  12  24  41  56  83 115 171 216 262 300 360
#     4  10  21  37  58  87 119 164 211 257 311 369
#     4  11  21  35  59  92 126 161 197 252 320 385
#     4  11  23  35  57  82 126 164 214 254 298 364
#     4  10  21  38  59  87 120 160 209 268 318 378
#     4  10  20  36  62  87 120 161 209 262 327 379
#     4  12  25  40  60  82 119 168 219 261 304 359
#
# _framework density 20.202452000000001
#
# number of rings (size 3 to 8) (size 9 to 14) (size 15 to 20)
#    0.000    1.250    3.750    2.625    3.500    2.500 
#    0.000    0.000    0.000    0.000    0.000    0.875 
#    0.000    0.000    0.000    0.000    0.000    0.000 
#
# Total GULP energy -356951.333532 kJ/mol
# GULP energy per Si atom -5577.364586 kJ/mol
# Density = 2.015647 g / cm^3
# Si number density = 20.202452 Si / 1000 Ang^3
#
#
#
# Elastic Constant Matrix: (Units=GPa)
#
#
# Indices 1 2 3 4 5 6 
#
# 1 113.6898 1.8557 16.0430 0.0000 0.0000 0.0000
# 2 1.8557 13.6423 -0.6966 0.0000 0.0000 0.0000
# 3 16.0430 -0.6966 76.7111 0.0000 0.0000 0.0000
# 4 0.0000 0.0000 0.0000 -0.6247 0.0000 0.0000
# 5 0.0000 0.0000 0.0000 0.0000 37.4924 0.0000
# 6 0.0000 0.0000 0.0000 0.0000 0.0000 18.5606
#
#
#
# Elastic Compliance Matrix: (Units=1/GPa)
#
#
# Indices 1 2 3 4 5 6 
#
# 1 0.009088 -0.001334 -0.001913 0.000000 0.000000 0.000000
# 2 -0.001334 0.073531 0.000947 0.000000 0.000000 0.000000
# 3 -0.001913 0.000947 0.013445 0.000000 0.000000 0.000000
# 4 0.000000 0.000000 0.000000 -1.600755 0.000000 0.000000
# 5 0.000000 0.000000 0.000000 0.000000 0.026672 0.000000
# 6 0.000000 0.000000 0.000000 0.000000 0.000000 0.053878
#
#
# Mechanical properties :
#
#
# Convention : Reuss Voigt Hill
#
# Bulk Modulus (GPa) = 10.93328 26.49414 18.71371
# Shear Modulus (GPa) = -3.59957 23.54171 9.97107
#
# Velocity S-wave (km/s) = -1.33627 3.41734 2.22403
# Velocity P-wave (km/s) = 1.74436 5.35852 3.98475
#
# Compressibility (1/GPa) = 0.09146386
#
# Stress axis : x y z
#
# Youngs Moduli (GPa) = 110.04088 13.59965 74.37974
#
# Poissons Ratio (x) = 0.01814 0.14226
# Poissons Ratio (y) = 0.14677 -0.07041
# Poissons Ratio (z) = 0.21047 -0.01287
#
# Static dielectric constant tensor:
#      x y z
#    x 1.744610 0.000000 0.000000 
#    y 0.000000 1.664760 0.000000 
#    z 0.000000 0.000000 1.734810 
# 
# From -- ./inp_files/4279.got.cif
#   From: 2010.05.17/outbox.cif.g08.bks.cpg/sg56_3_cif.got.tgz:4279.got - 2010.06.03 13:42:01.
