data_PCOD9430170
_publ_section_title
;
Structure prediction by ZEFSAII (Michael W. Deem and Ramdas Pophale) SiO2 
 PCOD9430170
Probable space group: P C C N
;
_chemical_formula_sum "Si O2"
_cell_formula_units_Z 56
_cell_length_a 8.551135
_cell_length_b 15.923701
_cell_length_c 18.780877
_cell_angle_alpha 90.000000
_cell_angle_beta 90.000000
_cell_angle_gamma 90.000000
_cell_volume 2557.311582
_symmetry_space_group_name_H-M "P C C N"
_symmetry_group_IT_number 56
_symmetry_cell_setting 'orthorhombic'
loop_
_space_group_symop_operation_xyz
x,y,z
1/2-x,1/2-y,z
1/2+x,-y,1/2-z
-x,1/2+y,1/2-z
-x,-y,-z
1/2+x,1/2+y,-z
1/2-x,y,1/2+z
x,1/2-y,1/2+z
loop_
_atom_site_type_symbol
_atom_site_label
_atom_site_fract_x
_atom_site_fract_y
_atom_site_fract_z
Si Si1 0.358934 0.057313 0.396926
Si Si2 0.911724 0.574472 0.364129
Si Si3 0.438588 0.436268 0.606002
Si Si4 0.673402 0.035260 0.227472
Si Si5 0.882762 0.191299 0.219965
Si Si6 0.564653 0.737204 0.146217
Si Si7 0.466801 0.109201 0.955432
O O1 0.453149 0.141745 0.379118
O O2 0.216752 0.080429 0.449729
O O3 0.475054 0.980746 0.414334
O O4 0.266081 0.026931 0.325871
O O5 0.738182 0.593144 0.388597
O O6 0.888569 0.515931 0.294081
O O7 0.998556 0.657636 0.338600
O O8 0.534088 0.427356 0.678896
O O9 0.441973 0.535304 0.585653
O O10 0.515418 0.391647 0.537688
O O11 0.792363 0.108660 0.248794
O O12 0.750000 0.250000 0.188126
O O13 0.968692 0.238775 0.283839
O O14 0.750000 0.750000 0.160506
O O15 0.519680 0.803257 0.084819
#
# Coordination Sequence:
#
# PCOD9430170 Si02
#       7
#     8   8   8   8   8   8   8
#     4   9  19  34  56  82 113 150 197 249 286 343
#     4  11  20  34  58  86 114 153 197 235 298 363
#     4  10  20  36  59  82 113 156 193 232 286 353
#     4  10  20  37  58  86 119 153 193 240 296 360
#     4  11  23  36  54  85 121 149 188 251 306 349
#     4  10  19  35  58  84 110 146 197 246 288 341
#     4   9  19  36  56  82 112 147 194 243 288 336
#
# _framework density 21.897995999999999
#
# number of rings (size 3 to 8) (size 9 to 14) (size 15 to 20)
#    0.000    2.000    0.000    6.000    0.000    1.714 
#    0.000    4.286    0.000    0.857    0.000    0.000 
#    0.000    0.000    0.000    0.000    0.000    0.000 
#
# Total GULP energy -313066.097502 kJ/mol
# GULP energy per Si atom -5590.466027 kJ/mol
# Density = 2.184816 g / cm^3
# Si number density = 21.897996 Si / 1000 Ang^3
#
#
#
# Elastic Constant Matrix: (Units=GPa)
#
#
# Indices 1 2 3 4 5 6 
#
# 1 46.2898 13.4392 2.4047 0.0000 0.0000 0.0000
# 2 13.4392 75.7858 3.3547 0.0000 0.0000 0.0000
# 3 2.4047 3.3547 54.8900 0.0000 0.0000 0.0000
# 4 0.0000 0.0000 0.0000 10.6257 0.0000 0.0000
# 5 0.0000 0.0000 0.0000 0.0000 17.3920 0.0000
# 6 0.0000 0.0000 0.0000 0.0000 0.0000 33.8775
#
#
#
# Elastic Compliance Matrix: (Units=1/GPa)
#
#
# Indices 1 2 3 4 5 6 
#
# 1 0.022807 -0.004011 -0.000754 0.000000 0.000000 0.000000
# 2 -0.004011 0.013936 -0.000676 0.000000 0.000000 0.000000
# 3 -0.000754 -0.000676 0.018293 0.000000 0.000000 0.000000
# 4 0.000000 0.000000 0.000000 0.094111 0.000000 0.000000
# 5 0.000000 0.000000 0.000000 0.000000 0.057498 0.000000
# 6 0.000000 0.000000 0.000000 0.000000 0.000000 0.029518
#
#
# Mechanical properties :
#
#
# Convention : Reuss Voigt Hill
#
# Bulk Modulus (GPa) = 22.64821 23.92918 23.28869
# Shear Modulus (GPa) = 19.10127 22.89684 20.99906
#
# Velocity S-wave (km/s) = 2.95665 3.23710 3.10005
# Velocity P-wave (km/s) = 4.69263 4.99230 4.84478
#
# Compressibility (1/GPa) = 0.04415361
#
# Stress axis : x y z
#
# Youngs Moduli (GPa) = 43.84680 71.75513 54.66695
#
# Poissons Ratio (x) = 0.28781 0.04122
# Poissons Ratio (y) = 0.17587 0.03696
# Poissons Ratio (z) = 0.03306 0.04851
#
# Static dielectric constant tensor:
#      x y z
#    x 1.826590 0.000000 0.000000 
#    y 0.000000 1.818700 0.000000 
#    z 0.000000 0.000000 1.779100 
# 
# From -- ./inp_files/18255.got.cif
#   From: 2010.05.17/outbox.cif.g08.bks.cpg/sg56_10_cif.got.tgz:18255.got - 2010.06.03 13:42:01.
