data_PCOD9430278
_publ_section_title
;
Structure prediction by ZEFSAII (Michael W. Deem and Ramdas Pophale) SiO2 
 PCOD9430278
Probable space group: P C C N
;
_chemical_formula_sum "Si O2"
_cell_formula_units_Z 40
_cell_length_a 7.687909
_cell_length_b 11.104317
_cell_length_c 19.249920
_cell_angle_alpha 90.000000
_cell_angle_beta 90.000000
_cell_angle_gamma 90.000000
_cell_volume 1643.346009
_symmetry_space_group_name_H-M "P C C N"
_symmetry_group_IT_number 56
_symmetry_cell_setting 'orthorhombic'
loop_
_space_group_symop_operation_xyz
x,y,z
1/2-x,1/2-y,z
1/2+x,-y,1/2-z
-x,1/2+y,1/2-z
-x,-y,-z
1/2+x,1/2+y,-z
1/2-x,y,1/2+z
x,1/2-y,1/2+z
loop_
_atom_site_type_symbol
_atom_site_label
_atom_site_fract_x
_atom_site_fract_y
_atom_site_fract_z
Si Si1 0.727892 0.989699 0.042988
Si Si2 0.850097 0.869619 0.672981
Si Si3 0.157495 0.999603 0.716391
Si Si4 0.069078 0.804987 0.367584
Si Si5 0.396720 0.444957 0.096428
O O1 0.635464 0.890231 0.090868
O O2 0.635733 0.113580 0.066945
O O3 0.748208 0.961991 0.962230
O O4 0.927514 0.993553 0.069438
O O5 0.750000 0.750000 0.689518
O O6 0.728622 0.971957 0.707904
O O7 0.036475 0.883994 0.708281
O O8 0.323536 0.996218 0.666156
O O9 0.040497 0.108806 0.683824
O O10 0.250000 0.750000 0.338447
O O11 0.948411 0.693578 0.390220
#
# Coordination Sequence:
#
# PCOD9430278 Si02
#       5
#     8   8   8   8   8
#     4   9  21  37  57  88 122 154 200 252 297 354
#     4  11  24  40  59  87 120 154 199 256 308 358
#     4  11  23  39  61  84 115 156 201 244 299 372
#     4   9  19  36  60  86 117 160 201 243 299 364
#     4  10  19  37  61  86 120 160 201 245 299 363
#
# _framework density 24.340584
#
# number of rings (size 3 to 8) (size 9 to 14) (size 15 to 20)
#    0.000    2.000    0.000    3.000    0.000    9.600 
#    0.000    5.000    0.000    0.000    0.000    0.000 
#    0.000    0.000    0.000    0.000    0.000    0.000 
#
# Total GULP energy -223810.066197 kJ/mol
# GULP energy per Si atom -5595.251655 kJ/mol
# Density = 2.428518 g / cm^3
# Si number density = 24.340584 Si / 1000 Ang^3
#
#
#
# Elastic Constant Matrix: (Units=GPa)
#
#
# Indices 1 2 3 4 5 6 
#
# 1 99.9466 12.7754 4.6065 0.0000 0.0000 0.0000
# 2 12.7754 58.7093 -9.7630 0.0000 0.0000 0.0000
# 3 4.6065 -9.7630 106.4315 0.0000 0.0000 0.0000
# 4 0.0000 0.0000 0.0000 9.7033 0.0000 0.0000
# 5 0.0000 0.0000 0.0000 0.0000 49.5330 0.0000
# 6 0.0000 0.0000 0.0000 0.0000 0.0000 43.5610
#
#
#
# Elastic Compliance Matrix: (Units=1/GPa)
#
#
# Indices 1 2 3 4 5 6 
#
# 1 0.010338 -0.002360 -0.000664 0.000000 0.000000 0.000000
# 2 -0.002360 0.017836 0.001738 0.000000 0.000000 0.000000
# 3 -0.000664 0.001738 0.009584 0.000000 0.000000 0.000000
# 4 0.000000 0.000000 0.000000 0.103058 0.000000 0.000000
# 5 0.000000 0.000000 0.000000 0.000000 0.020189 0.000000
# 6 0.000000 0.000000 0.000000 0.000000 0.000000 0.022956
#
#
# Mechanical properties :
#
#
# Convention : Reuss Voigt Hill
#
# Bulk Modulus (GPa) = 28.42042 31.14724 29.78383
# Shear Modulus (GPa) = 25.21945 37.72403 31.47174
#
# Velocity S-wave (km/s) = 3.22235 3.94107 3.59970
# Velocity P-wave (km/s) = 5.05433 5.79082 5.43506
#
# Compressibility (1/GPa) = 0.03518597
#
# Stress axis : x y z
#
# Youngs Moduli (GPa) = 96.73431 56.06743 104.34167
#
# Poissons Ratio (x) = 0.13231 0.06927
# Poissons Ratio (y) = 0.22828 -0.18137
# Poissons Ratio (z) = 0.06422 -0.09746
#
# Static dielectric constant tensor:
#      x y z
#    x 1.968840 0.000000 0.000000 
#    y 0.000000 1.947850 0.000000 
#    z 0.000000 0.000000 1.904910 
# 
# From -- ./inp_files/17980.got.cif
#   From: 2010.05.17/outbox.cif.g08.bks.cpg/sg56_9_cif.got.tgz:17980.got - 2010.06.03 13:42:01.
