data_PCOD9430975
_publ_section_title
;
Structure prediction by ZEFSAII (Michael W. Deem and Ramdas Pophale) SiO2 
 PCOD9430975
Probable space group: P C C N
;
_chemical_formula_sum "Si O2"
_cell_formula_units_Z 48
_cell_length_a 8.095834
_cell_length_b 17.958950
_cell_length_c 14.889912
_cell_angle_alpha 90.000000
_cell_angle_beta 90.000000
_cell_angle_gamma 90.000000
_cell_volume 2164.884181
_symmetry_space_group_name_H-M "P C C N"
_symmetry_group_IT_number 56
_symmetry_cell_setting 'orthorhombic'
loop_
_space_group_symop_operation_xyz
x,y,z
1/2-x,1/2-y,z
1/2+x,-y,1/2-z
-x,1/2+y,1/2-z
-x,-y,-z
1/2+x,1/2+y,-z
1/2-x,y,1/2+z
x,1/2-y,1/2+z
loop_
_atom_site_type_symbol
_atom_site_label
_atom_site_fract_x
_atom_site_fract_y
_atom_site_fract_z
Si Si1 0.079632 0.291970 0.004565
Si Si2 0.393637 0.650722 0.028142
Si Si3 0.122615 0.989747 0.282385
Si Si4 0.186579 0.671650 0.849940
Si Si5 0.734750 0.931645 0.558471
Si Si6 0.712178 0.028708 0.885557
O O1 0.250000 0.250000 0.028231
O O2 0.138089 0.362936 0.948681
O O3 0.960965 0.233548 0.953650
O O4 0.981847 0.314902 0.093882
O O5 0.553275 0.598025 0.035640
O O6 0.257697 0.613830 0.092015
O O7 0.319929 0.652815 0.927929
O O8 0.155768 0.901252 0.291301
O O9 0.147682 0.007384 0.178282
O O10 0.256197 0.031862 0.344274
O O11 0.953285 0.013768 0.329782
O O12 0.250000 0.750000 0.808651
O O13 0.790521 0.989196 0.481885
#
# Coordination Sequence:
#
# PCOD9430975 Si02
#       6
#     8   8   8   8   8   8
#     4   9  19  37  65  92 121 170 219 265 328 391
#     4  10  21  37  67  92 128 169 216 264 334 391
#     4  12  25  40  64  96 133 172 219 273 337 394
#     4  10  20  39  62  90 124 168 214 262 325 392
#     4  11  21  41  67  95 128 173 217 277 328 388
#     4  12  24  39  64  96 133 170 222 277 327 401
#
# _framework density 22.172086
#
# number of rings (size 3 to 8) (size 9 to 14) (size 15 to 20)
#    0.000    1.333    3.333    3.000    2.333    0.000 
#    0.000    4.167    0.000    0.000    0.000    0.000 
#    0.000    0.000    0.000    0.000    0.000    0.000 
#
# Total GULP energy -268284.365764 kJ/mol
# GULP energy per Si atom -5589.257620 kJ/mol
# Density = 2.212162 g / cm^3
# Si number density = 22.172086 Si / 1000 Ang^3
#
#
#
# Elastic Constant Matrix: (Units=GPa)
#
#
# Indices 1 2 3 4 5 6 
#
# 1 96.3350 27.4512 -5.9789 0.0000 0.0000 0.0000
# 2 27.4512 103.0269 13.3572 0.0000 0.0000 0.0000
# 3 -5.9789 13.3572 52.4792 0.0000 0.0000 0.0000
# 4 0.0000 0.0000 0.0000 9.2541 0.0000 0.0000
# 5 0.0000 0.0000 0.0000 0.0000 14.7844 0.0000
# 6 0.0000 0.0000 0.0000 0.0000 0.0000 41.8426
#
#
#
# Elastic Compliance Matrix: (Units=1/GPa)
#
#
# Indices 1 2 3 4 5 6 
#
# 1 0.011464 -0.003334 0.002155 0.000000 0.000000 0.000000
# 2 -0.003334 0.011007 -0.003181 0.000000 0.000000 0.000000
# 3 0.002155 -0.003181 0.020110 0.000000 0.000000 0.000000
# 4 0.000000 0.000000 0.000000 0.108060 0.000000 0.000000
# 5 0.000000 0.000000 0.000000 0.000000 0.067639 0.000000
# 6 0.000000 0.000000 0.000000 0.000000 0.000000 0.023899
#
#
# Mechanical properties :
#
#
# Convention : Reuss Voigt Hill
#
# Bulk Modulus (GPa) = 29.53315 35.72223 32.62769
# Shear Modulus (GPa) = 19.07034 27.64367 23.35701
#
# Velocity S-wave (km/s) = 2.93594 3.53481 3.24920
# Velocity P-wave (km/s) = 4.98416 5.72766 5.36880
#
# Compressibility (1/GPa) = 0.03386025
#
# Stress axis : x y z
#
# Youngs Moduli (GPa) = 87.22816 90.85143 49.72558
#
# Poissons Ratio (x) = 0.30289 -0.10714
# Poissons Ratio (y) = 0.29081 0.15820
# Poissons Ratio (z) = -0.18795 0.28903
#
# Static dielectric constant tensor:
#      x y z
#    x 1.883290 0.000000 0.000000 
#    y 0.000000 1.848280 0.000000 
#    z 0.000000 0.000000 1.757650 
# 
# From -- ./inp_files/10694.got.cif
#   From: 2010.05.17/outbox.cif.g08.bks.cpg/sg56_6_cif.got.tgz:10694.got - 2010.06.03 13:42:01.
