data_PCOD9430304
_publ_section_title
;
Structure prediction by ZEFSAII (Michael W. Deem and Ramdas Pophale) SiO2 
 PCOD9430304
Probable space group: P C C N
;
_chemical_formula_sum "Si O2"
_cell_formula_units_Z 56
_cell_length_a 5.639046
_cell_length_b 27.681952
_cell_length_c 14.249890
_cell_angle_alpha 90.000000
_cell_angle_beta 90.000000
_cell_angle_gamma 90.000000
_cell_volume 2224.404989
_symmetry_space_group_name_H-M "P C C N"
_symmetry_group_IT_number 56
_symmetry_cell_setting 'orthorhombic'
loop_
_space_group_symop_operation_xyz
x,y,z
1/2-x,1/2-y,z
1/2+x,-y,1/2-z
-x,1/2+y,1/2-z
-x,-y,-z
1/2+x,1/2+y,-z
1/2-x,y,1/2+z
x,1/2-y,1/2+z
loop_
_atom_site_type_symbol
_atom_site_label
_atom_site_fract_x
_atom_site_fract_y
_atom_site_fract_z
Si Si1 0.780005 0.446607 0.542198
Si Si2 0.553154 0.862203 0.911561
Si Si3 0.479209 0.514765 0.642847
Si Si4 0.885802 0.882060 0.069112
Si Si5 0.766815 0.922460 0.764541
Si Si6 0.497408 0.776497 0.533602
Si Si7 0.498834 0.742574 0.327826
O O1 0.656443 0.401017 0.591953
O O2 0.735310 0.491926 0.611413
O O3 0.637467 0.463647 0.449832
O O4 0.017854 0.424954 0.498128
O O5 0.758336 0.881284 0.841745
O O6 0.487549 0.810222 0.874336
O O7 0.643653 0.864904 0.018279
O O8 0.495490 0.557446 0.717911
O O9 0.339013 0.469911 0.685535
O O10 0.868745 0.902246 0.173487
O O11 0.024839 0.831498 0.068772
O O12 0.750000 0.750000 0.559589
O O13 0.508565 0.777330 0.419236
O O14 0.250000 0.750000 0.556472
O O15 0.750000 0.750000 0.276878
O O16 0.250000 0.750000 0.276046
#
# Coordination Sequence:
#
# PCOD9430304 Si02
#       7
#     8   8   8   8   8   8   8
#     4  10  22  40  67  91 128 184 224 281 340 419
#     4  11  23  42  64  99 132 174 231 276 348 416
#     4  10  22  42  60  95 136 174 231 284 342 411
#     4  12  23  41  69  96 130 181 221 279 352 405
#     4  11  25  41  63  99 134 172 230 288 339 413
#     4  10  20  37  67  98 130 177 221 278 341 414
#     4  10  19  37  65  96 132 176 219 281 343 412
#
# _framework density 25.175272
#
# number of rings (size 3 to 8) (size 9 to 14) (size 15 to 20)
#    0.000    1.429    4.286    2.571    2.000    0.571 
#    0.000    1.429    0.000    0.000    0.000    1.000 
#    0.000    0.000    0.000    0.000    0.000    0.000 
#
# Total GULP energy -312813.839217 kJ/mol
# GULP energy per Si atom -5585.961415 kJ/mol
# Density = 2.511797 g / cm^3
# Si number density = 25.175272 Si / 1000 Ang^3
#
#
#
# Elastic Constant Matrix: (Units=GPa)
#
#
# Indices 1 2 3 4 5 6 
#
# 1 116.6706 29.6879 16.0211 0.0000 0.0000 0.0000
# 2 29.6879 89.1059 13.2586 0.0000 0.0000 0.0000
# 3 16.0211 13.2586 89.8579 0.0000 0.0000 0.0000
# 4 0.0000 0.0000 0.0000 13.8489 0.0000 0.0000
# 5 0.0000 0.0000 0.0000 0.0000 18.1065 0.0000
# 6 0.0000 0.0000 0.0000 0.0000 0.0000 39.2180
#
#
#
# Elastic Compliance Matrix: (Units=1/GPa)
#
#
# Indices 1 2 3 4 5 6 
#
# 1 0.009501 -0.002979 -0.001254 0.000000 0.000000 0.000000
# 2 -0.002979 0.012409 -0.001300 0.000000 0.000000 0.000000
# 3 -0.001254 -0.001300 0.011544 0.000000 0.000000 0.000000
# 4 0.000000 0.000000 0.000000 0.072208 0.000000 0.000000
# 5 0.000000 0.000000 0.000000 0.000000 0.055229 0.000000
# 6 0.000000 0.000000 0.000000 0.000000 0.000000 0.025498
#
#
# Mechanical properties :
#
#
# Convention : Reuss Voigt Hill
#
# Bulk Modulus (GPa) = 44.66752 45.95217 45.30985
# Shear Modulus (GPa) = 24.39997 30.01247 27.20622
#
# Velocity S-wave (km/s) = 3.11658 3.45648 3.29092
# Velocity P-wave (km/s) = 5.54364 5.84998 5.69887
#
# Compressibility (1/GPa) = 0.02238763
#
# Stress axis : x y z
#
# Youngs Moduli (GPa) = 105.24728 80.58976 86.62407
#
# Poissons Ratio (x) = 0.24008 0.10867
# Poissons Ratio (y) = 0.31353 0.11259
# Poissons Ratio (z) = 0.13203 0.10475
#
# Static dielectric constant tensor:
#      x y z
#    x 2.142040 0.000000 0.000000 
#    y 0.000000 1.955210 0.000000 
#    z 0.000000 0.000000 1.978070 
# 
# From -- ./inp_files/9837.got.cif
#   From: 2010.05.17/outbox.cif.g08.bks.cpg/sg56_5_cif.got.tgz:9837.got - 2010.06.03 13:42:01.
