data_PCOD9430761
_publ_section_title
;
Structure prediction by ZEFSAII (Michael W. Deem and Ramdas Pophale) SiO2 
 PCOD9430761
Probable space group: P C C N
;
_chemical_formula_sum "Si O2"
_cell_formula_units_Z 48
_cell_length_a 15.146900
_cell_length_b 9.373102
_cell_length_c 18.543216
_cell_angle_alpha 90.000000
_cell_angle_beta 90.000000
_cell_angle_gamma 90.000000
_cell_volume 2632.644140
_symmetry_space_group_name_H-M "P C C N"
_symmetry_group_IT_number 56
_symmetry_cell_setting 'orthorhombic'
loop_
_space_group_symop_operation_xyz
x,y,z
1/2-x,1/2-y,z
1/2+x,-y,1/2-z
-x,1/2+y,1/2-z
-x,-y,-z
1/2+x,1/2+y,-z
1/2-x,y,1/2+z
x,1/2-y,1/2+z
loop_
_atom_site_type_symbol
_atom_site_label
_atom_site_fract_x
_atom_site_fract_y
_atom_site_fract_z
Si Si1 0.585636 0.450107 0.868413
Si Si2 0.549769 0.293678 0.097837
Si Si3 0.806709 0.605719 0.112583
Si Si4 0.962121 0.740477 0.042653
Si Si5 0.827614 0.996578 0.006926
Si Si6 0.667886 0.357197 0.718042
O O1 0.521360 0.589414 0.872553
O O2 0.531851 0.324250 0.908129
O O3 0.618435 0.403988 0.790636
O O4 0.667803 0.475783 0.922327
O O5 0.624205 0.381236 0.053337
O O6 0.598037 0.213415 0.162428
O O7 0.504280 0.199030 0.034435
O O8 0.750000 0.750000 0.125943
O O9 0.908157 0.634457 0.093210
O O10 0.765946 0.533640 0.041280
O O11 0.796238 0.498324 0.178311
O O12 0.888754 0.858406 0.020406
O O13 0.750000 0.250000 0.730710
#
# Coordination Sequence:
#
# PCOD9430761 Si02
#       6
#     8   8   8   8   8   8
#     4   9  20  37  59  82 116 153 187 238 290 339
#     4   9  18  38  59  80 112 151 194 234 281 339
#     4  10  20  37  61  85 113 151 194 239 288 347
#     4   8  17  35  62  83 105 151 196 231 283 340
#     4   8  15  37  61  77 108 153 190 229 284 338
#     4  12  24  37  55  91 124 152 188 235 303 348
#
# _framework density 18.232619
#
# number of rings (size 3 to 8) (size 9 to 14) (size 15 to 20)
#    0.000    2.667    1.667    2.000    2.333    0.667 
#    6.000    5.833    0.000    0.000    0.000    0.000 
#    0.000    0.000    0.000    0.000    0.000    0.000 
#
# Total GULP energy -267374.167604 kJ/mol
# GULP energy per Si atom -5570.295158 kJ/mol
# Density = 1.819112 g / cm^3
# Si number density = 18.232619 Si / 1000 Ang^3
#
#
#
# Elastic Constant Matrix: (Units=GPa)
#
#
# Indices 1 2 3 4 5 6 
#
# 1 54.3499 25.9912 30.3860 0.0000 0.0000 0.0000
# 2 25.9912 58.7234 46.4673 0.0000 0.0000 0.0000
# 3 30.3860 46.4673 112.0431 0.0000 0.0000 0.0000
# 4 0.0000 0.0000 0.0000 15.7406 0.0000 0.0000
# 5 0.0000 0.0000 0.0000 0.0000 25.7390 0.0000
# 6 0.0000 0.0000 0.0000 0.0000 0.0000 19.1550
#
#
#
# Elastic Compliance Matrix: (Units=1/GPa)
#
#
# Indices 1 2 3 4 5 6 
#
# 1 0.024059 -0.008165 -0.003138 0.000000 0.000000 0.000000
# 2 -0.008165 0.028118 -0.009447 0.000000 0.000000 0.000000
# 3 -0.003138 -0.009447 0.013694 0.000000 0.000000 0.000000
# 4 0.000000 0.000000 0.000000 0.063530 0.000000 0.000000
# 5 0.000000 0.000000 0.000000 0.000000 0.038852 0.000000
# 6 0.000000 0.000000 0.000000 0.000000 0.000000 0.052206
#
#
# Mechanical properties :
#
#
# Convention : Reuss Voigt Hill
#
# Bulk Modulus (GPa) = 41.03394 47.86727 44.45060
# Shear Modulus (GPa) = 18.51285 20.27837 19.39561
#
# Velocity S-wave (km/s) = 3.18994 3.33859 3.26511
# Velocity P-wave (km/s) = 6.01018 6.41656 6.21669
#
# Compressibility (1/GPa) = 0.02437007
#
# Stress axis : x y z
#
# Youngs Moduli (GPa) = 41.56508 35.56415 73.02360
#
# Poissons Ratio (x) = 0.29038 0.22918
# Poissons Ratio (y) = 0.33938 0.68985
# Poissons Ratio (z) = 0.13045 0.33597
#
# Static dielectric constant tensor:
#      x y z
#    x 1.645560 0.000000 0.000000 
#    y 0.000000 1.672070 0.000000 
#    z 0.000000 0.000000 1.600640 
# 
# From -- ./inp_files/12212.got.cif
#   From: 2010.05.17/outbox.cif.g08.bks.cpg/sg56_7_cif.got.tgz:12212.got - 2010.06.03 13:42:01.
