data_PCOD9430364
_publ_section_title
;
Structure prediction by ZEFSAII (Michael W. Deem and Ramdas Pophale) SiO2 
 PCOD9430364
Probable space group: P C C N
;
_chemical_formula_sum "Si O2"
_cell_formula_units_Z 48
_cell_length_a 8.844628
_cell_length_b 15.431419
_cell_length_c 15.444059
_cell_angle_alpha 90.000000
_cell_angle_beta 90.000000
_cell_angle_gamma 90.000000
_cell_volume 2107.884872
_symmetry_space_group_name_H-M "P C C N"
_symmetry_group_IT_number 56
_symmetry_cell_setting 'orthorhombic'
loop_
_space_group_symop_operation_xyz
x,y,z
1/2-x,1/2-y,z
1/2+x,-y,1/2-z
-x,1/2+y,1/2-z
-x,-y,-z
1/2+x,1/2+y,-z
1/2-x,y,1/2+z
x,1/2-y,1/2+z
loop_
_atom_site_type_symbol
_atom_site_label
_atom_site_fract_x
_atom_site_fract_y
_atom_site_fract_z
Si Si1 0.369142 0.975294 0.933327
Si Si2 0.578239 0.268934 0.207384
Si Si3 0.876729 0.930619 0.812955
Si Si4 0.113819 0.080680 0.988701
Si Si5 0.148068 0.682513 0.489711
Si Si6 0.039576 0.416050 0.240317
O O1 0.258486 0.897845 0.965961
O O2 0.448756 0.947936 0.845326
O O3 0.500000 0.000000 0.000000
O O4 0.255570 0.056755 0.931206
O O5 0.750000 0.250000 0.237754
O O6 0.493105 0.359661 0.226828
O O7 0.595571 0.275247 0.102012
O O8 0.483373 0.186907 0.239619
O O9 0.837850 0.903073 0.911568
O O10 0.715962 0.936815 0.767013
O O11 0.960867 0.023326 0.811956
O O12 0.003663 0.157265 0.961359
O O13 0.000000 0.000000 0.000000
O O14 0.250000 0.750000 0.539860
#
# Coordination Sequence:
#
# PCOD9430364 Si02
#       6
#     8   8   8   8   8   8
#     4  11  20  37  59  92 124 157 207 267 317 385
#     4  10  19  39  63  90 120 165 220 257 307 390
#     4  11  24  38  63  97 122 171 214 262 323 379
#     4   9  20  35  60  87 121 158 204 259 314 375
#     4   9  17  34  61  86 115 161 212 252 306 380
#     4  12  23  38  65  92 130 167 214 265 322 380
#
# _framework density 22.771640999999999
#
# number of rings (size 3 to 8) (size 9 to 14) (size 15 to 20)
#    0.000    1.667    5.000    1.500    4.667    0.000 
#    0.000    0.833    7.333    0.000    0.000    0.000 
#    0.000    0.000    0.000    0.000    0.000    0.000 
#
# Total GULP energy -267919.800645 kJ/mol
# GULP energy per Si atom -5581.662513 kJ/mol
# Density = 2.271981 g / cm^3
# Si number density = 22.771641 Si / 1000 Ang^3
#
#
#
# Elastic Constant Matrix: (Units=GPa)
#
#
# Indices 1 2 3 4 5 6 
#
# 1 142.9182 40.3275 14.6827 0.0000 0.0000 0.0000
# 2 40.3275 98.8419 11.3232 0.0000 0.0000 0.0000
# 3 14.6827 11.3232 68.3855 0.0000 0.0000 0.0000
# 4 0.0000 0.0000 0.0000 25.4744 0.0000 0.0000
# 5 0.0000 0.0000 0.0000 0.0000 17.1176 0.0000
# 6 0.0000 0.0000 0.0000 0.0000 0.0000 59.3978
#
#
#
# Elastic Compliance Matrix: (Units=1/GPa)
#
#
# Indices 1 2 3 4 5 6 
#
# 1 0.008003 -0.003128 -0.001200 0.000000 0.000000 0.000000
# 2 -0.003128 0.011535 -0.001238 0.000000 0.000000 0.000000
# 3 -0.001200 -0.001238 0.015086 0.000000 0.000000 0.000000
# 4 0.000000 0.000000 0.000000 0.039255 0.000000 0.000000
# 5 0.000000 0.000000 0.000000 0.000000 0.058419 0.000000
# 6 0.000000 0.000000 0.000000 0.000000 0.000000 0.016836
#
#
# Mechanical properties :
#
#
# Convention : Reuss Voigt Hill
#
# Bulk Modulus (GPa) = 42.56989 49.20139 45.88564
# Shear Modulus (GPa) = 29.74473 36.65212 33.19842
#
# Velocity S-wave (km/s) = 3.61809 4.01627 3.82237
# Velocity P-wave (km/s) = 6.01572 6.56967 6.29879
#
# Compressibility (1/GPa) = 0.02349078
#
# Stress axis : x y z
#
# Youngs Moduli (GPa) = 124.95520 86.69178 66.28764
#
# Poissons Ratio (x) = 0.27114 0.07957
# Poissons Ratio (y) = 0.39082 0.08209
# Poissons Ratio (z) = 0.14999 0.10736
#
# Static dielectric constant tensor:
#      x y z
#    x 1.829280 0.000000 0.000000 
#    y 0.000000 1.915450 0.000000 
#    z 0.000000 0.000000 1.946960 
# 
# From -- ./inp_files/18084.got.cif
#   From: 2010.05.17/outbox.cif.g08.bks.cpg/sg56_10_cif.got.tgz:18084.got - 2010.06.03 13:42:01.
