data_PCOD9430188
_publ_section_title
;
Structure prediction by ZEFSAII (Michael W. Deem and Ramdas Pophale) SiO2 
 PCOD9430188
Probable space group: P C C N
;
_chemical_formula_sum "Si O2"
_cell_formula_units_Z 56
_cell_length_a 9.411935
_cell_length_b 15.067096
_cell_length_c 20.081474
_cell_angle_alpha 90.000000
_cell_angle_beta 90.000000
_cell_angle_gamma 90.000000
_cell_volume 2847.764435
_symmetry_space_group_name_H-M "P C C N"
_symmetry_group_IT_number 56
_symmetry_cell_setting 'orthorhombic'
loop_
_space_group_symop_operation_xyz
x,y,z
1/2-x,1/2-y,z
1/2+x,-y,1/2-z
-x,1/2+y,1/2-z
-x,-y,-z
1/2+x,1/2+y,-z
1/2-x,y,1/2+z
x,1/2-y,1/2+z
loop_
_atom_site_type_symbol
_atom_site_label
_atom_site_fract_x
_atom_site_fract_y
_atom_site_fract_z
Si Si1 0.582825 0.690472 0.908681
Si Si2 0.159656 0.460045 0.767382
Si Si3 0.111603 0.364018 0.028584
Si Si4 0.588931 0.767345 0.255603
Si Si5 0.085148 0.981625 0.933314
Si Si6 0.604264 0.505832 0.581109
Si Si7 0.970655 0.909579 0.194539
O O1 0.732304 0.651541 0.938256
O O2 0.538840 0.769137 0.958649
O O3 0.588921 0.737091 0.836058
O O4 0.478088 0.608044 0.902628
O O5 0.067636 0.370429 0.759453
O O6 0.127191 0.494509 0.840734
O O7 0.328050 0.439100 0.764279
O O8 0.104170 0.530937 0.715034
O O9 0.029395 0.445013 0.063679
O O10 0.104667 0.396125 0.952051
O O11 0.750000 0.750000 0.232439
O O12 0.502719 0.691806 0.216883
O O13 0.250138 0.967024 0.949103
O O14 0.067041 0.063356 0.881312
O O15 0.000000 0.000000 0.000000
#
# Coordination Sequence:
#
# PCOD9430188 Si02
#       7
#     8   8   8   8   8   8   8
#     4  11  20  36  64  86 113 162 207 239 299 388
#     4  10  21  36  58  84 117 150 196 245 308 353
#     4  10  21  37  60  86 114 153 206 245 299 360
#     4  10  19  35  59  87 112 155 205 238 293 364
#     4  11  22  38  59  90 124 161 200 252 324 370
#     4  10  22  38  56  90 118 154 194 262 300 359
#     4  10  22  38  59  87 121 156 200 259 298 368
#
# _framework density 19.664546999999999
#
# number of rings (size 3 to 8) (size 9 to 14) (size 15 to 20)
#    0.000    1.714    4.286    0.857    2.000    1.714 
#    5.143    0.714    0.000    0.000    0.000    0.000 
#    0.000    0.000    0.000    0.000    0.000    0.000 
#
# Total GULP energy -311922.775795 kJ/mol
# GULP energy per Si atom -5570.049568 kJ/mol
# Density = 1.961979 g / cm^3
# Si number density = 19.664547 Si / 1000 Ang^3
#
#
#
# Elastic Constant Matrix: (Units=GPa)
#
#
# Indices 1 2 3 4 5 6 
#
# 1 34.3565 14.5322 10.7066 0.0000 0.0000 0.0000
# 2 14.5322 90.3653 0.9773 0.0000 0.0000 0.0000
# 3 10.7066 0.9773 38.2889 0.0000 0.0000 0.0000
# 4 0.0000 0.0000 0.0000 33.3689 0.0000 0.0000
# 5 0.0000 0.0000 0.0000 0.0000 20.5392 0.0000
# 6 0.0000 0.0000 0.0000 0.0000 0.0000 23.9018
#
#
#
# Elastic Compliance Matrix: (Units=1/GPa)
#
#
# Indices 1 2 3 4 5 6 
#
# 1 0.034350 -0.005422 -0.009467 0.000000 0.000000 0.000000
# 2 -0.005422 0.011925 0.001212 0.000000 0.000000 0.000000
# 3 -0.009467 0.001212 0.028733 0.000000 0.000000 0.000000
# 4 0.000000 0.000000 0.000000 0.029968 0.000000 0.000000
# 5 0.000000 0.000000 0.000000 0.000000 0.048687 0.000000
# 6 0.000000 0.000000 0.000000 0.000000 0.000000 0.041838
#
#
# Mechanical properties :
#
#
# Convention : Reuss Voigt Hill
#
# Bulk Modulus (GPa) = 20.98423 23.93812 22.46117
# Shear Modulus (GPa) = 20.94325 24.68161 22.81243
#
# Velocity S-wave (km/s) = 3.26701 3.54663 3.40969
# Velocity P-wave (km/s) = 4.99254 5.38248 5.19117
#
# Compressibility (1/GPa) = 0.04765484
#
# Stress axis : x y z
#
# Youngs Moduli (GPa) = 29.11204 83.85760 34.80264
#
# Poissons Ratio (x) = 0.45465 0.32947
# Poissons Ratio (y) = 0.15784 -0.04217
# Poissons Ratio (z) = 0.27560 -0.10161
#
# Static dielectric constant tensor:
#      x y z
#    x 1.726300 0.000000 0.000000 
#    y 0.000000 1.735070 0.000000 
#    z 0.000000 0.000000 1.728920 
# 
# From -- ./inp_files/18229.got.cif
#   From: 2010.05.17/outbox.cif.g08.bks.cpg/sg56_10_cif.got.tgz:18229.got - 2010.06.03 13:42:01.
