data_PCOD9430055
_publ_section_title
;
Structure prediction by ZEFSAII (Michael W. Deem and Ramdas Pophale) SiO2 
 PCOD9430055
Probable space group: P C C N
;
_chemical_formula_sum "Si O2"
_cell_formula_units_Z 48
_cell_length_a 7.004816
_cell_length_b 18.698069
_cell_length_c 14.450013
_cell_angle_alpha 90.000000
_cell_angle_beta 90.000000
_cell_angle_gamma 90.000000
_cell_volume 1892.612603
_symmetry_space_group_name_H-M "P C C N"
_symmetry_group_IT_number 56
_symmetry_cell_setting 'orthorhombic'
loop_
_space_group_symop_operation_xyz
x,y,z
1/2-x,1/2-y,z
1/2+x,-y,1/2-z
-x,1/2+y,1/2-z
-x,-y,-z
1/2+x,1/2+y,-z
1/2-x,y,1/2+z
x,1/2-y,1/2+z
loop_
_atom_site_type_symbol
_atom_site_label
_atom_site_fract_x
_atom_site_fract_y
_atom_site_fract_z
Si Si1 0.529729 0.727324 0.943920
Si Si2 0.399152 0.654027 0.573002
Si Si3 0.153496 0.108722 0.929585
Si Si4 0.762646 0.523176 0.737937
Si Si5 0.803320 0.004199 0.445560
Si Si6 0.103158 0.625167 0.277946
O O1 0.750000 0.750000 0.918543
O O2 0.443976 0.680840 0.859700
O O3 0.410375 0.793679 0.984949
O O4 0.551630 0.679442 0.036663
O O5 0.622606 0.631157 0.578514
O O6 0.260776 0.587747 0.549708
O O7 0.351951 0.667620 0.681823
O O8 0.109743 0.066456 0.835824
O O9 0.156827 0.050861 0.011585
O O10 0.842266 0.514799 0.840459
O O11 0.747967 0.440352 0.702024
O O12 0.582267 0.574908 0.757304
O O13 0.000000 0.000000 0.500000
#
# Coordination Sequence:
#
# PCOD9430055 Si02
#       6
#     8   8   8   8   8   8
#     4  10  19  33  52  88 118 151 196 252 304 349
#     4   8  18  32  51  81 115 149 190 237 295 362
#     4   9  17  31  54  83 111 143 198 248 285 343
#     4  10  20  35  57  90 116 151 200 254 296 353
#     4   9  16  33  54  77 114 156 191 234 300 361
#     4  10  20  36  60  89 118 152 201 249 302 356
#
# _framework density 25.361768999999999
#
# number of rings (size 3 to 8) (size 9 to 14) (size 15 to 20)
#    0.000    2.667    1.667    1.000    0.000    4.000 
#    0.000    0.000    0.000    1.000    4.333    0.000 
#    0.000    0.000    0.000    0.000    0.000    0.000 
#
# Total GULP energy -267853.977775 kJ/mol
# GULP energy per Si atom -5580.291204 kJ/mol
# Density = 2.530404 g / cm^3
# Si number density = 25.361769 Si / 1000 Ang^3
#
#
#
# Elastic Constant Matrix: (Units=GPa)
#
#
# Indices 1 2 3 4 5 6 
#
# 1 43.5055 29.5802 23.4192 0.0000 0.0000 0.0000
# 2 29.5802 114.8235 82.9241 0.0000 0.0000 0.0000
# 3 23.4192 82.9241 158.3680 0.0000 0.0000 0.0000
# 4 0.0000 0.0000 0.0000 59.2783 0.0000 0.0000
# 5 0.0000 0.0000 0.0000 0.0000 27.7065 0.0000
# 6 0.0000 0.0000 0.0000 0.0000 0.0000 55.1518
#
#
#
# Elastic Compliance Matrix: (Units=1/GPa)
#
#
# Indices 1 2 3 4 5 6 
#
# 1 0.027900 -0.006767 -0.000583 0.000000 0.000000 0.000000
# 2 -0.006767 0.015646 -0.007192 0.000000 0.000000 0.000000
# 3 -0.000583 -0.007192 0.010166 0.000000 0.000000 0.000000
# 4 0.000000 0.000000 0.000000 0.016870 0.000000 0.000000
# 5 0.000000 0.000000 0.000000 0.000000 0.036093 0.000000
# 6 0.000000 0.000000 0.000000 0.000000 0.000000 0.018132
#
#
# Mechanical properties :
#
#
# Convention : Reuss Voigt Hill
#
# Bulk Modulus (GPa) = 40.60085 65.39377 52.99731
# Shear Modulus (GPa) = 30.84533 40.47887 35.66210
#
# Velocity S-wave (km/s) = 3.49121 3.99940 3.75392
# Velocity P-wave (km/s) = 5.68285 6.86785 6.30326
#
# Compressibility (1/GPa) = 0.02463003
#
# Stress axis : x y z
#
# Youngs Moduli (GPa) = 35.84223 63.91357 98.36341
#
# Poissons Ratio (x) = 0.43248 0.05731
# Poissons Ratio (y) = 0.24253 0.70742
# Poissons Ratio (z) = 0.02088 0.45966
#
# Static dielectric constant tensor:
#      x y z
#    x 2.202030 0.000000 0.000000 
#    y 0.000000 2.114110 0.000000 
#    z 0.000000 0.000000 1.942650 
# 
# From -- ./inp_files/10652.got.cif
#   From: 2010.05.17/outbox.cif.g08.bks.cpg/sg56_6_cif.got.tgz:10652.got - 2010.06.03 13:42:01.
