data_PCOD9430419
_publ_section_title
;
Structure prediction by ZEFSAII (Michael W. Deem and Ramdas Pophale) SiO2 
 PCOD9430419
Probable space group: P C C N
;
_chemical_formula_sum "Si O2"
_cell_formula_units_Z 48
_cell_length_a 8.836325
_cell_length_b 10.743928
_cell_length_c 24.633333
_cell_angle_alpha 90.000000
_cell_angle_beta 90.000000
_cell_angle_gamma 90.000000
_cell_volume 2338.610783
_symmetry_space_group_name_H-M "P C C N"
_symmetry_group_IT_number 56
_symmetry_cell_setting 'orthorhombic'
loop_
_space_group_symop_operation_xyz
x,y,z
1/2-x,1/2-y,z
1/2+x,-y,1/2-z
-x,1/2+y,1/2-z
-x,-y,-z
1/2+x,1/2+y,-z
1/2-x,y,1/2+z
x,1/2-y,1/2+z
loop_
_atom_site_type_symbol
_atom_site_label
_atom_site_fract_x
_atom_site_fract_y
_atom_site_fract_z
Si Si1 0.053352 0.068903 0.122196
Si Si2 0.925581 0.206676 0.420506
Si Si3 0.916783 0.190950 0.814300
Si Si4 0.575490 0.291358 0.033150
Si Si5 0.074636 0.289589 0.199702
Si Si6 0.396996 0.424729 0.594777
O O1 0.006394 0.173212 0.166152
O O2 0.217212 0.097259 0.095912
O O3 0.943731 0.086393 0.070437
O O4 0.079382 0.943018 0.155812
O O5 0.750000 0.250000 0.413984
O O6 0.996268 0.227320 0.361361
O O7 0.981574 0.288556 0.470932
O O8 0.928891 0.059584 0.430079
O O9 0.750000 0.250000 0.804440
O O10 0.000068 0.187359 0.757218
O O11 0.750000 0.250000 0.031374
O O12 0.483328 0.181909 0.062721
O O13 0.250000 0.250000 0.206625
O O14 0.061757 0.406374 0.158594
#
# Coordination Sequence:
#
# PCOD9430419 Si02
#       6
#     8   8   8   8   8   8
#     4  10  21  41  64  86 121 164 201 246 305 372
#     4  10  20  38  61  90 120 156 204 246 300 361
#     4  11  22  39  61  90 119 163 207 245 302 362
#     4  10  22  39  61  94 121 154 205 254 305 355
#     4   9  22  37  57  88 122 158 203 250 303 356
#     4  10  19  42  64  85 120 165 201 246 303 367
#
# _framework density 20.525005
#
# number of rings (size 3 to 8) (size 9 to 14) (size 15 to 20)
#    0.000    2.000    3.333    2.000    2.333    3.333 
#    3.000    1.667    0.000    0.000    0.000    0.000 
#    0.000    0.000    0.000    0.000    0.000    0.000 
#
# Total GULP energy -267375.124018 kJ/mol
# GULP energy per Si atom -5570.315084 kJ/mol
# Density = 2.047829 g / cm^3
# Si number density = 20.525005 Si / 1000 Ang^3
#
#
#
# Elastic Constant Matrix: (Units=GPa)
#
#
# Indices 1 2 3 4 5 6 
#
# 1 20.4670 0.9599 25.9539 0.0000 0.0000 0.0000
# 2 0.9599 90.3780 7.4537 0.0000 0.0000 0.0000
# 3 25.9539 7.4537 143.7932 0.0000 0.0000 0.0000
# 4 0.0000 0.0000 0.0000 16.8125 0.0000 0.0000
# 5 0.0000 0.0000 0.0000 0.0000 13.4391 0.0000
# 6 0.0000 0.0000 0.0000 0.0000 0.0000 17.0704
#
#
#
# Elastic Compliance Matrix: (Units=1/GPa)
#
#
# Indices 1 2 3 4 5 6 
#
# 1 0.063368 0.000271 -0.011452 0.000000 0.000000 0.000000
# 2 0.000271 0.011113 -0.000625 0.000000 0.000000 0.000000
# 3 -0.011452 -0.000625 0.009054 0.000000 0.000000 0.000000
# 4 0.000000 0.000000 0.000000 0.059480 0.000000 0.000000
# 5 0.000000 0.000000 0.000000 0.000000 0.074410 0.000000
# 6 0.000000 0.000000 0.000000 0.000000 0.000000 0.058581
#
#
# Mechanical properties :
#
#
# Convention : Reuss Voigt Hill
#
# Bulk Modulus (GPa) = 16.68766 35.93034 26.30900
# Shear Modulus (GPa) = 15.64500 24.14911 19.89706
#
# Velocity S-wave (km/s) = 2.76387 3.43384 3.11691
# Velocity P-wave (km/s) = 4.28174 5.76761 5.07930
#
# Compressibility (1/GPa) = 0.05992451
#
# Stress axis : x y z
#
# Youngs Moduli (GPa) = 15.78085 89.98217 110.45104
#
# Poissons Ratio (x) = -0.02442 1.26484
# Poissons Ratio (y) = -0.00428 0.06904
# Poissons Ratio (z) = 0.18072 0.05624
#
# Static dielectric constant tensor:
#      x y z
#    x 1.527390 0.000000 0.000000 
#    y 0.000000 1.809740 0.000000 
#    z 0.000000 0.000000 1.774540 
# 
# From -- ./inp_files/20471.got.cif
#   From: 2010.05.17/outbox.cif.g08.bks.cpg/sg56_11_cif.got.tgz:20471.got - 2010.06.03 13:42:01.
