data_PCOD9430031
_publ_section_title
;
Structure prediction by ZEFSAII (Michael W. Deem and Ramdas Pophale) SiO2 
 PCOD9430031
Probable space group: P C C N
;
_chemical_formula_sum "Si O2"
_cell_formula_units_Z 64
_cell_length_a 7.348828
_cell_length_b 14.320705
_cell_length_c 24.591474
_cell_angle_alpha 90.000000
_cell_angle_beta 90.000000
_cell_angle_gamma 90.000000
_cell_volume 2588.016508
_symmetry_space_group_name_H-M "P C C N"
_symmetry_group_IT_number 56
_symmetry_cell_setting 'orthorhombic'
loop_
_space_group_symop_operation_xyz
x,y,z
1/2-x,1/2-y,z
1/2+x,-y,1/2-z
-x,1/2+y,1/2-z
-x,-y,-z
1/2+x,1/2+y,-z
1/2-x,y,1/2+z
x,1/2-y,1/2+z
loop_
_atom_site_type_symbol
_atom_site_label
_atom_site_fract_x
_atom_site_fract_y
_atom_site_fract_z
Si Si1 0.471558 0.491313 0.779571
Si Si2 0.294104 0.652869 0.624548
Si Si3 0.530035 0.901496 0.966579
Si Si4 0.629968 0.101480 0.546711
Si Si5 0.347284 0.374759 0.961413
Si Si6 0.683087 0.545775 0.881132
Si Si7 0.781483 0.149223 0.752170
Si Si8 0.220385 0.149772 0.344281
O O1 0.638183 0.526405 0.818244
O O2 0.549093 0.415908 0.736878
O O3 0.393056 0.585165 0.755260
O O4 0.312992 0.436613 0.812758
O O5 0.250000 0.750000 0.595728
O O6 0.210855 0.561134 0.597128
O O7 0.192164 0.662465 0.682967
O O8 0.508736 0.637603 0.638024
O O9 0.333603 0.862423 0.951773
O O10 0.642386 0.909864 0.910103
O O11 0.661252 0.847078 0.007802
O O12 0.500000 0.000000 0.000000
O O13 0.516947 0.148291 0.498744
O O14 0.493795 0.101144 0.597883
O O15 0.650601 0.988739 0.538935
O O16 0.335305 0.342544 0.900007
O O17 0.750000 0.250000 0.727035
O O18 0.250000 0.250000 0.315131
#
# Coordination Sequence:
#
# PCOD9430031 Si02
#       8
#     8   8   8   8   8   8   8   8
#     4  11  23  39  65  94 131 177 220 282 347 412
#     4  10  21  36  54  84 128 163 208 274 333 398
#     4   9  17  29  50  83 113 157 197 258 313 386
#     4   9  16  31  53  77 116 154 203 254 311 382
#     4   9  18  29  48  81 115 153 206 248 309 388
#     4  10  19  32  54  89 118 156 215 258 314 393
#     4  10  22  43  65  96 133 175 226 278 345 425
#     4  12  22  35  57  91 131 171 214 275 339 398
#
# _framework density 24.729364
#
# number of rings (size 3 to 8) (size 9 to 14) (size 15 to 20)
#    0.000    2.000    1.250    5.250    0.000    0.000 
#    0.000    0.000    0.000    0.000    6.500    3.500 
#    0.000    0.000    0.000    0.000    0.000    0.125 
#
# Total GULP energy -357234.905160 kJ/mol
# GULP energy per Si atom -5581.795393 kJ/mol
# Density = 2.467308 g / cm^3
# Si number density = 24.729364 Si / 1000 Ang^3
#
#
#
# Elastic Constant Matrix: (Units=GPa)
#
#
# Indices 1 2 3 4 5 6 
#
# 1 148.3671 26.1848 9.2441 0.0000 0.0000 0.0000
# 2 26.1848 96.4498 22.2960 0.0000 0.0000 0.0000
# 3 9.2441 22.2960 34.2592 0.0000 0.0000 0.0000
# 4 0.0000 0.0000 0.0000 13.4484 0.0000 0.0000
# 5 0.0000 0.0000 0.0000 0.0000 25.0356 0.0000
# 6 0.0000 0.0000 0.0000 0.0000 0.0000 34.7397
#
#
#
# Elastic Compliance Matrix: (Units=1/GPa)
#
#
# Indices 1 2 3 4 5 6 
#
# 1 0.007097 -0.001747 -0.000778 0.000000 0.000000 0.000000
# 2 -0.001747 0.012634 -0.007751 0.000000 0.000000 0.000000
# 3 -0.000778 -0.007751 0.034444 0.000000 0.000000 0.000000
# 4 0.000000 0.000000 0.000000 0.074358 0.000000 0.000000
# 5 0.000000 0.000000 0.000000 0.000000 0.039943 0.000000
# 6 0.000000 0.000000 0.000000 0.000000 0.000000 0.028786
#
#
# Mechanical properties :
#
#
# Convention : Reuss Voigt Hill
#
# Bulk Modulus (GPa) = 29.74178 43.83620 36.78899
# Shear Modulus (GPa) = 21.83208 29.40148 25.61678
#
# Velocity S-wave (km/s) = 2.97449 3.45183 3.22201
# Velocity P-wave (km/s) = 4.88362 5.80101 5.36197
#
# Compressibility (1/GPa) = 0.03362273
#
# Stress axis : x y z
#
# Youngs Moduli (GPa) = 140.90843 79.15100 29.03300
#
# Poissons Ratio (x) = 0.13826 0.02259
# Poissons Ratio (y) = 0.24614 0.22503
# Poissons Ratio (z) = 0.10964 0.61350
#
# Static dielectric constant tensor:
#      x y z
#    x 2.053300 0.000000 0.000000 
#    y 0.000000 2.043110 0.000000 
#    z 0.000000 0.000000 1.967440 
# 
# From -- ./inp_files/23412.got.cif
#   From: 2010.05.17/outbox.cif.g08.bks.cpg/sg56_12_cif.got.tgz:23412.got - 2010.06.03 13:42:01.
