data_PCOD9430480
_publ_section_title
;
Structure prediction by ZEFSAII (Michael W. Deem and Ramdas Pophale) SiO2 
 PCOD9430480
Probable space group: P C C N
;
_chemical_formula_sum "Si O2"
_cell_formula_units_Z 52
_cell_length_a 20.063663
_cell_length_b 14.730417
_cell_length_c 8.707645
_cell_angle_alpha 90.000000
_cell_angle_beta 90.000000
_cell_angle_gamma 90.000000
_cell_volume 2573.510716
_symmetry_space_group_name_H-M "P C C N"
_symmetry_group_IT_number 56
_symmetry_cell_setting 'orthorhombic'
loop_
_space_group_symop_operation_xyz
x,y,z
1/2-x,1/2-y,z
1/2+x,-y,1/2-z
-x,1/2+y,1/2-z
-x,-y,-z
1/2+x,1/2+y,-z
1/2-x,y,1/2+z
x,1/2-y,1/2+z
loop_
_atom_site_type_symbol
_atom_site_label
_atom_site_fract_x
_atom_site_fract_y
_atom_site_fract_z
Si Si1 0.698891 0.171325 0.095872
Si Si2 0.466551 0.057902 0.138454
Si Si3 0.434896 0.616543 0.796181
Si Si4 0.210654 0.934598 0.702121
Si Si5 0.315657 0.370659 0.649243
Si Si6 0.051702 0.782360 0.466273
Si Si7 0.750000 0.750000 0.109353
O O1 0.750000 0.250000 0.048999
O O2 0.727745 0.126355 0.247278
O O3 0.625816 0.210268 0.102321
O O4 0.695762 0.091725 0.971890
O O5 0.389761 0.090221 0.119681
O O6 0.506923 0.151207 0.136881
O O7 0.467099 0.982994 0.273513
O O8 0.500000 0.000000 0.000000
O O9 0.355211 0.594770 0.797785
O O10 0.447616 0.676769 0.639352
O O11 0.462903 0.676441 0.936178
O O12 0.223810 0.040761 0.708489
O O13 0.283846 0.325291 0.499209
O O14 0.306066 0.295656 0.782120
#
# Coordination Sequence:
#
# PCOD9430480 Si02
#       7
#     8   8   8   8   8   8   4
#     4  11  20  31  53  81 113 145 185 227 281 343
#     4   9  20  38  58  81 115 156 192 227 289 360
#     4   9  19  35  53  75 107 142 188 226 276 336
#     4  10  20  33  52  80 112 146 179 237 288 340
#     4  10  21  39  61  87 115 150 198 248 299 345
#     4  10  20  34  54  79 109 151 183 228 280 340
#     4  10  22  40  64  90 110 148 204 256 298 338
#
# _framework density 20.205862
#
# number of rings (size 3 to 8) (size 9 to 14) (size 15 to 20)
#    0.000    2.154    1.538    2.308    2.154    2.462 
#    0.000    2.308    0.000    0.000    0.000    0.000 
#    0.000    0.000    0.000    0.000    0.000    0.000 
#
# Total GULP energy -289685.834631 kJ/mol
# GULP energy per Si atom -5570.881435 kJ/mol
# Density = 2.015987 g / cm^3
# Si number density = 20.205862 Si / 1000 Ang^3
#
#
#
# Elastic Constant Matrix: (Units=GPa)
#
#
# Indices 1 2 3 4 5 6 
#
# 1 39.8567 17.4183 -6.7518 0.0000 0.0000 0.0000
# 2 17.4183 91.9747 20.6041 0.0000 0.0000 0.0000
# 3 -6.7518 20.6041 33.1247 0.0000 0.0000 0.0000
# 4 0.0000 0.0000 0.0000 37.8519 0.0000 0.0000
# 5 0.0000 0.0000 0.0000 0.0000 -34.3039 0.0000
# 6 0.0000 0.0000 0.0000 0.0000 0.0000 26.1216
#
#
#
# Elastic Compliance Matrix: (Units=1/GPa)
#
#
# Indices 1 2 3 4 5 6 
#
# 1 0.030697 -0.008383 0.011471 0.000000 0.000000 0.000000
# 2 -0.008383 0.014922 -0.010991 0.000000 0.000000 0.000000
# 3 0.011471 -0.010991 0.039364 0.000000 0.000000 0.000000
# 4 0.000000 0.000000 0.000000 0.026419 0.000000 0.000000
# 5 0.000000 0.000000 0.000000 0.000000 -0.029151 0.000000
# 6 0.000000 0.000000 0.000000 0.000000 0.000000 0.038282
#
#
# Mechanical properties :
#
#
# Convention : Reuss Voigt Hill
#
# Bulk Modulus (GPa) = 14.45554 25.27750 19.86652
# Shear Modulus (GPa) = 31.36825 14.84628 23.10726
#
# Velocity S-wave (km/s) = 3.94437 2.71357 3.38537
# Velocity P-wave (km/s) = 5.28334 4.72812 5.01342
#
# Compressibility (1/GPa) = 0.06917764
#
# Stress axis : x y z
#
# Youngs Moduli (GPa) = 32.57668 67.01372 25.40424
#
# Poissons Ratio (x) = 0.56179 -0.29142
# Poissons Ratio (y) = 0.27310 0.27921
# Poissons Ratio (z) = -0.37370 0.73653
#
# Static dielectric constant tensor:
#      x y z
#    x 1.733050 0.000000 0.000000 
#    y 0.000000 1.756920 0.000000 
#    z 0.000000 0.000000 1.722230 
# 
# From -- ./inp_files/3524.got.cif
#   From: 2010.05.17/outbox.cif.g08.bks.cpg/sg56_2_cif.got.tgz:3524.got - 2010.06.03 13:42:01.
