data_PCOD9430376
_publ_section_title
;
Structure prediction by ZEFSAII (Michael W. Deem and Ramdas Pophale) SiO2 
 PCOD9430376
Probable space group: P C C N
;
_chemical_formula_sum "Si O2"
_cell_formula_units_Z 56
_cell_length_a 5.766699
_cell_length_b 27.537651
_cell_length_c 17.211893
_cell_angle_alpha 90.000000
_cell_angle_beta 90.000000
_cell_angle_gamma 90.000000
_cell_volume 2733.271750
_symmetry_space_group_name_H-M "P C C N"
_symmetry_group_IT_number 56
_symmetry_cell_setting 'orthorhombic'
loop_
_space_group_symop_operation_xyz
x,y,z
1/2-x,1/2-y,z
1/2+x,-y,1/2-z
-x,1/2+y,1/2-z
-x,-y,-z
1/2+x,1/2+y,-z
1/2-x,y,1/2+z
x,1/2-y,1/2+z
loop_
_atom_site_type_symbol
_atom_site_label
_atom_site_fract_x
_atom_site_fract_y
_atom_site_fract_z
Si Si1 0.750000 0.750000 0.857297
Si Si2 0.811837 0.110323 0.809015
Si Si3 0.881674 0.902456 0.346798
Si Si4 0.384940 0.319674 0.887858
Si Si5 0.160423 0.505055 0.204281
Si Si6 0.528261 0.827571 0.971185
Si Si7 0.423641 0.327490 0.238827
Si Si8 0.250000 0.750000 0.051143
O O1 0.638258 0.790625 0.909801
O O2 0.556216 0.722193 0.807680
O O3 0.639206 0.153178 0.785830
O O4 0.957722 0.101631 0.730057
O O5 0.957542 0.132105 0.879530
O O6 0.687940 0.059596 0.827609
O O7 0.836531 0.959626 0.354620
O O8 0.991569 0.877086 0.422503
O O9 0.658120 0.870779 0.319451
O O10 0.270995 0.317399 0.803146
O O11 0.199952 0.329467 0.955392
O O12 0.529002 0.270068 0.902015
O O13 0.403920 0.496583 0.253616
O O14 0.306745 0.797861 0.000919
#
# Coordination Sequence:
#
# PCOD9430376 Si02
#       8
#     4   8   8   8   8   8   8   4
#     4  10  22  36  58  84 124 150 204 266 314 366
#     4  10  21  37  66  93 123 164 213 264 324 386
#     4   9  21  38  61  97 122 159 210 269 319 378
#     4  11  24  40  58  87 125 168 210 257 317 390
#     4  10  19  39  67 100 132 171 215 275 338 389
#     4  11  23  41  58  87 126 165 212 257 321 387
#     4  10  21  38  59  89 121 155 206 263 310 382
#     4  12  24  40  64  80 120 180 210 248 326 392
#
# _framework density 20.488267
#
# number of rings (size 3 to 8) (size 9 to 14) (size 15 to 20)
#    0.000    1.714    2.857    0.857    6.000    0.000 
#    0.000    0.714    0.000    3.429    0.000    0.000 
#    0.000    0.000    0.000    0.000    0.000    0.000 
#
# Total GULP energy -312125.094028 kJ/mol
# GULP energy per Si atom -5573.662393 kJ/mol
# Density = 2.044163 g / cm^3
# Si number density = 20.488267 Si / 1000 Ang^3
#
#
#
# Elastic Constant Matrix: (Units=GPa)
#
#
# Indices 1 2 3 4 5 6 
#
# 1 44.3845 6.5129 1.6488 0.0000 0.0000 0.0000
# 2 6.5129 81.6831 31.0779 0.0000 0.0000 0.0000
# 3 1.6488 31.0779 51.5176 0.0000 0.0000 0.0000
# 4 0.0000 0.0000 0.0000 29.7706 0.0000 0.0000
# 5 0.0000 0.0000 0.0000 0.0000 19.1403 0.0000
# 6 0.0000 0.0000 0.0000 0.0000 0.0000 27.6558
#
#
#
# Elastic Compliance Matrix: (Units=1/GPa)
#
#
# Indices 1 2 3 4 5 6 
#
# 1 0.022806 -0.002000 0.000476 0.000000 0.000000 0.000000
# 2 -0.002000 0.016065 -0.009627 0.000000 0.000000 0.000000
# 3 0.000476 -0.009627 0.025203 0.000000 0.000000 0.000000
# 4 0.000000 0.000000 0.000000 0.033590 0.000000 0.000000
# 5 0.000000 0.000000 0.000000 0.000000 0.052246 0.000000
# 6 0.000000 0.000000 0.000000 0.000000 0.000000 0.036159
#
#
# Mechanical properties :
#
#
# Convention : Reuss Voigt Hill
#
# Bulk Modulus (GPa) = 23.93873 28.45160 26.19516
# Shear Modulus (GPa) = 22.49278 24.53638 23.51458
#
# Velocity S-wave (km/s) = 3.31696 3.46436 3.39146
# Velocity P-wave (km/s) = 5.13606 5.46986 5.30558
#
# Compressibility (1/GPa) = 0.04177332
#
# Stress axis : x y z
#
# Youngs Moduli (GPa) = 43.84790 62.24858 39.67775
#
# Poissons Ratio (x) = 0.12448 -0.01890
# Poissons Ratio (y) = 0.08768 0.38198
# Poissons Ratio (z) = -0.02089 0.59926
#
# Static dielectric constant tensor:
#      x y z
#    x 1.822030 0.000000 0.000000 
#    y 0.000000 1.816100 0.000000 
#    z 0.000000 0.000000 1.722130 
# 
# From -- ./inp_files/9857.got.cif
#   From: 2010.05.17/outbox.cif.g08.bks.cpg/sg56_5_cif.got.tgz:9857.got - 2010.06.03 13:42:01.
