data_PCOD9430040
_publ_section_title
;
Structure prediction by ZEFSAII (Michael W. Deem and Ramdas Pophale) SiO2 
 PCOD9430040
Probable space group: P C C N
;
_chemical_formula_sum "Si O2"
_cell_formula_units_Z 40
_cell_length_a 4.980029
_cell_length_b 18.282142
_cell_length_c 21.506779
_cell_angle_alpha 90.000000
_cell_angle_beta 90.000000
_cell_angle_gamma 90.000000
_cell_volume 1958.097541
_symmetry_space_group_name_H-M "P C C N"
_symmetry_group_IT_number 56
_symmetry_cell_setting 'orthorhombic'
loop_
_space_group_symop_operation_xyz
x,y,z
1/2-x,1/2-y,z
1/2+x,-y,1/2-z
-x,1/2+y,1/2-z
-x,-y,-z
1/2+x,1/2+y,-z
1/2-x,y,1/2+z
x,1/2-y,1/2+z
loop_
_atom_site_type_symbol
_atom_site_label
_atom_site_fract_x
_atom_site_fract_y
_atom_site_fract_z
Si Si1 0.006212 0.803593 0.182014
Si Si2 0.268270 0.421425 0.532692
Si Si3 0.255622 0.989757 0.914025
Si Si4 0.503393 0.300011 0.958806
Si Si5 0.619850 0.536926 0.221638
O O1 0.750000 0.750000 0.184417
O O2 0.065537 0.831106 0.110471
O O3 0.957249 0.877223 0.221507
O O4 0.250000 0.750000 0.200202
O O5 0.536728 0.423113 0.573746
O O6 0.353337 0.450151 0.464053
O O7 0.094106 0.351692 0.513889
O O8 0.049104 0.472713 0.565838
O O9 0.251937 0.018577 0.844912
O O10 0.250000 0.250000 0.946176
O O11 0.750000 0.250000 0.977995
O O12 0.350465 0.488963 0.230702
#
# Coordination Sequence:
#
# PCOD9430040 Si02
#       5
#     8   8   8   8   8
#     4  10  21  38  60  88 123 158 205 264 320 366
#     4  10  19  35  57  82 122 150 192 248 305 391
#     4  10  21  35  56  85 116 158 193 245 319 356
#     4  10  19  32  56  87 119 154 195 249 310 371
#     4  12  24  40  63  92 126 164 218 270 307 371
#
# _framework density 20.427990000000001
#
# number of rings (size 3 to 8) (size 9 to 14) (size 15 to 20)
#    0.000    1.600    2.000    3.600    0.000    0.000 
#    0.000    0.000    0.000   18.000    0.000    0.000 
#    0.000    0.000    0.000    0.000    0.000    0.000 
#
# Total GULP energy -222956.877951 kJ/mol
# GULP energy per Si atom -5573.921949 kJ/mol
# Density = 2.038149 g / cm^3
# Si number density = 20.427990 Si / 1000 Ang^3
#
#
#
# Elastic Constant Matrix: (Units=GPa)
#
#
# Indices 1 2 3 4 5 6 
#
# 1 142.7086 48.2132 20.8797 0.0000 0.0000 0.0000
# 2 48.2132 99.0323 29.9876 0.0000 0.0000 0.0000
# 3 20.8797 29.9876 48.9400 0.0000 0.0000 0.0000
# 4 0.0000 0.0000 0.0000 28.0292 0.0000 0.0000
# 5 0.0000 0.0000 0.0000 0.0000 28.8106 0.0000
# 6 0.0000 0.0000 0.0000 0.0000 0.0000 37.9962
#
#
#
# Elastic Compliance Matrix: (Units=1/GPa)
#
#
# Indices 1 2 3 4 5 6 
#
# 1 0.008457 -0.003714 -0.001333 0.000000 0.000000 0.000000
# 2 -0.003714 0.014029 -0.007012 0.000000 0.000000 0.000000
# 3 -0.001333 -0.007012 0.025298 0.000000 0.000000 0.000000
# 4 0.000000 0.000000 0.000000 0.035677 0.000000 0.000000
# 5 0.000000 0.000000 0.000000 0.000000 0.034709 0.000000
# 6 0.000000 0.000000 0.000000 0.000000 0.000000 0.026318
#
#
# Mechanical properties :
#
#
# Convention : Reuss Voigt Hill
#
# Bulk Modulus (GPa) = 42.25105 54.31575 48.28340
# Shear Modulus (GPa) = 28.32961 31.74057 30.03509
#
# Velocity S-wave (km/s) = 3.72802 3.94608 3.83860
# Velocity P-wave (km/s) = 6.26567 6.88539 6.58283
#
# Compressibility (1/GPa) = 0.02366805
#
# Stress axis : x y z
#
# Youngs Moduli (GPa) = 118.24683 71.28160 39.52881
#
# Poissons Ratio (x) = 0.26472 0.05267
# Poissons Ratio (y) = 0.43913 0.27716
# Poissons Ratio (z) = 0.15756 0.49980
#
# Static dielectric constant tensor:
#      x y z
#    x 1.759400 0.000000 0.000000 
#    y 0.000000 1.805540 0.000000 
#    z 0.000000 0.000000 1.774540 
# 
# From -- ./inp_files/13828.got.cif
#   From: 2010.05.17/outbox.cif.g08.bks.cpg/sg56_7_cif.got.tgz:13828.got - 2010.06.03 13:42:01.
