data_PCOD9430711
_publ_section_title
;
Structure prediction by ZEFSAII (Michael W. Deem and Ramdas Pophale) SiO2 
 PCOD9430711
Probable space group: P C C N
;
_chemical_formula_sum "Si O2"
_cell_formula_units_Z 60
_cell_length_a 8.632525
_cell_length_b 22.407533
_cell_length_c 15.057852
_cell_angle_alpha 90.000000
_cell_angle_beta 90.000000
_cell_angle_gamma 90.000000
_cell_volume 2912.694352
_symmetry_space_group_name_H-M "P C C N"
_symmetry_group_IT_number 56
_symmetry_cell_setting 'orthorhombic'
loop_
_space_group_symop_operation_xyz
x,y,z
1/2-x,1/2-y,z
1/2+x,-y,1/2-z
-x,1/2+y,1/2-z
-x,-y,-z
1/2+x,1/2+y,-z
1/2-x,y,1/2+z
x,1/2-y,1/2+z
loop_
_atom_site_type_symbol
_atom_site_label
_atom_site_fract_x
_atom_site_fract_y
_atom_site_fract_z
Si Si1 0.330998 0.835981 0.388322
Si Si2 0.197726 0.057655 0.822993
Si Si3 0.562437 0.789333 0.513504
Si Si4 0.250000 0.750000 0.749988
Si Si5 0.968832 0.551896 0.323652
Si Si6 0.034563 0.182147 0.797952
Si Si7 0.037620 0.328611 0.100390
Si Si8 0.761481 0.913960 0.977087
O O1 0.392812 0.812380 0.482518
O O2 0.365497 0.785313 0.314878
O O3 0.420186 0.893031 0.351056
O O4 0.146507 0.839266 0.392626
O O5 0.344422 0.062039 0.755986
O O6 0.083095 0.114484 0.816991
O O7 0.254384 0.058442 0.925505
O O8 0.087068 0.001526 0.804098
O O9 0.592120 0.781171 0.617448
O O10 0.578404 0.726243 0.464550
O O11 0.657559 0.848198 0.484308
O O12 0.352925 0.799344 0.701774
O O13 0.862438 0.544684 0.412022
O O14 0.096911 0.189663 0.698331
O O15 0.105353 0.392207 0.069915
#
# Coordination Sequence:
#
# PCOD9430711 Si02
#       8
#     8   8   8   4   8   8   8   8
#     4  10  21  39  62  97 136 178 218 280 343 412
#     4  11  25  47  69 103 130 187 241 286 356 415
#     4  10  20  38  62  97 132 178 219 267 342 417
#     4  10  20  36  64  96 134 178 218 270 348 394
#     4  11  25  44  72  94 142 177 236 295 343 411
#     4  10  22  38  67  94 138 172 227 281 339 407
#     4  11  20  41  62  96 143 173 224 279 345 416
#     4  10  23  44  66  97 134 178 226 288 346 405
#
# _framework density 20.599482999999999
#
# number of rings (size 3 to 8) (size 9 to 14) (size 15 to 20)
#    0.000    1.600    4.000    0.800    5.600    1.067 
#    2.400    7.333    0.000    0.000    0.000    0.000 
#    0.000    0.000    0.000    0.000    0.000    0.000 
#
# Total GULP energy -334047.664046 kJ/mol
# GULP energy per Si atom -5567.461067 kJ/mol
# Density = 2.055260 g / cm^3
# Si number density = 20.599483 Si / 1000 Ang^3
#
#
#
# Elastic Constant Matrix: (Units=GPa)
#
#
# Indices 1 2 3 4 5 6 
#
# 1 86.0657 32.4493 29.5000 0.0000 0.0000 0.0000
# 2 32.4493 71.5926 32.4659 0.0000 0.0000 0.0000
# 3 29.5000 32.4659 132.1464 0.0000 0.0000 0.0000
# 4 0.0000 0.0000 0.0000 19.3760 0.0000 0.0000
# 5 0.0000 0.0000 0.0000 0.0000 21.5654 0.0000
# 6 0.0000 0.0000 0.0000 0.0000 0.0000 32.4839
#
#
#
# Elastic Compliance Matrix: (Units=1/GPa)
#
#
# Indices 1 2 3 4 5 6 
#
# 1 0.014389 -0.005700 -0.001812 0.000000 0.000000 0.000000
# 2 -0.005700 0.017977 -0.003144 0.000000 0.000000 0.000000
# 3 -0.001812 -0.003144 0.008744 0.000000 0.000000 0.000000
# 4 0.000000 0.000000 0.000000 0.051610 0.000000 0.000000
# 5 0.000000 0.000000 0.000000 0.000000 0.046371 0.000000
# 6 0.000000 0.000000 0.000000 0.000000 0.000000 0.030785
#
#
# Mechanical properties :
#
#
# Convention : Reuss Voigt Hill
#
# Bulk Modulus (GPa) = 50.50909 53.18168 51.84538
# Shear Modulus (GPa) = 25.27957 27.71102 26.49529
#
# Velocity S-wave (km/s) = 3.50693 3.67172 3.59027
# Velocity P-wave (km/s) = 6.40085 6.62181 6.51227
#
# Compressibility (1/GPa) = 0.01979842
#
# Stress axis : x y z
#
# Youngs Moduli (GPa) = 69.49652 55.62532 114.36037
#
# Poissons Ratio (x) = 0.31708 0.20719
# Poissons Ratio (y) = 0.39615 0.35957
# Poissons Ratio (z) = 0.12591 0.17490
#
# Static dielectric constant tensor:
#      x y z
#    x 1.738860 0.000000 0.000000 
#    y 0.000000 1.735200 0.000000 
#    z 0.000000 0.000000 1.780510 
# 
# From -- ./inp_files/11022.got.cif
#   From: 2010.05.17/outbox.cif.g08.bks.cpg/sg56_6_cif.got.tgz:11022.got - 2010.06.03 13:42:01.
