data_PCOD9430203
_publ_section_title
;
Structure prediction by ZEFSAII (Michael W. Deem and Ramdas Pophale) SiO2 
 PCOD9430203
Probable space group: P C C N
;
_chemical_formula_sum "Si O2"
_cell_formula_units_Z 40
_cell_length_a 6.744254
_cell_length_b 7.768594
_cell_length_c 27.995483
_cell_angle_alpha 90.000000
_cell_angle_beta 90.000000
_cell_angle_gamma 90.000000
_cell_volume 1466.777732
_symmetry_space_group_name_H-M "P C C N"
_symmetry_group_IT_number 56
_symmetry_cell_setting 'orthorhombic'
loop_
_space_group_symop_operation_xyz
x,y,z
1/2-x,1/2-y,z
1/2+x,-y,1/2-z
-x,1/2+y,1/2-z
-x,-y,-z
1/2+x,1/2+y,-z
1/2-x,y,1/2+z
x,1/2-y,1/2+z
loop_
_atom_site_type_symbol
_atom_site_label
_atom_site_fract_x
_atom_site_fract_y
_atom_site_fract_z
Si Si1 0.210194 0.957729 0.590183
Si Si2 0.854889 0.068643 0.110490
Si Si3 0.379854 0.890047 0.196304
Si Si4 0.374298 0.117988 0.289923
Si Si5 0.730303 0.457366 0.011727
O O1 0.250000 0.750000 0.586039
O O2 0.149635 0.013519 0.536036
O O3 0.101013 0.963031 0.641432
O O4 0.412143 0.065134 0.598066
O O5 0.750000 0.250000 0.112919
O O6 0.749337 0.970208 0.065843
O O7 0.851357 0.993147 0.162605
O O8 0.618611 0.832536 0.208765
O O9 0.370100 0.658962 0.199322
O O10 0.377456 0.033751 0.238031
O O11 0.750000 0.250000 0.015514
O O12 0.500000 0.500000 0.000000
#
# Coordination Sequence:
#
# PCOD9430203 Si02
#       5
#     8   8   8   8   8
#     4   9  16  34  61  91 130 176 219 265 337 412
#     4  10  19  35  61  96 131 166 216 279 338 405
#     4  11  22  42  64  90 128 174 223 267 336 413
#     4  12  25  40  62  92 127 168 217 281 337 402
#     4   8  15  27  54  93 123 165 217 265 326 407
#
# _framework density 27.270662000000002
#
# number of rings (size 3 to 8) (size 9 to 14) (size 15 to 20)
#    0.000    2.000    4.000    1.800    0.000    0.000 
#    0.000    0.000    0.000    2.400    0.000    0.000 
#    0.000    0.000    0.000    0.000    0.000    0.000 
#
# Total GULP energy -223273.144542 kJ/mol
# GULP energy per Si atom -5581.828614 kJ/mol
# Density = 2.720859 g / cm^3
# Si number density = 27.270662 Si / 1000 Ang^3
#
#
#
# Elastic Constant Matrix: (Units=GPa)
#
#
# Indices 1 2 3 4 5 6 
#
# 1 162.2240 59.2429 29.1800 0.0000 0.0000 0.0000
# 2 59.2429 98.3289 80.0848 0.0000 0.0000 0.0000
# 3 29.1800 80.0848 341.9725 0.0000 0.0000 0.0000
# 4 0.0000 0.0000 0.0000 35.5320 0.0000 0.0000
# 5 0.0000 0.0000 0.0000 0.0000 27.0449 0.0000
# 6 0.0000 0.0000 0.0000 0.0000 0.0000 60.8052
#
#
#
# Elastic Compliance Matrix: (Units=1/GPa)
#
#
# Indices 1 2 3 4 5 6 
#
# 1 0.007986 -0.005260 0.000550 0.000000 0.000000 0.000000
# 2 -0.005260 0.016031 -0.003305 0.000000 0.000000 0.000000
# 3 0.000550 -0.003305 0.003651 0.000000 0.000000 0.000000
# 4 0.000000 0.000000 0.000000 0.028144 0.000000 0.000000
# 5 0.000000 0.000000 0.000000 0.000000 0.036976 0.000000
# 6 0.000000 0.000000 0.000000 0.000000 0.000000 0.016446
#
#
# Mechanical properties :
#
#
# Convention : Reuss Voigt Hill
#
# Bulk Modulus (GPa) = 85.92015 104.39342 95.15678
# Shear Modulus (GPa) = 38.71667 53.61093 46.16380
#
# Velocity S-wave (km/s) = 3.77200 4.43864 4.11883
# Velocity P-wave (km/s) = 7.10954 8.03942 7.58873
#
# Compressibility (1/GPa) = 0.01163871
#
# Stress axis : x y z
#
# Youngs Moduli (GPa) = 125.21623 62.37856 273.87228
#
# Poissons Ratio (x) = 0.32810 -0.15072
# Poissons Ratio (y) = 0.65862 0.90527
# Poissons Ratio (z) = -0.06891 0.20619
#
# Static dielectric constant tensor:
#      x y z
#    x 2.437090 0.000000 0.000000 
#    y 0.000000 2.679600 0.000000 
#    z 0.000000 0.000000 1.963760 
# 
# From -- ./inp_files/21965.got.cif
#   From: 2010.05.17/outbox.cif.g08.bks.cpg/sg56_11_cif.got.tgz:21965.got - 2010.06.03 13:42:01.
