data_PCOD9430584
_publ_section_title
;
Structure prediction by ZEFSAII (Michael W. Deem and Ramdas Pophale) SiO2 
 PCOD9430584
Probable space group: P C C N
;
_chemical_formula_sum "Si O2"
_cell_formula_units_Z 40
_cell_length_a 12.502957
_cell_length_b 4.904148
_cell_length_c 28.977784
_cell_angle_alpha 90.000000
_cell_angle_beta 90.000000
_cell_angle_gamma 90.000000
_cell_volume 1776.811991
_symmetry_space_group_name_H-M "P C C N"
_symmetry_group_IT_number 56
_symmetry_cell_setting 'orthorhombic'
loop_
_space_group_symop_operation_xyz
x,y,z
1/2-x,1/2-y,z
1/2+x,-y,1/2-z
-x,1/2+y,1/2-z
-x,-y,-z
1/2+x,1/2+y,-z
1/2-x,y,1/2+z
x,1/2-y,1/2+z
loop_
_atom_site_type_symbol
_atom_site_label
_atom_site_fract_x
_atom_site_fract_y
_atom_site_fract_z
Si Si1 0.989153 0.564815 0.144521
Si Si2 0.474738 0.794564 0.042880
Si Si3 0.066670 0.681794 0.238214
Si Si4 0.850941 0.070938 0.168980
Si Si5 0.820980 0.485358 0.518871
O O1 0.029961 0.573424 0.092545
O O2 0.950468 0.261854 0.155446
O O3 0.075394 0.649834 0.183427
O O4 0.886570 0.772368 0.151434
O O5 0.367790 0.641032 0.027952
O O6 0.572909 0.580768 0.045073
O O7 0.500000 0.000000 0.000000
O O8 0.151745 0.570007 0.274957
O O9 0.962960 0.492112 0.249990
O O10 0.750000 0.250000 0.152602
O O11 0.750000 0.250000 0.541932
O O12 0.750000 0.750000 0.511898
#
# Coordination Sequence:
#
# PCOD9430584 Si02
#       5
#     8   8   8   8   8
#     4  10  22  36  58  85 118 157 200 243 304 372
#     4  11  25  42  65  93 127 169 219 261 318 378
#     4   8  16  34  54  76 110 149 179 226 292 358
#     4  10  20  35  57  89 119 147 194 254 308 364
#     4  11  24  43  64  87 122 169 210 265 321 369
#
# _framework density 22.512228
#
# number of rings (size 3 to 8) (size 9 to 14) (size 15 to 20)
#    0.000    2.000    2.000    0.600    5.600    2.400 
#    0.000    1.000    0.000    0.000    0.000    0.000 
#    0.000    0.000    0.000    0.000    0.000    0.000 
#
# Total GULP energy -223148.594958 kJ/mol
# GULP energy per Si atom -5578.714874 kJ/mol
# Density = 2.246099 g / cm^3
# Si number density = 22.512228 Si / 1000 Ang^3
#
#
#
# Elastic Constant Matrix: (Units=GPa)
#
#
# Indices 1 2 3 4 5 6 
#
# 1 48.1073 14.4698 3.0160 0.0000 0.0000 0.0000
# 2 14.4698 128.5938 16.8813 0.0000 0.0000 0.0000
# 3 3.0160 16.8813 169.7840 0.0000 0.0000 0.0000
# 4 0.0000 0.0000 0.0000 26.6328 0.0000 0.0000
# 5 0.0000 0.0000 0.0000 0.0000 -5.0075 0.0000
# 6 0.0000 0.0000 0.0000 0.0000 0.0000 30.3017
#
#
#
# Elastic Compliance Matrix: (Units=1/GPa)
#
#
# Indices 1 2 3 4 5 6 
#
# 1 0.021518 -0.002403 -0.000143 0.000000 0.000000 0.000000
# 2 -0.002403 0.008148 -0.000767 0.000000 0.000000 0.000000
# 3 -0.000143 -0.000767 0.005969 0.000000 0.000000 0.000000
# 4 0.000000 0.000000 0.000000 0.037548 0.000000 0.000000
# 5 0.000000 0.000000 0.000000 0.000000 -0.199701 0.000000
# 6 0.000000 0.000000 0.000000 0.000000 0.000000 0.033001
#
#
# Mechanical properties :
#
#
# Convention : Reuss Voigt Hill
#
# Bulk Modulus (GPa) = 34.47314 46.13548 40.30431
# Shear Modulus (GPa) = -64.74858 31.19328 -16.77765
#
# Velocity S-wave (km/s) = -5.36879 3.72642 -2.73292
# Velocity P-wave (km/s) = 4.80475 6.24924 2.82554
#
# Compressibility (1/GPa) = 0.02900809
#
# Stress axis : x y z
#
# Youngs Moduli (GPa) = 46.47165 122.73693 167.54103
#
# Poissons Ratio (x) = 0.29488 0.02402
# Poissons Ratio (y) = 0.11165 0.12857
# Poissons Ratio (z) = 0.00666 0.09419
#
# Static dielectric constant tensor:
#      x y z
#    x 1.880810 0.000000 0.000000 
#    y 0.000000 1.832490 0.000000 
#    z 0.000000 0.000000 1.892480 
# 
# From -- ./inp_files/22169.got.cif
#   From: 2010.05.17/outbox.cif.g08.bks.cpg/sg56_12_cif.got.tgz:22169.got - 2010.06.03 13:42:01.
