data_PCOD9430661
_publ_section_title
;
Structure prediction by ZEFSAII (Michael W. Deem and Ramdas Pophale) SiO2 
 PCOD9430661
Probable space group: P C C N
;
_chemical_formula_sum "Si O2"
_cell_formula_units_Z 44
_cell_length_a 16.583251
_cell_length_b 16.580118
_cell_length_c 8.983843
_cell_angle_alpha 90.000000
_cell_angle_beta 90.000000
_cell_angle_gamma 90.000000
_cell_volume 2470.127922
_symmetry_space_group_name_H-M "P C C N"
_symmetry_group_IT_number 56
_symmetry_cell_setting 'orthorhombic'
loop_
_space_group_symop_operation_xyz
x,y,z
1/2-x,1/2-y,z
1/2+x,-y,1/2-z
-x,1/2+y,1/2-z
-x,-y,-z
1/2+x,1/2+y,-z
1/2-x,y,1/2+z
x,1/2-y,1/2+z
loop_
_atom_site_type_symbol
_atom_site_label
_atom_site_fract_x
_atom_site_fract_y
_atom_site_fract_z
Si Si1 0.269636 0.500765 0.284816
Si Si2 0.817292 0.107769 0.459841
Si Si3 0.131643 0.032814 0.007802
Si Si4 0.082530 0.775641 0.710559
Si Si5 0.969484 0.367298 0.497408
Si Si6 0.750000 0.250000 0.127987
O O1 0.325796 0.544222 0.407192
O O2 0.324217 0.454102 0.166182
O O3 0.199780 0.458313 0.380910
O O4 0.221651 0.565370 0.182833
O O5 0.896372 0.156687 0.413300
O O6 0.754053 0.172338 0.523766
O O7 0.095599 0.940958 0.005614
O O8 0.056348 0.091041 0.984997
O O9 0.045046 0.697564 0.633179
O O10 0.169754 0.750860 0.775672
O O11 0.037861 0.818505 0.847325
#
# Coordination Sequence:
#
# PCOD9430661 Si02
#       6
#     8   8   8   8   8   4
#     4  10  20  36  59  82 114 156 203 234 275 350
#     4  11  19  28  51  88 113 150 184 233 283 346
#     4  10  22  42  59  85 117 163 195 240 292 346
#     4  12  22  33  54  89 122 157 187 232 299 355
#     4  11  24  38  57  87 132 151 185 244 305 353
#     4  12  20  26  52  84 128 146 182 222 284 374
#
# _framework density 17.812843000000001
#
# number of rings (size 3 to 8) (size 9 to 14) (size 15 to 20)
#    0.000    1.091    5.455    2.727    2.545    0.000 
#    0.000    4.545    0.000    3.273    0.000    0.000 
#    0.000    0.000    0.000    0.000    0.000    0.000 
#
# Total GULP energy -245624.972742 kJ/mol
# GULP energy per Si atom -5582.385744 kJ/mol
# Density = 1.777230 g / cm^3
# Si number density = 17.812843 Si / 1000 Ang^3
#
#
#
# Elastic Constant Matrix: (Units=GPa)
#
#
# Indices 1 2 3 4 5 6 
#
# 1 89.5290 42.5113 48.2138 0.0000 0.0000 0.0000
# 2 42.5113 61.4916 39.5023 0.0000 0.0000 0.0000
# 3 48.2138 39.5023 123.1980 0.0000 0.0000 0.0000
# 4 0.0000 0.0000 0.0000 13.1293 0.0000 0.0000
# 5 0.0000 0.0000 0.0000 0.0000 21.9370 0.0000
# 6 0.0000 0.0000 0.0000 0.0000 0.0000 36.1378
#
#
#
# Elastic Compliance Matrix: (Units=1/GPa)
#
#
# Indices 1 2 3 4 5 6 
#
# 1 0.017962 -0.009952 -0.003839 0.000000 0.000000 0.000000
# 2 -0.009952 0.025995 -0.004440 0.000000 0.000000 0.000000
# 3 -0.003839 -0.004440 0.011043 0.000000 0.000000 0.000000
# 4 0.000000 0.000000 0.000000 0.076166 0.000000 0.000000
# 5 0.000000 0.000000 0.000000 0.000000 0.045585 0.000000
# 6 0.000000 0.000000 0.000000 0.000000 0.000000 0.027672
#
#
# Mechanical properties :
#
#
# Convention : Reuss Voigt Hill
#
# Bulk Modulus (GPa) = 53.94188 59.40818 56.67503
# Shear Modulus (GPa) = 20.23765 23.84023 22.03894
#
# Velocity S-wave (km/s) = 3.37431 3.66235 3.52127
# Velocity P-wave (km/s) = 6.74756 7.16292 6.95834
#
# Compressibility (1/GPa) = 0.01853847
#
# Stress axis : x y z
#
# Youngs Moduli (GPa) = 55.67210 38.46883 90.55529
#
# Poissons Ratio (x) = 0.38285 0.34760
# Poissons Ratio (y) = 0.55405 0.40209
# Poissons Ratio (z) = 0.21370 0.17081
#
# Static dielectric constant tensor:
#      x y z
#    x 1.601280 0.000000 0.000000 
#    y 0.000000 1.627870 0.000000 
#    z 0.000000 0.000000 1.659710 
# 
# From -- ./inp_files/3323.got.cif
#   From: 2010.05.17/outbox.cif.g08.bks.cpg/sg56_2_cif.got.tgz:3323.got - 2010.06.03 13:42:01.
