data_PCOD9430431
_publ_section_title
;
Structure prediction by ZEFSAII (Michael W. Deem and Ramdas Pophale) SiO2 
 PCOD9430431
Probable space group: P C C N
;
_chemical_formula_sum "Si O2"
_cell_formula_units_Z 56
_cell_length_a 14.082245
_cell_length_b 13.817790
_cell_length_c 12.138345
_cell_angle_alpha 90.000000
_cell_angle_beta 90.000000
_cell_angle_gamma 90.000000
_cell_volume 2361.945981
_symmetry_space_group_name_H-M "P C C N"
_symmetry_group_IT_number 56
_symmetry_cell_setting 'orthorhombic'
loop_
_space_group_symop_operation_xyz
x,y,z
1/2-x,1/2-y,z
1/2+x,-y,1/2-z
-x,1/2+y,1/2-z
-x,-y,-z
1/2+x,1/2+y,-z
1/2-x,y,1/2+z
x,1/2-y,1/2+z
loop_
_atom_site_type_symbol
_atom_site_label
_atom_site_fract_x
_atom_site_fract_y
_atom_site_fract_z
Si Si1 0.814899 0.555531 0.719773
Si Si2 0.501135 0.473858 0.630646
Si Si3 0.904780 0.905769 0.980443
Si Si4 0.119275 0.889830 0.058406
Si Si5 0.959431 0.278491 0.242343
Si Si6 0.695879 0.154598 0.660696
Si Si7 0.881402 0.649064 0.254473
O O1 0.897016 0.541486 0.812068
O O2 0.861577 0.579839 0.600901
O O3 0.772839 0.446752 0.708888
O O4 0.728711 0.629518 0.732618
O O5 0.500000 0.500000 0.500000
O O6 0.542684 0.365714 0.653841
O O7 0.560096 0.557804 0.697361
O O8 0.885116 0.827835 0.886955
O O9 0.864268 0.998819 0.912823
O O10 0.017045 0.900955 0.998773
O O11 0.100719 0.818927 0.156594
O O12 0.195342 0.855591 0.970802
O O13 0.910363 0.181485 0.198469
O O14 0.062088 0.244224 0.287448
O O15 0.750000 0.250000 0.693465
#
# Coordination Sequence:
#
# PCOD9430431 Si02
#       7
#     8   8   8   8   8   8   8
#     4  11  25  48  74 106 149 201 246 310 382 452
#     4  12  27  48  72 111 158 189 254 332 383 444
#     4  10  19  45  73  92 137 194 241 287 367 454
#     4  10  20  41  70  93 133 190 234 295 364 439
#     4  12  24  44  74 104 145 199 248 310 387 453
#     4  11  24  42  68 110 143 184 256 305 375 449
#     4  12  25  45  75 109 147 202 251 309 385 458
#
# _framework density 23.709264000000001
#
# number of rings (size 3 to 8) (size 9 to 14) (size 15 to 20)
#    0.000    0.857    5.714    1.714    4.000    1.143 
#    2.571    0.000    3.143    0.000    0.000    0.000 
#    0.000    0.000    0.000    0.000    0.000    0.000 
#
# Total GULP energy -312212.018748 kJ/mol
# GULP energy per Si atom -5575.214620 kJ/mol
# Density = 2.365530 g / cm^3
# Si number density = 23.709264 Si / 1000 Ang^3
#
#
#
# Elastic Constant Matrix: (Units=GPa)
#
#
# Indices 1 2 3 4 5 6 
#
# 1 79.1319 3.6488 31.0810 0.0000 0.0000 0.0000
# 2 3.6488 74.2847 21.3848 0.0000 0.0000 0.0000
# 3 31.0810 21.3848 130.3406 0.0000 0.0000 0.0000
# 4 0.0000 0.0000 0.0000 31.9304 0.0000 0.0000
# 5 0.0000 0.0000 0.0000 0.0000 25.9024 0.0000
# 6 0.0000 0.0000 0.0000 0.0000 0.0000 44.8682
#
#
#
# Elastic Compliance Matrix: (Units=1/GPa)
#
#
# Indices 1 2 3 4 5 6 
#
# 1 0.013949 0.000286 -0.003373 0.000000 0.000000 0.000000
# 2 0.000286 0.014135 -0.002387 0.000000 0.000000 0.000000
# 3 -0.003373 -0.002387 0.008868 0.000000 0.000000 0.000000
# 4 0.000000 0.000000 0.000000 0.031318 0.000000 0.000000
# 5 0.000000 0.000000 0.000000 0.000000 0.038606 0.000000
# 6 0.000000 0.000000 0.000000 0.000000 0.000000 0.022288
#
#
# Mechanical properties :
#
#
# Convention : Reuss Voigt Hill
#
# Bulk Modulus (GPa) = 38.45716 43.99849 41.22783
# Shear Modulus (GPa) = 33.60650 35.71637 34.66143
#
# Velocity S-wave (km/s) = 3.76898 3.88549 3.82768
# Velocity P-wave (km/s) = 5.93260 6.22311 6.07959
#
# Compressibility (1/GPa) = 0.02600296
#
# Stress axis : x y z
#
# Youngs Moduli (GPa) = 71.69057 70.74674 112.76190
#
# Poissons Ratio (x) = -0.02023 0.38036
# Poissons Ratio (y) = -0.02050 0.26919
# Poissons Ratio (z) = 0.24182 0.16889
#
# Static dielectric constant tensor:
#      x y z
#    x 2.017350 0.000000 0.000000 
#    y 0.000000 2.021380 0.000000 
#    z 0.000000 0.000000 1.882990 
# 
# From -- ./inp_files/7903.got.cif
#   From: 2010.05.17/outbox.cif.g08.bks.cpg/sg56_4_cif.got.tgz:7903.got - 2010.06.03 13:42:01.
