data_PCOD9430217
_publ_section_title
;
Structure prediction by ZEFSAII (Michael W. Deem and Ramdas Pophale) SiO2 
 PCOD9430217
Probable space group: P C C N
;
_chemical_formula_sum "Si O2"
_cell_formula_units_Z 52
_cell_length_a 12.981406
_cell_length_b 21.080395
_cell_length_c 8.899429
_cell_angle_alpha 90.000000
_cell_angle_beta 90.000000
_cell_angle_gamma 90.000000
_cell_volume 2435.356923
_symmetry_space_group_name_H-M "P C C N"
_symmetry_group_IT_number 56
_symmetry_cell_setting 'orthorhombic'
loop_
_space_group_symop_operation_xyz
x,y,z
1/2-x,1/2-y,z
1/2+x,-y,1/2-z
-x,1/2+y,1/2-z
-x,-y,-z
1/2+x,1/2+y,-z
1/2-x,y,1/2+z
x,1/2-y,1/2+z
loop_
_atom_site_type_symbol
_atom_site_label
_atom_site_fract_x
_atom_site_fract_y
_atom_site_fract_z
Si Si1 0.438572 0.214349 0.297567
Si Si2 0.767831 0.985095 0.814397
Si Si3 0.628388 0.185860 0.096812
Si Si4 0.333516 0.196709 0.992436
Si Si5 0.168275 0.400862 0.425403
Si Si6 0.604363 0.459907 0.538428
Si Si7 0.750000 0.250000 0.834279
O O1 0.538964 0.216295 0.196797
O O2 0.353716 0.202544 0.167991
O O3 0.425817 0.279102 0.389403
O O4 0.418854 0.153184 0.405020
O O5 0.838747 0.944090 0.927688
O O6 0.685441 0.942404 0.722160
O O7 0.843163 0.016835 0.693760
O O8 0.694236 0.029200 0.914923
O O9 0.590058 0.115502 0.056339
O O10 0.720616 0.192645 0.220172
O O11 0.663851 0.224280 0.950263
O O12 0.250000 0.250000 0.955637
O O13 0.280399 0.132078 0.948169
O O14 0.500000 0.500000 0.500000
#
# Coordination Sequence:
#
# PCOD9430217 Si02
#       7
#     8   8   8   8   8   8   4
#     4  11  21  34  56  92 122 166 215 260 329 400
#     4  10  22  40  62  94 129 178 220 275 346 389
#     4  11  23  44  67  92 127 166 230 283 339 401
#     4  10  20  32  53  85 129 168 195 249 321 399
#     4  10  19  36  58  86 132 166 207 257 329 416
#     4  11  24  44  70 100 135 182 235 290 347 419
#     4  10  24  46  68  94 122 180 222 294 354 386
#
# _framework density 21.352105000000002
#
# number of rings (size 3 to 8) (size 9 to 14) (size 15 to 20)
#    0.000    1.538    1.538    4.154    4.308    0.000 
#    0.000   10.000    0.000    0.000    0.000    0.000 
#    0.000    0.000    0.000    0.000    0.000    0.000 
#
# Total GULP energy -289955.507378 kJ/mol
# GULP energy per Si atom -5576.067450 kJ/mol
# Density = 2.130351 g / cm^3
# Si number density = 21.352105 Si / 1000 Ang^3
#
#
#
# Elastic Constant Matrix: (Units=GPa)
#
#
# Indices 1 2 3 4 5 6 
#
# 1 63.6383 9.0409 26.3336 0.0000 0.0000 0.0000
# 2 9.0409 71.7045 35.9409 0.0000 0.0000 0.0000
# 3 26.3336 35.9409 130.1096 0.0000 0.0000 0.0000
# 4 0.0000 0.0000 0.0000 26.7904 0.0000 0.0000
# 5 0.0000 0.0000 0.0000 0.0000 37.9238 0.0000
# 6 0.0000 0.0000 0.0000 0.0000 0.0000 26.9481
#
#
#
# Elastic Compliance Matrix: (Units=1/GPa)
#
#
# Indices 1 2 3 4 5 6 
#
# 1 0.017165 -0.000491 -0.003339 0.000000 0.000000 0.000000
# 2 -0.000491 0.016201 -0.004376 0.000000 0.000000 0.000000
# 3 -0.003339 -0.004376 0.009570 0.000000 0.000000 0.000000
# 4 0.000000 0.000000 0.000000 0.037327 0.000000 0.000000
# 5 0.000000 0.000000 0.000000 0.000000 0.026369 0.000000
# 6 0.000000 0.000000 0.000000 0.000000 0.000000 0.037108
#
#
# Mechanical properties :
#
#
# Convention : Reuss Voigt Hill
#
# Bulk Modulus (GPa) = 37.69900 45.34258 41.52079
# Shear Modulus (GPa) = 29.58693 31.27493 30.43093
#
# Velocity S-wave (km/s) = 3.72649 3.83132 3.77927
# Velocity P-wave (km/s) = 6.01746 6.39170 6.20740
#
# Compressibility (1/GPa) = 0.02652591
#
# Stress axis : x y z
#
# Youngs Moduli (GPa) = 58.25793 61.72281 104.48926
#
# Poissons Ratio (x) = 0.03030 0.34884
# Poissons Ratio (y) = 0.02860 0.45725
# Poissons Ratio (z) = 0.19450 0.27010
#
# Static dielectric constant tensor:
#      x y z
#    x 1.930370 0.000000 0.000000 
#    y 0.000000 1.811100 0.000000 
#    z 0.000000 0.000000 1.767840 
# 
# From -- ./inp_files/3530.got.cif
#   From: 2010.05.17/outbox.cif.g08.bks.cpg/sg56_2_cif.got.tgz:3530.got - 2010.06.03 13:42:01.
