data_PCOD9430085
_publ_section_title
;
Structure prediction by ZEFSAII (Michael W. Deem and Ramdas Pophale) SiO2 
 PCOD9430085
Probable space group: P C C N
;
_chemical_formula_sum "Si O2"
_cell_formula_units_Z 40
_cell_length_a 5.048211
_cell_length_b 17.294507
_cell_length_c 23.434355
_cell_angle_alpha 90.000000
_cell_angle_beta 90.000000
_cell_angle_gamma 90.000000
_cell_volume 2045.967308
_symmetry_space_group_name_H-M "P C C N"
_symmetry_group_IT_number 56
_symmetry_cell_setting 'orthorhombic'
loop_
_space_group_symop_operation_xyz
x,y,z
1/2-x,1/2-y,z
1/2+x,-y,1/2-z
-x,1/2+y,1/2-z
-x,-y,-z
1/2+x,1/2+y,-z
1/2-x,y,1/2+z
x,1/2-y,1/2+z
loop_
_atom_site_type_symbol
_atom_site_label
_atom_site_fract_x
_atom_site_fract_y
_atom_site_fract_z
Si Si1 0.772438 0.933669 0.445776
Si Si2 0.493954 0.701785 0.875790
Si Si3 0.833331 0.921324 0.196365
Si Si4 0.836143 0.397408 0.730270
Si Si5 0.262666 0.035808 0.426825
O O1 0.638083 0.859650 0.417198
O O2 0.814301 0.923812 0.513567
O O3 0.553560 0.000214 0.435904
O O4 0.046040 0.966607 0.419626
O O5 0.750000 0.750000 0.854920
O O6 0.350547 0.658786 0.823337
O O7 0.250000 0.750000 0.903354
O O8 0.599694 0.887361 0.233622
O O9 0.780335 0.912293 0.129385
O O10 0.098657 0.889898 0.225024
O O11 0.833533 0.014594 0.206339
#
# Coordination Sequence:
#
# PCOD9430085 Si02
#       5
#     8   8   8   8   8
#     4  10  21  35  56  87 115 149 194 231 304 344
#     4  12  24  38  58  79 122 162 195 235 274 366
#     4  10  19  33  58  82 116 140 178 257 292 338
#     4  10  21  33  53  85 111 147 193 227 296 340
#     4  10  19  35  60  86 117 141 182 260 298 342
#
# _framework density 19.550653000000001
#
# number of rings (size 3 to 8) (size 9 to 14) (size 15 to 20)
#    0.000    1.600    2.000    3.600    5.600    0.000 
#    0.000    0.000    0.000    7.200    0.000    0.000 
#    0.000    0.000    0.000    0.000    0.000    0.000 
#
# Total GULP energy -223192.006444 kJ/mol
# GULP energy per Si atom -5579.800161 kJ/mol
# Density = 1.950616 g / cm^3
# Si number density = 19.550653 Si / 1000 Ang^3
#
#
#
# Elastic Constant Matrix: (Units=GPa)
#
#
# Indices 1 2 3 4 5 6 
#
# 1 202.0350 9.7742 105.2741 0.0000 0.0000 0.0000
# 2 9.7742 37.1632 26.5314 0.0000 0.0000 0.0000
# 3 105.2741 26.5314 189.8124 0.0000 0.0000 0.0000
# 4 0.0000 0.0000 0.0000 7.0180 0.0000 0.0000
# 5 0.0000 0.0000 0.0000 0.0000 36.2833 0.0000
# 6 0.0000 0.0000 0.0000 0.0000 0.0000 19.1762
#
#
#
# Elastic Compliance Matrix: (Units=1/GPa)
#
#
# Indices 1 2 3 4 5 6 
#
# 1 0.006997 0.001033 -0.004025 0.000000 0.000000 0.000000
# 2 0.001033 0.030044 -0.004773 0.000000 0.000000 0.000000
# 3 -0.004025 -0.004773 0.008168 0.000000 0.000000 0.000000
# 4 0.000000 0.000000 0.000000 0.142492 0.000000 0.000000
# 5 0.000000 0.000000 0.000000 0.000000 0.027561 0.000000
# 6 0.000000 0.000000 0.000000 0.000000 0.000000 0.052148
#
#
# Mechanical properties :
#
#
# Convention : Reuss Voigt Hill
#
# Bulk Modulus (GPa) = 33.69276 79.13001 56.41139
# Shear Modulus (GPa) = 17.07469 31.65756 24.36613
#
# Velocity S-wave (km/s) = 2.95847 4.02837 3.53414
# Velocity P-wave (km/s) = 5.37969 7.88665 6.75056
#
# Compressibility (1/GPa) = 0.02967997
#
# Stress axis : x y z
#
# Youngs Moduli (GPa) = 142.91796 33.28480 122.43069
#
# Poissons Ratio (x) = -0.03439 0.49280
# Poissons Ratio (y) = -0.14768 0.58431
# Poissons Ratio (z) = 0.57527 0.15885
#
# Static dielectric constant tensor:
#      x y z
#    x 1.667610 0.000000 0.000000 
#    y 0.000000 1.723950 0.000000 
#    z 0.000000 0.000000 1.779020 
# 
# From -- ./inp_files/17429.got.cif
#   From: 2010.05.17/outbox.cif.g08.bks.cpg/sg56_9_cif.got.tgz:17429.got - 2010.06.03 13:42:01.
