data_PCOD9430854
_publ_section_title
;
Structure prediction by ZEFSAII (Michael W. Deem and Ramdas Pophale) SiO2 
 PCOD9430854
Probable space group: P C C N
;
_chemical_formula_sum "Si O2"
_cell_formula_units_Z 44
_cell_length_a 14.202090
_cell_length_b 16.821100
_cell_length_c 8.664703
_cell_angle_alpha 90.000000
_cell_angle_beta 90.000000
_cell_angle_gamma 90.000000
_cell_volume 2069.952283
_symmetry_space_group_name_H-M "P C C N"
_symmetry_group_IT_number 56
_symmetry_cell_setting 'orthorhombic'
loop_
_space_group_symop_operation_xyz
x,y,z
1/2-x,1/2-y,z
1/2+x,-y,1/2-z
-x,1/2+y,1/2-z
-x,-y,-z
1/2+x,1/2+y,-z
1/2-x,y,1/2+z
x,1/2-y,1/2+z
loop_
_atom_site_type_symbol
_atom_site_label
_atom_site_fract_x
_atom_site_fract_y
_atom_site_fract_z
Si Si1 0.250000 0.750000 0.468547
Si Si2 0.871739 0.655383 0.703366
Si Si3 0.566626 0.696797 0.873821
Si Si4 0.685863 0.567276 0.704145
Si Si5 0.144639 0.497023 0.122151
Si Si6 0.370742 0.827921 0.227378
O O1 0.289681 0.818898 0.357325
O O2 0.167871 0.781394 0.579231
O O3 0.872779 0.726271 0.826222
O O4 0.930057 0.682610 0.555812
O O5 0.766732 0.630261 0.648160
O O6 0.906568 0.575240 0.788148
O O7 0.610653 0.618919 0.794760
O O8 0.463543 0.708058 0.803764
O O9 0.644477 0.520839 0.558960
O O10 0.746601 0.512077 0.819091
O O11 0.110648 0.582285 0.175298
#
# Coordination Sequence:
#
# PCOD9430854 Si02
#       6
#     4   8   8   8   8   8
#     4  10  24  46  64  88 122 170 210 258 334 362
#     4  10  22  37  59  93 130 170 197 264 315 387
#     4  12  22  38  63  96 126 163 223 252 313 370
#     4  10  20  38  60  91 127 171 200 255 316 390
#     4  10  21  39  61  90 125 172 204 251 329 363
#     4  11  24  43  69  90 122 167 216 271 301 390
#
# _framework density 21.256530000000001
#
# number of rings (size 3 to 8) (size 9 to 14) (size 15 to 20)
#    1.091    0.364    1.818    3.818    0.000    2.909 
#    0.000    3.636    0.000    0.000    0.000    0.000 
#    0.000    0.000    0.000    0.000    0.000    0.000 
#
# Total GULP energy -245668.678434 kJ/mol
# GULP energy per Si atom -5583.379055 kJ/mol
# Density = 2.120815 g / cm^3
# Si number density = 21.256530 Si / 1000 Ang^3
#
#
#
# Elastic Constant Matrix: (Units=GPa)
#
#
# Indices 1 2 3 4 5 6 
#
# 1 33.7249 -14.9729 -12.9191 0.0000 0.0000 0.0000
# 2 -14.9729 55.1247 12.9876 0.0000 0.0000 0.0000
# 3 -12.9191 12.9876 85.2996 0.0000 0.0000 0.0000
# 4 0.0000 0.0000 0.0000 24.8236 0.0000 0.0000
# 5 0.0000 0.0000 0.0000 0.0000 18.6568 0.0000
# 6 0.0000 0.0000 0.0000 0.0000 0.0000 16.3906
#
#
#
# Elastic Compliance Matrix: (Units=1/GPa)
#
#
# Indices 1 2 3 4 5 6 
#
# 1 0.034983 0.008561 0.003995 0.000000 0.000000 0.000000
# 2 0.008561 0.020911 -0.001887 0.000000 0.000000 0.000000
# 3 0.003995 -0.001887 0.012616 0.000000 0.000000 0.000000
# 4 0.000000 0.000000 0.000000 0.040284 0.000000 0.000000
# 5 0.000000 0.000000 0.000000 0.000000 0.053600 0.000000
# 6 0.000000 0.000000 0.000000 0.000000 0.000000 0.061011
#
#
# Mechanical properties :
#
#
# Convention : Reuss Voigt Hill
#
# Bulk Modulus (GPa) = 11.13016 16.03782 13.58399
# Shear Modulus (GPa) = 21.55027 24.57777 23.06402
#
# Velocity S-wave (km/s) = 3.18751 3.40405 3.29756
# Velocity P-wave (km/s) = 4.33525 4.79701 4.57197
#
# Compressibility (1/GPa) = 0.08984597
#
# Stress axis : x y z
#
# Youngs Moduli (GPa) = 28.58549 47.82268 79.26583
#
# Poissons Ratio (x) = -0.40940 -0.31666
# Poissons Ratio (y) = -0.24471 0.14959
# Poissons Ratio (z) = -0.11420 0.09025
#
# Static dielectric constant tensor:
#      x y z
#    x 1.782780 0.000000 0.000000 
#    y 0.000000 1.733140 0.000000 
#    z 0.000000 0.000000 1.735070 
# 
# From -- ./inp_files/3338.got.cif
#   From: 2010.05.17/outbox.cif.g08.bks.cpg/sg56_2_cif.got.tgz:3338.got - 2010.06.03 13:42:01.
