data_PCOD9430990
_publ_section_title
;
Structure prediction by ZEFSAII (Michael W. Deem and Ramdas Pophale) SiO2 
 PCOD9430990
Probable space group: P C C N
;
_chemical_formula_sum "Si O2"
_cell_formula_units_Z 64
_cell_length_a 22.151261
_cell_length_b 9.106985
_cell_length_c 16.529322
_cell_angle_alpha 90.000000
_cell_angle_beta 90.000000
_cell_angle_gamma 90.000000
_cell_volume 3334.479990
_symmetry_space_group_name_H-M "P C C N"
_symmetry_group_IT_number 56
_symmetry_cell_setting 'orthorhombic'
loop_
_space_group_symop_operation_xyz
x,y,z
1/2-x,1/2-y,z
1/2+x,-y,1/2-z
-x,1/2+y,1/2-z
-x,-y,-z
1/2+x,1/2+y,-z
1/2-x,y,1/2+z
x,1/2-y,1/2+z
loop_
_atom_site_type_symbol
_atom_site_label
_atom_site_fract_x
_atom_site_fract_y
_atom_site_fract_z
Si Si1 0.737910 0.916115 0.675118
Si Si2 0.634575 0.120366 0.874667
Si Si3 0.950261 0.109670 0.529787
Si Si4 0.644392 0.413599 0.663255
Si Si5 0.251275 0.082193 0.128232
Si Si6 0.373037 0.964079 0.655368
Si Si7 0.616101 0.431412 0.191947
Si Si8 0.499383 0.420854 0.086156
O O1 0.750000 0.750000 0.647774
O O2 0.743234 0.918911 0.773403
O O3 0.788469 0.029417 0.642908
O O4 0.670087 0.967932 0.658932
O O5 0.640984 0.291073 0.852458
O O6 0.610521 0.051658 0.789596
O O7 0.694729 0.027386 0.897499
O O8 0.590541 0.132811 0.950653
O O9 0.905234 0.046678 0.597184
O O10 0.984617 0.251551 0.566058
O O11 0.000000 0.000000 0.500000
O O12 0.628930 0.490127 0.748389
O O13 0.637518 0.237033 0.674006
O O14 0.250000 0.250000 0.099982
O O15 0.184096 0.029911 0.109505
O O16 0.435325 0.031845 0.623778
O O17 0.553722 0.464797 0.146678
O O18 0.500000 0.500000 0.000000
#
# Coordination Sequence:
#
# PCOD9430990 Si02
#       8
#     8   8   8   8   8   8   8   8
#     4   9  17  35  59  90 117 146 200 257 299 348
#     4  10  20  40  60  88 118 161 204 244 304 359
#     4  11  25  40  57  87 128 157 197 252 299 363
#     4   9  20  39  59  87 114 159 201 243 304 354
#     4   9  19  35  61  91 116 150 202 255 297 347
#     4  10  20  39  65  85 118 157 205 246 295 367
#     4   9  20  37  63  86 116 161 203 244 300 368
#     4  11  23  42  60  89 120 158 205 247 300 358
#
# _framework density 19.193398999999999
#
# number of rings (size 3 to 8) (size 9 to 14) (size 15 to 20)
#    0.000    2.250    1.250    0.750    3.500    4.000 
#    2.250    1.875    0.000    0.000    0.000    0.000 
#    0.000    0.000    0.000    0.000    0.000    0.000 
#
# Total GULP energy -356445.080117 kJ/mol
# GULP energy per Si atom -5569.454377 kJ/mol
# Density = 1.914971 g / cm^3
# Si number density = 19.193399 Si / 1000 Ang^3
#
#
#
# Elastic Constant Matrix: (Units=GPa)
#
#
# Indices 1 2 3 4 5 6 
#
# 1 124.5915 59.4063 17.0946 0.0000 0.0000 0.0000
# 2 59.4063 63.0177 14.3472 0.0000 0.0000 0.0000
# 3 17.0946 14.3472 40.2376 0.0000 0.0000 0.0000
# 4 0.0000 0.0000 0.0000 15.8499 0.0000 0.0000
# 5 0.0000 0.0000 0.0000 0.0000 6.2810 0.0000
# 6 0.0000 0.0000 0.0000 0.0000 0.0000 34.9749
#
#
#
# Elastic Compliance Matrix: (Units=1/GPa)
#
#
# Indices 1 2 3 4 5 6 
#
# 1 0.014653 -0.013491 -0.001415 0.000000 0.000000 0.000000
# 2 -0.013491 0.029692 -0.004855 0.000000 0.000000 0.000000
# 3 -0.001415 -0.004855 0.027185 0.000000 0.000000 0.000000
# 4 0.000000 0.000000 0.000000 0.063092 0.000000 0.000000
# 5 0.000000 0.000000 0.000000 0.000000 0.159211 0.000000
# 6 0.000000 0.000000 0.000000 0.000000 0.000000 0.028592
#
#
# Mechanical properties :
#
#
# Convention : Reuss Voigt Hill
#
# Bulk Modulus (GPa) = 31.24321 45.50478 38.37399
# Shear Modulus (GPa) = 13.41863 20.55441 16.98652
#
# Velocity S-wave (km/s) = 2.64697 3.27603 2.97815
# Velocity P-wave (km/s) = 5.06511 6.17008 5.64470
#
# Compressibility (1/GPa) = 0.03200696
#
# Stress axis : x y z
#
# Youngs Moduli (GPa) = 68.24499 33.67902 36.78546
#
# Poissons Ratio (x) = 0.45437 0.05204
# Poissons Ratio (y) = 0.92071 0.17861
# Poissons Ratio (z) = 0.09655 0.16352
#
# Static dielectric constant tensor:
#      x y z
#    x 1.677900 0.000000 0.000000 
#    y 0.000000 1.770460 0.000000 
#    z 0.000000 0.000000 1.527300 
# 
# From -- ./inp_files/16870.got.cif
#   From: 2010.05.17/outbox.cif.g08.bks.cpg/sg56_9_cif.got.tgz:16870.got - 2010.06.03 13:42:01.
