data_PCOD9430240
_publ_section_title
;
Structure prediction by ZEFSAII (Michael W. Deem and Ramdas Pophale) SiO2 
 PCOD9430240
Probable space group: P C C N
;
_chemical_formula_sum "Si O2"
_cell_formula_units_Z 48
_cell_length_a 17.300025
_cell_length_b 8.487472
_cell_length_c 14.142882
_cell_angle_alpha 90.000000
_cell_angle_beta 90.000000
_cell_angle_gamma 90.000000
_cell_volume 2076.648550
_symmetry_space_group_name_H-M "P C C N"
_symmetry_group_IT_number 56
_symmetry_cell_setting 'orthorhombic'
loop_
_space_group_symop_operation_xyz
x,y,z
1/2-x,1/2-y,z
1/2+x,-y,1/2-z
-x,1/2+y,1/2-z
-x,-y,-z
1/2+x,1/2+y,-z
1/2-x,y,1/2+z
x,1/2-y,1/2+z
loop_
_atom_site_type_symbol
_atom_site_label
_atom_site_fract_x
_atom_site_fract_y
_atom_site_fract_z
Si Si1 0.320188 0.146244 0.729463
Si Si2 0.462944 0.027686 0.656973
Si Si3 0.002814 0.887602 0.361177
Si Si4 0.877279 0.537136 0.992454
Si Si5 0.898230 0.653286 0.607897
Si Si6 0.756532 0.066188 0.105893
O O1 0.250000 0.250000 0.689858
O O2 0.371183 0.055347 0.652380
O O3 0.376137 0.261930 0.792134
O O4 0.284118 0.030002 0.808319
O O5 0.499351 0.199859 0.644102
O O6 0.474140 0.965905 0.763488
O O7 0.513222 0.901712 0.599394
O O8 0.919411 0.956876 0.392466
O O9 0.065504 0.939317 0.438888
O O10 0.879436 0.715598 0.030824
O O11 0.792537 0.471901 0.011281
O O12 0.841982 0.504423 0.598864
O O13 0.750000 0.250000 0.124949
#
# Coordination Sequence:
#
# PCOD9430240 Si02
#       6
#     8   8   8   8   8   8
#     4   9  19  35  55  90 128 167 211 266 322 383
#     4  12  20  38  62  98 123 167 213 280 317 392
#     4  11  22  36  64  87 128 157 215 261 327 381
#     4  10  21  41  57  91 124 173 207 269 319 393
#     4  10  20  34  63  87 125 167 219 255 326 382
#     4  10  19  36  62  88 120 173 221 256 320 395
#
# _framework density 23.114166000000001
#
# number of rings (size 3 to 8) (size 9 to 14) (size 15 to 20)
#    0.000    1.667    5.000    2.500    0.000    0.667 
#    0.000    3.333    0.000    3.000    0.000    0.000 
#    0.000    0.000    0.000    0.000    0.000    0.000 
#
# Total GULP energy -268400.488230 kJ/mol
# GULP energy per Si atom -5591.676838 kJ/mol
# Density = 2.306156 g / cm^3
# Si number density = 23.114166 Si / 1000 Ang^3
#
#
#
# Elastic Constant Matrix: (Units=GPa)
#
#
# Indices 1 2 3 4 5 6 
#
# 1 114.8377 20.3789 0.2221 0.0000 0.0000 0.0000
# 2 20.3789 95.8698 3.6517 0.0000 0.0000 0.0000
# 3 0.2221 3.6517 25.7194 0.0000 0.0000 0.0000
# 4 0.0000 0.0000 0.0000 10.6759 0.0000 0.0000
# 5 0.0000 0.0000 0.0000 0.0000 7.1054 0.0000
# 6 0.0000 0.0000 0.0000 0.0000 0.0000 46.7867
#
#
#
# Elastic Compliance Matrix: (Units=1/GPa)
#
#
# Indices 1 2 3 4 5 6 
#
# 1 0.009050 -0.001931 0.000196 0.000000 0.000000 0.000000
# 2 -0.001931 0.010900 -0.001531 0.000000 0.000000 0.000000
# 3 0.000196 -0.001531 0.039097 0.000000 0.000000 0.000000
# 4 0.000000 0.000000 0.000000 0.093669 0.000000 0.000000
# 5 0.000000 0.000000 0.000000 0.000000 0.140738 0.000000
# 6 0.000000 0.000000 0.000000 0.000000 0.000000 0.021374
#
#
# Mechanical properties :
#
#
# Convention : Reuss Voigt Hill
#
# Bulk Modulus (GPa) = 19.04231 31.65913 25.35072
# Shear Modulus (GPa) = 14.75516 27.05854 20.90685
#
# Velocity S-wave (km/s) = 2.52932 3.42518 3.01076
# Velocity P-wave (km/s) = 4.09710 5.41933 4.80392
#
# Compressibility (1/GPa) = 0.05251463
#
# Stress axis : x y z
#
# Youngs Moduli (GPa) = 110.49373 91.74608 25.57750
#
# Poissons Ratio (x) = 0.17719 -0.00501
# Poissons Ratio (y) = 0.21339 0.03916
# Poissons Ratio (z) = -0.02166 0.14045
#
# Static dielectric constant tensor:
#      x y z
#    x 1.922340 0.000000 0.000000 
#    y 0.000000 1.819970 0.000000 
#    z 0.000000 0.000000 1.912720 
# 
# From -- ./inp_files/16543.got.cif
#   From: 2010.05.17/outbox.cif.g08.bks.cpg/sg56_9_cif.got.tgz:16543.got - 2010.06.03 13:42:01.
