data_PCOD9430760
_publ_section_title
;
Structure prediction by ZEFSAII (Michael W. Deem and Ramdas Pophale) SiO2 
 PCOD9430760
Probable space group: P C C N
;
_chemical_formula_sum "Si O2"
_cell_formula_units_Z 64
_cell_length_a 16.666864
_cell_length_b 8.826304
_cell_length_c 21.646217
_cell_angle_alpha 90.000000
_cell_angle_beta 90.000000
_cell_angle_gamma 90.000000
_cell_volume 3184.305897
_symmetry_space_group_name_H-M "P C C N"
_symmetry_group_IT_number 56
_symmetry_cell_setting 'orthorhombic'
loop_
_space_group_symop_operation_xyz
x,y,z
1/2-x,1/2-y,z
1/2+x,-y,1/2-z
-x,1/2+y,1/2-z
-x,-y,-z
1/2+x,1/2+y,-z
1/2-x,y,1/2+z
x,1/2-y,1/2+z
loop_
_atom_site_type_symbol
_atom_site_label
_atom_site_fract_x
_atom_site_fract_y
_atom_site_fract_z
Si Si1 0.657258 0.308748 0.740434
Si Si2 0.692936 0.875691 0.294584
Si Si3 0.448684 0.667410 0.648765
Si Si4 0.059354 0.596358 0.543732
Si Si5 0.823031 0.168425 0.524642
Si Si6 0.062874 0.896829 0.374549
Si Si7 0.697291 0.522788 0.409879
Si Si8 0.906466 0.712245 0.397453
O O1 0.750000 0.250000 0.743892
O O2 0.666172 0.486935 0.753666
O O3 0.595754 0.237987 0.791221
O O4 0.613590 0.299948 0.674676
O O5 0.750000 0.750000 0.264598
O O6 0.617908 0.790874 0.325350
O O7 0.743122 0.944935 0.353092
O O8 0.474147 0.796187 0.598963
O O9 0.520064 0.544556 0.655100
O O10 0.376743 0.571973 0.617940
O O11 0.117409 0.705806 0.504752
O O12 0.100485 0.457174 0.578886
O O13 0.000000 0.500000 0.500000
O O14 0.750000 0.250000 0.559380
O O15 0.877208 0.066288 0.569222
O O16 0.780779 0.074115 0.469569
O O17 0.992282 0.790792 0.402090
O O18 0.659336 0.682493 0.429836
#
# Coordination Sequence:
#
# PCOD9430760 Si02
#       8
#     8   8   8   8   8   8   8   8
#     4  12  24  42  67  89 125 168 228 265 310 377
#     4  10  20  38  63  94 120 149 208 274 317 353
#     4  10  23  39  64  93 123 164 215 261 311 375
#     4  11  21  36  66  98 124 158 205 261 313 377
#     4  11  23  39  64  90 134 168 208 252 324 389
#     4  11  26  42  58  92 129 177 205 255 326 383
#     4   9  20  36  64  92 122 156 200 258 320 370
#     4  10  20  37  60  94 125 154 203 262 316 371
#
# _framework density 20.098571
#
# number of rings (size 3 to 8) (size 9 to 14) (size 15 to 20)
#    0.000    1.500    3.750    1.125    5.250    1.500 
#    0.000    1.250    0.000    0.000    0.000    0.000 
#    0.000    0.000    0.000    0.000    0.000    0.000 
#
# Total GULP energy -356567.563869 kJ/mol
# GULP energy per Si atom -5571.368185 kJ/mol
# Density = 2.005283 g / cm^3
# Si number density = 20.098571 Si / 1000 Ang^3
#
#
#
# Elastic Constant Matrix: (Units=GPa)
#
#
# Indices 1 2 3 4 5 6 
#
# 1 75.8918 11.6281 28.4072 0.0000 0.0000 0.0000
# 2 11.6281 85.3493 9.9831 0.0000 0.0000 0.0000
# 3 28.4072 9.9831 47.3391 0.0000 0.0000 0.0000
# 4 0.0000 0.0000 0.0000 18.2121 0.0000 0.0000
# 5 0.0000 0.0000 0.0000 0.0000 16.7607 0.0000
# 6 0.0000 0.0000 0.0000 0.0000 0.0000 27.7230
#
#
#
# Elastic Compliance Matrix: (Units=1/GPa)
#
#
# Indices 1 2 3 4 5 6 
#
# 1 0.017105 -0.001158 -0.010020 0.000000 0.000000 0.000000
# 2 -0.001158 0.012091 -0.001855 0.000000 0.000000 0.000000
# 3 -0.010020 -0.001855 0.027528 0.000000 0.000000 0.000000
# 4 0.000000 0.000000 0.000000 0.054909 0.000000 0.000000
# 5 0.000000 0.000000 0.000000 0.000000 0.059663 0.000000
# 6 0.000000 0.000000 0.000000 0.000000 0.000000 0.036071
#
#
# Mechanical properties :
#
#
# Convention : Reuss Voigt Hill
#
# Bulk Modulus (GPa) = 32.61787 34.29078 33.45432
# Shear Modulus (GPa) = 20.52101 23.10994 21.81548
#
# Velocity S-wave (km/s) = 3.19880 3.39459 3.29815
# Velocity P-wave (km/s) = 5.46876 5.69760 5.58435
#
# Compressibility (1/GPa) = 0.03065804
#
# Stress axis : x y z
#
# Youngs Moduli (GPa) = 58.46340 82.70391 36.32654
#
# Poissons Ratio (x) = 0.09580 0.36399
# Poissons Ratio (y) = 0.06772 0.06738
# Poissons Ratio (z) = 0.58580 0.15340
#
# Static dielectric constant tensor:
#      x y z
#    x 1.764660 0.000000 0.000000 
#    y 0.000000 1.747580 0.000000 
#    z 0.000000 0.000000 1.736410 
# 
# From -- ./inp_files/19344.got.cif
#   From: 2010.05.17/outbox.cif.g08.bks.cpg/sg56_10_cif.got.tgz:19344.got - 2010.06.03 13:42:01.
