data_PCOD9430514
_publ_section_title
;
Structure prediction by ZEFSAII (Michael W. Deem and Ramdas Pophale) SiO2 
 PCOD9430514
Probable space group: P C C N
;
_chemical_formula_sum "Si O2"
_cell_formula_units_Z 40
_cell_length_a 13.284677
_cell_length_b 7.814278
_cell_length_c 18.878858
_cell_angle_alpha 90.000000
_cell_angle_beta 90.000000
_cell_angle_gamma 90.000000
_cell_volume 1959.817255
_symmetry_space_group_name_H-M "P C C N"
_symmetry_group_IT_number 56
_symmetry_cell_setting 'orthorhombic'
loop_
_space_group_symop_operation_xyz
x,y,z
1/2-x,1/2-y,z
1/2+x,-y,1/2-z
-x,1/2+y,1/2-z
-x,-y,-z
1/2+x,1/2+y,-z
1/2-x,y,1/2+z
x,1/2-y,1/2+z
loop_
_atom_site_type_symbol
_atom_site_label
_atom_site_fract_x
_atom_site_fract_y
_atom_site_fract_z
Si Si1 0.750000 0.750000 0.830506
Si Si2 0.075053 0.205858 0.069474
Si Si3 0.250000 0.750000 0.404301
Si Si4 0.385402 0.042428 0.432569
Si Si5 0.059496 0.586047 0.829818
Si Si6 0.905217 0.698113 0.717065
O O1 0.829785 0.841435 0.881640
O O2 0.821763 0.652493 0.775949
O O3 0.020523 0.369812 0.106036
O O4 0.110230 0.199315 0.987853
O O5 0.991352 0.058118 0.070281
O O6 0.201045 0.596049 0.449789
O O7 0.339722 0.678381 0.355861
O O8 0.373133 0.098287 0.352315
O O9 0.085407 0.392317 0.810127
O O10 0.009003 0.659800 0.758244
#
# Coordination Sequence:
#
# PCOD9430514 Si02
#       6
#     4   8   4   8   8   8
#     4  10  20  34  56  86 116 144 190 242 294 348
#     4   9  21  40  58  82 119 156 194 247 298 357
#     4  10  20  36  60  86 114 154 200 248 304 364
#     4  10  21  39  60  84 118 156 199 244 298 359
#     4  10  21  37  59  86 118 154 197 246 303 358
#     4  11  21  36  59  87 118 154 197 248 298 361
#
# _framework density 20.410066
#
# number of rings (size 3 to 8) (size 9 to 14) (size 15 to 20)
#    0.000    2.000    0.000    4.800    0.000    4.800 
#    0.000   10.000    0.000    9.600    0.000    0.000 
#    0.000    0.000    0.000    0.000    0.000    0.000 
#
# Total GULP energy -222679.144692 kJ/mol
# GULP energy per Si atom -5566.978617 kJ/mol
# Density = 2.036361 g / cm^3
# Si number density = 20.410066 Si / 1000 Ang^3
#
#
#
# Elastic Constant Matrix: (Units=GPa)
#
#
# Indices 1 2 3 4 5 6 
#
# 1 109.5405 23.8493 41.5484 0.0000 0.0000 0.0000
# 2 23.8493 46.1933 -3.4186 0.0000 0.0000 0.0000
# 3 41.5484 -3.4186 111.3953 0.0000 0.0000 0.0000
# 4 0.0000 0.0000 0.0000 -32.5997 0.0000 0.0000
# 5 0.0000 0.0000 0.0000 0.0000 -1.8147 0.0000
# 6 0.0000 0.0000 0.0000 0.0000 0.0000 8.2701
#
#
#
# Elastic Compliance Matrix: (Units=1/GPa)
#
#
# Indices 1 2 3 4 5 6 
#
# 1 0.012446 -0.006785 -0.004850 0.000000 0.000000 0.000000
# 2 -0.006785 0.025396 0.003310 0.000000 0.000000 0.000000
# 3 -0.004850 0.003310 0.010888 0.000000 0.000000 0.000000
# 4 0.000000 0.000000 0.000000 -0.030675 0.000000 0.000000
# 5 0.000000 0.000000 0.000000 0.000000 -0.551064 0.000000
# 6 0.000000 0.000000 0.000000 0.000000 0.000000 0.120918
#
#
# Mechanical properties :
#
#
# Convention : Reuss Voigt Hill
#
# Bulk Modulus (GPa) = 31.17256 43.45414 37.31335
# Shear Modulus (GPa) = -12.99551 8.44781 -2.27385
#
# Velocity S-wave (km/s) = -2.52607 2.03667 -1.05665
# Velocity P-wave (km/s) = 2.60734 5.18338 4.10279
#
# Compressibility (1/GPa) = 0.03207950
#
# Stress axis : x y z
#
# Youngs Moduli (GPa) = 80.34760 39.37626 91.84683
#
# Poissons Ratio (x) = 0.26716 0.44549
# Poissons Ratio (y) = 0.54513 -0.30401
# Poissons Ratio (z) = 0.38971 -0.13033
#
# Static dielectric constant tensor:
#      x y z
#    x 1.788670 0.000000 0.000000 
#    y 0.000000 1.765970 0.000000 
#    z 0.000000 0.000000 1.803400 
# 
# From -- ./inp_files/16083.got.cif
#   From: 2010.05.17/outbox.cif.g08.bks.cpg/sg56_9_cif.got.tgz:16083.got - 2010.06.03 13:42:01.
