data_PCOD9430022
_publ_section_title
;
Structure prediction by ZEFSAII (Michael W. Deem and Ramdas Pophale) SiO2 
 PCOD9430022
Probable space group: P C C N
;
_chemical_formula_sum "Si O2"
_cell_formula_units_Z 60
_cell_length_a 6.325666
_cell_length_b 30.383640
_cell_length_c 17.221220
_cell_angle_alpha 90.000000
_cell_angle_beta 90.000000
_cell_angle_gamma 90.000000
_cell_volume 3309.862661
_symmetry_space_group_name_H-M "P C C N"
_symmetry_group_IT_number 56
_symmetry_cell_setting 'orthorhombic'
loop_
_space_group_symop_operation_xyz
x,y,z
1/2-x,1/2-y,z
1/2+x,-y,1/2-z
-x,1/2+y,1/2-z
-x,-y,-z
1/2+x,1/2+y,-z
1/2-x,y,1/2+z
x,1/2-y,1/2+z
loop_
_atom_site_type_symbol
_atom_site_label
_atom_site_fract_x
_atom_site_fract_y
_atom_site_fract_z
Si Si1 0.279897 0.955497 0.184404
Si Si2 0.871883 0.369281 0.401634
Si Si3 0.250000 0.750000 0.007194
Si Si4 0.320608 0.399261 0.032407
Si Si5 0.374597 0.210555 0.388461
Si Si6 0.505642 0.670837 0.506150
Si Si7 0.023234 0.537887 0.346986
Si Si8 0.644118 0.979193 0.066222
O O1 0.160930 0.914530 0.144451
O O2 0.345071 0.946537 0.272667
O O3 0.493877 0.964941 0.136556
O O4 0.138190 0.999438 0.179041
O O5 0.643826 0.350935 0.428033
O O6 0.990832 0.376408 0.484163
O O7 0.014783 0.333549 0.354818
O O8 0.363020 0.791354 0.965560
O O9 0.431434 0.730716 0.062852
O O10 0.122649 0.366450 0.043916
O O11 0.402416 0.423031 0.109377
O O12 0.248455 0.436999 0.972703
O O13 0.250000 0.250000 0.343627
O O14 0.197565 0.193966 0.448527
O O15 0.182676 0.514233 0.406679
O O16 0.500000 0.000000 0.000000
#
# Coordination Sequence:
#
# PCOD9430022 Si02
#       8
#     8   8   4   8   8   8   8   8
#     4  12  23  38  53  76 110 159 194 244 291 336
#     4  10  19  32  53  79 110 146 188 230 286 345
#     4   8  14  28  48  78 116 140 164 218 296 344
#     4  11  21  33  54  79 105 148 198 237 282 341
#     4   8  15  28  49  79 114 140 168 224 289 336
#     4   9  17  29  50  79 112 142 173 230 284 341
#     4  12  25  38  52  76 112 157 201 243 291 337
#     4  12  22  36  58  75 103 153 198 240 288 337
#
# _framework density 18.127641000000001
#
# number of rings (size 3 to 8) (size 9 to 14) (size 15 to 20)
#    0.000    1.600    5.333    1.200    0.000    0.000 
#    0.000    0.000    0.000    0.000    0.000    0.000 
#    0.000  157.867    0.000    0.000    0.000    0.000 
#
# Total GULP energy -334238.683169 kJ/mol
# GULP energy per Si atom -5570.644719 kJ/mol
# Density = 1.808638 g / cm^3
# Si number density = 18.127641 Si / 1000 Ang^3
#
#
#
# Elastic Constant Matrix: (Units=GPa)
#
#
# Indices 1 2 3 4 5 6 
#
# 1 94.3922 38.3936 23.2760 0.0000 0.0000 0.0000
# 2 38.3936 101.7596 29.0744 0.0000 0.0000 0.0000
# 3 23.2760 29.0744 53.3246 0.0000 0.0000 0.0000
# 4 0.0000 0.0000 0.0000 3.1668 0.0000 0.0000
# 5 0.0000 0.0000 0.0000 0.0000 1.1308 0.0000
# 6 0.0000 0.0000 0.0000 0.0000 0.0000 61.6218
#
#
#
# Elastic Compliance Matrix: (Units=1/GPa)
#
#
# Indices 1 2 3 4 5 6 
#
# 1 0.013065 -0.003909 -0.003571 0.000000 0.000000 0.000000
# 2 -0.003909 0.012810 -0.005278 0.000000 0.000000 0.000000
# 3 -0.003571 -0.005278 0.023190 0.000000 0.000000 0.000000
# 4 0.000000 0.000000 0.000000 0.315778 0.000000 0.000000
# 5 0.000000 0.000000 0.000000 0.000000 0.884339 0.000000
# 6 0.000000 0.000000 0.000000 0.000000 0.000000 0.016228
#
#
# Mechanical properties :
#
#
# Convention : Reuss Voigt Hill
#
# Bulk Modulus (GPa) = 42.46745 47.88494 45.17619
# Shear Modulus (GPa) = 3.84978 23.76603 13.80790
#
# Velocity S-wave (km/s) = 1.45888 3.62475 2.76289
# Velocity P-wave (km/s) = 5.12987 6.63259 5.92903
#
# Compressibility (1/GPa) = 0.02354745
#
# Stress axis : x y z
#
# Youngs Moduli (GPa) = 76.54224 78.06428 43.12232
#
# Poissons Ratio (x) = 0.30514 0.15401
# Poissons Ratio (y) = 0.29919 0.22761
# Poissons Ratio (z) = 0.27337 0.41204
#
# Static dielectric constant tensor:
#      x y z
#    x 1.631800 0.000000 0.000000 
#    y 0.000000 1.720910 0.000000 
#    z 0.000000 0.000000 1.572820 
# 
# From -- ./inp_files/14147.got.cif
#   From: 2010.05.17/outbox.cif.g08.bks.cpg/sg56_8_cif.got.tgz:14147.got - 2010.06.03 13:42:01.
