data_PCOD9430143
_publ_section_title
;
Structure prediction by ZEFSAII (Michael W. Deem and Ramdas Pophale) SiO2 
 PCOD9430143
Probable space group: P C C N
;
_chemical_formula_sum "Si O2"
_cell_formula_units_Z 40
_cell_length_a 13.653844
_cell_length_b 7.553205
_cell_length_c 14.844256
_cell_angle_alpha 90.000000
_cell_angle_beta 90.000000
_cell_angle_gamma 90.000000
_cell_volume 1530.892319
_symmetry_space_group_name_H-M "P C C N"
_symmetry_group_IT_number 56
_symmetry_cell_setting 'orthorhombic'
loop_
_space_group_symop_operation_xyz
x,y,z
1/2-x,1/2-y,z
1/2+x,-y,1/2-z
-x,1/2+y,1/2-z
-x,-y,-z
1/2+x,1/2+y,-z
1/2-x,y,1/2+z
x,1/2-y,1/2+z
loop_
_atom_site_type_symbol
_atom_site_label
_atom_site_fract_x
_atom_site_fract_y
_atom_site_fract_z
Si Si1 0.231814 0.020237 0.099808
Si Si2 0.413274 0.682014 0.609265
Si Si3 0.053409 0.185758 0.025227
Si Si4 0.257377 0.452373 0.315342
Si Si5 0.408214 0.768056 0.319959
O O1 0.242137 0.058454 0.206114
O O2 0.160140 0.848811 0.095762
O O3 0.342118 0.971899 0.073058
O O4 0.166412 0.154918 0.043953
O O5 0.512564 0.693132 0.554227
O O6 0.432743 0.689676 0.715936
O O7 0.164113 0.930260 0.846675
O O8 0.003545 0.238058 0.119659
O O9 0.000000 0.000000 0.000000
O O10 0.250000 0.250000 0.347650
O O11 0.348518 0.585125 0.332345
#
# Coordination Sequence:
#
# PCOD9430143 Si02
#       5
#     8   8   8   8   8
#     4   8  16  32  56  91 130 172 230 284 348 417
#     4   8  16  34  60  90 132 182 226 289 356 422
#     4  10  19  34  64 102 129 180 235 288 351 431
#     4   9  18  37  61  93 125 184 221 276 357 412
#     4   9  19  36  64  92 127 174 232 278 351 427
#
# _framework density 26.128551999999999
#
# number of rings (size 3 to 8) (size 9 to 14) (size 15 to 20)
#    0.000    3.200    0.000    2.400    0.000    6.400 
#   10.800    0.000    0.000   36.000    0.000    0.000 
#    0.000    0.000    0.000    0.000    0.000    0.000 
#
# Total GULP energy -223835.506169 kJ/mol
# GULP energy per Si atom -5595.887654 kJ/mol
# Density = 2.606908 g / cm^3
# Si number density = 26.128552 Si / 1000 Ang^3
#
#
#
# Elastic Constant Matrix: (Units=GPa)
#
#
# Indices 1 2 3 4 5 6 
#
# 1 160.7912 47.7568 85.4795 0.0000 0.0000 0.0000
# 2 47.7568 167.7107 27.4067 0.0000 0.0000 0.0000
# 3 85.4795 27.4067 115.9952 0.0000 0.0000 0.0000
# 4 0.0000 0.0000 0.0000 8.1136 0.0000 0.0000
# 5 0.0000 0.0000 0.0000 0.0000 39.2881 0.0000
# 6 0.0000 0.0000 0.0000 0.0000 0.0000 32.9734
#
#
#
# Elastic Compliance Matrix: (Units=1/GPa)
#
#
# Indices 1 2 3 4 5 6 
#
# 1 0.010742 -0.001836 -0.007483 0.000000 0.000000 0.000000
# 2 -0.001836 0.006516 -0.000186 0.000000 0.000000 0.000000
# 3 -0.007483 -0.000186 0.014179 0.000000 0.000000 0.000000
# 4 0.000000 0.000000 0.000000 0.123250 0.000000 0.000000
# 5 0.000000 0.000000 0.000000 0.000000 0.025453 0.000000
# 6 0.000000 0.000000 0.000000 0.000000 0.000000 0.030327
#
#
# Mechanical properties :
#
#
# Convention : Reuss Voigt Hill
#
# Bulk Modulus (GPa) = 80.46808 85.08701 82.77755
# Shear Modulus (GPa) = 21.40219 34.99862 28.20041
#
# Velocity S-wave (km/s) = 2.86512 3.66386 3.28883
# Velocity P-wave (km/s) = 6.46599 7.10872 6.79496
#
# Compressibility (1/GPa) = 0.01242729
#
# Stress axis : x y z
#
# Youngs Moduli (GPa) = 93.08851 153.46860 70.52624
#
# Poissons Ratio (x) = 0.28180 0.52771
# Poissons Ratio (y) = 0.17093 0.01315
# Poissons Ratio (z) = 0.69654 0.02861
#
# Static dielectric constant tensor:
#      x y z
#    x 1.908030 0.000000 0.000000 
#    y 0.000000 2.212090 0.000000 
#    z 0.000000 0.000000 1.997060 
# 
# From -- ./inp_files/8188.got.cif
#   From: 2010.05.17/outbox.cif.g08.bks.cpg/sg56_5_cif.got.tgz:8188.got - 2010.06.03 13:42:01.
