data_PCOD9430922
_publ_section_title
;
Structure prediction by ZEFSAII (Michael W. Deem and Ramdas Pophale) SiO2 
 PCOD9430922
Probable space group: P C C N
;
_chemical_formula_sum "Si O2"
_cell_formula_units_Z 48
_cell_length_a 14.135144
_cell_length_b 15.235551
_cell_length_c 8.782030
_cell_angle_alpha 90.000000
_cell_angle_beta 90.000000
_cell_angle_gamma 90.000000
_cell_volume 1891.269064
_symmetry_space_group_name_H-M "P C C N"
_symmetry_group_IT_number 56
_symmetry_cell_setting 'orthorhombic'
loop_
_space_group_symop_operation_xyz
x,y,z
1/2-x,1/2-y,z
1/2+x,-y,1/2-z
-x,1/2+y,1/2-z
-x,-y,-z
1/2+x,1/2+y,-z
1/2-x,y,1/2+z
x,1/2-y,1/2+z
loop_
_atom_site_type_symbol
_atom_site_label
_atom_site_fract_x
_atom_site_fract_y
_atom_site_fract_z
Si Si1 0.475858 0.793351 0.786506
Si Si2 0.497333 0.031128 0.304891
Si Si3 0.185679 0.060472 0.285384
Si Si4 0.804076 0.382819 0.025496
Si Si5 0.130631 0.622065 0.312308
Si Si6 0.636926 0.623380 0.410173
O O1 0.485636 0.866786 0.652105
O O2 0.394572 0.837270 0.895425
O O3 0.580528 0.791145 0.856790
O O4 0.442383 0.803833 0.258811
O O5 0.444007 0.051057 0.140409
O O6 0.593763 0.977628 0.297641
O O7 0.422000 0.964311 0.374988
O O8 0.269569 0.097683 0.182819
O O9 0.155433 0.129694 0.412809
O O10 0.211130 0.977527 0.394658
O O11 0.795550 0.161099 0.067418
O O12 0.814052 0.393940 0.846255
#
# Coordination Sequence:
#
# PCOD9430922 Si02
#       6
#     8   8   8   8   8   8
#     4   9  22  38  58  92 131 170 212 251 315 397
#     4   9  20  38  66  92 129 174 211 257 318 393
#     4  11  18  39  66  96 122 169 212 262 322 389
#     4  11  20  37  62  96 127 161 206 267 332 383
#     4  12  22  39  67  96 130 166 211 269 330 382
#     4  10  20  38  65  92 130 163 214 263 316 386
#
# _framework density 25.379784000000001
#
# number of rings (size 3 to 8) (size 9 to 14) (size 15 to 20)
#    1.000    0.667    3.333    2.000    0.000    2.667 
#    0.000    6.667    0.000    2.000    0.000    0.000 
#    0.000    0.000    0.000    0.000    0.000    0.000 
#
# Total GULP energy -267878.589868 kJ/mol
# GULP energy per Si atom -5580.803956 kJ/mol
# Density = 2.532202 g / cm^3
# Si number density = 25.379784 Si / 1000 Ang^3
#
#
#
# Elastic Constant Matrix: (Units=GPa)
#
#
# Indices 1 2 3 4 5 6 
#
# 1 164.9836 39.2468 35.3662 0.0000 0.0000 0.0000
# 2 39.2468 60.9221 30.7769 0.0000 0.0000 0.0000
# 3 35.3662 30.7769 91.3795 0.0000 0.0000 0.0000
# 4 0.0000 0.0000 0.0000 11.6018 0.0000 0.0000
# 5 0.0000 0.0000 0.0000 0.0000 13.5060 0.0000
# 6 0.0000 0.0000 0.0000 0.0000 0.0000 32.6707
#
#
#
# Elastic Compliance Matrix: (Units=1/GPa)
#
#
# Indices 1 2 3 4 5 6 
#
# 1 0.007325 -0.003961 -0.001501 0.000000 0.000000 0.000000
# 2 -0.003961 0.021921 -0.005850 0.000000 0.000000 0.000000
# 3 -0.001501 -0.005850 0.013495 0.000000 0.000000 0.000000
# 4 0.000000 0.000000 0.000000 0.086194 0.000000 0.000000
# 5 0.000000 0.000000 0.000000 0.000000 0.074041 0.000000
# 6 0.000000 0.000000 0.000000 0.000000 0.000000 0.030608
#
#
# Mechanical properties :
#
#
# Convention : Reuss Voigt Hill
#
# Bulk Modulus (GPa) = 49.70866 58.67389 54.19127
# Shear Modulus (GPa) = 19.01760 25.68206 22.34983
#
# Velocity S-wave (km/s) = 2.74034 3.18450 2.97074
# Velocity P-wave (km/s) = 5.44436 6.05722 5.75895
#
# Compressibility (1/GPa) = 0.02011722
#
# Stress axis : x y z
#
# Youngs Moduli (GPa) = 136.51605 45.61752 74.10296
#
# Poissons Ratio (x) = 0.18067 0.11123
# Poissons Ratio (y) = 0.54069 0.43353
# Poissons Ratio (z) = 0.20492 0.26688
#
# Static dielectric constant tensor:
#      x y z
#    x 2.068410 0.000000 0.000000 
#    y 0.000000 2.150990 0.000000 
#    z 0.000000 0.000000 2.020610 
# 
# From -- ./inp_files/4054.got.cif
#   From: 2010.05.17/outbox.cif.g08.bks.cpg/sg56_3_cif.got.tgz:4054.got - 2010.06.03 13:42:01.
