data_PCOD9430503
_publ_section_title
;
Structure prediction by ZEFSAII (Michael W. Deem and Ramdas Pophale) SiO2 
 PCOD9430503
Probable space group: P C C N
;
_chemical_formula_sum "Si O2"
_cell_formula_units_Z 48
_cell_length_a 5.267087
_cell_length_b 21.402988
_cell_length_c 23.174347
_cell_angle_alpha 90.000000
_cell_angle_beta 90.000000
_cell_angle_gamma 90.000000
_cell_volume 2612.476578
_symmetry_space_group_name_H-M "P C C N"
_symmetry_group_IT_number 56
_symmetry_cell_setting 'orthorhombic'
loop_
_space_group_symop_operation_xyz
x,y,z
1/2-x,1/2-y,z
1/2+x,-y,1/2-z
-x,1/2+y,1/2-z
-x,-y,-z
1/2+x,1/2+y,-z
1/2-x,y,1/2+z
x,1/2-y,1/2+z
loop_
_atom_site_type_symbol
_atom_site_label
_atom_site_fract_x
_atom_site_fract_y
_atom_site_fract_z
Si Si1 0.301250 0.983802 0.550043
Si Si2 0.462448 0.941205 0.878631
Si Si3 0.815588 0.575929 0.630454
Si Si4 0.123476 0.042638 0.746086
Si Si5 0.235738 0.178532 0.964251
Si Si6 0.790146 0.128952 0.520905
O O1 0.418423 0.944553 0.602491
O O2 0.134704 0.934192 0.515171
O O3 0.500000 0.000000 0.500000
O O4 0.197806 0.046111 0.578851
O O5 0.549129 0.925619 0.814333
O O6 0.283541 0.893320 0.912646
O O7 0.343831 0.011345 0.875989
O O8 0.838382 0.586736 0.698543
O O9 0.726598 0.632982 0.590990
O O10 0.385092 0.003307 0.739183
O O11 0.250000 0.250000 0.944607
O O12 0.470943 0.172519 0.008350
O O13 0.971146 0.157000 0.995081
#
# Coordination Sequence:
#
# PCOD9430503 Si02
#       6
#     8   8   8   8   8   8
#     4  11  18  30  49  85 116 145 176 219 286 358
#     4  11  19  33  53  85 118 144 180 226 301 353
#     4  10  20  34  54  80 118 148 186 229 284 348
#     4  10  21  33  51  80 118 149 177 219 275 351
#     4  11  24  39  56  80 112 150 199 239 281 324
#     4  11  22  34  57  82 113 148 182 234 285 350
#
# _framework density 18.373370000000001
#
# number of rings (size 3 to 8) (size 9 to 14) (size 15 to 20)
#    0.000    1.333    5.000    3.000    0.000    0.000 
#    0.000    0.000    0.000    1.000    0.000    9.333 
#    0.000    0.000    0.000    0.000    0.000    0.000 
#
# Total GULP energy -267371.493503 kJ/mol
# GULP energy per Si atom -5570.239448 kJ/mol
# Density = 1.833155 g / cm^3
# Si number density = 18.373370 Si / 1000 Ang^3
#
#
#
# Elastic Constant Matrix: (Units=GPa)
#
#
# Indices 1 2 3 4 5 6 
#
# 1 73.2427 16.1566 33.4980 0.0000 0.0000 0.0000
# 2 16.1566 69.3740 35.3810 0.0000 0.0000 0.0000
# 3 33.4980 35.3810 144.0092 0.0000 0.0000 0.0000
# 4 0.0000 0.0000 0.0000 14.7263 0.0000 0.0000
# 5 0.0000 0.0000 0.0000 0.0000 23.9691 0.0000
# 6 0.0000 0.0000 0.0000 0.0000 0.0000 14.5759
#
#
#
# Elastic Compliance Matrix: (Units=1/GPa)
#
#
# Indices 1 2 3 4 5 6 
#
# 1 0.015524 -0.002028 -0.003113 0.000000 0.000000 0.000000
# 2 -0.002028 0.016744 -0.003642 0.000000 0.000000 0.000000
# 3 -0.003113 -0.003642 0.008563 0.000000 0.000000 0.000000
# 4 0.000000 0.000000 0.000000 0.067906 0.000000 0.000000
# 5 0.000000 0.000000 0.000000 0.000000 0.041720 0.000000
# 6 0.000000 0.000000 0.000000 0.000000 0.000000 0.068607
#
#
# Mechanical properties :
#
#
# Convention : Reuss Voigt Hill
#
# Bulk Modulus (GPa) = 42.98165 50.74412 46.86288
# Shear Modulus (GPa) = 20.45947 24.09359 22.27653
#
# Velocity S-wave (km/s) = 3.34059 3.62516 3.48578
# Velocity P-wave (km/s) = 6.19061 6.72314 6.46236
#
# Compressibility (1/GPa) = 0.02326574
#
# Stress axis : x y z
#
# Youngs Moduli (GPa) = 64.41527 59.72143 116.78267
#
# Poissons Ratio (x) = 0.12111 0.36353
# Poissons Ratio (y) = 0.13063 0.42534
# Poissons Ratio (z) = 0.20052 0.21751
#
# Static dielectric constant tensor:
#      x y z
#    x 1.820020 0.000000 0.000000 
#    y 0.000000 1.654110 0.000000 
#    z 0.000000 0.000000 1.667760 
# 
# From -- ./inp_files/17500.got.cif
#   From: 2010.05.17/outbox.cif.g08.bks.cpg/sg56_9_cif.got.tgz:17500.got - 2010.06.03 13:42:01.
