data_PCOD9430966
_publ_section_title
;
Structure prediction by ZEFSAII (Michael W. Deem and Ramdas Pophale) SiO2 
 PCOD9430966
Probable space group: P C C N
;
_chemical_formula_sum "Si O2"
_cell_formula_units_Z 60
_cell_length_a 5.353928
_cell_length_b 33.652667
_cell_length_c 14.527774
_cell_angle_alpha 90.000000
_cell_angle_beta 90.000000
_cell_angle_gamma 90.000000
_cell_volume 2617.526515
_symmetry_space_group_name_H-M "P C C N"
_symmetry_group_IT_number 56
_symmetry_cell_setting 'orthorhombic'
loop_
_space_group_symop_operation_xyz
x,y,z
1/2-x,1/2-y,z
1/2+x,-y,1/2-z
-x,1/2+y,1/2-z
-x,-y,-z
1/2+x,1/2+y,-z
1/2-x,y,1/2+z
x,1/2-y,1/2+z
loop_
_atom_site_type_symbol
_atom_site_label
_atom_site_fract_x
_atom_site_fract_y
_atom_site_fract_z
Si Si1 0.584830 0.688527 0.892192
Si Si2 0.190816 0.987405 0.128626
Si Si3 0.811241 0.030361 0.649648
Si Si4 0.163415 0.598991 0.092512
Si Si5 0.667509 0.384998 0.198551
Si Si6 0.750000 0.250000 0.716451
Si Si7 0.450528 0.318159 0.753170
Si Si8 0.686355 0.647144 0.069548
O O1 0.516102 0.644100 0.855327
O O2 0.391272 0.719656 0.851882
O O3 0.832773 0.699366 0.838418
O O4 0.633416 0.682126 0.997985
O O5 0.184027 0.977974 0.239211
O O6 0.269773 0.947038 0.077061
O O7 0.415091 0.018601 0.114562
O O8 0.914889 0.004127 0.108584
O O9 0.744463 0.076614 0.640897
O O10 0.079928 0.600481 0.200856
O O11 0.424084 0.622850 0.078453
O O12 0.925703 0.619889 0.043923
O O13 0.899663 0.356925 0.222847
O O14 0.615507 0.281281 0.784510
O O15 0.264232 0.331936 0.832251
#
# Coordination Sequence:
#
# PCOD9430966 Si02
#       8
#     8   8   8   8   8   4   8   8
#     4  11  23  42  66  94 128 167 206 264 314 387
#     4   9  17  29  52  83 127 157 215 261 318 358
#     4   9  17  28  51  89 116 167 209 265 309 376
#     4  10  20  39  59  94 127 171 213 274 307 378
#     4   9  20  35  62  88 130 162 223 260 321 371
#     4  10  24  44  66  96 130 160 204 260 326 384
#     4  10  22  43  65  95 125 169 207 267 317 385
#     4  11  24  39  69  94 128 168 218 252 320 374
#
# _framework density 22.922402999999999
#
# number of rings (size 3 to 8) (size 9 to 14) (size 15 to 20)
#    0.000    2.133    1.333    1.200    5.600    3.733 
#    0.000    2.667    0.000    4.800    0.000    0.000 
#    0.000    0.000    0.000    0.000    0.000    0.000 
#
# Total GULP energy -334833.080772 kJ/mol
# GULP energy per Si atom -5580.551346 kJ/mol
# Density = 2.287023 g / cm^3
# Si number density = 22.922403 Si / 1000 Ang^3
#
#
#
# Elastic Constant Matrix: (Units=GPa)
#
#
# Indices 1 2 3 4 5 6 
#
# 1 76.7285 10.6845 -8.4138 0.0000 0.0000 0.0000
# 2 10.6845 102.8012 -4.0560 0.0000 0.0000 0.0000
# 3 -8.4138 -4.0560 44.0806 0.0000 0.0000 0.0000
# 4 0.0000 0.0000 0.0000 10.0597 0.0000 0.0000
# 5 0.0000 0.0000 0.0000 0.0000 113.6797 0.0000
# 6 0.0000 0.0000 0.0000 0.0000 0.0000 1.0669
#
#
#
# Elastic Compliance Matrix: (Units=1/GPa)
#
#
# Indices 1 2 3 4 5 6 
#
# 1 0.013484 -0.001305 0.002454 0.000000 0.000000 0.000000
# 2 -0.001305 0.009889 0.000661 0.000000 0.000000 0.000000
# 3 0.002454 0.000661 0.023215 0.000000 0.000000 0.000000
# 4 0.000000 0.000000 0.000000 0.099407 0.000000 0.000000
# 5 0.000000 0.000000 0.000000 0.000000 0.008797 0.000000
# 6 0.000000 0.000000 0.000000 0.000000 0.000000 0.937288
#
#
# Mechanical properties :
#
#
# Convention : Reuss Voigt Hill
#
# Bulk Modulus (GPa) = 19.91727 24.44885 22.18306
# Shear Modulus (GPa) = 4.52409 39.98763 22.25586
#
# Velocity S-wave (km/s) = 1.40639 4.18123 3.11934
# Velocity P-wave (km/s) = 3.36825 5.83089 4.76153
#
# Compressibility (1/GPa) = 0.05020768
#
# Stress axis : x y z
#
# Youngs Moduli (GPa) = 74.16368 101.12056 43.07584
#
# Poissons Ratio (x) = 0.13192 -0.10569
# Poissons Ratio (y) = 0.09675 -0.02847
# Poissons Ratio (z) = -0.18197 -0.06683
#
# Static dielectric constant tensor:
#      x y z
#    x 1.846340 0.000000 0.000000 
#    y 0.000000 1.826110 0.000000 
#    z 0.000000 0.000000 1.894210 
# 
# From -- ./inp_files/14160.got.cif
#   From: 2010.05.17/outbox.cif.g08.bks.cpg/sg56_8_cif.got.tgz:14160.got - 2010.06.03 13:42:01.
