data_PCOD9430540
_publ_section_title
;
Structure prediction by ZEFSAII (Michael W. Deem and Ramdas Pophale) SiO2 
 PCOD9430540
Probable space group: P C C N
;
_chemical_formula_sum "Si O2"
_cell_formula_units_Z 28
_cell_length_a 10.179508
_cell_length_b 11.955609
_cell_length_c 9.102452
_cell_angle_alpha 90.000000
_cell_angle_beta 90.000000
_cell_angle_gamma 90.000000
_cell_volume 1107.788593
_symmetry_space_group_name_H-M "P C C N"
_symmetry_group_IT_number 56
_symmetry_cell_setting 'orthorhombic'
loop_
_space_group_symop_operation_xyz
x,y,z
1/2-x,1/2-y,z
1/2+x,-y,1/2-z
-x,1/2+y,1/2-z
-x,-y,-z
1/2+x,1/2+y,-z
1/2-x,y,1/2+z
x,1/2-y,1/2+z
loop_
_atom_site_type_symbol
_atom_site_label
_atom_site_fract_x
_atom_site_fract_y
_atom_site_fract_z
Si Si1 0.798515 0.374276 0.270286
Si Si2 0.414045 0.592927 0.922403
Si Si3 0.750000 0.750000 0.567487
Si Si4 0.567711 0.817077 0.829754
O O1 0.750000 0.250000 0.228907
O O2 0.818770 0.372867 0.443589
O O3 0.679614 0.447745 0.209805
O O4 0.939030 0.393196 0.192428
O O5 0.507059 0.693824 0.869065
O O6 0.500000 0.500000 0.000000
O O7 0.643243 0.802763 0.676530
O O8 0.827409 0.835311 0.459638
#
# Coordination Sequence:
#
# PCOD9430540 Si02
#       4
#     8   8   4   8
#     4  10  21  42  68  89 120 167 213 249 306 388
#     4  11  24  40  62  94 126 160 205 265 321 365
#     4  10  20  34  64  94 118 158 210 266 284 360
#     4  10  20  38  63  92 123 161 214 247 308 367
#
# _framework density 25.275577999999999
#
# number of rings (size 3 to 8) (size 9 to 14) (size 15 to 20)
#    0.000    1.714    2.857    2.571    4.000    2.286 
#    0.000    1.429    0.000    0.000    0.000    0.000 
#    0.000    0.000    0.000    0.000    0.000    0.000 
#
# Total GULP energy -156629.217827 kJ/mol
# GULP energy per Si atom -5593.900637 kJ/mol
# Density = 2.521805 g / cm^3
# Si number density = 25.275578 Si / 1000 Ang^3
#
#
#
# Elastic Constant Matrix: (Units=GPa)
#
#
# Indices 1 2 3 4 5 6 
#
# 1 138.5299 1.9617 65.4057 0.0000 0.0000 0.0000
# 2 1.9617 29.7120 12.6539 0.0000 0.0000 0.0000
# 3 65.4057 12.6539 158.2126 0.0000 0.0000 0.0000
# 4 0.0000 0.0000 0.0000 15.1178 0.0000 0.0000
# 5 0.0000 0.0000 0.0000 0.0000 80.9581 0.0000
# 6 0.0000 0.0000 0.0000 0.0000 0.0000 35.5444
#
#
#
# Elastic Compliance Matrix: (Units=1/GPa)
#
#
# Indices 1 2 3 4 5 6 
#
# 1 0.008999 0.001025 -0.003802 0.000000 0.000000 0.000000
# 2 0.001025 0.034960 -0.003220 0.000000 0.000000 0.000000
# 3 -0.003802 -0.003220 0.008150 0.000000 0.000000 0.000000
# 4 0.000000 0.000000 0.000000 0.066147 0.000000 0.000000
# 5 0.000000 0.000000 0.000000 0.000000 0.012352 0.000000
# 6 0.000000 0.000000 0.000000 0.000000 0.000000 0.028134
#
#
# Mechanical properties :
#
#
# Convention : Reuss Voigt Hill
#
# Bulk Modulus (GPa) = 24.92817 54.05525 39.49171
# Shear Modulus (GPa) = 27.15786 42.75294 34.95540
#
# Velocity S-wave (km/s) = 3.28147 4.11721 3.72287
# Velocity P-wave (km/s) = 4.92355 6.63587 5.84278
#
# Compressibility (1/GPa) = 0.04011525
#
# Stress axis : x y z
#
# Youngs Moduli (GPa) = 111.11849 28.60408 122.69852
#
# Poissons Ratio (x) = -0.02932 0.46655
# Poissons Ratio (y) = -0.11392 0.39508
# Poissons Ratio (z) = 0.42251 0.09210
#
# Static dielectric constant tensor:
#      x y z
#    x 2.080910 0.000000 0.000000 
#    y 0.000000 2.032440 0.000000 
#    z 0.000000 0.000000 1.971040 
# 
# From -- ./inp_files/1873.got.cif
#   From: 2010.05.17/outbox.cif.g08.bks.cpg/sg56_1_cif.got.tgz:1873.got - 2010.06.03 13:42:01.
