data_PCOD9430832
_publ_section_title
;
Structure prediction by ZEFSAII (Michael W. Deem and Ramdas Pophale) SiO2 
 PCOD9430832
Probable space group: P C C N
;
_chemical_formula_sum "Si O2"
_cell_formula_units_Z 32
_cell_length_a 11.886504
_cell_length_b 8.041782
_cell_length_c 13.585351
_cell_angle_alpha 90.000000
_cell_angle_beta 90.000000
_cell_angle_gamma 90.000000
_cell_volume 1298.605687
_symmetry_space_group_name_H-M "P C C N"
_symmetry_group_IT_number 56
_symmetry_cell_setting 'orthorhombic'
loop_
_space_group_symop_operation_xyz
x,y,z
1/2-x,1/2-y,z
1/2+x,-y,1/2-z
-x,1/2+y,1/2-z
-x,-y,-z
1/2+x,1/2+y,-z
1/2-x,y,1/2+z
x,1/2-y,1/2+z
loop_
_atom_site_type_symbol
_atom_site_label
_atom_site_fract_x
_atom_site_fract_y
_atom_site_fract_z
Si Si1 0.126249 0.674630 0.924340
Si Si2 0.955605 0.503334 0.781718
Si Si3 0.772658 0.569574 0.919386
Si Si4 0.051924 0.850623 0.107818
O O1 0.250000 0.750000 0.898922
O O2 0.060672 0.593914 0.834251
O O3 0.155429 0.528017 0.000475
O O4 0.046497 0.791049 0.994230
O O5 0.965514 0.529713 0.665254
O O6 0.845268 0.593658 0.821421
O O7 0.948465 0.317428 0.825717
O O8 0.750000 0.750000 0.961080
O O9 0.668236 0.452767 0.892694
#
# Coordination Sequence:
#
# PCOD9430832 Si02
#       4
#     8   8   8   8
#     4   9  21  40  61  86 121 161 204 256 310 367
#     4  11  21  40  62  85 121 166 204 252 317 374
#     4  10  20  38  59  86 121 157 203 258 307 366
#     4  10  21  38  61  89 120 158 204 254 304 365
#
# _framework density 24.641814
#
# number of rings (size 3 to 8) (size 9 to 14) (size 15 to 20)
#    0.000    2.000    0.000    6.750    0.000    5.000 
#    0.000   28.750    0.000    0.000    0.000    0.000 
#    0.000    0.000    0.000    0.000    0.000    0.000 
#
# Total GULP energy -178892.589139 kJ/mol
# GULP energy per Si atom -5590.393411 kJ/mol
# Density = 2.458573 g / cm^3
# Si number density = 24.641814 Si / 1000 Ang^3
#
#
#
# Elastic Constant Matrix: (Units=GPa)
#
#
# Indices 1 2 3 4 5 6 
#
# 1 56.0401 27.9753 21.2894 0.0000 0.0000 0.0000
# 2 27.9753 118.3216 77.6156 0.0000 0.0000 0.0000
# 3 21.2894 77.6156 88.7490 0.0000 0.0000 0.0000
# 4 0.0000 0.0000 0.0000 28.8734 0.0000 0.0000
# 5 0.0000 0.0000 0.0000 0.0000 17.7626 0.0000
# 6 0.0000 0.0000 0.0000 0.0000 0.0000 28.0617
#
#
#
# Elastic Compliance Matrix: (Units=1/GPa)
#
#
# Indices 1 2 3 4 5 6 
#
# 1 0.020326 -0.003770 -0.001579 0.000000 0.000000 0.000000
# 2 -0.003770 0.020524 -0.017045 0.000000 0.000000 0.000000
# 3 -0.001579 -0.017045 0.026553 0.000000 0.000000 0.000000
# 4 0.000000 0.000000 0.000000 0.034634 0.000000 0.000000
# 5 0.000000 0.000000 0.000000 0.000000 0.056298 0.000000
# 6 0.000000 0.000000 0.000000 0.000000 0.000000 0.035636
#
#
# Mechanical properties :
#
#
# Convention : Reuss Voigt Hill
#
# Bulk Modulus (GPa) = 44.21707 57.43017 50.82362
# Shear Modulus (GPa) = 20.30073 24.02156 22.16115
#
# Velocity S-wave (km/s) = 2.87336 3.12561 3.00214
# Velocity P-wave (km/s) = 5.38434 6.03179 5.71724
#
# Compressibility (1/GPa) = 0.02261570
#
# Stress axis : x y z
#
# Youngs Moduli (GPa) = 49.19756 48.72382 37.66064
#
# Poissons Ratio (x) = 0.18370 0.05945
# Poissons Ratio (y) = 0.18549 0.64192
# Poissons Ratio (z) = 0.07766 0.83048
#
# Static dielectric constant tensor:
#      x y z
#    x 1.938990 0.000000 0.000000 
#    y 0.000000 2.244330 0.000000 
#    z 0.000000 0.000000 2.124210 
# 
# From -- ./inp_files/10157.got.cif
#   From: 2010.05.17/outbox.cif.g08.bks.cpg/sg56_6_cif.got.tgz:10157.got - 2010.06.03 13:42:01.
