data_PCOD9430506
_publ_section_title
;
Structure prediction by ZEFSAII (Michael W. Deem and Ramdas Pophale) SiO2 
 PCOD9430506
Probable space group: P C C N
;
_chemical_formula_sum "Si O2"
_cell_formula_units_Z 44
_cell_length_a 5.010716
_cell_length_b 21.054058
_cell_length_c 21.187358
_cell_angle_alpha 90.000000
_cell_angle_beta 90.000000
_cell_angle_gamma 90.000000
_cell_volume 2235.179513
_symmetry_space_group_name_H-M "P C C N"
_symmetry_group_IT_number 56
_symmetry_cell_setting 'orthorhombic'
loop_
_space_group_symop_operation_xyz
x,y,z
1/2-x,1/2-y,z
1/2+x,-y,1/2-z
-x,1/2+y,1/2-z
-x,-y,-z
1/2+x,1/2+y,-z
1/2-x,y,1/2+z
x,1/2-y,1/2+z
loop_
_atom_site_type_symbol
_atom_site_label
_atom_site_fract_x
_atom_site_fract_y
_atom_site_fract_z
Si Si1 0.384941 0.147886 0.646134
Si Si2 0.869598 0.178547 0.419894
Si Si3 0.250000 0.250000 0.743224
Si Si4 0.307883 0.457810 0.247164
Si Si5 0.134879 0.821870 0.433365
Si Si6 0.889185 0.648756 0.659131
O O1 0.419706 0.203440 0.698527
O O2 0.304100 0.085676 0.684821
O O3 0.651533 0.138204 0.606369
O O4 0.149735 0.170952 0.599943
O O5 0.750000 0.250000 0.417009
O O6 0.881560 0.160327 0.493248
O O7 0.659377 0.138495 0.379103
O O8 0.158017 0.172610 0.388186
O O9 0.421444 0.296122 0.788002
O O10 0.603166 0.484181 0.257941
O O11 0.212014 0.412952 0.304186
O O12 0.250000 0.750000 0.430496
#
# Coordination Sequence:
#
# PCOD9430506 Si02
#       6
#     8   8   4   8   8   8
#     4  11  22  37  61  87 120 153 193 249 284 360
#     4  11  21  36  58  90 127 156 186 230 295 363
#     4  10  20  34  54  90 116 140 192 230 308 336
#     4  11  24  43  62  85 114 159 202 246 296 335
#     4  11  21  36  58  90 127 156 186 230 295 363
#     4  11  22  37  61  87 120 153 193 249 284 360
#
# _framework density 19.685220999999999
#
# number of rings (size 3 to 8) (size 9 to 14) (size 15 to 20)
#    0.000    1.091    3.636    3.273    0.000    8.727 
#    0.000    0.000    0.000   21.818    0.000    0.000 
#    0.000    0.000    0.000    0.000    0.000    0.000 
#
# Total GULP energy -246063.314926 kJ/mol
# GULP energy per Si atom -5592.348067 kJ/mol
# Density = 1.964042 g / cm^3
# Si number density = 19.685221 Si / 1000 Ang^3
#
#
#
# Elastic Constant Matrix: (Units=GPa)
#
#
# Indices 1 2 3 4 5 6 
#
# 1 87.1137 -9.1457 34.1374 0.0000 0.0000 0.0000
# 2 -9.1457 38.3781 21.8220 0.0000 0.0000 0.0000
# 3 34.1374 21.8220 137.3490 0.0000 0.0000 0.0000
# 4 0.0000 0.0000 0.0000 1.6419 0.0000 0.0000
# 5 0.0000 0.0000 0.0000 0.0000 24.4908 0.0000
# 6 0.0000 0.0000 0.0000 0.0000 0.0000 28.1039
#
#
#
# Elastic Compliance Matrix: (Units=1/GPa)
#
#
# Indices 1 2 3 4 5 6 
#
# 1 0.013784 0.005752 -0.004340 0.000000 0.000000 0.000000
# 2 0.005752 0.031045 -0.006362 0.000000 0.000000 0.000000
# 3 -0.004340 -0.006362 0.009370 0.000000 0.000000 0.000000
# 4 0.000000 0.000000 0.000000 0.609032 0.000000 0.000000
# 5 0.000000 0.000000 0.000000 0.000000 0.040832 0.000000
# 6 0.000000 0.000000 0.000000 0.000000 0.000000 0.035582
#
#
# Mechanical properties :
#
#
# Convention : Reuss Voigt Hill
#
# Bulk Modulus (GPa) = 22.57345 39.60757 31.09051
# Shear Modulus (GPa) = 6.54184 25.24913 15.89548
#
# Velocity S-wave (km/s) = 1.82495 3.58529 2.84471
# Velocity P-wave (km/s) = 3.99158 6.10763 5.15926
#
# Compressibility (1/GPa) = 0.04429983
#
# Stress axis : x y z
#
# Youngs Moduli (GPa) = 72.54872 32.21136 106.72148
#
# Poissons Ratio (x) = -0.18529 0.46316
# Poissons Ratio (y) = -0.41733 0.67898
# Poissons Ratio (z) = 0.31485 0.20493
#
# Static dielectric constant tensor:
#      x y z
#    x 1.675060 0.000000 0.000000 
#    y 0.000000 1.698720 0.000000 
#    z 0.000000 0.000000 1.683390 
# 
# From -- ./inp_files/13972.got.cif
#   From: 2010.05.17/outbox.cif.g08.bks.cpg/sg56_7_cif.got.tgz:13972.got - 2010.06.03 13:42:01.
