data_PCOD9430402
_publ_section_title
;
Structure prediction by ZEFSAII (Michael W. Deem and Ramdas Pophale) SiO2 
 PCOD9430402
Probable space group: P C C N
;
_chemical_formula_sum "Si O2"
_cell_formula_units_Z 56
_cell_length_a 12.434719
_cell_length_b 12.481749
_cell_length_c 14.667166
_cell_angle_alpha 90.000000
_cell_angle_beta 90.000000
_cell_angle_gamma 90.000000
_cell_volume 2276.447441
_symmetry_space_group_name_H-M "P C C N"
_symmetry_group_IT_number 56
_symmetry_cell_setting 'orthorhombic'
loop_
_space_group_symop_operation_xyz
x,y,z
1/2-x,1/2-y,z
1/2+x,-y,1/2-z
-x,1/2+y,1/2-z
-x,-y,-z
1/2+x,1/2+y,-z
1/2-x,y,1/2+z
x,1/2-y,1/2+z
loop_
_atom_site_type_symbol
_atom_site_label
_atom_site_fract_x
_atom_site_fract_y
_atom_site_fract_z
Si Si1 0.791269 0.023143 0.211533
Si Si2 0.907124 0.784854 0.572518
Si Si3 0.285224 0.422433 0.984345
Si Si4 0.375333 0.766506 0.552945
Si Si5 0.555681 0.329680 0.148113
Si Si6 0.137979 0.205877 0.725648
Si Si7 0.610058 0.023946 0.347074
O O1 0.790120 0.996475 0.104543
O O2 0.849451 0.920244 0.256930
O O3 0.672282 0.025807 0.252442
O O4 0.852177 0.136519 0.220210
O O5 0.876149 0.670104 0.526395
O O6 0.829140 0.865978 0.521676
O O7 0.869960 0.768486 0.677113
O O8 0.030672 0.820292 0.566553
O O9 0.305668 0.486401 0.075649
O O10 0.250000 0.750000 0.570636
O O11 0.391245 0.801382 0.448070
O O12 0.419627 0.858119 0.621184
O O13 0.469852 0.239005 0.174121
O O14 0.485280 0.439230 0.146772
O O15 0.250000 0.250000 0.682532
#
# Coordination Sequence:
#
# PCOD9430402 Si02
#       7
#     8   8   8   8   8   8   8
#     4  11  24  43  67 108 139 177 238 296 353 426
#     4  10  20  40  70 100 136 176 226 298 342 413
#     4  10  19  40  73 102 129 173 241 295 343 409
#     4  12  28  46  64 101 147 192 237 285 369 442
#     4  12  25  46  73  99 144 192 230 296 363 434
#     4  11  21  42  72 108 135 173 240 298 349 420
#     4  12  23  44  73  98 135 190 240 285 365 431
#
# _framework density 24.599731999999999
#
# number of rings (size 3 to 8) (size 9 to 14) (size 15 to 20)
#    0.000    0.857    7.143    2.143    4.000    0.000 
#    5.143    0.714    0.000    0.000    0.000    0.000 
#    0.000    0.000    0.000    0.000    0.000    0.000 
#
# Total GULP energy -313526.985355 kJ/mol
# GULP energy per Si atom -5598.696167 kJ/mol
# Density = 2.454374 g / cm^3
# Si number density = 24.599732 Si / 1000 Ang^3
#
#
#
# Elastic Constant Matrix: (Units=GPa)
#
#
# Indices 1 2 3 4 5 6 
#
# 1 148.9313 6.7001 7.9154 0.0000 0.0000 0.0000
# 2 6.7001 25.4391 -6.2223 0.0000 0.0000 0.0000
# 3 7.9154 -6.2223 54.4986 0.0000 0.0000 0.0000
# 4 0.0000 0.0000 0.0000 13.6103 0.0000 0.0000
# 5 0.0000 0.0000 0.0000 0.0000 38.6979 0.0000
# 6 0.0000 0.0000 0.0000 0.0000 0.0000 35.8644
#
#
#
# Elastic Compliance Matrix: (Units=1/GPa)
#
#
# Indices 1 2 3 4 5 6 
#
# 1 0.006876 -0.002114 -0.001240 0.000000 0.000000 0.000000
# 2 -0.002114 0.041089 0.004998 0.000000 0.000000 0.000000
# 3 -0.001240 0.004998 0.019100 0.000000 0.000000 0.000000
# 4 0.000000 0.000000 0.000000 0.073474 0.000000 0.000000
# 5 0.000000 0.000000 0.000000 0.000000 0.025841 0.000000
# 6 0.000000 0.000000 0.000000 0.000000 0.000000 0.027883
#
#
# Mechanical properties :
#
#
# Convention : Reuss Voigt Hill
#
# Bulk Modulus (GPa) = 14.21406 27.29502 20.75454
# Shear Modulus (GPa) = 23.31821 32.33291 27.82556
#
# Velocity S-wave (km/s) = 3.08215 3.62934 3.36688
# Velocity P-wave (km/s) = 4.29614 5.35561 4.85487
#
# Compressibility (1/GPa) = 0.07035287
#
# Stress axis : x y z
#
# Youngs Moduli (GPa) = 145.44361 24.33742 52.35635
#
# Poissons Ratio (x) = 0.05145 0.06492
# Poissons Ratio (y) = 0.30749 -0.26170
# Poissons Ratio (z) = 0.18035 -0.12165
#
# Static dielectric constant tensor:
#      x y z
#    x 1.994980 0.000000 0.000000 
#    y 0.000000 1.998070 0.000000 
#    z 0.000000 0.000000 1.959040 
# 
# From -- ./inp_files/11699.got.cif
#   From: 2010.05.17/outbox.cif.g08.bks.cpg/sg56_6_cif.got.tgz:11699.got - 2010.06.03 13:42:01.
