data_PCOD9430625
_publ_section_title
;
Structure prediction by ZEFSAII (Michael W. Deem and Ramdas Pophale) SiO2 
 PCOD9430625
Probable space group: P C C N
;
_chemical_formula_sum "Si O2"
_cell_formula_units_Z 36
_cell_length_a 11.643991
_cell_length_b 7.798022
_cell_length_c 14.889986
_cell_angle_alpha 90.000000
_cell_angle_beta 90.000000
_cell_angle_gamma 90.000000
_cell_volume 1352.012188
_symmetry_space_group_name_H-M "P C C N"
_symmetry_group_IT_number 56
_symmetry_cell_setting 'orthorhombic'
loop_
_space_group_symop_operation_xyz
x,y,z
1/2-x,1/2-y,z
1/2+x,-y,1/2-z
-x,1/2+y,1/2-z
-x,-y,-z
1/2+x,1/2+y,-z
1/2-x,y,1/2+z
x,1/2-y,1/2+z
loop_
_atom_site_type_symbol
_atom_site_label
_atom_site_fract_x
_atom_site_fract_y
_atom_site_fract_z
Si Si1 0.802301 0.083570 0.136340
Si Si2 0.602916 0.859830 0.497074
Si Si3 0.951626 0.742838 0.318931
Si Si4 0.750000 0.250000 0.305338
Si Si5 0.991838 0.137396 0.366805
O O1 0.750000 0.250000 0.087559
O O2 0.931439 0.134006 0.165047
O O3 0.739085 0.091104 0.233322
O O4 0.802975 0.933075 0.065255
O O5 0.633792 0.831488 0.393705
O O6 0.548986 0.689212 0.540166
O O7 0.500000 0.000000 0.500000
O O8 0.932317 0.723496 0.213313
O O9 0.978286 0.938294 0.344901
O O10 0.865481 0.222695 0.359874
#
# Coordination Sequence:
#
# PCOD9430625 Si02
#       5
#     8   8   8   4   8
#     4   8  17  37  59  85 122 159 201 251 319 363
#     4  10  20  37  63  92 121 162 213 255 316 381
#     4  10  20  35  64  92 120 169 213 251 323 375
#     4   8  18  34  58  86 116 164 206 242 326 352
#     4  11  20  38  63  87 127 167 212 265 308 388
#
# _framework density 26.62698
#
# number of rings (size 3 to 8) (size 9 to 14) (size 15 to 20)
#    0.667    1.778    0.000    4.667    0.000    0.000 
#    8.000    1.111    4.889    9.333    0.000    0.000 
#    0.000    0.000    0.000    0.000    0.000    0.000 
#
# Total GULP energy -201259.405104 kJ/mol
# GULP energy per Si atom -5590.539031 kJ/mol
# Density = 2.656638 g / cm^3
# Si number density = 26.626980 Si / 1000 Ang^3
#
#
#
# Elastic Constant Matrix: (Units=GPa)
#
#
# Indices 1 2 3 4 5 6 
#
# 1 90.2643 -0.2078 17.7691 0.0000 0.0000 0.0000
# 2 -0.2078 100.7349 21.7587 0.0000 0.0000 0.0000
# 3 17.7691 21.7587 131.5824 0.0000 0.0000 0.0000
# 4 0.0000 0.0000 0.0000 10.4747 0.0000 0.0000
# 5 0.0000 0.0000 0.0000 0.0000 -8.1990 0.0000
# 6 0.0000 0.0000 0.0000 0.0000 0.0000 32.8020
#
#
#
# Elastic Compliance Matrix: (Units=1/GPa)
#
#
# Indices 1 2 3 4 5 6 
#
# 1 0.011394 0.000369 -0.001600 0.000000 0.000000 0.000000
# 2 0.000369 0.010307 -0.001754 0.000000 0.000000 0.000000
# 3 -0.001600 -0.001754 0.008106 0.000000 0.000000 0.000000
# 4 0.000000 0.000000 0.000000 0.095468 0.000000 0.000000
# 5 0.000000 0.000000 0.000000 0.000000 -0.121966 0.000000
# 6 0.000000 0.000000 0.000000 0.000000 0.000000 0.030486
#
#
# Mechanical properties :
#
#
# Convention : Reuss Voigt Hill
#
# Bulk Modulus (GPa) = 41.95117 44.58017 43.26567
# Shear Modulus (GPa) = 104.80022 25.89967 65.34995
#
# Velocity S-wave (km/s) = 6.28045 3.12217 4.95944
# Velocity P-wave (km/s) = 8.26931 5.45675 7.00563
#
# Compressibility (1/GPa) = 0.02383724
#
# Stress axis : x y z
#
# Youngs Moduli (GPa) = 87.76284 97.02423 123.36693
#
# Poissons Ratio (x) = -0.03581 0.19735
# Poissons Ratio (y) = -0.03239 0.21641
# Poissons Ratio (z) = 0.14040 0.17020
#
# Static dielectric constant tensor:
#      x y z
#    x 2.109950 0.000000 0.000000 
#    y 0.000000 2.102140 0.000000 
#    z 0.000000 0.000000 2.103260 
# 
# From -- ./inp_files/12011.got.cif
#   From: 2010.05.17/outbox.cif.g08.bks.cpg/sg56_7_cif.got.tgz:12011.got - 2010.06.03 13:42:01.
