data_PCOD9430098
_publ_section_title
;
Structure prediction by ZEFSAII (Michael W. Deem and Ramdas Pophale) SiO2 
 PCOD9430098
Probable space group: P C C N
;
_chemical_formula_sum "Si O2"
_cell_formula_units_Z 60
_cell_length_a 20.426216
_cell_length_b 5.684713
_cell_length_c 26.320664
_cell_angle_alpha 90.000000
_cell_angle_beta 90.000000
_cell_angle_gamma 90.000000
_cell_volume 3056.281165
_symmetry_space_group_name_H-M "P C C N"
_symmetry_group_IT_number 56
_symmetry_cell_setting 'orthorhombic'
loop_
_space_group_symop_operation_xyz
x,y,z
1/2-x,1/2-y,z
1/2+x,-y,1/2-z
-x,1/2+y,1/2-z
-x,-y,-z
1/2+x,1/2+y,-z
1/2-x,y,1/2+z
x,1/2-y,1/2+z
loop_
_atom_site_type_symbol
_atom_site_label
_atom_site_fract_x
_atom_site_fract_y
_atom_site_fract_z
Si Si1 0.961533 0.806832 0.193550
Si Si2 0.715062 0.503068 0.348980
Si Si3 0.908609 0.090954 0.285078
Si Si4 0.184854 0.497654 0.031602
Si Si5 0.168500 0.996318 0.994386
Si Si6 0.250000 0.250000 0.319590
Si Si7 0.360408 0.537884 0.877315
Si Si8 0.146675 0.584966 0.800785
O O1 0.917254 0.574020 0.193068
O O2 0.037593 0.752884 0.187657
O O3 0.949405 0.911444 0.249859
O O4 0.928765 0.970171 0.150347
O O5 0.750000 0.250000 0.336323
O O6 0.643571 0.511038 0.323598
O O7 0.707016 0.504699 0.410015
O O8 0.750000 0.750000 0.335187
O O9 0.867340 0.229760 0.242768
O O10 0.149788 0.747914 0.021031
O O11 0.251862 0.500874 0.998173
O O12 0.149586 0.249773 0.018673
O O13 0.142438 0.982189 0.937191
O O14 0.194444 0.366990 0.353821
O O15 0.289514 0.436980 0.286922
O O16 0.341457 0.791489 0.854871
#
# Coordination Sequence:
#
# PCOD9430098 Si02
#       8
#     8   8   8   8   8   4   8   8
#     4  10  22  43  61  90 118 174 229 266 311 409
#     4  12  25  44  65 103 130 168 223 279 335 396
#     4  11  24  42  70  81 130 178 225 272 333 387
#     4  10  19  37  60  90 127 166 212 252 328 411
#     4  10  19  33  62  85 124 169 193 268 316 393
#     4  10  20  34  54  88 130 152 198 266 322 382
#     4  10  22  34  60  93 127 161 214 262 330 397
#     4  10  22  38  56  87 128 160 213 267 315 409
#
# _framework density 19.631702000000001
#
# number of rings (size 3 to 8) (size 9 to 14) (size 15 to 20)
#    0.000    1.600    4.000    1.200    9.333    3.200 
#    4.800    0.000    0.000    1.600    0.000    0.000 
#    0.000    0.000    0.000    0.000    0.000    0.000 
#
# Total GULP energy -334643.150501 kJ/mol
# GULP energy per Si atom -5577.385842 kJ/mol
# Density = 1.958702 g / cm^3
# Si number density = 19.631702 Si / 1000 Ang^3
#
#
#
# Elastic Constant Matrix: (Units=GPa)
#
#
# Indices 1 2 3 4 5 6 
#
# 1 94.6492 32.2747 34.5228 0.0000 0.0000 0.0000
# 2 32.2747 130.8423 24.0311 0.0000 0.0000 0.0000
# 3 34.5228 24.0311 60.4199 0.0000 0.0000 0.0000
# 4 0.0000 0.0000 0.0000 18.3032 0.0000 0.0000
# 5 0.0000 0.0000 0.0000 0.0000 2.6926 0.0000
# 6 0.0000 0.0000 0.0000 0.0000 0.0000 25.6568
#
#
#
# Elastic Compliance Matrix: (Units=1/GPa)
#
#
# Indices 1 2 3 4 5 6 
#
# 1 0.013872 -0.002121 -0.007083 0.000000 0.000000 0.000000
# 2 -0.002121 0.008569 -0.002196 0.000000 0.000000 0.000000
# 3 -0.007083 -0.002196 0.021471 0.000000 0.000000 0.000000
# 4 0.000000 0.000000 0.000000 0.054635 0.000000 0.000000
# 5 0.000000 0.000000 0.000000 0.000000 0.371392 0.000000
# 6 0.000000 0.000000 0.000000 0.000000 0.000000 0.038976
#
#
# Mechanical properties :
#
#
# Convention : Reuss Voigt Hill
#
# Bulk Modulus (GPa) = 47.36510 51.95207 49.65858
# Shear Modulus (GPa) = 9.28069 22.33603 15.80836
#
# Velocity S-wave (km/s) = 2.17662 3.37672 2.84076
# Velocity P-wave (km/s) = 5.52233 6.45939 6.00915
#
# Compressibility (1/GPa) = 0.02111259
#
# Stress axis : x y z
#
# Youngs Moduli (GPa) = 72.08822 116.69460 46.57385
#
# Poissons Ratio (x) = 0.24750 0.32986
# Poissons Ratio (y) = 0.15290 0.10230
# Poissons Ratio (z) = 0.51057 0.25632
#
# Static dielectric constant tensor:
#      x y z
#    x 1.683890 0.000000 0.000000 
#    y 0.000000 1.804410 0.000000 
#    z 0.000000 0.000000 1.669610 
# 
# From -- ./inp_files/22518.got.cif
#   From: 2010.05.17/outbox.cif.g08.bks.cpg/sg56_12_cif.got.tgz:22518.got - 2010.06.03 13:42:01.
