data_PCOD9430971
_publ_section_title
;
Structure prediction by ZEFSAII (Michael W. Deem and Ramdas Pophale) SiO2 
 PCOD9430971
Probable space group: P C C N
;
_chemical_formula_sum "Si O2"
_cell_formula_units_Z 48
_cell_length_a 5.371304
_cell_length_b 24.000925
_cell_length_c 17.383881
_cell_angle_alpha 90.000000
_cell_angle_beta 90.000000
_cell_angle_gamma 90.000000
_cell_volume 2241.065000
_symmetry_space_group_name_H-M "P C C N"
_symmetry_group_IT_number 56
_symmetry_cell_setting 'orthorhombic'
loop_
_space_group_symop_operation_xyz
x,y,z
1/2-x,1/2-y,z
1/2+x,-y,1/2-z
-x,1/2+y,1/2-z
-x,-y,-z
1/2+x,1/2+y,-z
1/2-x,y,1/2+z
x,1/2-y,1/2+z
loop_
_atom_site_type_symbol
_atom_site_label
_atom_site_fract_x
_atom_site_fract_y
_atom_site_fract_z
Si Si1 0.869053 0.993999 0.301848
Si Si2 0.854067 0.310691 0.290028
Si Si3 0.497036 0.788056 0.394139
Si Si4 0.348134 0.187994 0.446346
Si Si5 0.725458 0.624586 0.297511
Si Si6 0.460929 0.395214 0.361780
O O1 0.825974 0.933404 0.339750
O O2 0.617536 0.009165 0.252994
O O3 0.922656 0.043361 0.363034
O O4 0.750000 0.250000 0.273246
O O5 0.658840 0.352399 0.327159
O O6 0.038331 0.303949 0.362034
O O7 0.989079 0.336403 0.216410
O O8 0.750000 0.750000 0.387453
O O9 0.486579 0.819056 0.477603
O O10 0.557043 0.837095 0.332346
O O11 0.250000 0.750000 0.390128
O O12 0.250000 0.250000 0.460841
O O13 0.161927 0.135837 0.434296
O O14 0.771927 0.602842 0.210375
#
# Coordination Sequence:
#
# PCOD9430971 Si02
#       6
#     8   8   8   8   8   8
#     4  10  20  39  61  91 128 167 212 267 331 380
#     4  11  20  34  64  91 125 159 216 269 318 379
#     4  11  27  42  62  90 134 175 210 259 335 399
#     4  10  21  39  58  90 123 173 209 265 320 392
#     4  10  24  38  59  95 130 167 210 270 328 391
#     4  10  21  36  63  92 121 164 220 270 315 382
#
# _framework density 21.418386999999999
#
# number of rings (size 3 to 8) (size 9 to 14) (size 15 to 20)
#    0.000    1.667    3.333    0.500    7.000    0.000 
#    0.000    0.833    0.000    1.000    0.000    0.000 
#    0.000    0.000    0.000    0.000    0.000    0.000 
#
# Total GULP energy -267223.076863 kJ/mol
# GULP energy per Si atom -5567.147435 kJ/mol
# Density = 2.136964 g / cm^3
# Si number density = 21.418387 Si / 1000 Ang^3
#
#
#
# Elastic Constant Matrix: (Units=GPa)
#
#
# Indices 1 2 3 4 5 6 
#
# 1 112.2360 58.7781 16.3014 0.0000 0.0000 0.0000
# 2 58.7781 170.6927 37.0167 0.0000 0.0000 0.0000
# 3 16.3014 37.0167 58.4525 0.0000 0.0000 0.0000
# 4 0.0000 0.0000 0.0000 -29.8493 0.0000 0.0000
# 5 0.0000 0.0000 0.0000 0.0000 16.4864 0.0000
# 6 0.0000 0.0000 0.0000 0.0000 0.0000 37.3248
#
#
#
# Elastic Compliance Matrix: (Units=1/GPa)
#
#
# Indices 1 2 3 4 5 6 
#
# 1 0.010900 -0.003587 -0.000768 0.000000 0.000000 0.000000
# 2 -0.003587 0.007971 -0.004048 0.000000 0.000000 0.000000
# 3 -0.000768 -0.004048 0.019886 0.000000 0.000000 0.000000
# 4 0.000000 0.000000 0.000000 -0.033502 0.000000 0.000000
# 5 0.000000 0.000000 0.000000 0.000000 0.060656 0.000000
# 6 0.000000 0.000000 0.000000 0.000000 0.000000 0.026792
#
#
# Mechanical properties :
#
#
# Convention : Reuss Voigt Hill
#
# Bulk Modulus (GPa) = 45.55616 62.84151 54.19884
# Shear Modulus (GPa) = 42.79868 20.07803 31.43835
#
# Velocity S-wave (km/s) = 4.47500 3.06505 3.83537
# Velocity P-wave (km/s) = 6.92940 6.47532 6.70620
#
# Compressibility (1/GPa) = 0.02195093
#
# Stress axis : x y z
#
# Youngs Moduli (GPa) = 91.74515 125.44865 50.28763
#
# Poissons Ratio (x) = 0.44995 0.03864
# Poissons Ratio (y) = 0.32906 0.20356
# Poissons Ratio (z) = 0.07049 0.50780
#
# Static dielectric constant tensor:
#      x y z
#    x 2.099710 0.000000 0.000000 
#    y 0.000000 1.450900 0.000000 
#    z 0.000000 0.000000 1.898430 
# 
# From -- ./inp_files/16925.got.cif
#   From: 2010.05.17/outbox.cif.g08.bks.cpg/sg56_9_cif.got.tgz:16925.got - 2010.06.03 13:42:01.
