data_PCOD9430088
_publ_section_title
;
Structure prediction by ZEFSAII (Michael W. Deem and Ramdas Pophale) SiO2 
 PCOD9430088
Probable space group: P C C N
;
_chemical_formula_sum "Si O2"
_cell_formula_units_Z 64
_cell_length_a 11.994275
_cell_length_b 11.421395
_cell_length_c 20.559249
_cell_angle_alpha 90.000000
_cell_angle_beta 90.000000
_cell_angle_gamma 90.000000
_cell_volume 2816.439327
_symmetry_space_group_name_H-M "P C C N"
_symmetry_group_IT_number 56
_symmetry_cell_setting 'orthorhombic'
loop_
_space_group_symop_operation_xyz
x,y,z
1/2-x,1/2-y,z
1/2+x,-y,1/2-z
-x,1/2+y,1/2-z
-x,-y,-z
1/2+x,1/2+y,-z
1/2-x,y,1/2+z
x,1/2-y,1/2+z
loop_
_atom_site_type_symbol
_atom_site_label
_atom_site_fract_x
_atom_site_fract_y
_atom_site_fract_z
Si Si1 0.379691 0.892551 0.184077
Si Si2 0.239845 0.115238 0.364292
Si Si3 0.116106 0.867003 0.195383
Si Si4 0.194941 0.027145 0.000906
Si Si5 0.439513 0.555541 0.338764
Si Si6 0.009069 0.840992 0.954789
Si Si7 0.442447 0.943732 0.329134
Si Si8 0.409212 0.901454 0.985567
O O1 0.246429 0.894728 0.188814
O O2 0.407619 0.759440 0.163261
O O3 0.428269 0.900508 0.256732
O O4 0.434816 0.007201 0.151449
O O5 0.250000 0.250000 0.347187
O O6 0.246871 0.098820 0.442211
O O7 0.128733 0.065643 0.332290
O O8 0.336825 0.027759 0.341177
O O9 0.082069 0.873320 0.272478
O O10 0.045885 0.968884 0.162282
O O11 0.096934 0.940226 0.977052
O O12 0.295480 0.939851 0.021943
O O13 0.119994 0.120329 0.039930
O O14 0.390273 0.601796 0.406965
O O15 0.039821 0.837506 0.878502
O O16 0.038202 0.726158 0.996259
O O17 0.500000 0.000000 0.000000
#
# Coordination Sequence:
#
# PCOD9430088 Si02
#       8
#     8   8   8   8   8   8   8   8
#     4  10  20  36  58  85 118 154 194 245 295 363
#     4  10  19  33  58  84 114 155 193 250 298 355
#     4  10  20  36  59  85 115 156 196 244 296 357
#     4   9  22  39  60  88 117 157 206 248 303 364
#     4  10  21  37  55  87 119 147 200 243 292 364
#     4  10  21  41  63  86 121 158 202 258 301 363
#     4  10  20  36  59  87 117 156 203 243 310 358
#     4  11  24  39  63  91 121 162 202 253 312 368
#
# _framework density 22.723728999999999
#
# number of rings (size 3 to 8) (size 9 to 14) (size 15 to 20)
#    0.000    2.000    1.250    1.875    3.500    1.000 
#    2.250    0.000    0.000    0.000    0.000    0.000 
#    0.000    0.000    0.000    0.000    0.000    0.000 
#
# Total GULP energy -356809.983079 kJ/mol
# GULP energy per Si atom -5575.155986 kJ/mol
# Density = 2.267201 g / cm^3
# Si number density = 22.723729 Si / 1000 Ang^3
#
#
#
# Elastic Constant Matrix: (Units=GPa)
#
#
# Indices 1 2 3 4 5 6 
#
# 1 104.5425 4.7304 2.4258 0.0000 0.0000 0.0000
# 2 4.7304 30.3223 -9.8687 0.0000 0.0000 0.0000
# 3 2.4258 -9.8687 43.6304 0.0000 0.0000 0.0000
# 4 0.0000 0.0000 0.0000 20.8653 0.0000 0.0000
# 5 0.0000 0.0000 0.0000 0.0000 12.9764 0.0000
# 6 0.0000 0.0000 0.0000 0.0000 0.0000 31.7193
#
#
#
# Elastic Compliance Matrix: (Units=1/GPa)
#
#
# Indices 1 2 3 4 5 6 
#
# 1 0.009670 -0.001817 -0.000949 0.000000 0.000000 0.000000
# 2 -0.001817 0.035941 0.008231 0.000000 0.000000 0.000000
# 3 -0.000949 0.008231 0.024834 0.000000 0.000000 0.000000
# 4 0.000000 0.000000 0.000000 0.047926 0.000000 0.000000
# 5 0.000000 0.000000 0.000000 0.000000 0.077063 0.000000
# 6 0.000000 0.000000 0.000000 0.000000 0.000000 0.031527
#
#
# Mechanical properties :
#
#
# Convention : Reuss Voigt Hill
#
# Bulk Modulus (GPa) = 12.28888 19.23002 15.75945
# Shear Modulus (GPa) = 20.56288 25.19273 22.87781
#
# Velocity S-wave (km/s) = 3.01143 3.33326 3.17642
# Velocity P-wave (km/s) = 4.18465 4.82649 4.51699
#
# Compressibility (1/GPa) = 0.08137438
#
# Stress axis : x y z
#
# Youngs Moduli (GPa) = 103.41555 27.82318 40.26708
#
# Poissons Ratio (x) = 0.05056 0.03820
# Poissons Ratio (y) = 0.18793 -0.33142
# Poissons Ratio (z) = 0.09811 -0.22900
#
# Static dielectric constant tensor:
#      x y z
#    x 1.951640 0.000000 0.000000 
#    y 0.000000 1.864040 0.000000 
#    z 0.000000 0.000000 1.976100 
# 
# From -- ./inp_files/21016.got.cif
#   From: 2010.05.17/outbox.cif.g08.bks.cpg/sg56_11_cif.got.tgz:21016.got - 2010.06.03 13:42:01.
