data_PCOD9430202
_publ_section_title
;
Structure prediction by ZEFSAII (Michael W. Deem and Ramdas Pophale) SiO2 
 PCOD9430202
Probable space group: P C C N
;
_chemical_formula_sum "Si O2"
_cell_formula_units_Z 48
_cell_length_a 8.257801
_cell_length_b 13.209461
_cell_length_c 15.155356
_cell_angle_alpha 90.000000
_cell_angle_beta 90.000000
_cell_angle_gamma 90.000000
_cell_volume 1653.162907
_symmetry_space_group_name_H-M "P C C N"
_symmetry_group_IT_number 56
_symmetry_cell_setting 'orthorhombic'
loop_
_space_group_symop_operation_xyz
x,y,z
1/2-x,1/2-y,z
1/2+x,-y,1/2-z
-x,1/2+y,1/2-z
-x,-y,-z
1/2+x,1/2+y,-z
1/2-x,y,1/2+z
x,1/2-y,1/2+z
loop_
_atom_site_type_symbol
_atom_site_label
_atom_site_fract_x
_atom_site_fract_y
_atom_site_fract_z
Si Si1 0.912222 0.816660 0.809743
Si Si2 0.416148 0.660965 0.201629
Si Si3 0.603052 0.360409 0.406932
Si Si4 0.561315 0.421156 0.591883
Si Si5 0.287468 0.136521 0.521289
Si Si6 0.268242 0.047130 0.330806
O O1 0.750000 0.750000 0.816038
O O2 0.053676 0.738929 0.783674
O O3 0.927993 0.866328 0.905640
O O4 0.857144 0.890382 0.731651
O O5 0.455042 0.749282 0.124437
O O6 0.302694 0.567255 0.331752
O O7 0.558439 0.578435 0.210359
O O8 0.647674 0.365512 0.510072
O O9 0.479203 0.455731 0.408550
O O10 0.752374 0.381627 0.341724
O O11 0.375631 0.389414 0.577124
O O12 0.250000 0.250000 0.489757
O O13 0.312266 0.072114 0.433945
#
# Coordination Sequence:
#
# PCOD9430202 Si02
#       6
#     8   8   8   8   8   8
#     4   9  19  35  58  93 124 173 233 270 341 435
#     4  10  20  35  63  94 125 181 214 287 344 420
#     4  10  19  35  61  95 132 165 236 277 350 406
#     4  11  20  37  61  97 123 171 231 294 344 422
#     4  11  20  35  63  89 124 173 224 277 346 421
#     4  11  19  37  66  91 129 169 235 280 353 411
#
# _framework density 29.035252
#
# number of rings (size 3 to 8) (size 9 to 14) (size 15 to 20)
#    0.000    1.667    5.000    2.500    0.000    0.667 
#    0.000    5.000    0.000   16.000    0.000    0.000 
#    0.000    0.000    0.000    0.000    0.000    0.000 
#
# Total GULP energy -267449.608761 kJ/mol
# GULP energy per Si atom -5571.866849 kJ/mol
# Density = 2.896917 g / cm^3
# Si number density = 29.035252 Si / 1000 Ang^3
#
#
#
# Elastic Constant Matrix: (Units=GPa)
#
#
# Indices 1 2 3 4 5 6 
#
# 1 98.8298 26.4342 37.2097 0.0000 0.0000 0.0000
# 2 26.4342 66.9259 0.5806 0.0000 0.0000 0.0000
# 3 37.2097 0.5806 151.4405 0.0000 0.0000 0.0000
# 4 0.0000 0.0000 0.0000 -1.9951 0.0000 0.0000
# 5 0.0000 0.0000 0.0000 0.0000 507.7054 0.0000
# 6 0.0000 0.0000 0.0000 0.0000 0.0000 58.2911
#
#
#
# Elastic Compliance Matrix: (Units=1/GPa)
#
#
# Indices 1 2 3 4 5 6 
#
# 1 0.012601 -0.004950 -0.003077 0.000000 0.000000 0.000000
# 2 -0.004950 0.016887 0.001152 0.000000 0.000000 0.000000
# 3 -0.003077 0.001152 0.007355 0.000000 0.000000 0.000000
# 4 0.000000 0.000000 0.000000 -0.501220 0.000000 0.000000
# 5 0.000000 0.000000 0.000000 0.000000 0.001970 0.000000
# 6 0.000000 0.000000 0.000000 0.000000 0.000000 0.017155
#
#
# Mechanical properties :
#
#
# Convention : Reuss Voigt Hill
#
# Bulk Modulus (GPa) = 43.30652 49.51613 46.41133
# Shear Modulus (GPa) = -11.79795 129.66506 58.93356
#
# Velocity S-wave (km/s) = -2.01795 6.68990 4.51013
# Velocity P-wave (km/s) = 3.08513 8.76150 6.56817
#
# Compressibility (1/GPa) = 0.02309121
#
# Stress axis : x y z
#
# Youngs Moduli (GPa) = 79.35835 59.21637 135.96352
#
# Poissons Ratio (x) = 0.29315 0.41838
# Poissons Ratio (y) = 0.39286 -0.15658
# Poissons Ratio (z) = 0.24420 -0.06819
#
# Static dielectric constant tensor:
#      x y z
#    x 2.524730 0.000000 0.000000 
#    y 0.000000 2.338880 0.000000 
#    z 0.000000 0.000000 2.654510 
# 
# From -- ./inp_files/12336.got.cif
#   From: 2010.05.17/outbox.cif.g08.bks.cpg/sg56_7_cif.got.tgz:12336.got - 2010.06.03 13:42:01.
