data_PCOD9430148
_publ_section_title
;
Structure prediction by ZEFSAII (Michael W. Deem and Ramdas Pophale) SiO2 
 PCOD9430148
Probable space group: P C C N
;
_chemical_formula_sum "Si O2"
_cell_formula_units_Z 48
_cell_length_a 10.576930
_cell_length_b 11.209789
_cell_length_c 20.728667
_cell_angle_alpha 90.000000
_cell_angle_beta 90.000000
_cell_angle_gamma 90.000000
_cell_volume 2457.697586
_symmetry_space_group_name_H-M "P C C N"
_symmetry_group_IT_number 56
_symmetry_cell_setting 'orthorhombic'
loop_
_space_group_symop_operation_xyz
x,y,z
1/2-x,1/2-y,z
1/2+x,-y,1/2-z
-x,1/2+y,1/2-z
-x,-y,-z
1/2+x,1/2+y,-z
1/2-x,y,1/2+z
x,1/2-y,1/2+z
loop_
_atom_site_type_symbol
_atom_site_label
_atom_site_fract_x
_atom_site_fract_y
_atom_site_fract_z
Si Si1 0.560789 0.665918 0.660130
Si Si2 0.750000 0.750000 0.268339
Si Si3 0.369182 0.829827 0.944944
Si Si4 0.890775 0.302652 0.426388
Si Si5 0.750000 0.750000 0.054051
Si Si6 0.226140 0.472400 0.522561
Si Si7 0.086255 0.078843 0.640326
O O1 0.644541 0.687758 0.723059
O O2 0.469546 0.774108 0.637295
O O3 0.659524 0.674334 0.600841
O O4 0.477234 0.545924 0.663117
O O5 0.828318 0.846704 0.309990
O O6 0.250000 0.750000 0.924787
O O7 0.469974 0.846187 0.889161
O O8 0.429635 0.771973 0.009649
O O9 0.304749 0.950821 0.970374
O O10 0.750000 0.250000 0.414719
O O11 0.879134 0.439585 0.447855
O O12 0.684192 0.650981 0.009205
O O13 0.323107 0.447691 0.580078
#
# Coordination Sequence:
#
# PCOD9430148 Si02
#       7
#     8   4   8   8   4   8   8
#     4  11  23  45  63  84 134 178 215 271 313 368
#     4  11  31  44  58  94 115 181 250 260 302 379
#     4   9  18  35  66 103 124 156 199 254 340 398
#     4   9  18  36  65  97 127 160 206 251 333 399
#     4  11  21  34  64 104 135 165 200 250 340 407
#     4  10  19  34  66 105 128 159 197 258 342 400
#     4  12  21  45  65  85 136 166 213 276 319 375
#
# _framework density 19.530473000000001
#
# number of rings (size 3 to 8) (size 9 to 14) (size 15 to 20)
#    0.000    2.000    5.000    2.000    0.000    2.000 
#    3.000    1.667    0.000    0.000    0.000    0.000 
#    0.000    0.000    0.000    0.000    0.000    0.000 
#
# Total GULP energy -267605.820202 kJ/mol
# GULP energy per Si atom -5575.121254 kJ/mol
# Density = 1.948602 g / cm^3
# Si number density = 19.530473 Si / 1000 Ang^3
#
#
#
# Elastic Constant Matrix: (Units=GPa)
#
#
# Indices 1 2 3 4 5 6 
#
# 1 92.2611 60.0442 67.0900 0.0000 0.0000 0.0000
# 2 60.0442 138.2643 73.0100 0.0000 0.0000 0.0000
# 3 67.0900 73.0100 88.3543 0.0000 0.0000 0.0000
# 4 0.0000 0.0000 0.0000 55.7645 0.0000 0.0000
# 5 0.0000 0.0000 0.0000 0.0000 -31.3521 0.0000
# 6 0.0000 0.0000 0.0000 0.0000 0.0000 28.6584
#
#
#
# Elastic Compliance Matrix: (Units=1/GPa)
#
#
# Indices 1 2 3 4 5 6 
#
# 1 0.024363 -0.001440 -0.017310 0.000000 0.000000 0.000000
# 2 -0.001440 0.012916 -0.009580 0.000000 0.000000 0.000000
# 3 -0.017310 -0.009580 0.032378 0.000000 0.000000 0.000000
# 4 0.000000 0.000000 0.000000 0.017933 0.000000 0.000000
# 5 0.000000 0.000000 0.000000 0.000000 -0.031896 0.000000
# 6 0.000000 0.000000 0.000000 0.000000 0.000000 0.034894
#
#
# Mechanical properties :
#
#
# Convention : Reuss Voigt Hill
#
# Bulk Modulus (GPa) = 76.93223 79.90758 78.41990
# Shear Modulus (GPa) = 32.98572 18.52986 25.75779
#
# Velocity S-wave (km/s) = 4.11412 3.08355 3.63554
# Velocity P-wave (km/s) = 7.87683 7.32672 7.60675
#
# Compressibility (1/GPa) = 0.01299845
#
# Stress axis : x y z
#
# Youngs Moduli (GPa) = 41.04558 77.42043 30.88490
#
# Poissons Ratio (x) = 0.11147 0.53462
# Poissons Ratio (y) = 0.05910 0.29588
# Poissons Ratio (z) = 0.71050 0.74169
#
# Static dielectric constant tensor:
#      x y z
#    x 1.732800 0.000000 0.000000 
#    y 0.000000 1.677660 0.000000 
#    z 0.000000 0.000000 1.659140 
# 
# From -- ./inp_files/15650.got.cif
#   From: 2010.05.17/outbox.cif.g08.bks.cpg/sg56_8_cif.got.tgz:15650.got - 2010.06.03 13:42:01.
