data_PCOD9430123
_publ_section_title
;
Structure prediction by ZEFSAII (Michael W. Deem and Ramdas Pophale) SiO2 
 PCOD9430123
Probable space group: P C C N
;
_chemical_formula_sum "Si O2"
_cell_formula_units_Z 48
_cell_length_a 10.687044
_cell_length_b 9.235688
_cell_length_c 21.612059
_cell_angle_alpha 90.000000
_cell_angle_beta 90.000000
_cell_angle_gamma 90.000000
_cell_volume 2133.157857
_symmetry_space_group_name_H-M "P C C N"
_symmetry_group_IT_number 56
_symmetry_cell_setting 'orthorhombic'
loop_
_space_group_symop_operation_xyz
x,y,z
1/2-x,1/2-y,z
1/2+x,-y,1/2-z
-x,1/2+y,1/2-z
-x,-y,-z
1/2+x,1/2+y,-z
1/2-x,y,1/2+z
x,1/2-y,1/2+z
loop_
_atom_site_type_symbol
_atom_site_label
_atom_site_fract_x
_atom_site_fract_y
_atom_site_fract_z
Si Si1 0.028910 0.893898 0.726385
Si Si2 0.223182 0.087164 0.214426
Si Si3 0.678689 0.559080 0.483660
Si Si4 0.898046 0.255273 0.148883
Si Si5 0.475960 0.432936 0.402020
Si Si6 0.393633 0.134743 0.579596
O O1 0.058671 0.784532 0.782054
O O2 0.898525 0.966014 0.748794
O O3 0.152782 0.992900 0.721850
O O4 0.003930 0.833509 0.657160
O O5 0.250000 0.250000 0.237076
O O6 0.183163 0.102309 0.142780
O O7 0.591311 0.439452 0.450542
O O8 0.644033 0.585622 0.554560
O O9 0.634053 0.706607 0.449199
O O10 0.824502 0.532942 0.469816
O O11 0.750000 0.250000 0.143931
O O12 0.953452 0.410253 0.129479
O O13 0.964487 0.140293 0.102431
#
# Coordination Sequence:
#
# PCOD9430123 Si02
#       6
#     8   8   8   8   8   8
#     4  11  21  34  60  89 126 169 215 272 329 391
#     4  11  20  37  59  91 131 168 219 269 333 402
#     4   9  16  32  61  83 110 156 213 260 311 382
#     4  10  21  36  57  88 127 168 208 262 330 400
#     4  10  19  34  57  88 114 160 217 255 317 393
#     4   9  16  34  61  85 117 162 209 262 325 381
#
# _framework density 22.501850999999998
#
# number of rings (size 3 to 8) (size 9 to 14) (size 15 to 20)
#    0.000    2.000    3.333    3.000    0.000    0.000 
#    3.000    0.833    0.000    9.000    0.000    0.000 
#    0.000    0.000    0.000    0.000    0.000    0.000 
#
# Total GULP energy -267476.526519 kJ/mol
# GULP energy per Si atom -5572.427636 kJ/mol
# Density = 2.245064 g / cm^3
# Si number density = 22.501851 Si / 1000 Ang^3
#
#
#
# Elastic Constant Matrix: (Units=GPa)
#
#
# Indices 1 2 3 4 5 6 
#
# 1 160.6493 11.6198 67.4131 0.0000 0.0000 0.0000
# 2 11.6198 23.3008 23.9836 0.0000 0.0000 0.0000
# 3 67.4131 23.9836 149.3497 0.0000 0.0000 0.0000
# 4 0.0000 0.0000 0.0000 0.3062 0.0000 0.0000
# 5 0.0000 0.0000 0.0000 0.0000 21.7576 0.0000
# 6 0.0000 0.0000 0.0000 0.0000 0.0000 19.4107
#
#
#
# Elastic Compliance Matrix: (Units=1/GPa)
#
#
# Indices 1 2 3 4 5 6 
#
# 1 0.007681 -0.000314 -0.003417 0.000000 0.000000 0.000000
# 2 -0.000314 0.051428 -0.008117 0.000000 0.000000 0.000000
# 3 -0.003417 -0.008117 0.009541 0.000000 0.000000 0.000000
# 4 0.000000 0.000000 0.000000 3.266215 0.000000 0.000000
# 5 0.000000 0.000000 0.000000 0.000000 0.045961 0.000000
# 6 0.000000 0.000000 0.000000 0.000000 0.000000 0.051518
#
#
# Mechanical properties :
#
#
# Convention : Reuss Voigt Hill
#
# Bulk Modulus (GPa) = 22.24397 59.92585 41.08491
# Shear Modulus (GPa) = 1.44050 23.64711 12.54380
#
# Velocity S-wave (km/s) = 0.80097 3.24527 2.36361
# Velocity P-wave (km/s) = 3.28059 6.38214 5.07415
#
# Compressibility (1/GPa) = 0.04495600
#
# Stress axis : x y z
#
# Youngs Moduli (GPa) = 130.18813 19.44450 104.80589
#
# Poissons Ratio (x) = 0.00610 0.35810
# Poissons Ratio (y) = 0.04083 0.85073
# Poissons Ratio (z) = 0.44482 0.15783
#
# Static dielectric constant tensor:
#      x y z
#    x 1.899210 0.000000 0.000000 
#    y 0.000000 1.906920 0.000000 
#    z 0.000000 0.000000 1.884500 
# 
# From -- ./inp_files/18677.got.cif
#   From: 2010.05.17/outbox.cif.g08.bks.cpg/sg56_10_cif.got.tgz:18677.got - 2010.06.03 13:42:01.
