data_PCOD9430995
_publ_section_title
;
Structure prediction by ZEFSAII (Michael W. Deem and Ramdas Pophale) SiO2 
 PCOD9430995
Probable space group: P C C N
;
_chemical_formula_sum "Si O2"
_cell_formula_units_Z 36
_cell_length_a 5.539462
_cell_length_b 13.232209
_cell_length_c 18.801721
_cell_angle_alpha 90.000000
_cell_angle_beta 90.000000
_cell_angle_gamma 90.000000
_cell_volume 1378.153344
_symmetry_space_group_name_H-M "P C C N"
_symmetry_group_IT_number 56
_symmetry_cell_setting 'orthorhombic'
loop_
_space_group_symop_operation_xyz
x,y,z
1/2-x,1/2-y,z
1/2+x,-y,1/2-z
-x,1/2+y,1/2-z
-x,-y,-z
1/2+x,1/2+y,-z
1/2-x,y,1/2+z
x,1/2-y,1/2+z
loop_
_atom_site_type_symbol
_atom_site_label
_atom_site_fract_x
_atom_site_fract_y
_atom_site_fract_z
Si Si1 0.993893 0.765071 0.888403
Si Si2 0.491199 0.056624 0.924953
Si Si3 0.057580 0.660025 0.744513
Si Si4 0.250000 0.250000 0.880227
Si Si5 0.989772 0.505047 0.347891
O O1 0.250000 0.750000 0.925530
O O2 0.978673 0.683916 0.824209
O O3 0.750000 0.750000 0.931713
O O4 0.992270 0.873522 0.850318
O O5 0.430756 0.176702 0.922599
O O6 0.756246 0.035416 0.892114
O O7 0.251115 0.014438 0.884996
O O8 0.500000 0.000000 0.000000
O O9 0.250000 0.750000 0.733691
O O10 0.081507 0.540729 0.729950
O O11 0.889469 0.680811 0.676833
#
# Coordination Sequence:
#
# PCOD9430995 Si02
#       5
#     8   8   8   4   8
#     4  11  24  40  63  98 139 178 219 265 345 406
#     4  11  24  45  70  97 128 179 231 287 340 394
#     4  10  20  39  65  95 132 176 224 259 333 411
#     4  10  20  42  66  96 126 176 228 274 326 420
#     4  11  24  43  68  98 139 174 227 282 333 409
#
# _framework density 26.12191
#
# number of rings (size 3 to 8) (size 9 to 14) (size 15 to 20)
#    0.000    1.333    3.333    2.000    0.000    3.556 
#    6.000    0.000    0.000    0.000    0.000    0.000 
#    0.000    0.000    0.000    0.000    0.000    0.000 
#
# Total GULP energy -200778.392560 kJ/mol
# GULP energy per Si atom -5577.177571 kJ/mol
# Density = 2.606246 g / cm^3
# Si number density = 26.121910 Si / 1000 Ang^3
#
#
#
# Elastic Constant Matrix: (Units=GPa)
#
#
# Indices 1 2 3 4 5 6 
#
# 1 199.8305 36.8920 52.8709 0.0000 0.0000 0.0000
# 2 36.8920 81.6383 6.9867 0.0000 0.0000 0.0000
# 3 52.8709 6.9867 95.8075 0.0000 0.0000 0.0000
# 4 0.0000 0.0000 0.0000 15.1880 0.0000 0.0000
# 5 0.0000 0.0000 0.0000 0.0000 47.5964 0.0000
# 6 0.0000 0.0000 0.0000 0.0000 0.0000 53.8098
#
#
#
# Elastic Compliance Matrix: (Units=1/GPa)
#
#
# Indices 1 2 3 4 5 6 
#
# 1 0.006361 -0.002590 -0.003322 0.000000 0.000000 0.000000
# 2 -0.002590 0.013381 0.000454 0.000000 0.000000 0.000000
# 3 -0.003322 0.000454 0.012237 0.000000 0.000000 0.000000
# 4 0.000000 0.000000 0.000000 0.065841 0.000000 0.000000
# 5 0.000000 0.000000 0.000000 0.000000 0.021010 0.000000
# 6 0.000000 0.000000 0.000000 0.000000 0.000000 0.018584
#
#
# Mechanical properties :
#
#
# Convention : Reuss Voigt Hill
#
# Bulk Modulus (GPa) = 47.47611 63.41951 55.44781
# Shear Modulus (GPa) = 32.18485 42.02062 37.10274
#
# Velocity S-wave (km/s) = 3.51394 4.01513 3.77287
# Velocity P-wave (km/s) = 5.88880 6.76949 6.34445
#
# Compressibility (1/GPa) = 0.02106322
#
# Stress axis : x y z
#
# Youngs Moduli (GPa) = 157.20124 74.73333 81.71610
#
# Poissons Ratio (x) = 0.19359 0.27142
# Poissons Ratio (y) = 0.40721 -0.03707
# Poissons Ratio (z) = 0.52215 -0.03391
#
# Static dielectric constant tensor:
#      x y z
#    x 2.306310 0.000000 0.000000 
#    y 0.000000 0.706380 0.000000 
#    z 0.000000 0.000000 2.021220 
# 
# From -- ./inp_files/19893.got.cif
#   From: 2010.05.17/outbox.cif.g08.bks.cpg/sg56_10_cif.got.tgz:19893.got - 2010.06.03 13:42:01.
