data_PCOD9430058
_publ_section_title
;
Structure prediction by ZEFSAII (Michael W. Deem and Ramdas Pophale) SiO2 
 PCOD9430058
Probable space group: P C C N
;
_chemical_formula_sum "Si O2"
_cell_formula_units_Z 48
_cell_length_a 15.878948
_cell_length_b 8.452761
_cell_length_c 17.131412
_cell_angle_alpha 90.000000
_cell_angle_beta 90.000000
_cell_angle_gamma 90.000000
_cell_volume 2299.394434
_symmetry_space_group_name_H-M "P C C N"
_symmetry_group_IT_number 56
_symmetry_cell_setting 'orthorhombic'
loop_
_space_group_symop_operation_xyz
x,y,z
1/2-x,1/2-y,z
1/2+x,-y,1/2-z
-x,1/2+y,1/2-z
-x,-y,-z
1/2+x,1/2+y,-z
1/2-x,y,1/2+z
x,1/2-y,1/2+z
loop_
_atom_site_type_symbol
_atom_site_label
_atom_site_fract_x
_atom_site_fract_y
_atom_site_fract_z
Si Si1 0.419211 0.568328 0.101835
Si Si2 0.325717 0.631861 0.628050
Si Si3 0.423733 0.105359 0.032475
Si Si4 0.113807 0.083268 0.945923
Si Si5 0.038847 0.290068 0.690900
Si Si6 0.121427 0.005023 0.782089
O O1 0.403845 0.746615 0.126063
O O2 0.516891 0.549702 0.079172
O O3 0.402971 0.442978 0.170900
O O4 0.369278 0.519181 0.023416
O O5 0.250000 0.750000 0.613008
O O6 0.347844 0.502170 0.563906
O O7 0.318484 0.547846 0.711700
O O8 0.460742 0.197058 0.108289
O O9 0.388063 0.235002 0.972715
O O10 0.500000 0.000000 0.000000
O O11 0.161568 0.037307 0.866813
O O12 0.075019 0.166381 0.753292
O O13 0.948806 0.365592 0.711726
#
# Coordination Sequence:
#
# PCOD9430058 Si02
#       6
#     8   8   8   8   8   8
#     4   9  17  34  55  83 114 149 190 247 304 351
#     4  11  23  38  56  83 122 164 195 237 311 385
#     4  10  19  34  59  89 111 149 203 256 300 350
#     4   9  17  32  58  87 110 138 196 263 294 338
#     4   9  19  30  55  87 114 143 187 247 301 348
#     4  10  19  33  53  86 118 149 190 240 304 355
#
# _framework density 20.875063000000001
#
# number of rings (size 3 to 8) (size 9 to 14) (size 15 to 20)
#    0.000    2.333    1.667    3.000    2.333    0.000 
#    0.000    8.333    0.000    2.000    0.000    0.000 
#    0.000    0.000    0.000    0.000    0.000    0.000 
#
# Total GULP energy -267556.281088 kJ/mol
# GULP energy per Si atom -5574.089189 kJ/mol
# Density = 2.082755 g / cm^3
# Si number density = 20.875063 Si / 1000 Ang^3
#
#
#
# Elastic Constant Matrix: (Units=GPa)
#
#
# Indices 1 2 3 4 5 6 
#
# 1 29.6365 9.6918 18.6737 0.0000 0.0000 0.0000
# 2 9.6918 107.7531 44.3743 0.0000 0.0000 0.0000
# 3 18.6737 44.3743 92.4076 0.0000 0.0000 0.0000
# 4 0.0000 0.0000 0.0000 25.9428 0.0000 0.0000
# 5 0.0000 0.0000 0.0000 0.0000 1.6514 0.0000
# 6 0.0000 0.0000 0.0000 0.0000 0.0000 22.8073
#
#
#
# Elastic Compliance Matrix: (Units=1/GPa)
#
#
# Indices 1 2 3 4 5 6 
#
# 1 0.038675 -0.000324 -0.007660 0.000000 0.000000 0.000000
# 2 -0.000324 0.011571 -0.005491 0.000000 0.000000 0.000000
# 3 -0.007660 -0.005491 0.015006 0.000000 0.000000 0.000000
# 4 0.000000 0.000000 0.000000 0.038546 0.000000 0.000000
# 5 0.000000 0.000000 0.000000 0.000000 0.605547 0.000000
# 6 0.000000 0.000000 0.000000 0.000000 0.000000 0.043846
#
#
# Mechanical properties :
#
#
# Convention : Reuss Voigt Hill
#
# Bulk Modulus (GPa) = 26.10817 41.69742 33.90279
# Shear Modulus (GPa) = 6.30591 20.55081 13.42836
#
# Velocity S-wave (km/s) = 1.73993 3.14103 2.53903
# Velocity P-wave (km/s) = 4.07069 5.75959 4.98715
#
# Compressibility (1/GPa) = 0.03830219
#
# Stress axis : x y z
#
# Youngs Moduli (GPa) = 25.85682 86.42420 66.63918
#
# Poissons Ratio (x) = 0.02802 0.51043
# Poissons Ratio (y) = 0.00838 0.36590
# Poissons Ratio (z) = 0.19805 0.47454
#
# Static dielectric constant tensor:
#      x y z
#    x 1.679880 0.000000 0.000000 
#    y 0.000000 1.769910 0.000000 
#    z 0.000000 0.000000 1.817120 
# 
# From -- ./inp_files/19258.got.cif
#   From: 2010.05.17/outbox.cif.g08.bks.cpg/sg56_10_cif.got.tgz:19258.got - 2010.06.03 13:42:01.
