data_PCOD9430772
_publ_section_title
;
Structure prediction by ZEFSAII (Michael W. Deem and Ramdas Pophale) SiO2 
 PCOD9430772
Probable space group: P C C N
;
_chemical_formula_sum "Si O2"
_cell_formula_units_Z 64
_cell_length_a 20.622167
_cell_length_b 10.416934
_cell_length_c 12.825204
_cell_angle_alpha 90.000000
_cell_angle_beta 90.000000
_cell_angle_gamma 90.000000
_cell_volume 2755.107150
_symmetry_space_group_name_H-M "P C C N"
_symmetry_group_IT_number 56
_symmetry_cell_setting 'orthorhombic'
loop_
_space_group_symop_operation_xyz
x,y,z
1/2-x,1/2-y,z
1/2+x,-y,1/2-z
-x,1/2+y,1/2-z
-x,-y,-z
1/2+x,1/2+y,-z
1/2-x,y,1/2+z
x,1/2-y,1/2+z
loop_
_atom_site_type_symbol
_atom_site_label
_atom_site_fract_x
_atom_site_fract_y
_atom_site_fract_z
Si Si1 0.391812 0.265223 0.280482
Si Si2 0.436129 0.590343 0.592896
Si Si3 0.533826 0.344850 0.815818
Si Si4 0.130675 0.474870 0.613309
Si Si5 0.830977 0.568876 0.838999
Si Si6 0.243209 0.102965 0.958955
Si Si7 0.761163 0.099908 0.727507
Si Si8 0.577011 0.498017 0.611539
O O1 0.457202 0.188729 0.312701
O O2 0.396412 0.348237 0.172918
O O3 0.333492 0.170917 0.253350
O O4 0.378810 0.380122 0.361364
O O5 0.430567 0.709266 0.668822
O O6 0.405136 0.460724 0.635484
O O7 0.512215 0.573410 0.578076
O O8 0.402847 0.598090 0.479666
O O9 0.567407 0.435558 0.903365
O O10 0.554753 0.416232 0.710460
O O11 0.173269 0.432724 0.513732
O O12 0.179224 0.552304 0.695602
O O13 0.790998 0.604082 0.940116
O O14 0.800637 0.439901 0.795748
O O15 0.250000 0.250000 0.921767
O O16 0.258964 0.989695 0.875907
O O17 0.750000 0.250000 0.703981
#
# Coordination Sequence:
#
# PCOD9430772 Si02
#       8
#     8   8   8   8   8   8   8   8
#     4  10  20  39  67  98 135 175 225 290 355 416
#     4  10  20  37  61  96 125 178 227 273 346 422
#     4  10  20  39  65  93 140 175 222 288 353 412
#     4  10  23  45  67  99 139 177 235 292 344 426
#     4  11  23  41  68  94 135 170 232 281 349 413
#     4  11  25  43  70  99 134 182 231 291 351 418
#     4  11  27  45  68 101 135 187 234 288 359 415
#     4   9  20  36  63  94 131 178 226 278 346 420
#
# _framework density 23.229586000000001
#
# number of rings (size 3 to 8) (size 9 to 14) (size 15 to 20)
#    0.000    1.750    2.500    0.750    5.250    3.000 
#    2.250    0.000    0.000    3.000    0.000    0.000 
#    0.000    0.000    0.000    0.000    0.000    0.000 
#
# Total GULP energy -356416.349434 kJ/mol
# GULP energy per Si atom -5569.005460 kJ/mol
# Density = 2.317671 g / cm^3
# Si number density = 23.229586 Si / 1000 Ang^3
#
#
#
# Elastic Constant Matrix: (Units=GPa)
#
#
# Indices 1 2 3 4 5 6 
#
# 1 72.1402 23.7854 12.9142 0.0000 0.0000 0.0000
# 2 23.7854 136.7365 41.1745 0.0000 0.0000 0.0000
# 3 12.9142 41.1745 76.5647 0.0000 0.0000 0.0000
# 4 0.0000 0.0000 0.0000 17.8895 0.0000 0.0000
# 5 0.0000 0.0000 0.0000 0.0000 25.0521 0.0000
# 6 0.0000 0.0000 0.0000 0.0000 0.0000 40.0523
#
#
#
# Elastic Compliance Matrix: (Units=1/GPa)
#
#
# Indices 1 2 3 4 5 6 
#
# 1 0.014818 -0.002178 -0.001328 0.000000 0.000000 0.000000
# 2 -0.002178 0.009046 -0.004498 0.000000 0.000000 0.000000
# 3 -0.001328 -0.004498 0.015704 0.000000 0.000000 0.000000
# 4 0.000000 0.000000 0.000000 0.055899 0.000000 0.000000
# 5 0.000000 0.000000 0.000000 0.000000 0.039917 0.000000
# 6 0.000000 0.000000 0.000000 0.000000 0.000000 0.024967
#
#
# Mechanical properties :
#
#
# Convention : Reuss Voigt Hill
#
# Bulk Modulus (GPa) = 42.44348 49.02106 45.73227
# Shear Modulus (GPa) = 27.14275 30.43659 28.78967
#
# Velocity S-wave (km/s) = 3.42198 3.62367 3.52426
# Velocity P-wave (km/s) = 5.82445 6.21744 6.02415
#
# Compressibility (1/GPa) = 0.02356075
#
# Stress axis : x y z
#
# Youngs Moduli (GPa) = 67.48709 110.54029 63.67963
#
# Poissons Ratio (x) = 0.24071 0.08458
# Poissons Ratio (y) = 0.14696 0.28641
# Poissons Ratio (z) = 0.08964 0.49717
#
# Static dielectric constant tensor:
#      x y z
#    x 1.971870 0.000000 0.000000 
#    y 0.000000 1.891370 0.000000 
#    z 0.000000 0.000000 1.941590 
# 
# From -- ./inp_files/13273.got.cif
#   From: 2010.05.17/outbox.cif.g08.bks.cpg/sg56_7_cif.got.tgz:13273.got - 2010.06.03 13:42:01.
