data_PCOD9430603
_publ_section_title
;
Structure prediction by ZEFSAII (Michael W. Deem and Ramdas Pophale) SiO2 
 PCOD9430603
Probable space group: P C C N
;
_chemical_formula_sum "Si O2"
_cell_formula_units_Z 64
_cell_length_a 15.784993
_cell_length_b 12.084197
_cell_length_c 14.697846
_cell_angle_alpha 90.000000
_cell_angle_beta 90.000000
_cell_angle_gamma 90.000000
_cell_volume 2803.598913
_symmetry_space_group_name_H-M "P C C N"
_symmetry_group_IT_number 56
_symmetry_cell_setting 'orthorhombic'
loop_
_space_group_symop_operation_xyz
x,y,z
1/2-x,1/2-y,z
1/2+x,-y,1/2-z
-x,1/2+y,1/2-z
-x,-y,-z
1/2+x,1/2+y,-z
1/2-x,y,1/2+z
x,1/2-y,1/2+z
loop_
_atom_site_type_symbol
_atom_site_label
_atom_site_fract_x
_atom_site_fract_y
_atom_site_fract_z
Si Si1 0.987005 0.317162 0.334441
Si Si2 0.905333 0.770532 0.002011
Si Si3 0.123786 0.316346 0.180886
Si Si4 0.132953 0.701734 0.278387
Si Si5 0.025805 0.559486 0.393834
Si Si6 0.305892 0.478020 0.992616
Si Si7 0.802738 0.410406 0.154917
Si Si8 0.705875 0.573694 0.801352
O O1 0.043072 0.247356 0.406465
O O2 0.040051 0.325791 0.240624
O O3 0.984791 0.441747 0.372374
O O4 0.896614 0.262539 0.313157
O O5 0.886312 0.675114 0.928889
O O6 0.965060 0.855941 0.945138
O O7 0.823933 0.847092 0.026513
O O8 0.195373 0.399356 0.217782
O O9 0.161332 0.192705 0.192093
O O10 0.059120 0.617157 0.303169
O O11 0.220953 0.637500 0.288816
O O12 0.139525 0.801966 0.352399
O O13 0.110689 0.537807 0.452292
O O14 0.229711 0.532551 0.936494
O O15 0.296937 0.484525 0.100584
O O16 0.837091 0.503263 0.222399
#
# Coordination Sequence:
#
# PCOD9430603 Si02
#       8
#     8   8   8   8   8   8   8   8
#     4  11  21  36  64  84 117 161 189 252 302 342
#     4  10  20  35  59  87 114 148 204 242 287 357
#     4  10  21  37  56  93 118 149 198 251 290 351
#     4  10  22  38  58  88 119 151 200 248 289 356
#     4  10  20  38  60  86 120 148 202 246 292 355
#     4   9  19  35  57  78 107 155 188 236 281 337
#     4  10  22  40  55  84 121 155 197 242 295 352
#     4  10  21  37  61  83 120 156 197 236 298 358
#
# _framework density 22.827801000000001
#
# number of rings (size 3 to 8) (size 9 to 14) (size 15 to 20)
#    0.000    2.000    1.250    3.750    5.250    1.000 
#    2.250    5.000    0.000    2.250    0.000    0.000 
#    0.000    0.000    0.000    0.000    0.000    0.000 
#
# Total GULP energy -357383.274715 kJ/mol
# GULP energy per Si atom -5584.113667 kJ/mol
# Density = 2.277584 g / cm^3
# Si number density = 22.827801 Si / 1000 Ang^3
#
#
#
# Elastic Constant Matrix: (Units=GPa)
#
#
# Indices 1 2 3 4 5 6 
#
# 1 42.9664 -1.3158 3.2788 0.0000 0.0000 0.0000
# 2 -1.3158 53.9533 19.5820 0.0000 0.0000 0.0000
# 3 3.2788 19.5820 56.2994 0.0000 0.0000 0.0000
# 4 0.0000 0.0000 0.0000 33.4086 0.0000 0.0000
# 5 0.0000 0.0000 0.0000 0.0000 39.0976 0.0000
# 6 0.0000 0.0000 0.0000 0.0000 0.0000 24.6925
#
#
#
# Elastic Compliance Matrix: (Units=1/GPa)
#
#
# Indices 1 2 3 4 5 6 
#
# 1 0.023448 0.001222 -0.001791 0.000000 0.000000 0.000000
# 2 0.001222 0.021276 -0.007471 0.000000 0.000000 0.000000
# 3 -0.001791 -0.007471 0.020465 0.000000 0.000000 0.000000
# 4 0.000000 0.000000 0.000000 0.029932 0.000000 0.000000
# 5 0.000000 0.000000 0.000000 0.000000 0.025577 0.000000
# 6 0.000000 0.000000 0.000000 0.000000 0.000000 0.040498
#
#
# Mechanical properties :
#
#
# Convention : Reuss Voigt Hill
#
# Bulk Modulus (GPa) = 20.36291 21.81213 21.08752
# Shear Modulus (GPa) = 25.82022 28.21802 27.01912
#
# Velocity S-wave (km/s) = 3.36681 3.51967 3.44409
# Velocity P-wave (km/s) = 4.90444 5.10816 5.00733
#
# Compressibility (1/GPa) = 0.04910888
#
# Stress axis : x y z
#
# Youngs Moduli (GPa) = 42.64743 47.00127 48.86361
#
# Poissons Ratio (x) = -0.05742 0.08749
# Poissons Ratio (y) = -0.05210 0.36508
# Poissons Ratio (z) = 0.07636 0.35116
#
# Static dielectric constant tensor:
#      x y z
#    x 1.914390 0.000000 0.000000 
#    y 0.000000 1.878460 0.000000 
#    z 0.000000 0.000000 1.884240 
# 
# From -- ./inp_files/12881.got.cif
#   From: 2010.05.17/outbox.cif.g08.bks.cpg/sg56_7_cif.got.tgz:12881.got - 2010.06.03 13:42:01.
