data_PCOD9430254
_publ_section_title
;
Structure prediction by ZEFSAII (Michael W. Deem and Ramdas Pophale) SiO2 
 PCOD9430254
Probable space group: P C C N
;
_chemical_formula_sum "Si O2"
_cell_formula_units_Z 48
_cell_length_a 15.549711
_cell_length_b 11.846180
_cell_length_c 11.627627
_cell_angle_alpha 90.000000
_cell_angle_beta 90.000000
_cell_angle_gamma 90.000000
_cell_volume 2141.863258
_symmetry_space_group_name_H-M "P C C N"
_symmetry_group_IT_number 56
_symmetry_cell_setting 'orthorhombic'
loop_
_space_group_symop_operation_xyz
x,y,z
1/2-x,1/2-y,z
1/2+x,-y,1/2-z
-x,1/2+y,1/2-z
-x,-y,-z
1/2+x,1/2+y,-z
1/2-x,y,1/2+z
x,1/2-y,1/2+z
loop_
_atom_site_type_symbol
_atom_site_label
_atom_site_fract_x
_atom_site_fract_y
_atom_site_fract_z
Si Si1 0.356791 0.537508 0.215978
Si Si2 0.832092 0.993171 0.171400
Si Si3 0.144057 0.150869 0.054912
Si Si4 0.341919 0.398238 0.593242
Si Si5 0.922793 0.423057 0.045699
Si Si6 0.843390 0.304784 0.504798
O O1 0.265817 0.511433 0.280841
O O2 0.399544 0.431522 0.148145
O O3 0.416833 0.580875 0.317560
O O4 0.340930 0.627088 0.114581
O O5 0.875852 0.948622 0.287646
O O6 0.849654 0.899089 0.073365
O O7 0.860335 0.108542 0.109281
O O8 0.114272 0.280073 0.058612
O O9 0.242412 0.137167 0.098752
O O10 0.345113 0.499386 0.502716
O O11 0.910474 0.297674 0.998972
O O12 0.000000 0.500000 0.000000
O O13 0.750000 0.250000 0.525578
#
# Coordination Sequence:
#
# PCOD9430254 Si02
#       6
#     8   8   8   8   8   8
#     4  10  21  39  61  95 126 164 217 275 327 397
#     4  10  19  36  65  99 127 156 225 290 328 377
#     4   9  19  35  63  95 125 159 216 278 331 373
#     4  10  21  35  60  92 126 173 209 263 336 392
#     4  12  26  43  60  92 136 173 215 272 346 409
#     4  11  22  39  69  98 126 169 227 291 334 380
#
# _framework density 22.410394
#
# number of rings (size 3 to 8) (size 9 to 14) (size 15 to 20)
#    0.000    1.667    3.333    2.000    7.000    1.333 
#    3.000    0.000    0.000    4.000    0.000    0.000 
#    0.000    0.000    0.000    0.000    0.000    0.000 
#
# Total GULP energy -267655.620416 kJ/mol
# GULP energy per Si atom -5576.158759 kJ/mol
# Density = 2.235939 g / cm^3
# Si number density = 22.410394 Si / 1000 Ang^3
#
#
#
# Elastic Constant Matrix: (Units=GPa)
#
#
# Indices 1 2 3 4 5 6 
#
# 1 37.9172 6.2810 8.9056 0.0000 0.0000 0.0000
# 2 6.2810 168.3626 92.1304 0.0000 0.0000 0.0000
# 3 8.9056 92.1304 149.7721 0.0000 0.0000 0.0000
# 4 0.0000 0.0000 0.0000 23.2095 0.0000 0.0000
# 5 0.0000 0.0000 0.0000 0.0000 9.4446 0.0000
# 6 0.0000 0.0000 0.0000 0.0000 0.0000 19.0069
#
#
#
# Elastic Compliance Matrix: (Units=1/GPa)
#
#
# Indices 1 2 3 4 5 6 
#
# 1 0.026751 -0.000192 -0.001472 0.000000 0.000000 0.000000
# 2 -0.000192 0.008955 -0.005497 0.000000 0.000000 0.000000
# 3 -0.001472 -0.005497 0.010146 0.000000 0.000000 0.000000
# 4 0.000000 0.000000 0.000000 0.043086 0.000000 0.000000
# 5 0.000000 0.000000 0.000000 0.000000 0.105880 0.000000
# 6 0.000000 0.000000 0.000000 0.000000 0.000000 0.052612
#
#
# Mechanical properties :
#
#
# Convention : Reuss Voigt Hill
#
# Bulk Modulus (GPa) = 31.71764 63.40956 47.56360
# Shear Modulus (GPa) = 18.36462 26.91453 22.63958
#
# Velocity S-wave (km/s) = 2.86574 3.46928 3.18185
# Velocity P-wave (km/s) = 5.01336 6.66363 5.89652
#
# Compressibility (1/GPa) = 0.03152819
#
# Stress axis : x y z
#
# Youngs Moduli (GPa) = 37.38190 111.67251 98.56341
#
# Poissons Ratio (x) = 0.02147 0.14512
# Poissons Ratio (y) = 0.00719 0.54180
# Poissons Ratio (z) = 0.05504 0.61386
#
# Static dielectric constant tensor:
#      x y z
#    x 2.160220 0.000000 0.000000 
#    y 0.000000 1.871610 0.000000 
#    z 0.000000 0.000000 1.814820 
# 
# From -- ./inp_files/8291.got.cif
#   From: 2010.05.17/outbox.cif.g08.bks.cpg/sg56_5_cif.got.tgz:8291.got - 2010.06.03 13:42:01.
