data_PCOD9430866
_publ_section_title
;
Structure prediction by ZEFSAII (Michael W. Deem and Ramdas Pophale) SiO2 
 PCOD9430866
Probable space group: P C C N
;
_chemical_formula_sum "Si O2"
_cell_formula_units_Z 48
_cell_length_a 20.477595
_cell_length_b 5.152254
_cell_length_c 19.422324
_cell_angle_alpha 90.000000
_cell_angle_beta 90.000000
_cell_angle_gamma 90.000000
_cell_volume 2049.167263
_symmetry_space_group_name_H-M "P C C N"
_symmetry_group_IT_number 56
_symmetry_cell_setting 'orthorhombic'
loop_
_space_group_symop_operation_xyz
x,y,z
1/2-x,1/2-y,z
1/2+x,-y,1/2-z
-x,1/2+y,1/2-z
-x,-y,-z
1/2+x,1/2+y,-z
1/2-x,y,1/2+z
x,1/2-y,1/2+z
loop_
_atom_site_type_symbol
_atom_site_label
_atom_site_fract_x
_atom_site_fract_y
_atom_site_fract_z
Si Si1 0.703533 0.999862 0.397241
Si Si2 0.600993 0.095791 0.513932
Si Si3 0.205371 0.496801 0.757867
Si Si4 0.000614 0.685113 0.080197
Si Si5 0.108764 0.657166 0.855254
Si Si6 0.964771 0.202375 0.769723
O O1 0.750000 0.250000 0.407550
O O2 0.648130 0.986862 0.455318
O O3 0.750000 0.750000 0.401286
O O4 0.675149 0.021249 0.319168
O O5 0.557970 0.322507 0.476258
O O6 0.639752 0.197186 0.580485
O O7 0.551259 0.886546 0.547357
O O8 0.250000 0.250000 0.752803
O O9 0.157525 0.453147 0.822176
O O10 0.250000 0.750000 0.769853
O O11 0.958474 0.448498 0.111278
O O12 0.037353 0.785145 0.148605
O O13 0.090141 0.804279 0.784082
O O14 0.022650 0.403178 0.749773
#
# Coordination Sequence:
#
# PCOD9430866 Si02
#       6
#     8   8   8   8   8   8
#     4  10  24  48  72  98 132 182 231 278 342 406
#     4  11  23  42  65  99 134 179 215 284 333 414
#     4  10  24  45  70  95 129 175 230 283 334 399
#     4  10  23  41  63  97 138 173 223 264 347 406
#     4  11  23  40  65  98 135 174 223 280 337 398
#     4  10  20  38  61  89 125 169 211 259 315 390
#
# _framework density 23.424149
#
# number of rings (size 3 to 8) (size 9 to 14) (size 15 to 20)
#    0.000    1.667    1.667    1.500    4.667    0.667 
#    0.000    5.000    0.000    0.000    0.000    0.000 
#    0.000    0.000    0.000    0.000    0.000    0.000 
#
# Total GULP energy -267606.460072 kJ/mol
# GULP energy per Si atom -5575.134585 kJ/mol
# Density = 2.337084 g / cm^3
# Si number density = 23.424149 Si / 1000 Ang^3
#
#
#
# Elastic Constant Matrix: (Units=GPa)
#
#
# Indices 1 2 3 4 5 6 
#
# 1 53.0850 10.9211 60.6279 0.0000 0.0000 0.0000
# 2 10.9211 84.3397 22.2109 0.0000 0.0000 0.0000
# 3 60.6279 22.2109 225.5529 0.0000 0.0000 0.0000
# 4 0.0000 0.0000 0.0000 24.5841 0.0000 0.0000
# 5 0.0000 0.0000 0.0000 0.0000 17.3693 0.0000
# 6 0.0000 0.0000 0.0000 0.0000 0.0000 22.3062
#
#
#
# Elastic Compliance Matrix: (Units=1/GPa)
#
#
# Indices 1 2 3 4 5 6 
#
# 1 0.027405 -0.001652 -0.007204 0.000000 0.000000 0.000000
# 2 -0.001652 0.012272 -0.000765 0.000000 0.000000 0.000000
# 3 -0.007204 -0.000765 0.006445 0.000000 0.000000 0.000000
# 4 0.000000 0.000000 0.000000 0.040677 0.000000 0.000000
# 5 0.000000 0.000000 0.000000 0.000000 0.057573 0.000000
# 6 0.000000 0.000000 0.000000 0.000000 0.000000 0.044831
#
#
# Mechanical properties :
#
#
# Convention : Reuss Voigt Hill
#
# Bulk Modulus (GPa) = 37.19905 61.16639 49.18272
# Shear Modulus (GPa) = 22.99884 30.79976 26.89930
#
# Velocity S-wave (km/s) = 3.13684 3.63005 3.39242
# Velocity P-wave (km/s) = 5.38839 6.61354 6.03215
#
# Compressibility (1/GPa) = 0.02688241
#
# Stress axis : x y z
#
# Youngs Moduli (GPa) = 36.49005 81.48621 155.15516
#
# Poissons Ratio (x) = 0.13458 1.11769
# Poissons Ratio (y) = 0.06026 0.11862
# Poissons Ratio (z) = 0.26286 0.06230
#
# Static dielectric constant tensor:
#      x y z
#    x 2.003750 0.000000 0.000000 
#    y 0.000000 1.675620 0.000000 
#    z 0.000000 0.000000 1.903400 
# 
# From -- ./inp_files/16941.got.cif
#   From: 2010.05.17/outbox.cif.g08.bks.cpg/sg56_9_cif.got.tgz:16941.got - 2010.06.03 13:42:01.
