data_PCOD9430667
_publ_section_title
;
Structure prediction by ZEFSAII (Michael W. Deem and Ramdas Pophale) SiO2 
 PCOD9430667
Probable space group: P C C N
;
_chemical_formula_sum "Si O2"
_cell_formula_units_Z 60
_cell_length_a 9.615468
_cell_length_b 9.697420
_cell_length_c 29.590708
_cell_angle_alpha 90.000000
_cell_angle_beta 90.000000
_cell_angle_gamma 90.000000
_cell_volume 2759.192423
_symmetry_space_group_name_H-M "P C C N"
_symmetry_group_IT_number 56
_symmetry_cell_setting 'orthorhombic'
loop_
_space_group_symop_operation_xyz
x,y,z
1/2-x,1/2-y,z
1/2+x,-y,1/2-z
-x,1/2+y,1/2-z
-x,-y,-z
1/2+x,1/2+y,-z
1/2-x,y,1/2+z
x,1/2-y,1/2+z
loop_
_atom_site_type_symbol
_atom_site_label
_atom_site_fract_x
_atom_site_fract_y
_atom_site_fract_z
Si Si1 0.590471 0.420209 0.105861
Si Si2 0.842535 0.617811 0.460938
Si Si3 0.750000 0.250000 0.669978
Si Si4 0.828129 0.067109 0.751333
Si Si5 0.585586 0.725409 0.126608
Si Si6 0.304281 0.940824 0.976554
Si Si7 0.535271 0.150811 0.783920
Si Si8 0.992155 0.785634 0.530707
O O1 0.451661 0.403738 0.077669
O O2 0.622965 0.293096 0.138339
O O3 0.580053 0.561226 0.134265
O O4 0.713069 0.426884 0.068173
O O5 0.750000 0.750000 0.448861
O O6 0.766598 0.478875 0.475315
O O7 0.905783 0.660278 0.509669
O O8 0.782537 0.119926 0.701605
O O9 0.683666 0.068540 0.780108
O O10 0.923061 0.195430 0.767706
O O11 0.920638 0.930333 0.746026
O O12 0.750000 0.750000 0.116421
O O13 0.531919 0.821235 0.167067
O O14 0.488831 0.752863 0.082881
O O15 0.403804 0.072969 0.968760
O O16 0.394922 0.810237 0.991471
#
# Coordination Sequence:
#
# PCOD9430667 Si02
#       8
#     8   8   4   8   8   8   8   8
#     4  12  22  39  66  94 130 180 232 277 338 401
#     4  10  21  41  54  83 131 181 225 274 329 386
#     4  10  24  42  64 100 130 162 232 280 320 438
#     4  10  25  51  72 105 137 175 224 277 365 432
#     4  12  23  40  70 102 133 179 230 281 349 411
#     4  10  20  36  60  85 128 180 221 273 329 383
#     4  10  25  46  77 102 138 174 226 285 351 438
#     4  10  20  38  58  90 132 172 232 276 316 404
#
# _framework density 21.745494000000001
#
# number of rings (size 3 to 8) (size 9 to 14) (size 15 to 20)
#    0.000    1.600    2.667    2.400    5.600    0.000 
#    4.800    0.000    0.000    0.000    0.000    0.000 
#    0.000    0.000    0.000    0.000    0.000    0.000 
#
# Total GULP energy -334822.501896 kJ/mol
# GULP energy per Si atom -5580.375032 kJ/mol
# Density = 2.169600 g / cm^3
# Si number density = 21.745494 Si / 1000 Ang^3
#
#
#
# Elastic Constant Matrix: (Units=GPa)
#
#
# Indices 1 2 3 4 5 6 
#
# 1 55.9788 16.4916 20.5884 0.0000 0.0000 0.0000
# 2 16.4916 52.9581 11.8567 0.0000 0.0000 0.0000
# 3 20.5884 11.8567 53.0276 0.0000 0.0000 0.0000
# 4 0.0000 0.0000 0.0000 16.0976 0.0000 0.0000
# 5 0.0000 0.0000 0.0000 0.0000 23.2411 0.0000
# 6 0.0000 0.0000 0.0000 0.0000 0.0000 38.2983
#
#
#
# Elastic Compliance Matrix: (Units=1/GPa)
#
#
# Indices 1 2 3 4 5 6 
#
# 1 0.022136 -0.005231 -0.007425 0.000000 0.000000 0.000000
# 2 -0.005231 0.021114 -0.002690 0.000000 0.000000 0.000000
# 3 -0.007425 -0.002690 0.022342 0.000000 0.000000 0.000000
# 4 0.000000 0.000000 0.000000 0.062121 0.000000 0.000000
# 5 0.000000 0.000000 0.000000 0.000000 0.043027 0.000000
# 6 0.000000 0.000000 0.000000 0.000000 0.000000 0.026111
#
#
# Mechanical properties :
#
#
# Convention : Reuss Voigt Hill
#
# Bulk Modulus (GPa) = 28.65277 28.87086 28.76182
# Shear Modulus (GPa) = 20.90511 23.06260 21.98385
#
# Velocity S-wave (km/s) = 3.10393 3.26017 3.18301
# Velocity P-wave (km/s) = 5.10401 5.24187 5.17340
#
# Compressibility (1/GPa) = 0.03490063
#
# Stress axis : x y z
#
# Youngs Moduli (GPa) = 45.17595 47.36181 44.75815
#
# Poissons Ratio (x) = 0.24775 0.33232
# Poissons Ratio (y) = 0.23631 0.12040
# Poissons Ratio (z) = 0.33542 0.12741
#
# Static dielectric constant tensor:
#      x y z
#    x 1.865410 0.000000 0.000000 
#    y 0.000000 1.793670 0.000000 
#    z 0.000000 0.000000 1.757180 
# 
# From -- ./inp_files/22106.got.cif
#   From: 2010.05.17/outbox.cif.g08.bks.cpg/sg56_12_cif.got.tgz:22106.got - 2010.06.03 13:42:01.
