data_PCOD9430669
_publ_section_title
;
Structure prediction by ZEFSAII (Michael W. Deem and Ramdas Pophale) SiO2 
 PCOD9430669
Probable space group: P C C N
;
_chemical_formula_sum "Si O2"
_cell_formula_units_Z 56
_cell_length_a 9.003599
_cell_length_b 13.775084
_cell_length_c 20.729679
_cell_angle_alpha 90.000000
_cell_angle_beta 90.000000
_cell_angle_gamma 90.000000
_cell_volume 2571.005331
_symmetry_space_group_name_H-M "P C C N"
_symmetry_group_IT_number 56
_symmetry_cell_setting 'orthorhombic'
loop_
_space_group_symop_operation_xyz
x,y,z
1/2-x,1/2-y,z
1/2+x,-y,1/2-z
-x,1/2+y,1/2-z
-x,-y,-z
1/2+x,1/2+y,-z
1/2-x,y,1/2+z
x,1/2-y,1/2+z
loop_
_atom_site_type_symbol
_atom_site_label
_atom_site_fract_x
_atom_site_fract_y
_atom_site_fract_z
Si Si1 0.662942 0.546000 0.215649
Si Si2 0.363491 0.448321 0.177071
Si Si3 0.079755 0.753108 0.406831
Si Si4 0.927601 0.894717 0.503652
Si Si5 0.963884 0.749775 0.269123
Si Si6 0.619040 0.830801 0.139612
Si Si7 0.605476 0.928083 0.461478
O O1 0.532095 0.481250 0.188471
O O2 0.753714 0.498807 0.273991
O O3 0.590630 0.644504 0.245379
O O4 0.786535 0.575223 0.162708
O O5 0.358329 0.333463 0.196663
O O6 0.324681 0.471345 0.104002
O O7 0.250000 0.750000 0.427413
O O8 0.990470 0.837854 0.442347
O O9 0.073298 0.764385 0.329232
O O10 0.995799 0.657915 0.433221
O O11 0.962619 0.845060 0.572326
O O12 0.747915 0.895399 0.501816
O O13 0.000000 0.000000 0.500000
O O14 0.987102 0.698318 0.199522
O O15 0.750000 0.750000 0.134340
O O16 0.500000 0.000000 0.500000
#
# Coordination Sequence:
#
# PCOD9430669 Si02
#       7
#     8   8   8   8   8   8   8
#     4  10  20  36  60  87 121 159 208 263 316 379
#     4  10  21  36  59  89 120 161 208 259 319 386
#     4  11  24  43  65  94 129 168 214 267 325 391
#     4  12  25  41  66  96 132 176 217 266 325 390
#     4   9  21  40  62  87 120 162 207 257 314 378
#     4   9  19  39  63  90 122 165 213 259 315 381
#     4  11  23  41  64  91 126 169 216 267 327 391
#
# _framework density 21.781362000000001
#
# number of rings (size 3 to 8) (size 9 to 14) (size 15 to 20)
#    0.000    1.714    0.000    5.143    0.000   13.714 
#    0.000    0.714    0.000    0.000    0.000    0.000 
#    0.000    0.000    0.000    0.000    0.000    0.000 
#
# Total GULP energy -312291.129887 kJ/mol
# GULP energy per Si atom -5576.627319 kJ/mol
# Density = 2.173179 g / cm^3
# Si number density = 21.781362 Si / 1000 Ang^3
#
#
#
# Elastic Constant Matrix: (Units=GPa)
#
#
# Indices 1 2 3 4 5 6 
#
# 1 72.8019 16.4469 15.7026 0.0000 0.0000 0.0000
# 2 16.4469 52.5536 18.6252 0.0000 0.0000 0.0000
# 3 15.7026 18.6252 133.6395 0.0000 0.0000 0.0000
# 4 0.0000 0.0000 0.0000 16.2342 0.0000 0.0000
# 5 0.0000 0.0000 0.0000 0.0000 30.8850 0.0000
# 6 0.0000 0.0000 0.0000 0.0000 0.0000 24.4165
#
#
#
# Elastic Compliance Matrix: (Units=1/GPa)
#
#
# Indices 1 2 3 4 5 6 
#
# 1 0.014951 -0.004267 -0.001162 0.000000 0.000000 0.000000
# 2 -0.004267 0.021235 -0.002458 0.000000 0.000000 0.000000
# 3 -0.001162 -0.002458 0.007962 0.000000 0.000000 0.000000
# 4 0.000000 0.000000 0.000000 0.061598 0.000000 0.000000
# 5 0.000000 0.000000 0.000000 0.000000 0.032378 0.000000
# 6 0.000000 0.000000 0.000000 0.000000 0.000000 0.040956
#
#
# Mechanical properties :
#
#
# Convention : Reuss Voigt Hill
#
# Bulk Modulus (GPa) = 35.24482 40.06049 37.65265
# Shear Modulus (GPa) = 24.47244 28.18849 26.33046
#
# Velocity S-wave (km/s) = 3.35558 3.60134 3.48063
# Velocity P-wave (km/s) = 5.58834 5.97703 5.78595
#
# Compressibility (1/GPa) = 0.02837297
#
# Stress axis : x y z
#
# Youngs Moduli (GPa) = 66.88732 47.09266 125.59771
#
# Poissons Ratio (x) = 0.20095 0.14594
# Poissons Ratio (y) = 0.28541 0.30873
# Poissons Ratio (z) = 0.07772 0.11576
#
# Static dielectric constant tensor:
#      x y z
#    x 1.786820 0.000000 0.000000 
#    y 0.000000 1.916770 0.000000 
#    z 0.000000 0.000000 1.837480 
# 
# From -- ./inp_files/18240.got.cif
#   From: 2010.05.17/outbox.cif.g08.bks.cpg/sg56_10_cif.got.tgz:18240.got - 2010.06.03 13:42:01.
