data_PCOD9430553
_publ_section_title
;
Structure prediction by ZEFSAII (Michael W. Deem and Ramdas Pophale) SiO2 
 PCOD9430553
Probable space group: P C C N
;
_chemical_formula_sum "Si O2"
_cell_formula_units_Z 60
_cell_length_a 26.659150
_cell_length_b 9.588733
_cell_length_c 10.067334
_cell_angle_alpha 90.000000
_cell_angle_beta 90.000000
_cell_angle_gamma 90.000000
_cell_volume 2573.487134
_symmetry_space_group_name_H-M "P C C N"
_symmetry_group_IT_number 56
_symmetry_cell_setting 'orthorhombic'
loop_
_space_group_symop_operation_xyz
x,y,z
1/2-x,1/2-y,z
1/2+x,-y,1/2-z
-x,1/2+y,1/2-z
-x,-y,-z
1/2+x,1/2+y,-z
1/2-x,y,1/2+z
x,1/2-y,1/2+z
loop_
_atom_site_type_symbol
_atom_site_label
_atom_site_fract_x
_atom_site_fract_y
_atom_site_fract_z
Si Si1 0.954572 0.097229 0.366485
Si Si2 0.750000 0.750000 0.939918
Si Si3 0.122809 0.527331 0.925909
Si Si4 0.499306 0.389046 0.815765
Si Si5 0.811214 0.529302 0.814518
Si Si6 0.583668 0.507231 0.974263
Si Si7 0.147353 0.225654 0.902612
Si Si8 0.862763 0.316132 0.672657
O O1 0.929612 0.077425 0.509925
O O2 0.907749 0.141089 0.272132
O O3 0.993131 0.224950 0.342986
O O4 0.977352 0.949415 0.320437
O O5 0.761267 0.615094 0.848382
O O6 0.797698 0.762698 0.034518
O O7 0.161967 0.510349 0.048317
O O8 0.122736 0.372680 0.868378
O O9 0.141923 0.651753 0.835203
O O10 0.553497 0.457873 0.846223
O O11 0.459967 0.453820 0.920147
O O12 0.847027 0.632579 0.728918
O O13 0.812602 0.392572 0.723140
O O14 0.616633 0.645332 0.982922
O O15 0.618139 0.382674 0.033215
#
# Coordination Sequence:
#
# PCOD9430553 Si02
#       8
#     8   4   8   8   8   8   8   8
#     4  10  21  34  54  86 126 167 211 260 307 359
#     4  10  20  40  68  94 120 146 198 260 314 376
#     4  10  20  38  60  91 126 162 210 258 306 366
#     4  10  20  35  54  82 124 165 210 261 306 362
#     4   9  20  39  65  91 120 159 197 248 311 376
#     4   9  19  37  57  78 118 165 207 250 310 365
#     4  10  21  38  66  90 118 161 207 256 312 385
#     4   9  18  38  59  86 119 163 201 253 306 367
#
# _framework density 23.314668999999999
#
# number of rings (size 3 to 8) (size 9 to 14) (size 15 to 20)
#    0.000    2.400    1.333    1.200    1.867    1.067 
#    4.800    1.333    0.000   32.800    0.000    0.000 
#    0.000    0.000    0.000    0.000    0.000    0.000 
#
# Total GULP energy -335036.117543 kJ/mol
# GULP energy per Si atom -5583.935292 kJ/mol
# Density = 2.326160 g / cm^3
# Si number density = 23.314669 Si / 1000 Ang^3
#
#
#
# Elastic Constant Matrix: (Units=GPa)
#
#
# Indices 1 2 3 4 5 6 
#
# 1 72.0388 36.0236 12.4551 0.0000 0.0000 0.0000
# 2 36.0236 131.9897 18.1364 0.0000 0.0000 0.0000
# 3 12.4551 18.1364 40.9743 0.0000 0.0000 0.0000
# 4 0.0000 0.0000 0.0000 28.0168 0.0000 0.0000
# 5 0.0000 0.0000 0.0000 0.0000 21.7520 0.0000
# 6 0.0000 0.0000 0.0000 0.0000 0.0000 39.5709
#
#
#
# Elastic Compliance Matrix: (Units=1/GPa)
#
#
# Indices 1 2 3 4 5 6 
#
# 1 0.016463 -0.004052 -0.003211 0.000000 0.000000 0.000000
# 2 -0.004052 0.009064 -0.002780 0.000000 0.000000 0.000000
# 3 -0.003211 -0.002780 0.026612 0.000000 0.000000 0.000000
# 4 0.000000 0.000000 0.000000 0.035693 0.000000 0.000000
# 5 0.000000 0.000000 0.000000 0.000000 0.045973 0.000000
# 6 0.000000 0.000000 0.000000 0.000000 0.000000 0.025271
#
#
# Mechanical properties :
#
#
# Convention : Reuss Voigt Hill
#
# Bulk Modulus (GPa) = 31.19832 42.02590 36.61211
# Shear Modulus (GPa) = 26.33707 29.76045 28.04876
#
# Velocity S-wave (km/s) = 3.36465 3.57665 3.47227
# Velocity P-wave (km/s) = 5.33900 5.92631 5.64031
#
# Compressibility (1/GPa) = 0.03205300
#
# Stress axis : x y z
#
# Youngs Moduli (GPa) = 60.74325 110.32301 37.57675
#
# Poissons Ratio (x) = 0.44702 0.12065
# Poissons Ratio (y) = 0.24613 0.10448
# Poissons Ratio (z) = 0.19503 0.30674
#
# Static dielectric constant tensor:
#      x y z
#    x 1.885370 0.000000 0.000000 
#    y 0.000000 1.907690 0.000000 
#    z 0.000000 0.000000 1.921400 
# 
# From -- ./inp_files/9079.got.cif
#   From: 2010.05.17/outbox.cif.g08.bks.cpg/sg56_5_cif.got.tgz:9079.got - 2010.06.03 13:42:01.
