data_PCOD9430385
_publ_section_title
;
Structure prediction by ZEFSAII (Michael W. Deem and Ramdas Pophale) SiO2 
 PCOD9430385
Probable space group: P C C N
;
_chemical_formula_sum "Si O2"
_cell_formula_units_Z 48
_cell_length_a 9.513308
_cell_length_b 16.654343
_cell_length_c 15.618456
_cell_angle_alpha 90.000000
_cell_angle_beta 90.000000
_cell_angle_gamma 90.000000
_cell_volume 2474.555284
_symmetry_space_group_name_H-M "P C C N"
_symmetry_group_IT_number 56
_symmetry_cell_setting 'orthorhombic'
loop_
_space_group_symop_operation_xyz
x,y,z
1/2-x,1/2-y,z
1/2+x,-y,1/2-z
-x,1/2+y,1/2-z
-x,-y,-z
1/2+x,1/2+y,-z
1/2-x,y,1/2+z
x,1/2-y,1/2+z
loop_
_atom_site_type_symbol
_atom_site_label
_atom_site_fract_x
_atom_site_fract_y
_atom_site_fract_z
Si Si1 0.340883 0.414498 0.045555
Si Si2 0.451056 0.021784 0.094117
Si Si3 0.904365 0.713885 0.324850
Si Si4 0.454903 0.044041 0.368539
Si Si5 0.601694 0.095459 0.760535
Si Si6 0.595645 0.139135 0.220210
O O1 0.184223 0.421640 0.081628
O O2 0.402722 0.332342 0.084142
O O3 0.424828 0.490608 0.085107
O O4 0.356510 0.422280 0.943650
O O5 0.564840 0.067854 0.152092
O O6 0.405103 0.942497 0.145789
O O7 0.500000 0.000000 0.000000
O O8 0.750000 0.750000 0.306895
O O9 0.960444 0.644671 0.260550
O O10 0.018401 0.783756 0.317425
O O11 0.520784 0.112261 0.308647
O O12 0.385886 0.980750 0.303407
O O13 0.740308 0.146678 0.741027
#
# Coordination Sequence:
#
# PCOD9430385 Si02
#       6
#     8   8   8   8   8   8
#     4  10  19  40  60  93 125 160 213 262 313 369
#     4  11  22  37  66  96 126 161 220 267 308 369
#     4  11  23  40  63  89 131 169 199 263 324 381
#     4   9  20  36  68  88 122 169 208 262 311 367
#     4  10  22  40  65  94 124 168 218 257 312 385
#     4  11  21  40  64  94 129 169 208 258 323 380
#
# _framework density 19.397423
#
# number of rings (size 3 to 8) (size 9 to 14) (size 15 to 20)
#    0.000    1.667    3.333    1.500    0.000    1.333 
#    3.000    0.833    0.000    0.000    0.000    0.000 
#    0.000    0.000    0.000    0.000    0.000    0.000 
#
# Total GULP energy -267815.273001 kJ/mol
# GULP energy per Si atom -5579.484854 kJ/mol
# Density = 1.935327 g / cm^3
# Si number density = 19.397423 Si / 1000 Ang^3
#
#
#
# Elastic Constant Matrix: (Units=GPa)
#
#
# Indices 1 2 3 4 5 6 
#
# 1 78.6905 31.8138 34.2058 0.0000 0.0000 0.0000
# 2 31.8138 83.6241 34.0305 0.0000 0.0000 0.0000
# 3 34.2058 34.0305 122.5736 0.0000 0.0000 0.0000
# 4 0.0000 0.0000 0.0000 7.9722 0.0000 0.0000
# 5 0.0000 0.0000 0.0000 0.0000 20.7428 0.0000
# 6 0.0000 0.0000 0.0000 0.0000 0.0000 36.0529
#
#
#
# Elastic Compliance Matrix: (Units=1/GPa)
#
#
# Indices 1 2 3 4 5 6 
#
# 1 0.016018 -0.004819 -0.003132 0.000000 0.000000 0.000000
# 2 -0.004819 0.014931 -0.002801 0.000000 0.000000 0.000000
# 3 -0.003132 -0.002801 0.009810 0.000000 0.000000 0.000000
# 4 0.000000 0.000000 0.000000 0.125435 0.000000 0.000000
# 5 0.000000 0.000000 0.000000 0.000000 0.048210 0.000000
# 6 0.000000 0.000000 0.000000 0.000000 0.000000 0.027737
#
#
# Mechanical properties :
#
#
# Convention : Reuss Voigt Hill
#
# Bulk Modulus (GPa) = 51.93322 53.88760 52.91041
# Shear Modulus (GPa) = 18.51417 25.27611 21.89514
#
# Velocity S-wave (km/s) = 3.09279 3.61372 3.36336
# Velocity P-wave (km/s) = 6.29168 6.72704 6.51300
#
# Compressibility (1/GPa) = 0.01925550
#
# Stress axis : x y z
#
# Youngs Moduli (GPa) = 62.43045 66.97301 101.93749
#
# Poissons Ratio (x) = 0.32276 0.31927
# Poissons Ratio (y) = 0.30087 0.28548
# Poissons Ratio (z) = 0.19553 0.18756
#
# Static dielectric constant tensor:
#      x y z
#    x 1.700000 0.000000 0.000000 
#    y 0.000000 1.689190 0.000000 
#    z 0.000000 0.000000 1.651780 
# 
# From -- ./inp_files/10648.got.cif
#   From: 2010.05.17/outbox.cif.g08.bks.cpg/sg56_6_cif.got.tgz:10648.got - 2010.06.03 13:42:01.
