data_PCOD9430581
_publ_section_title
;
Structure prediction by ZEFSAII (Michael W. Deem and Ramdas Pophale) SiO2 
 PCOD9430581
Probable space group: P C C N
;
_chemical_formula_sum "Si O2"
_cell_formula_units_Z 60
_cell_length_a 5.218826
_cell_length_b 20.394365
_cell_length_c 28.780318
_cell_angle_alpha 90.000000
_cell_angle_beta 90.000000
_cell_angle_gamma 90.000000
_cell_volume 3063.222852
_symmetry_space_group_name_H-M "P C C N"
_symmetry_group_IT_number 56
_symmetry_cell_setting 'orthorhombic'
loop_
_space_group_symop_operation_xyz
x,y,z
1/2-x,1/2-y,z
1/2+x,-y,1/2-z
-x,1/2+y,1/2-z
-x,-y,-z
1/2+x,1/2+y,-z
1/2-x,y,1/2+z
x,1/2-y,1/2+z
loop_
_atom_site_type_symbol
_atom_site_label
_atom_site_fract_x
_atom_site_fract_y
_atom_site_fract_z
Si Si1 0.250000 0.750000 0.138660
Si Si2 0.706155 0.114593 0.171181
Si Si3 0.138097 0.324625 0.907730
Si Si4 0.612917 0.851821 0.685176
Si Si5 0.255497 0.170612 0.509898
Si Si6 0.416451 0.009191 0.279849
Si Si7 0.301880 0.175192 0.714717
Si Si8 0.257274 0.829410 0.931386
O O1 0.345143 0.807041 0.103372
O O2 0.433905 0.709585 0.172799
O O3 0.421785 0.131946 0.189859
O O4 0.738426 0.134868 0.117868
O O5 0.913667 0.156901 0.199538
O O6 0.799396 0.040963 0.182520
O O7 0.250000 0.250000 0.905199
O O8 0.232377 0.362346 0.862441
O O9 0.213479 0.353263 0.957154
O O10 0.493572 0.921290 0.699467
O O11 0.776955 0.832297 0.729958
O O12 0.250000 0.250000 0.506320
O O13 0.515916 0.152979 0.536141
O O14 0.014408 0.152821 0.541277
O O15 0.168410 0.018900 0.246060
O O16 0.250000 0.250000 0.701003
O O17 0.250000 0.750000 0.924099
#
# Coordination Sequence:
#
# PCOD9430581 Si02
#       8
#     4   8   8   8   8   8   8   8
#     4  10  22  36  62  94 124 154 206 256 334 370
#     4  12  24  42  60  88 125 167 214 254 299 375
#     4   9  20  35  57  93 124 155 197 254 322 381
#     4  11  24  38  61  90 128 159 209 258 317 376
#     4   9  19  33  59  86 121 156 192 250 315 374
#     4  12  25  45  63  86 122 177 223 252 304 378
#     4  12  24  37  62  90 125 160 197 260 320 366
#     4  10  20  35  57  87 118 156 202 252 308 365
#
# _framework density 19.587212999999998
#
# number of rings (size 3 to 8) (size 9 to 14) (size 15 to 20)
#    0.000    1.333    2.667    3.200   12.133    1.067 
#    0.000    0.000    0.000    1.600    0.000    0.000 
#    0.000    0.000    0.000    0.000    0.000    0.000 
#
# Total GULP energy -334660.412814 kJ/mol
# GULP energy per Si atom -5577.673547 kJ/mol
# Density = 1.954263 g / cm^3
# Si number density = 19.587213 Si / 1000 Ang^3
#
#
#
# Elastic Constant Matrix: (Units=GPa)
#
#
# Indices 1 2 3 4 5 6 
#
# 1 91.2924 5.9479 45.6960 0.0000 0.0000 0.0000
# 2 5.9479 52.6348 15.9060 0.0000 0.0000 0.0000
# 3 45.6960 15.9060 154.5910 0.0000 0.0000 0.0000
# 4 0.0000 0.0000 0.0000 -16.3222 0.0000 0.0000
# 5 0.0000 0.0000 0.0000 0.0000 -54.1349 0.0000
# 6 0.0000 0.0000 0.0000 0.0000 0.0000 22.5660
#
#
#
# Elastic Compliance Matrix: (Units=1/GPa)
#
#
# Indices 1 2 3 4 5 6 
#
# 1 0.012861 -0.000314 -0.003769 0.000000 0.000000 0.000000
# 2 -0.000314 0.019616 -0.001925 0.000000 0.000000 0.000000
# 3 -0.003769 -0.001925 0.007781 0.000000 0.000000 0.000000
# 4 0.000000 0.000000 0.000000 -0.061266 0.000000 0.000000
# 5 0.000000 0.000000 0.000000 0.000000 -0.018472 0.000000
# 6 0.000000 0.000000 0.000000 0.000000 0.000000 0.044314
#
#
# Mechanical properties :
#
#
# Convention : Reuss Voigt Hill
#
# Bulk Modulus (GPa) = 35.41053 48.17977 41.79515
# Shear Modulus (GPa) = 190.36629 5.81969 98.09299
#
# Velocity S-wave (km/s) = 9.86915 1.72558 7.08441
# Velocity P-wave (km/s) = 12.16488 5.34987 9.39695
#
# Compressibility (1/GPa) = 0.02824019
#
# Stress axis : x y z
#
# Youngs Moduli (GPa) = 77.75458 50.97821 128.51881
#
# Poissons Ratio (x) = 0.01602 0.48442
# Poissons Ratio (y) = 0.02444 0.24745
# Poissons Ratio (z) = 0.29308 0.09816
#
# Static dielectric constant tensor:
#      x y z
#    x 1.828530 0.000000 0.000000 
#    y 0.000000 1.785820 0.000000 
#    z 0.000000 0.000000 1.681090 
# 
# From -- ./inp_files/20157.got.cif
#   From: 2010.05.17/outbox.cif.g08.bks.cpg/sg56_11_cif.got.tgz:20157.got - 2010.06.03 13:42:01.
