data_PCOD9430805
_publ_section_title
;
Structure prediction by ZEFSAII (Michael W. Deem and Ramdas Pophale) SiO2 
 PCOD9430805
Probable space group: P C C N
;
_chemical_formula_sum "Si O2"
_cell_formula_units_Z 60
_cell_length_a 26.842059
_cell_length_b 8.609511
_cell_length_c 9.774449
_cell_angle_alpha 90.000000
_cell_angle_beta 90.000000
_cell_angle_gamma 90.000000
_cell_volume 2258.845862
_symmetry_space_group_name_H-M "P C C N"
_symmetry_group_IT_number 56
_symmetry_cell_setting 'orthorhombic'
loop_
_space_group_symop_operation_xyz
x,y,z
1/2-x,1/2-y,z
1/2+x,-y,1/2-z
-x,1/2+y,1/2-z
-x,-y,-z
1/2+x,1/2+y,-z
1/2-x,y,1/2+z
x,1/2-y,1/2+z
loop_
_atom_site_type_symbol
_atom_site_label
_atom_site_fract_x
_atom_site_fract_y
_atom_site_fract_z
Si Si1 0.652858 0.743140 0.749914
Si Si2 0.046593 0.342779 0.646322
Si Si3 0.988436 0.158672 0.424485
Si Si4 0.230199 0.917591 0.577264
Si Si5 0.321825 0.916798 0.754897
Si Si6 0.750000 0.750000 0.942806
Si Si7 0.095401 0.860888 0.036377
Si Si8 0.349132 0.918560 0.293973
O O1 0.598596 0.747017 0.820842
O O2 0.655550 0.572864 0.679970
O O3 0.699524 0.736617 0.853321
O O4 0.660541 0.900417 0.664514
O O5 0.060832 0.518960 0.616351
O O6 0.019362 0.280227 0.514081
O O7 0.010172 0.334714 0.774018
O O8 0.929978 0.197114 0.434828
O O9 0.000000 0.000000 0.500000
O O10 0.250000 0.750000 0.525556
O O11 0.264643 0.933486 0.713550
O O12 0.174460 0.922897 0.640035
O O13 0.242565 0.076047 0.494761
O O14 0.352243 0.893558 0.612112
O O15 0.329239 0.755631 0.834099
O O16 0.098801 0.897955 0.875701
#
# Coordination Sequence:
#
# PCOD9430805 Si02
#       8
#     8   8   8   8   8   4   8   8
#     4   9  19  36  67  95 136 178 227 281 350 416
#     4  11  25  47  69 104 140 184 235 308 368 443
#     4  12  28  45  73 102 138 185 244 303 378 446
#     4   8  15  32  56  88 126 175 219 274 339 408
#     4   9  20  38  62  92 136 177 226 285 344 424
#     4   8  14  30  58  94 126 176 224 274 336 418
#     4  11  25  42  67  97 136 179 235 300 358 424
#     4  10  20  37  66  95 132 181 228 286 354 422
#
# _framework density 26.562239000000002
#
# number of rings (size 3 to 8) (size 9 to 14) (size 15 to 20)
#    0.000    2.133    0.000    2.000    7.467    0.000 
#    0.000    6.000    0.000   82.400    0.000    0.000 
#    0.000    0.000    0.000    0.000    0.000    0.000 
#
# Total GULP energy -334571.934425 kJ/mol
# GULP energy per Si atom -5576.198907 kJ/mol
# Density = 2.650178 g / cm^3
# Si number density = 26.562239 Si / 1000 Ang^3
#
#
#
# Elastic Constant Matrix: (Units=GPa)
#
#
# Indices 1 2 3 4 5 6 
#
# 1 145.4557 16.5431 51.9098 0.0000 0.0000 0.0000
# 2 16.5431 215.7193 31.7670 0.0000 0.0000 0.0000
# 3 51.9098 31.7670 97.5601 0.0000 0.0000 0.0000
# 4 0.0000 0.0000 0.0000 4.1234 0.0000 0.0000
# 5 0.0000 0.0000 0.0000 0.0000 60.0932 0.0000
# 6 0.0000 0.0000 0.0000 0.0000 0.0000 41.1365
#
#
#
# Elastic Compliance Matrix: (Units=1/GPa)
#
#
# Indices 1 2 3 4 5 6 
#
# 1 0.008486 0.000015 -0.004520 0.000000 0.000000 0.000000
# 2 0.000015 0.004869 -0.001593 0.000000 0.000000 0.000000
# 3 -0.004520 -0.001593 0.013174 0.000000 0.000000 0.000000
# 4 0.000000 0.000000 0.000000 0.242519 0.000000 0.000000
# 5 0.000000 0.000000 0.000000 0.000000 0.016641 0.000000
# 6 0.000000 0.000000 0.000000 0.000000 0.000000 0.024309
#
#
# Mechanical properties :
#
#
# Convention : Reuss Voigt Hill
#
# Bulk Modulus (GPa) = 69.77375 73.24165 71.50770
# Shear Modulus (GPa) = 15.29174 44.97162 30.13168
#
# Velocity S-wave (km/s) = 2.40197 4.11915 3.37171
# Velocity P-wave (km/s) = 5.83246 7.08919 6.49131
#
# Compressibility (1/GPa) = 0.01433204
#
# Stress axis : x y z
#
# Youngs Moduli (GPa) = 117.83488 205.37441 75.90660
#
# Poissons Ratio (x) = -0.00305 0.34312
# Poissons Ratio (y) = -0.00175 0.12095
# Poissons Ratio (z) = 0.53265 0.32724
#
# Static dielectric constant tensor:
#      x y z
#    x 2.066950 0.000000 0.000000 
#    y 0.000000 2.143890 0.000000 
#    z 0.000000 0.000000 2.026450 
# 
# From -- ./inp_files/9071.got.cif
#   From: 2010.05.17/outbox.cif.g08.bks.cpg/sg56_5_cif.got.tgz:9071.got - 2010.06.03 13:42:01.
