data_PCOD9430841
_publ_section_title
;
Structure prediction by ZEFSAII (Michael W. Deem and Ramdas Pophale) SiO2 
 PCOD9430841
Probable space group: P C C N
;
_chemical_formula_sum "Si O2"
_cell_formula_units_Z 60
_cell_length_a 29.258542
_cell_length_b 8.966390
_cell_length_c 9.310301
_cell_angle_alpha 90.000000
_cell_angle_beta 90.000000
_cell_angle_gamma 90.000000
_cell_volume 2442.496936
_symmetry_space_group_name_H-M "P C C N"
_symmetry_group_IT_number 56
_symmetry_cell_setting 'orthorhombic'
loop_
_space_group_symop_operation_xyz
x,y,z
1/2-x,1/2-y,z
1/2+x,-y,1/2-z
-x,1/2+y,1/2-z
-x,-y,-z
1/2+x,1/2+y,-z
1/2-x,y,1/2+z
x,1/2-y,1/2+z
loop_
_atom_site_type_symbol
_atom_site_label
_atom_site_fract_x
_atom_site_fract_y
_atom_site_fract_z
Si Si1 0.468178 0.897357 0.210224
Si Si2 0.165716 0.071832 0.791979
Si Si3 0.900742 0.116964 0.791502
Si Si4 0.808802 0.149317 0.948876
Si Si5 0.784276 0.036768 0.460082
Si Si6 0.750000 0.750000 0.633202
Si Si7 0.562735 0.913482 0.061771
Si Si8 0.427181 0.412284 0.941734
O O1 0.435954 0.753319 0.240795
O O2 0.520905 0.874590 0.170643
O O3 0.465567 0.011514 0.343282
O O4 0.449831 0.973952 0.064948
O O5 0.204930 0.197071 0.784145
O O6 0.114528 0.112136 0.829065
O O7 0.172814 0.996010 0.640388
O O8 0.178571 0.965456 0.925259
O O9 0.849996 0.165941 0.837275
O O10 0.900784 0.999970 0.660131
O O11 0.917369 0.029305 0.933071
O O12 0.762681 0.083429 0.876463
O O13 0.797608 0.305159 0.027461
O O14 0.769258 0.891502 0.545664
O O15 0.569922 0.751907 0.992802
#
# Coordination Sequence:
#
# PCOD9430841 Si02
#       8
#     8   8   8   8   8   4   8   8
#     4  11  24  43  64  93 125 162 208 258 318 384
#     4  10  22  39  58  86 120 157 200 248 302 357
#     4  11  23  42  66  93 126 165 210 261 314 380
#     4   9  22  39  59  87 116 156 208 248 297 358
#     4  10  20  38  60  83 120 160 198 247 297 355
#     4  10  22  36  56  88 120 158 202 244 298 362
#     4  11  25  42  65  92 125 165 206 257 322 384
#     4  11  24  41  64  94 128 162 208 264 317 377
#
# _framework density 24.565024999999999
#
# number of rings (size 3 to 8) (size 9 to 14) (size 15 to 20)
#    0.000    1.600    0.000    3.600    0.000   16.000 
#    0.000    1.333    0.000    0.000    0.000    0.000 
#    0.000    0.000    0.000    0.000    0.000    0.000 
#
# Total GULP energy -335233.411673 kJ/mol
# GULP energy per Si atom -5587.223528 kJ/mol
# Density = 2.450911 g / cm^3
# Si number density = 24.565025 Si / 1000 Ang^3
#
#
#
# Elastic Constant Matrix: (Units=GPa)
#
#
# Indices 1 2 3 4 5 6 
#
# 1 42.2943 8.6295 -7.7678 0.0000 0.0000 0.0000
# 2 8.6295 113.5620 0.4864 0.0000 0.0000 0.0000
# 3 -7.7678 0.4864 51.9509 0.0000 0.0000 0.0000
# 4 0.0000 0.0000 0.0000 15.4357 0.0000 0.0000
# 5 0.0000 0.0000 0.0000 0.0000 2591.6166 0.0000
# 6 0.0000 0.0000 0.0000 0.0000 0.0000 24.9063
#
#
#
# Elastic Compliance Matrix: (Units=1/GPa)
#
#
# Indices 1 2 3 4 5 6 
#
# 1 0.024712 -0.001894 0.003713 0.000000 0.000000 0.000000
# 2 -0.001894 0.008951 -0.000367 0.000000 0.000000 0.000000
# 3 0.003713 -0.000367 0.019807 0.000000 0.000000 0.000000
# 4 0.000000 0.000000 0.000000 0.064785 0.000000 0.000000
# 5 0.000000 0.000000 0.000000 0.000000 0.000386 0.000000
# 6 0.000000 0.000000 0.000000 0.000000 0.000000 0.040150
#
#
# Mechanical properties :
#
#
# Convention : Reuss Voigt Hill
#
# Bulk Modulus (GPa) = 17.73840 23.38927 20.56384
# Shear Modulus (GPa) = 28.62383 540.15566 284.38974
#
# Velocity S-wave (km/s) = 3.41725 14.84471 10.77133
# Velocity P-wave (km/s) = 4.77564 17.41731 12.77046
#
# Compressibility (1/GPa) = 0.05637487
#
# Stress axis : x y z
#
# Youngs Moduli (GPa) = 40.46596 111.71632 50.48593
#
# Poissons Ratio (x) = 0.21156 -0.18744
# Poissons Ratio (y) = 0.07663 0.01853
# Poissons Ratio (z) = -0.15024 0.04100
#
# Static dielectric constant tensor:
#      x y z
#    x 2.027870 0.000000 0.000000 
#    y 0.000000 2.006760 0.000000 
#    z 0.000000 0.000000 1.890530 
# 
# From -- ./inp_files/9069.got.cif
#   From: 2010.05.17/outbox.cif.g08.bks.cpg/sg56_5_cif.got.tgz:9069.got - 2010.06.03 13:42:01.
