data_PCOD9430997
_publ_section_title
;
Structure prediction by ZEFSAII (Michael W. Deem and Ramdas Pophale) SiO2 
 PCOD9430997
Probable space group: P C C N
;
_chemical_formula_sum "Si O2"
_cell_formula_units_Z 60
_cell_length_a 19.906371
_cell_length_b 8.167818
_cell_length_c 16.265124
_cell_angle_alpha 90.000000
_cell_angle_beta 90.000000
_cell_angle_gamma 90.000000
_cell_volume 2644.572785
_symmetry_space_group_name_H-M "P C C N"
_symmetry_group_IT_number 56
_symmetry_cell_setting 'orthorhombic'
loop_
_space_group_symop_operation_xyz
x,y,z
1/2-x,1/2-y,z
1/2+x,-y,1/2-z
-x,1/2+y,1/2-z
-x,-y,-z
1/2+x,1/2+y,-z
1/2-x,y,1/2+z
x,1/2-y,1/2+z
loop_
_atom_site_type_symbol
_atom_site_label
_atom_site_fract_x
_atom_site_fract_y
_atom_site_fract_z
Si Si1 0.445235 0.848208 0.200589
Si Si2 0.535742 0.854170 0.045487
Si Si3 0.927340 0.499721 0.282107
Si Si4 0.838624 0.887202 0.641312
Si Si5 0.298743 0.908794 0.205250
Si Si6 0.623086 0.910358 0.458235
Si Si7 0.806045 0.505446 0.613784
Si Si8 0.750000 0.750000 0.372225
O O1 0.490510 0.800928 0.122287
O O2 0.497225 0.944220 0.259051
O O3 0.424769 0.685141 0.247355
O O4 0.374306 0.917106 0.168244
O O5 0.601510 0.936161 0.083047
O O6 0.563246 0.701852 0.993826
O O7 0.500000 0.000000 0.000000
O O8 0.869294 0.592592 0.231989
O O9 0.906316 0.507933 0.376751
O O10 0.826160 0.694261 0.631172
O O11 0.774340 0.986110 0.611461
O O12 0.250000 0.750000 0.186396
O O13 0.316399 0.906488 0.302615
O O14 0.265535 0.083644 0.179916
O O15 0.653916 0.028153 0.529525
O O16 0.686000 0.797074 0.428987
#
# Coordination Sequence:
#
# PCOD9430997 Si02
#       8
#     8   8   8   8   8   8   8   4
#     4  11  27  44  69  99 138 183 239 293 352 427
#     4  10  22  39  63  99 140 179 226 287 353 429
#     4  11  25  43  67 101 136 185 234 290 346 438
#     4   9  19  38  67  94 135 177 233 275 351 419
#     4  12  26  47  73 108 140 189 250 301 362 434
#     4  11  23  40  68 106 139 187 237 286 373 423
#     4  10  20  39  66 100 136 181 228 296 347 427
#     4  12  24  42  82 104 148 192 236 308 356 440
#
# _framework density 22.687975999999999
#
# number of rings (size 3 to 8) (size 9 to 14) (size 15 to 20)
#    0.000    1.333    0.000    6.400   11.200    0.533 
#    0.000    2.000    0.000    0.000    0.000    0.000 
#    0.000    0.000    0.000    0.000    0.000    0.000 
#
# Total GULP energy -334780.094441 kJ/mol
# GULP energy per Si atom -5579.668241 kJ/mol
# Density = 2.263634 g / cm^3
# Si number density = 22.687976 Si / 1000 Ang^3
#
#
#
# Elastic Constant Matrix: (Units=GPa)
#
#
# Indices 1 2 3 4 5 6 
#
# 1 158.9911 41.6399 33.0261 0.0000 0.0000 0.0000
# 2 41.6399 60.8452 20.3306 0.0000 0.0000 0.0000
# 3 33.0261 20.3306 73.5410 0.0000 0.0000 0.0000
# 4 0.0000 0.0000 0.0000 20.3377 0.0000 0.0000
# 5 0.0000 0.0000 0.0000 0.0000 23.0086 0.0000
# 6 0.0000 0.0000 0.0000 0.0000 0.0000 18.4720
#
#
#
# Elastic Compliance Matrix: (Units=1/GPa)
#
#
# Indices 1 2 3 4 5 6 
#
# 1 0.007999 -0.004709 -0.002290 0.000000 0.000000 0.000000
# 2 -0.004709 0.020880 -0.003658 0.000000 0.000000 0.000000
# 3 -0.002290 -0.003658 0.015638 0.000000 0.000000 0.000000
# 4 0.000000 0.000000 0.000000 0.049170 0.000000 0.000000
# 5 0.000000 0.000000 0.000000 0.000000 0.043462 0.000000
# 6 0.000000 0.000000 0.000000 0.000000 0.000000 0.054136
#
#
# Mechanical properties :
#
#
# Convention : Reuss Voigt Hill
#
# Bulk Modulus (GPa) = 43.09860 53.70784 48.40322
# Shear Modulus (GPa) = 22.69312 25.58904 24.14108
#
# Velocity S-wave (km/s) = 3.16607 3.36202 3.26551
# Velocity P-wave (km/s) = 5.69234 6.22854 5.96647
#
# Compressibility (1/GPa) = 0.02320261
#
# Stress axis : x y z
#
# Youngs Moduli (GPa) = 125.02174 47.89339 63.94849
#
# Poissons Ratio (x) = 0.22551 0.14646
# Poissons Ratio (y) = 0.58868 0.23390
# Poissons Ratio (z) = 0.28634 0.17518
#
# Static dielectric constant tensor:
#      x y z
#    x 2.262770 0.000000 0.000000 
#    y 0.000000 1.841410 0.000000 
#    z 0.000000 0.000000 1.929840 
# 
# From -- ./inp_files/16638.got.cif
#   From: 2010.05.17/outbox.cif.g08.bks.cpg/sg56_9_cif.got.tgz:16638.got - 2010.06.03 13:42:01.
