data_PCOD9430020
_publ_section_title
;
Structure prediction by ZEFSAII (Michael W. Deem and Ramdas Pophale) SiO2 
 PCOD9430020
Probable space group: P C C N
;
_chemical_formula_sum "Si O2"
_cell_formula_units_Z 64
_cell_length_a 5.394508
_cell_length_b 26.826093
_cell_length_c 20.365494
_cell_angle_alpha 90.000000
_cell_angle_beta 90.000000
_cell_angle_gamma 90.000000
_cell_volume 2947.163409
_symmetry_space_group_name_H-M "P C C N"
_symmetry_group_IT_number 56
_symmetry_cell_setting 'orthorhombic'
loop_
_space_group_symop_operation_xyz
x,y,z
1/2-x,1/2-y,z
1/2+x,-y,1/2-z
-x,1/2+y,1/2-z
-x,-y,-z
1/2+x,1/2+y,-z
1/2-x,y,1/2+z
x,1/2-y,1/2+z
loop_
_atom_site_type_symbol
_atom_site_label
_atom_site_fract_x
_atom_site_fract_y
_atom_site_fract_z
Si Si1 0.505257 0.262314 0.319296
Si Si2 0.537590 0.943832 0.929186
Si Si3 0.739102 0.452440 0.935330
Si Si4 0.652815 0.882226 0.507117
Si Si5 0.996665 0.277467 0.467452
Si Si6 0.963498 0.872414 0.631645
Si Si7 0.806606 0.565105 0.734323
Si Si8 0.303342 0.550174 0.808656
O O1 0.750000 0.250000 0.280001
O O2 0.500257 0.229132 0.387199
O O3 0.530100 0.319517 0.339670
O O4 0.250000 0.250000 0.284802
O O5 0.303541 0.940391 0.881265
O O6 0.710110 0.991505 0.910917
O O7 0.421241 0.949374 0.001857
O O8 0.718927 0.897011 0.939173
O O9 0.479190 0.431953 0.963078
O O10 0.826449 0.414005 0.879456
O O11 0.476313 0.834507 0.508668
O O12 0.855526 0.863910 0.559466
O O13 0.750000 0.250000 0.489815
O O14 0.250000 0.250000 0.489431
O O15 0.755083 0.896492 0.677222
O O16 0.573665 0.568277 0.785226
O O17 0.800909 0.509429 0.703972
O O18 0.076110 0.572083 0.765453
#
# Coordination Sequence:
#
# PCOD9430020 Si02
#       8
#     8   8   8   8   8   8   8   8
#     4  10  19  32  52  81 120 149 176 238 303 359
#     4  10  22  37  54  84 122 163 203 243 291 355
#     4  10  21  35  54  86 122 162 192 239 299 361
#     4  11  22  33  59  87 124 163 191 244 311 373
#     4  10  19  35  53  81 120 157 185 234 294 365
#     4  11  21  35  56  90 121 151 201 242 305 371
#     4  10  23  37  62  81 111 161 201 249 291 342
#     4  10  22  42  56  81 115 159 206 245 286 338
#
# _framework density 21.715796999999998
#
# number of rings (size 3 to 8) (size 9 to 14) (size 15 to 20)
#    0.000    1.750    3.750    1.875    5.250    1.000 
#    0.000    0.000    0.000    0.000    0.000    3.500 
#    0.000    0.000    0.000    0.000    0.000    0.000 
#
# Total GULP energy -357313.590202 kJ/mol
# GULP energy per Si atom -5583.024847 kJ/mol
# Density = 2.166637 g / cm^3
# Si number density = 21.715797 Si / 1000 Ang^3
#
#
#
# Elastic Constant Matrix: (Units=GPa)
#
#
# Indices 1 2 3 4 5 6 
#
# 1 104.9429 12.8788 6.0404 0.0000 0.0000 0.0000
# 2 12.8788 49.9917 20.1119 0.0000 0.0000 0.0000
# 3 6.0404 20.1119 38.9483 0.0000 0.0000 0.0000
# 4 0.0000 0.0000 0.0000 1.1690 0.0000 0.0000
# 5 0.0000 0.0000 0.0000 0.0000 21.8863 0.0000
# 6 0.0000 0.0000 0.0000 0.0000 0.0000 23.2647
#
#
#
# Elastic Compliance Matrix: (Units=1/GPa)
#
#
# Indices 1 2 3 4 5 6 
#
# 1 0.009842 -0.002425 -0.000274 0.000000 0.000000 0.000000
# 2 -0.002425 0.025846 -0.012970 0.000000 0.000000 0.000000
# 3 -0.000274 -0.012970 0.032415 0.000000 0.000000 0.000000
# 4 0.000000 0.000000 0.000000 0.855448 0.000000 0.000000
# 5 0.000000 0.000000 0.000000 0.000000 0.045691 0.000000
# 6 0.000000 0.000000 0.000000 0.000000 0.000000 0.042984
#
#
# Mechanical properties :
#
#
# Convention : Reuss Voigt Hill
#
# Bulk Modulus (GPa) = 27.20014 30.21609 28.70812
# Shear Modulus (GPa) = 4.73566 19.58746 12.16156
#
# Velocity S-wave (km/s) = 1.47834 3.00658 2.36907
# Velocity P-wave (km/s) = 3.93277 5.09875 4.55323
#
# Compressibility (1/GPa) = 0.03676451
#
# Stress axis : x y z
#
# Youngs Moduli (GPa) = 101.60113 38.69067 30.84995
#
# Poissons Ratio (x) = 0.09384 0.00845
# Poissons Ratio (y) = 0.24642 0.40013
# Poissons Ratio (z) = 0.02784 0.50182
#
# Static dielectric constant tensor:
#      x y z
#    x 1.902980 0.000000 0.000000 
#    y 0.000000 1.816290 0.000000 
#    z 0.000000 0.000000 1.794490 
# 
# From -- ./inp_files/17700.got.cif
#   From: 2010.05.17/outbox.cif.g08.bks.cpg/sg56_9_cif.got.tgz:17700.got - 2010.06.03 13:42:01.
