data_PCOD9430265
_publ_section_title
;
Structure prediction by ZEFSAII (Michael W. Deem and Ramdas Pophale) SiO2 
 PCOD9430265
Probable space group: P C C N
;
_chemical_formula_sum "Si O2"
_cell_formula_units_Z 64
_cell_length_a 17.972578
_cell_length_b 12.509040
_cell_length_c 14.815287
_cell_angle_alpha 90.000000
_cell_angle_beta 90.000000
_cell_angle_gamma 90.000000
_cell_volume 3330.768336
_symmetry_space_group_name_H-M "P C C N"
_symmetry_group_IT_number 56
_symmetry_cell_setting 'orthorhombic'
loop_
_space_group_symop_operation_xyz
x,y,z
1/2-x,1/2-y,z
1/2+x,-y,1/2-z
-x,1/2+y,1/2-z
-x,-y,-z
1/2+x,1/2+y,-z
1/2-x,y,1/2+z
x,1/2-y,1/2+z
loop_
_atom_site_type_symbol
_atom_site_label
_atom_site_fract_x
_atom_site_fract_y
_atom_site_fract_z
Si Si1 0.888196 0.071287 0.670617
Si Si2 0.962032 0.567421 0.920281
Si Si3 0.154414 0.471196 0.656318
Si Si4 0.317277 0.548746 0.650994
Si Si5 0.464452 0.318021 0.081354
Si Si6 0.566207 0.324948 0.925603
Si Si7 0.316410 0.680860 0.481092
Si Si8 0.083092 0.797573 0.756209
O O1 0.843039 0.080731 0.578034
O O2 0.875769 0.190766 0.709136
O O3 0.976168 0.060733 0.657843
O O4 0.864450 0.980626 0.738127
O O5 0.885070 0.517512 0.890494
O O6 0.954157 0.692514 0.939250
O O7 0.000000 0.500000 0.000000
O O8 0.243344 0.478667 0.657170
O O9 0.112327 0.373334 0.610086
O O10 0.115211 0.576606 0.611518
O O11 0.293476 0.639216 0.579255
O O12 0.356006 0.610952 0.734697
O O13 0.521825 0.328149 0.167605
O O14 0.497916 0.363831 0.987454
O O15 0.549788 0.244856 0.840799
O O16 0.613853 0.256494 0.997754
O O17 0.250000 0.750000 0.440647
#
# Coordination Sequence:
#
# PCOD9430265 Si02
#       8
#     8   8   8   8   8   8   8   8
#     4  10  21  36  61  90 117 153 199 248 305 365
#     4  11  20  39  64  87 108 156 215 247 290 361
#     4  11  24  36  54  90 126 158 189 245 317 373
#     4  11  22  36  57  89 123 153 197 253 305 362
#     4  11  22  40  61  84 121 164 203 250 303 369
#     4  10  19  37  59  85 117 154 197 248 306 359
#     4  11  19  34  60  89 121 146 196 262 311 349
#     4   9  20  35  59  89 114 149 203 253 299 355
#
# _framework density 19.214784999999999
#
# number of rings (size 3 to 8) (size 9 to 14) (size 15 to 20)
#    0.000    1.500    5.000    1.875    1.750    0.500 
#    0.000    0.000    0.000    0.000    3.250    0.000 
#    0.000    0.000    0.000    0.000    0.000    0.000 
#
# Total GULP energy -356608.961986 kJ/mol
# GULP energy per Si atom -5572.015031 kJ/mol
# Density = 1.917105 g / cm^3
# Si number density = 19.214785 Si / 1000 Ang^3
#
#
#
# Elastic Constant Matrix: (Units=GPa)
#
#
# Indices 1 2 3 4 5 6 
#
# 1 99.9998 36.6683 24.3272 0.0000 0.0000 0.0000
# 2 36.6683 61.6680 14.2600 0.0000 0.0000 0.0000
# 3 24.3272 14.2600 64.1890 0.0000 0.0000 0.0000
# 4 0.0000 0.0000 0.0000 25.3367 0.0000 0.0000
# 5 0.0000 0.0000 0.0000 0.0000 10.1541 0.0000
# 6 0.0000 0.0000 0.0000 0.0000 0.0000 32.3489
#
#
#
# Elastic Compliance Matrix: (Units=1/GPa)
#
#
# Indices 1 2 3 4 5 6 
#
# 1 0.013500 -0.007215 -0.003514 0.000000 0.000000 0.000000
# 2 -0.007215 0.020950 -0.001920 0.000000 0.000000 0.000000
# 3 -0.003514 -0.001920 0.017337 0.000000 0.000000 0.000000
# 4 0.000000 0.000000 0.000000 0.039468 0.000000 0.000000
# 5 0.000000 0.000000 0.000000 0.000000 0.098482 0.000000
# 6 0.000000 0.000000 0.000000 0.000000 0.000000 0.030913
#
#
# Mechanical properties :
#
#
# Convention : Reuss Voigt Hill
#
# Bulk Modulus (GPa) = 37.74922 41.81863 39.78393
# Shear Modulus (GPa) = 19.62491 23.60802 21.61646
#
# Velocity S-wave (km/s) = 3.19931 3.50900 3.35773
# Velocity P-wave (km/s) = 5.77374 6.18291 5.98183
#
# Compressibility (1/GPa) = 0.02649062
#
# Stress axis : x y z
#
# Youngs Moduli (GPa) = 74.07179 47.73306 57.67961
#
# Poissons Ratio (x) = 0.34439 0.20267
# Poissons Ratio (y) = 0.53442 0.11073
# Poissons Ratio (z) = 0.26027 0.09163
#
# Static dielectric constant tensor:
#      x y z
#    x 1.701570 0.000000 0.000000 
#    y 0.000000 1.712460 0.000000 
#    z 0.000000 0.000000 1.765030 
# 
# From -- ./inp_files/12843.got.cif
#   From: 2010.05.17/outbox.cif.g08.bks.cpg/sg56_7_cif.got.tgz:12843.got - 2010.06.03 13:42:01.
