data_PCOD9430508
_publ_section_title
;
Structure prediction by ZEFSAII (Michael W. Deem and Ramdas Pophale) SiO2 
 PCOD9430508
Probable space group: P C C N
;
_chemical_formula_sum "Si O2"
_cell_formula_units_Z 52
_cell_length_a 10.195873
_cell_length_b 8.252823
_cell_length_c 31.507850
_cell_angle_alpha 90.000000
_cell_angle_beta 90.000000
_cell_angle_gamma 90.000000
_cell_volume 2651.219695
_symmetry_space_group_name_H-M "P C C N"
_symmetry_group_IT_number 56
_symmetry_cell_setting 'orthorhombic'
loop_
_space_group_symop_operation_xyz
x,y,z
1/2-x,1/2-y,z
1/2+x,-y,1/2-z
-x,1/2+y,1/2-z
-x,-y,-z
1/2+x,1/2+y,-z
1/2-x,y,1/2+z
x,1/2-y,1/2+z
loop_
_atom_site_type_symbol
_atom_site_label
_atom_site_fract_x
_atom_site_fract_y
_atom_site_fract_z
Si Si1 0.909614 0.532876 0.459232
Si Si2 0.250000 0.750000 0.503725
Si Si3 0.996009 0.622343 0.961223
Si Si4 0.095796 0.952791 0.880199
Si Si5 0.103497 0.937382 0.378223
Si Si6 0.107413 0.050602 0.284480
Si Si7 0.404792 0.436020 0.786039
O O1 0.790103 0.407034 0.467643
O O2 0.000000 0.500000 0.500000
O O3 0.893360 0.729236 0.459209
O O4 0.994704 0.496039 0.416922
O O5 0.367016 0.712757 0.471247
O O6 0.008317 0.524592 0.917414
O O7 0.000000 0.500000 0.000000
O O8 0.248533 0.999804 0.887842
O O9 0.099078 0.757896 0.877056
O O10 0.057014 0.017926 0.834002
O O11 0.065983 0.998153 0.331791
O O12 0.107018 0.243721 0.283345
O O13 0.258246 0.992865 0.278422
O O14 0.009598 0.990634 0.248485
#
# Coordination Sequence:
#
# PCOD9430508 Si02
#       7
#     8   4   8   8   8   8   8
#     4   9  18  33  53  77 109 145 181 225 272 327
#     4  10  20  36  52  76 112 146 182 228 278 328
#     4  10  20  34  55  81 108 143 186 228 275 329
#     4   9  17  33  57  79 104 141 182 223 274 327
#     4   9  17  33  56  80 105 138 181 227 271 327
#     4  10  21  36  57  83 112 141 182 230 280 335
#     4  10  21  37  57  84 110 142 183 230 279 335
#
# _framework density 19.613614999999999
#
# number of rings (size 3 to 8) (size 9 to 14) (size 15 to 20)
#    0.000    2.462    0.000    3.692    0.000    4.923 
#    0.000    6.154    0.000    1.846    0.000    0.000 
#    0.000    0.000    0.000    0.000    0.000    0.000 
#
# Total GULP energy -289762.638228 kJ/mol
# GULP energy per Si atom -5572.358427 kJ/mol
# Density = 1.956897 g / cm^3
# Si number density = 19.613615 Si / 1000 Ang^3
#
#
#
# Elastic Constant Matrix: (Units=GPa)
#
#
# Indices 1 2 3 4 5 6 
#
# 1 79.9147 28.6979 70.1823 0.0000 0.0000 0.0000
# 2 28.6979 58.1129 46.2767 0.0000 0.0000 0.0000
# 3 70.1823 46.2767 179.6969 0.0000 0.0000 0.0000
# 4 0.0000 0.0000 0.0000 37.4194 0.0000 0.0000
# 5 0.0000 0.0000 0.0000 0.0000 38.1920 0.0000
# 6 0.0000 0.0000 0.0000 0.0000 0.0000 29.3680
#
#
#
# Elastic Compliance Matrix: (Units=1/GPa)
#
#
# Indices 1 2 3 4 5 6 
#
# 1 0.019976 -0.004594 -0.006619 0.000000 0.000000 0.000000
# 2 -0.004594 0.022704 -0.004053 0.000000 0.000000 0.000000
# 3 -0.006619 -0.004053 0.009194 0.000000 0.000000 0.000000
# 4 0.000000 0.000000 0.000000 0.026724 0.000000 0.000000
# 5 0.000000 0.000000 0.000000 0.000000 0.026183 0.000000
# 6 0.000000 0.000000 0.000000 0.000000 0.000000 0.034051
#
#
# Mechanical properties :
#
#
# Convention : Reuss Voigt Hill
#
# Bulk Modulus (GPa) = 46.85486 67.55980 57.20733
# Shear Modulus (GPa) = 28.33255 32.50042 30.41648
#
# Velocity S-wave (km/s) = 3.80483 4.07508 3.94227
# Velocity P-wave (km/s) = 6.57595 7.52741 7.06771
#
# Compressibility (1/GPa) = 0.02134250
#
# Stress axis : x y z
#
# Youngs Moduli (GPa) = 50.06108 44.04572 108.77237
#
# Poissons Ratio (x) = 0.20235 0.71992
# Poissons Ratio (y) = 0.22998 0.44081
# Poissons Ratio (z) = 0.33133 0.17850
#
# Static dielectric constant tensor:
#      x y z
#    x 1.759740 0.000000 0.000000 
#    y 0.000000 1.763960 0.000000 
#    z 0.000000 0.000000 1.686870 
# 
# From -- ./inp_files/23487.got.cif
#   From: 2010.05.17/outbox.cif.g08.bks.cpg/sg56_12_cif.got.tgz:23487.got - 2010.06.03 13:42:01.
