data_PCOD9430289
_publ_section_title
;
Structure prediction by ZEFSAII (Michael W. Deem and Ramdas Pophale) SiO2 
 PCOD9430289
Probable space group: P C C N
;
_chemical_formula_sum "Si O2"
_cell_formula_units_Z 56
_cell_length_a 12.433391
_cell_length_b 13.535637
_cell_length_c 14.296104
_cell_angle_alpha 90.000000
_cell_angle_beta 90.000000
_cell_angle_gamma 90.000000
_cell_volume 2405.946629
_symmetry_space_group_name_H-M "P C C N"
_symmetry_group_IT_number 56
_symmetry_cell_setting 'orthorhombic'
loop_
_space_group_symop_operation_xyz
x,y,z
1/2-x,1/2-y,z
1/2+x,-y,1/2-z
-x,1/2+y,1/2-z
-x,-y,-z
1/2+x,1/2+y,-z
1/2-x,y,1/2+z
x,1/2-y,1/2+z
loop_
_atom_site_type_symbol
_atom_site_label
_atom_site_fract_x
_atom_site_fract_y
_atom_site_fract_z
Si Si1 0.524065 0.766027 0.831728
Si Si2 0.741171 0.017356 0.665126
Si Si3 0.374561 0.158902 0.820770
Si Si4 0.986861 0.230509 0.963459
Si Si5 0.154254 0.821692 0.198023
Si Si6 0.934376 0.501726 0.800454
Si Si7 0.884010 0.058983 0.486310
O O1 0.619603 0.720545 0.772650
O O2 0.416628 0.754529 0.769456
O O3 0.536648 0.885203 0.825854
O O4 0.517395 0.709942 0.930045
O O5 0.804267 0.086732 0.740203
O O6 0.793083 0.044697 0.564687
O O7 0.767069 0.901309 0.670465
O O8 0.618392 0.019145 0.699954
O O9 0.410969 0.226944 0.906685
O O10 0.465281 0.071969 0.812936
O O11 0.922047 0.159604 0.892317
O O12 0.911836 0.326377 0.980898
O O13 0.250000 0.750000 0.168256
O O14 0.850344 0.474067 0.882951
O O15 0.000000 0.000000 0.500000
#
# Coordination Sequence:
#
# PCOD9430289 Si02
#       7
#     8   8   8   8   8   8   8
#     4  11  20  39  64  84 126 168 202 255 321 374
#     4  12  21  39  65  92 128 158 209 268 317 365
#     4  10  21  39  62  91 118 162 212 254 307 380
#     4  10  19  37  63  86 117 163 212 249 302 384
#     4  11  22  37  58  93 122 153 209 271 313 364
#     4  11  22  40  63  94 124 164 216 257 313 390
#     4  11  17  39  67  85 116 172 216 250 304 390
#
# _framework density 23.275662000000001
#
# number of rings (size 3 to 8) (size 9 to 14) (size 15 to 20)
#    0.000    1.143    7.143    2.571    0.000    1.143 
#    7.714    3.571    0.000    5.143    0.000    0.000 
#    0.000    0.000    0.000    0.000    0.000    0.000 
#
# Total GULP energy -312284.112051 kJ/mol
# GULP energy per Si atom -5576.502001 kJ/mol
# Density = 2.322269 g / cm^3
# Si number density = 23.275662 Si / 1000 Ang^3
#
#
#
# Elastic Constant Matrix: (Units=GPa)
#
#
# Indices 1 2 3 4 5 6 
#
# 1 45.4935 -3.4860 26.7384 0.0000 0.0000 0.0000
# 2 -3.4860 41.7961 7.9493 0.0000 0.0000 0.0000
# 3 26.7384 7.9493 125.7178 0.0000 0.0000 0.0000
# 4 0.0000 0.0000 0.0000 29.9473 0.0000 0.0000
# 5 0.0000 0.0000 0.0000 0.0000 4.2040 0.0000
# 6 0.0000 0.0000 0.0000 0.0000 0.0000 18.7472
#
#
#
# Elastic Compliance Matrix: (Units=1/GPa)
#
#
# Indices 1 2 3 4 5 6 
#
# 1 0.025538 0.003202 -0.005634 0.000000 0.000000 0.000000
# 2 0.003202 0.024618 -0.002238 0.000000 0.000000 0.000000
# 3 -0.005634 -0.002238 0.009294 0.000000 0.000000 0.000000
# 4 0.000000 0.000000 0.000000 0.033392 0.000000 0.000000
# 5 0.000000 0.000000 0.000000 0.000000 0.237866 0.000000
# 6 0.000000 0.000000 0.000000 0.000000 0.000000 0.053341
#
#
# Mechanical properties :
#
#
# Convention : Reuss Voigt Hill
#
# Bulk Modulus (GPa) = 19.95604 30.60121 25.27862
# Shear Modulus (GPa) = 12.19237 22.70010 17.44624
#
# Velocity S-wave (km/s) = 2.29120 3.12632 2.74076
# Velocity P-wave (km/s) = 3.94866 5.11935 4.57163
#
# Compressibility (1/GPa) = 0.05011015
#
# Stress axis : x y z
#
# Youngs Moduli (GPa) = 39.15762 40.62021 107.59544
#
# Poissons Ratio (x) = -0.13005 0.60619
# Poissons Ratio (y) = -0.12536 0.24075
# Poissons Ratio (z) = 0.22061 0.09089
#
# Static dielectric constant tensor:
#      x y z
#    x 1.960400 0.000000 0.000000 
#    y 0.000000 1.920160 0.000000 
#    z 0.000000 0.000000 1.966870 
# 
# From -- ./inp_files/12364.got.cif
#   From: 2010.05.17/outbox.cif.g08.bks.cpg/sg56_7_cif.got.tgz:12364.got - 2010.06.03 13:42:01.
