data_PCOD9430135
_publ_section_title
;
Structure prediction by ZEFSAII (Michael W. Deem and Ramdas Pophale) SiO2 
 PCOD9430135
Probable space group: P C C N
;
_chemical_formula_sum "Si O2"
_cell_formula_units_Z 64
_cell_length_a 9.763627
_cell_length_b 21.189919
_cell_length_c 13.810961
_cell_angle_alpha 90.000000
_cell_angle_beta 90.000000
_cell_angle_gamma 90.000000
_cell_volume 2857.356147
_symmetry_space_group_name_H-M "P C C N"
_symmetry_group_IT_number 56
_symmetry_cell_setting 'orthorhombic'
loop_
_space_group_symop_operation_xyz
x,y,z
1/2-x,1/2-y,z
1/2+x,-y,1/2-z
-x,1/2+y,1/2-z
-x,-y,-z
1/2+x,1/2+y,-z
1/2-x,y,1/2+z
x,1/2-y,1/2+z
loop_
_atom_site_type_symbol
_atom_site_label
_atom_site_fract_x
_atom_site_fract_y
_atom_site_fract_z
Si Si1 0.158221 0.005355 0.805204
Si Si2 0.496032 0.877041 0.687649
Si Si3 0.424647 0.420904 0.278699
Si Si4 0.103212 0.744282 0.597371
Si Si5 0.303527 0.889619 0.877803
Si Si6 0.453993 0.142435 0.982320
Si Si7 0.430762 0.802882 0.307040
Si Si8 0.863924 0.698187 0.840697
O O1 0.060743 0.058876 0.850103
O O2 0.287212 0.040364 0.755052
O O3 0.223000 0.955531 0.879222
O O4 0.058587 0.965203 0.734990
O O5 0.432138 0.828692 0.612097
O O6 0.391287 0.889976 0.776802
O O7 0.617310 0.837893 0.740315
O O8 0.414045 0.398543 0.390243
O O9 0.458856 0.358585 0.215106
O O10 0.250000 0.750000 0.547946
O O11 0.983492 0.786221 0.552816
O O12 0.118850 0.778809 0.702080
O O13 0.192357 0.834481 0.864935
O O14 0.406766 0.882076 0.966714
O O15 0.349708 0.149883 0.071116
O O16 0.497928 0.740669 0.352256
O O17 0.750000 0.750000 0.836926
#
# Coordination Sequence:
#
# PCOD9430135 Si02
#       8
#     8   8   8   8   8   8   8   8
#     4  11  21  39  64  86 119 163 213 256 293 370
#     4  10  20  36  63  90 114 166 212 252 306 369
#     4  10  22  40  64  89 115 162 213 255 296 368
#     4  10  19  34  59  91 120 150 206 259 301 376
#     4  10  20  38  58  93 125 158 206 255 315 371
#     4  10  24  36  59  92 124 160 196 258 325 371
#     4   9  19  36  62  86 118 155 204 255 300 368
#     4  10  21  37  57  88 128 162 198 253 326 380
#
# _framework density 22.398327999999999
#
# number of rings (size 3 to 8) (size 9 to 14) (size 15 to 20)
#    0.000    2.000    2.500    0.750    1.750    1.500 
#    0.000    1.250    5.500    2.250    0.000    0.000 
#    0.000    0.000    0.000    0.000    0.000    0.000 
#
# Total GULP energy -357439.921695 kJ/mol
# GULP energy per Si atom -5584.998776 kJ/mol
# Density = 2.234735 g / cm^3
# Si number density = 22.398328 Si / 1000 Ang^3
#
#
#
# Elastic Constant Matrix: (Units=GPa)
#
#
# Indices 1 2 3 4 5 6 
#
# 1 45.4727 21.3151 -0.6923 0.0000 0.0000 0.0000
# 2 21.3151 119.3093 16.3067 0.0000 0.0000 0.0000
# 3 -0.6923 16.3067 45.5464 0.0000 0.0000 0.0000
# 4 0.0000 0.0000 0.0000 6.5135 0.0000 0.0000
# 5 0.0000 0.0000 0.0000 0.0000 7.0604 0.0000
# 6 0.0000 0.0000 0.0000 0.0000 0.0000 54.4646
#
#
#
# Elastic Compliance Matrix: (Units=1/GPa)
#
#
# Indices 1 2 3 4 5 6 
#
# 1 0.024175 -0.004594 0.002012 0.000000 0.000000 0.000000
# 2 -0.004594 0.009686 -0.003538 0.000000 0.000000 0.000000
# 3 0.002012 -0.003538 0.023253 0.000000 0.000000 0.000000
# 4 0.000000 0.000000 0.000000 0.153528 0.000000 0.000000
# 5 0.000000 0.000000 0.000000 0.000000 0.141635 0.000000
# 6 0.000000 0.000000 0.000000 0.000000 0.000000 0.018361
#
#
# Mechanical properties :
#
#
# Convention : Reuss Voigt Hill
#
# Bulk Modulus (GPa) = 22.28408 31.57637 26.93023
# Shear Modulus (GPa) = 12.56803 25.16763 18.86783
#
# Velocity S-wave (km/s) = 2.37136 3.35571 2.90552
# Velocity P-wave (km/s) = 4.17952 5.39839 4.82758
#
# Compressibility (1/GPa) = 0.04487508
#
# Stress axis : x y z
#
# Youngs Moduli (GPa) = 41.36460 103.24375 43.00567
#
# Poissons Ratio (x) = 0.47430 -0.08654
# Poissons Ratio (y) = 0.19003 0.15214
# Poissons Ratio (z) = -0.08323 0.36523
#
# Static dielectric constant tensor:
#      x y z
#    x 1.884470 0.000000 0.000000 
#    y 0.000000 1.848530 0.000000 
#    z 0.000000 0.000000 1.813180 
# 
# From -- ./inp_files/11074.got.cif
#   From: 2010.05.17/outbox.cif.g08.bks.cpg/sg56_6_cif.got.tgz:11074.got - 2010.06.03 13:42:01.
