data_PCOD9430477
_publ_section_title
;
Structure prediction by ZEFSAII (Michael W. Deem and Ramdas Pophale) SiO2 
 PCOD9430477
Probable space group: P C C N
;
_chemical_formula_sum "Si O2"
_cell_formula_units_Z 48
_cell_length_a 12.132415
_cell_length_b 12.271206
_cell_length_c 14.652479
_cell_angle_alpha 90.000000
_cell_angle_beta 90.000000
_cell_angle_gamma 90.000000
_cell_volume 2181.451751
_symmetry_space_group_name_H-M "P C C N"
_symmetry_group_IT_number 56
_symmetry_cell_setting 'orthorhombic'
loop_
_space_group_symop_operation_xyz
x,y,z
1/2-x,1/2-y,z
1/2+x,-y,1/2-z
-x,1/2+y,1/2-z
-x,-y,-z
1/2+x,1/2+y,-z
1/2-x,y,1/2+z
x,1/2-y,1/2+z
loop_
_atom_site_type_symbol
_atom_site_label
_atom_site_fract_x
_atom_site_fract_y
_atom_site_fract_z
Si Si1 0.284870 0.581565 0.228154
Si Si2 0.428284 0.769806 0.007083
Si Si3 0.275605 0.919654 0.509282
Si Si4 0.170206 0.158073 0.485877
Si Si5 0.162914 0.335967 0.769625
Si Si6 0.423788 0.720884 0.730394
O O1 0.281693 0.585742 0.118776
O O2 0.298701 0.458361 0.255574
O O3 0.171140 0.636705 0.258954
O O4 0.384281 0.659364 0.259299
O O5 0.327734 0.846955 0.976994
O O6 0.387919 0.646280 0.980789
O O7 0.545777 0.820831 0.976838
O O8 0.427080 0.776259 0.118893
O O9 0.236070 0.043310 0.490744
O O10 0.250000 0.250000 0.524962
O O11 0.156424 0.180211 0.378282
O O12 0.250000 0.250000 0.732948
O O13 0.041258 0.314103 0.732729
#
# Coordination Sequence:
#
# PCOD9430477 Si02
#       6
#     8   8   8   8   8   8
#     4   9  18  34  57  75 101 136 178 214 250 306
#     4   8  16  33  54  76  98 135 174 208 256 311
#     4   9  17  33  58  75  98 136 179 212 249 306
#     4  10  20  33  50  75 109 137 166 210 266 311
#     4  10  21  33  52  76 107 138 169 209 267 310
#     4   8  17  34  53  76 100 138 171 209 262 309
#
# _framework density 22.003695
#
# number of rings (size 3 to 8) (size 9 to 14) (size 15 to 20)
#    0.000    3.000    0.000    2.500    2.333    1.333 
#    0.000    3.333    7.333    0.000    0.000    0.000 
#    0.000    0.000    0.000    0.000    0.000    0.000 
#
# Total GULP energy -267527.728402 kJ/mol
# GULP energy per Si atom -5573.494342 kJ/mol
# Density = 2.195361 g / cm^3
# Si number density = 22.003695 Si / 1000 Ang^3
#
#
#
# Elastic Constant Matrix: (Units=GPa)
#
#
# Indices 1 2 3 4 5 6 
#
# 1 120.3887 92.0248 -5.4665 0.0000 0.0000 0.0000
# 2 92.0248 184.2795 -14.2615 0.0000 0.0000 0.0000
# 3 -5.4665 -14.2615 46.5937 0.0000 0.0000 0.0000
# 4 0.0000 0.0000 0.0000 100.8287 0.0000 0.0000
# 5 0.0000 0.0000 0.0000 0.0000 13.2448 0.0000
# 6 0.0000 0.0000 0.0000 0.0000 0.0000 12.0999
#
#
#
# Elastic Compliance Matrix: (Units=1/GPa)
#
#
# Indices 1 2 3 4 5 6 
#
# 1 0.013446 -0.006752 -0.000489 0.000000 0.000000 0.000000
# 2 -0.006752 0.008949 0.001947 0.000000 0.000000 0.000000
# 3 -0.000489 0.001947 0.022001 0.000000 0.000000 0.000000
# 4 0.000000 0.000000 0.000000 0.009918 0.000000 0.000000
# 5 0.000000 0.000000 0.000000 0.000000 0.075501 0.000000
# 6 0.000000 0.000000 0.000000 0.000000 0.000000 0.082646
#
#
# Mechanical properties :
#
#
# Convention : Reuss Voigt Hill
#
# Bulk Modulus (GPa) = 29.58034 55.09506 42.33770
# Shear Modulus (GPa) = 21.33852 43.83235 32.58543
#
# Velocity S-wave (km/s) = 3.11749 4.46808 3.85243
# Velocity P-wave (km/s) = 5.14110 7.19108 6.25070
#
# Compressibility (1/GPa) = 0.03380624
#
# Stress axis : x y z
#
# Youngs Moduli (GPa) = 74.37348 111.74234 45.45322
#
# Poissons Ratio (x) = 0.75452 0.02224
# Poissons Ratio (y) = 0.50219 -0.08850
# Poissons Ratio (z) = 0.03639 -0.21756
#
# Static dielectric constant tensor:
#      x y z
#    x 1.823560 0.000000 0.000000 
#    y 0.000000 1.794620 0.000000 
#    z 0.000000 0.000000 1.869660 
# 
# From -- ./inp_files/15603.got.cif
#   From: 2010.05.17/outbox.cif.g08.bks.cpg/sg56_8_cif.got.tgz:15603.got - 2010.06.03 13:42:01.
