data_PCOD9430160
_publ_section_title
;
Structure prediction by ZEFSAII (Michael W. Deem and Ramdas Pophale) SiO2 
 PCOD9430160
Probable space group: P C C N
;
_chemical_formula_sum "Si O2"
_cell_formula_units_Z 60
_cell_length_a 25.922446
_cell_length_b 7.414720
_cell_length_c 14.752550
_cell_angle_alpha 90.000000
_cell_angle_beta 90.000000
_cell_angle_gamma 90.000000
_cell_volume 2835.553392
_symmetry_space_group_name_H-M "P C C N"
_symmetry_group_IT_number 56
_symmetry_cell_setting 'orthorhombic'
loop_
_space_group_symop_operation_xyz
x,y,z
1/2-x,1/2-y,z
1/2+x,-y,1/2-z
-x,1/2+y,1/2-z
-x,-y,-z
1/2+x,1/2+y,-z
1/2-x,y,1/2+z
x,1/2-y,1/2+z
loop_
_atom_site_type_symbol
_atom_site_label
_atom_site_fract_x
_atom_site_fract_y
_atom_site_fract_z
Si Si1 0.572007 0.241441 0.736875
Si Si2 0.884266 0.743955 0.886212
Si Si3 0.046177 0.122275 0.962906
Si Si4 0.541259 0.821903 0.737937
Si Si5 0.250000 0.750000 0.619903
Si Si6 0.787546 0.583090 0.492556
Si Si7 0.642675 0.171955 0.882645
Si Si8 0.137716 0.843829 0.923111
O O1 0.515912 0.322451 0.719325
O O2 0.596028 0.278932 0.835394
O O3 0.616630 0.267766 0.662118
O O4 0.560252 0.027442 0.739352
O O5 0.915691 0.790737 0.793464
O O6 0.864726 0.540512 0.875206
O O7 0.929539 0.749493 0.961362
O O8 0.835339 0.855141 0.926238
O O9 0.035133 0.223772 0.868416
O O10 0.090735 0.977693 0.943525
O O11 0.000000 0.000000 0.000000
O O12 0.244292 0.569644 0.560065
O O13 0.195407 0.772125 0.667771
O O14 0.750000 0.750000 0.513180
O O15 0.813347 0.480003 0.578543
O O16 0.646572 0.224215 0.987762
#
# Coordination Sequence:
#
# PCOD9430160 Si02
#       8
#     8   8   8   8   4   8   8   8
#     4  10  21  37  56  83 125 157 208 254 307 372
#     4  10  20  35  59  85 121 159 203 262 313 375
#     4  10  19  35  56  82 119 161 208 242 311 371
#     4  10  21  35  57  85 121 164 201 250 308 379
#     4  10  20  36  62  88 112 156 212 254 316 382
#     4  10  19  37  64  87 117 162 209 259 323 376
#     4  10  20  36  57  82 115 157 204 260 318 368
#     4   9  20  35  56  83 117 156 200 257 301 374
#
# _framework density 21.159891999999999
#
# number of rings (size 3 to 8) (size 9 to 14) (size 15 to 20)
#    0.000    2.133    1.333    2.400    0.000    3.200 
#    0.000    6.000   11.733    0.000    0.000    0.000 
#    0.000    0.000    0.000    0.000    0.000    0.000 
#
# Total GULP energy -334188.301229 kJ/mol
# GULP energy per Si atom -5569.805020 kJ/mol
# Density = 2.111173 g / cm^3
# Si number density = 21.159892 Si / 1000 Ang^3
#
#
#
# Elastic Constant Matrix: (Units=GPa)
#
#
# Indices 1 2 3 4 5 6 
#
# 1 120.8358 19.7327 38.7460 0.0000 0.0000 0.0000
# 2 19.7327 47.5209 10.4786 0.0000 0.0000 0.0000
# 3 38.7460 10.4786 90.5113 0.0000 0.0000 0.0000
# 4 0.0000 0.0000 0.0000 14.2851 0.0000 0.0000
# 5 0.0000 0.0000 0.0000 0.0000 25.0590 0.0000
# 6 0.0000 0.0000 0.0000 0.0000 0.0000 38.4601
#
#
#
# Elastic Compliance Matrix: (Units=1/GPa)
#
#
# Indices 1 2 3 4 5 6 
#
# 1 0.010078 -0.003318 -0.003930 0.000000 0.000000 0.000000
# 2 -0.003318 0.022687 -0.001206 0.000000 0.000000 0.000000
# 3 -0.003930 -0.001206 0.012870 0.000000 0.000000 0.000000
# 4 0.000000 0.000000 0.000000 0.070003 0.000000 0.000000
# 5 0.000000 0.000000 0.000000 0.000000 0.039906 0.000000
# 6 0.000000 0.000000 0.000000 0.000000 0.000000 0.026001
#
#
# Mechanical properties :
#
#
# Convention : Reuss Voigt Hill
#
# Bulk Modulus (GPa) = 34.81062 44.08694 39.44878
# Shear Modulus (GPa) = 24.03515 28.22156 26.12836
#
# Velocity S-wave (km/s) = 3.37394 3.65599 3.51779
# Velocity P-wave (km/s) = 5.62716 6.22110 5.93157
#
# Compressibility (1/GPa) = 0.02872687
#
# Stress axis : x y z
#
# Youngs Moduli (GPa) = 99.22939 44.07786 77.69837
#
# Poissons Ratio (x) = 0.14625 0.30535
# Poissons Ratio (y) = 0.32925 0.09371
# Poissons Ratio (z) = 0.38996 0.05316
#
# Static dielectric constant tensor:
#      x y z
#    x 1.505700 0.000000 0.000000 
#    y 0.000000 1.776630 0.000000 
#    z 0.000000 0.000000 1.843740 
# 
# From -- ./inp_files/13402.got.cif
#   From: 2010.05.17/outbox.cif.g08.bks.cpg/sg56_7_cif.got.tgz:13402.got - 2010.06.03 13:42:01.
