data_PCOD9430024
_publ_section_title
;
Structure prediction by ZEFSAII (Michael W. Deem and Ramdas Pophale) SiO2 
 PCOD9430024
Probable space group: P C C N
;
_chemical_formula_sum "Si O2"
_cell_formula_units_Z 56
_cell_length_a 24.630154
_cell_length_b 15.226303
_cell_length_c 5.653384
_cell_angle_alpha 90.000000
_cell_angle_beta 90.000000
_cell_angle_gamma 90.000000
_cell_volume 2120.167049
_symmetry_space_group_name_H-M "P C C N"
_symmetry_group_IT_number 56
_symmetry_cell_setting 'orthorhombic'
loop_
_space_group_symop_operation_xyz
x,y,z
1/2-x,1/2-y,z
1/2+x,-y,1/2-z
-x,1/2+y,1/2-z
-x,-y,-z
1/2+x,1/2+y,-z
1/2-x,y,1/2+z
x,1/2-y,1/2+z
loop_
_atom_site_type_symbol
_atom_site_label
_atom_site_fract_x
_atom_site_fract_y
_atom_site_fract_z
Si Si1 0.904129 0.387077 0.220361
Si Si2 0.172278 0.537091 0.421368
Si Si3 0.171580 0.771919 0.797159
Si Si4 0.011349 0.797152 0.981320
Si Si5 0.104736 0.239694 0.505018
Si Si6 0.110117 0.051148 0.556473
Si Si7 0.732989 0.598270 0.580214
O O1 0.850016 0.428030 0.334157
O O2 0.882009 0.289500 0.150724
O O3 0.949856 0.373958 0.421641
O O4 0.919038 0.463656 0.038202
O O5 0.167930 0.623634 0.258205
O O6 0.230045 0.490992 0.420474
O O7 0.128764 0.467781 0.323311
O O8 0.196736 0.734668 0.558422
O O9 0.020687 0.728545 0.205187
O O10 0.946157 0.805943 0.991752
O O11 0.134565 0.249232 0.755858
O O12 0.079344 0.141561 0.516948
O O13 0.169571 0.075178 0.442166
O O14 0.752132 0.640865 0.332218
#
# Coordination Sequence:
#
# PCOD9430024 Si02
#       7
#     8   8   8   8   8   8   8
#     4  11  21  36  65  98 132 179 224 270 335 403
#     4  10  21  37  63  96 136 181 221 269 335 394
#     4  10  19  32  53  84 128 172 211 250 314 378
#     4  10  22  42  66  91 133 178 216 281 341 390
#     4  10  25  48  72  95 133 175 220 292 355 400
#     4  11  23  41  70  99 130 183 230 271 349 402
#     4  10  21  38  60  93 136 169 217 275 323 384
#
# _framework density 26.413015999999999
#
# number of rings (size 3 to 8) (size 9 to 14) (size 15 to 20)
#    0.000    1.714    2.857    1.714    4.000    0.000 
#    0.000    6.429    0.000   10.286    0.000    0.000 
#    0.000    0.000    0.000    0.000    0.000    0.000 
#
# Total GULP energy -311866.799216 kJ/mol
# GULP energy per Si atom -5569.049986 kJ/mol
# Density = 2.635290 g / cm^3
# Si number density = 26.413016 Si / 1000 Ang^3
#
#
#
# Elastic Constant Matrix: (Units=GPa)
#
#
# Indices 1 2 3 4 5 6 
#
# 1 51.2614 30.7780 13.6622 0.0000 0.0000 0.0000
# 2 30.7780 97.1200 22.2810 0.0000 0.0000 0.0000
# 3 13.6622 22.2810 171.3649 0.0000 0.0000 0.0000
# 4 0.0000 0.0000 0.0000 7.0862 0.0000 0.0000
# 5 0.0000 0.0000 0.0000 0.0000 -1.1449 0.0000
# 6 0.0000 0.0000 0.0000 0.0000 0.0000 25.6266
#
#
#
# Elastic Compliance Matrix: (Units=1/GPa)
#
#
# Indices 1 2 3 4 5 6 
#
# 1 0.024245 -0.007463 -0.000963 0.000000 0.000000 0.000000
# 2 -0.007463 0.012910 -0.001084 0.000000 0.000000 0.000000
# 3 -0.000963 -0.001084 0.006053 0.000000 0.000000 0.000000
# 4 0.000000 0.000000 0.000000 0.141119 0.000000 0.000000
# 5 0.000000 0.000000 0.000000 0.000000 -0.873460 0.000000
# 6 0.000000 0.000000 0.000000 0.000000 0.000000 0.039022
#
#
# Mechanical properties :
#
#
# Convention : Reuss Voigt Hill
#
# Bulk Modulus (GPa) = 41.33843 50.35428 45.84635
# Shear Modulus (GPa) = -8.02530 23.18194 7.57832
#
# Velocity S-wave (km/s) = -1.74499 2.96577 1.69570
# Velocity P-wave (km/s) = 3.40951 5.55277 4.60750
#
# Compressibility (1/GPa) = 0.02419057
#
# Stress axis : x y z
#
# Youngs Moduli (GPa) = 41.24557 77.45890 165.20343
#
# Poissons Ratio (x) = 0.57804 0.15903
# Poissons Ratio (y) = 0.30780 0.17902
# Poissons Ratio (z) = 0.03971 0.08394
#
# Static dielectric constant tensor:
#      x y z
#    x 1.655080 0.000000 0.000000 
#    y 0.000000 2.180390 0.000000 
#    z 0.000000 0.000000 2.154880 
# 
# From -- ./inp_files/1345.got.cif
#   From: 2010.05.17/outbox.cif.g08.bks.cpg/sg56_1_cif.got.tgz:1345.got - 2010.06.03 13:42:01.
