data_PCOD9430994
_publ_section_title
;
Structure prediction by ZEFSAII (Michael W. Deem and Ramdas Pophale) SiO2 
 PCOD9430994
Probable space group: P C C N
;
_chemical_formula_sum "Si O2"
_cell_formula_units_Z 48
_cell_length_a 20.680891
_cell_length_b 9.541814
_cell_length_c 10.860164
_cell_angle_alpha 90.000000
_cell_angle_beta 90.000000
_cell_angle_gamma 90.000000
_cell_volume 2143.071081
_symmetry_space_group_name_H-M "P C C N"
_symmetry_group_IT_number 56
_symmetry_cell_setting 'orthorhombic'
loop_
_space_group_symop_operation_xyz
x,y,z
1/2-x,1/2-y,z
1/2+x,-y,1/2-z
-x,1/2+y,1/2-z
-x,-y,-z
1/2+x,1/2+y,-z
1/2-x,y,1/2+z
x,1/2-y,1/2+z
loop_
_atom_site_type_symbol
_atom_site_label
_atom_site_fract_x
_atom_site_fract_y
_atom_site_fract_z
Si Si1 0.289231 0.106174 0.685624
Si Si2 0.565183 0.461240 0.567339
Si Si3 0.993805 0.447105 0.332902
Si Si4 0.586643 0.350233 0.061074
Si Si5 0.290742 0.021886 0.414107
Si Si6 0.886241 0.768762 0.652763
O O1 0.250000 0.250000 0.670761
O O2 0.276841 0.021419 0.560198
O O3 0.263672 0.025515 0.808404
O O4 0.361402 0.161618 0.719323
O O5 0.500000 0.500000 0.500000
O O6 0.544691 0.437753 0.707856
O O7 0.590859 0.311842 0.526393
O O8 0.607380 0.600711 0.560630
O O9 0.032978 0.594500 0.341198
O O10 0.048706 0.324513 0.341243
O O11 0.941988 0.430244 0.441963
O O12 0.655892 0.402318 0.106059
O O13 0.330020 0.166585 0.392815
#
# Coordination Sequence:
#
# PCOD9430994 Si02
#       6
#     8   8   8   8   8   8
#     4  10  20  39  65  92 120 161 229 270 320 376
#     4  12  23  36  59  98 131 164 207 250 317 399
#     4  10  21  39  59  91 131 173 209 253 319 391
#     4  10  22  40  62  87 134 171 205 263 328 379
#     4  10  22  41  66  92 123 171 217 281 318 377
#     4  10  21  36  61  95 126 169 208 270 313 391
#
# _framework density 22.397763999999999
#
# number of rings (size 3 to 8) (size 9 to 14) (size 15 to 20)
#    0.000    1.667    1.667    3.500    2.333    0.000 
#    3.000    0.833    0.000    6.000    0.000    0.000 
#    0.000    0.000    0.000    0.000    0.000    0.000 
#
# Total GULP energy -267914.631204 kJ/mol
# GULP energy per Si atom -5581.554817 kJ/mol
# Density = 2.234679 g / cm^3
# Si number density = 22.397764 Si / 1000 Ang^3
#
#
#
# Elastic Constant Matrix: (Units=GPa)
#
#
# Indices 1 2 3 4 5 6 
#
# 1 37.4104 5.6235 0.9250 0.0000 0.0000 0.0000
# 2 5.6235 109.9458 -19.7784 0.0000 0.0000 0.0000
# 3 0.9250 -19.7784 69.4023 0.0000 0.0000 0.0000
# 4 0.0000 0.0000 0.0000 17.2845 0.0000 0.0000
# 5 0.0000 0.0000 0.0000 0.0000 23.5967 0.0000
# 6 0.0000 0.0000 0.0000 0.0000 0.0000 20.0655
#
#
#
# Elastic Compliance Matrix: (Units=1/GPa)
#
#
# Indices 1 2 3 4 5 6 
#
# 1 0.026979 -0.001523 -0.000794 0.000000 0.000000 0.000000
# 2 -0.001523 0.009673 0.002777 0.000000 0.000000 0.000000
# 3 -0.000794 0.002777 0.015211 0.000000 0.000000 0.000000
# 4 0.000000 0.000000 0.000000 0.057855 0.000000 0.000000
# 5 0.000000 0.000000 0.000000 0.000000 0.042379 0.000000
# 6 0.000000 0.000000 0.000000 0.000000 0.000000 0.049837
#
#
# Mechanical properties :
#
#
# Convention : Reuss Voigt Hill
#
# Bulk Modulus (GPa) = 18.94519 21.14432 20.04476
# Shear Modulus (GPa) = 22.87214 27.52192 25.19703
#
# Velocity S-wave (km/s) = 3.19906 3.50920 3.35771
# Velocity P-wave (km/s) = 4.70342 5.08725 4.89910
#
# Compressibility (1/GPa) = 0.05278385
#
# Stress axis : x y z
#
# Youngs Moduli (GPa) = 37.06579 103.38260 65.74332
#
# Poissons Ratio (x) = 0.15742 0.05217
# Poissons Ratio (y) = 0.05644 -0.18256
# Poissons Ratio (z) = 0.02941 -0.28708
#
# Static dielectric constant tensor:
#      x y z
#    x 1.863140 0.000000 0.000000 
#    y 0.000000 1.869470 0.000000 
#    z 0.000000 0.000000 1.919130 
# 
# From -- ./inp_files/8864.got.cif
#   From: 2010.05.17/outbox.cif.g08.bks.cpg/sg56_5_cif.got.tgz:8864.got - 2010.06.03 13:42:01.
