data_PCOD9430893
_publ_section_title
;
Structure prediction by ZEFSAII (Michael W. Deem and Ramdas Pophale) SiO2 
 PCOD9430893
Probable space group: P C C N
;
_chemical_formula_sum "Si O2"
_cell_formula_units_Z 48
_cell_length_a 18.755817
_cell_length_b 7.978035
_cell_length_c 14.174791
_cell_angle_alpha 90.000000
_cell_angle_beta 90.000000
_cell_angle_gamma 90.000000
_cell_volume 2121.038678
_symmetry_space_group_name_H-M "P C C N"
_symmetry_group_IT_number 56
_symmetry_cell_setting 'orthorhombic'
loop_
_space_group_symop_operation_xyz
x,y,z
1/2-x,1/2-y,z
1/2+x,-y,1/2-z
-x,1/2+y,1/2-z
-x,-y,-z
1/2+x,1/2+y,-z
1/2-x,y,1/2+z
x,1/2-y,1/2+z
loop_
_atom_site_type_symbol
_atom_site_label
_atom_site_fract_x
_atom_site_fract_y
_atom_site_fract_z
Si Si1 0.540286 0.738882 0.478392
Si Si2 0.285312 0.928953 0.136286
Si Si3 0.424418 0.095149 0.209892
Si Si4 0.342729 0.053290 0.738127
Si Si5 0.537491 0.413892 0.871096
Si Si6 0.690521 0.896574 0.052917
O O1 0.528374 0.626659 0.384979
O O2 0.481394 0.759407 0.560282
O O3 0.614587 0.681656 0.523024
O O4 0.550149 0.926311 0.437938
O O5 0.250000 0.750000 0.155144
O O6 0.360627 0.969289 0.185166
O O7 0.227458 0.060528 0.175178
O O8 0.292185 0.965991 0.025693
O O9 0.386547 0.273361 0.232220
O O10 0.471844 0.051484 0.300107
O O11 0.318460 0.025530 0.844344
O O12 0.394016 0.910676 0.695555
O O13 0.750000 0.750000 0.055066
#
# Coordination Sequence:
#
# PCOD9430893 Si02
#       6
#     8   8   8   8   8   8
#     4   9  20  37  63  99 130 169 218 274 331 387
#     4  11  25  43  62  99 139 173 219 286 342 399
#     4  10  20  41  70  97 130 179 228 269 332 413
#     4  11  23  41  69  98 128 175 231 272 333 406
#     4  10  20  38  63 101 132 164 222 278 334 390
#     4  11  21  42  73  98 129 178 231 274 331 413
#
# _framework density 22.630420999999998
#
# number of rings (size 3 to 8) (size 9 to 14) (size 15 to 20)
#    0.000    1.667    1.667    4.500    0.000    3.333 
#    3.000    1.667    0.000    0.000    0.000    0.000 
#    0.000    0.000    0.000    0.000    0.000    0.000 
#
# Total GULP energy -268381.801477 kJ/mol
# GULP energy per Si atom -5591.287531 kJ/mol
# Density = 2.257891 g / cm^3
# Si number density = 22.630421 Si / 1000 Ang^3
#
#
#
# Elastic Constant Matrix: (Units=GPa)
#
#
# Indices 1 2 3 4 5 6 
#
# 1 68.1194 19.5917 30.7136 0.0000 0.0000 0.0000
# 2 19.5917 31.4531 -7.9500 0.0000 0.0000 0.0000
# 3 30.7136 -7.9500 123.1748 0.0000 0.0000 0.0000
# 4 0.0000 0.0000 0.0000 1.2247 0.0000 0.0000
# 5 0.0000 0.0000 0.0000 0.0000 -23.0635 0.0000
# 6 0.0000 0.0000 0.0000 0.0000 0.0000 30.0668
#
#
#
# Elastic Compliance Matrix: (Units=1/GPa)
#
#
# Indices 1 2 3 4 5 6 
#
# 1 0.022018 -0.015353 -0.006481 0.000000 0.000000 0.000000
# 2 -0.015353 0.043026 0.006605 0.000000 0.000000 0.000000
# 3 -0.006481 0.006605 0.010161 0.000000 0.000000 0.000000
# 4 0.000000 0.000000 0.000000 0.816538 0.000000 0.000000
# 5 0.000000 0.000000 0.000000 0.000000 -0.043359 0.000000
# 6 0.000000 0.000000 0.000000 0.000000 0.000000 0.033259
#
#
# Mechanical properties :
#
#
# Convention : Reuss Voigt Hill
#
# Bulk Modulus (GPa) = 22.34764 34.16201 28.25482
# Shear Modulus (GPa) = 5.39365 13.67173 9.53269
#
# Velocity S-wave (km/s) = 1.54549 2.46057 2.05462
# Velocity P-wave (km/s) = 3.61679 4.81674 4.25923
#
# Compressibility (1/GPa) = 0.04474746
#
# Stress axis : x y z
#
# Youngs Moduli (GPa) = 45.41765 23.24180 98.41637
#
# Poissons Ratio (x) = 0.35683 0.63784
# Poissons Ratio (y) = 0.69729 -0.65006
# Poissons Ratio (z) = 0.29435 -0.15352
#
# Static dielectric constant tensor:
#      x y z
#    x 1.845900 0.000000 0.000000 
#    y 0.000000 1.855470 0.000000 
#    z 0.000000 0.000000 1.849130 
# 
# From -- ./inp_files/12687.got.cif
#   From: 2010.05.17/outbox.cif.g08.bks.cpg/sg56_7_cif.got.tgz:12687.got - 2010.06.03 13:42:01.
