data_PCOD9430330
_publ_section_title
;
Structure prediction by ZEFSAII (Michael W. Deem and Ramdas Pophale) SiO2 
 PCOD9430330
Probable space group: P C C N
;
_chemical_formula_sum "Si O2"
_cell_formula_units_Z 56
_cell_length_a 4.846354
_cell_length_b 31.406934
_cell_length_c 17.734884
_cell_angle_alpha 90.000000
_cell_angle_beta 90.000000
_cell_angle_gamma 90.000000
_cell_volume 2699.411091
_symmetry_space_group_name_H-M "P C C N"
_symmetry_group_IT_number 56
_symmetry_cell_setting 'orthorhombic'
loop_
_space_group_symop_operation_xyz
x,y,z
1/2-x,1/2-y,z
1/2+x,-y,1/2-z
-x,1/2+y,1/2-z
-x,-y,-z
1/2+x,1/2+y,-z
1/2-x,y,1/2+z
x,1/2-y,1/2+z
loop_
_atom_site_type_symbol
_atom_site_label
_atom_site_fract_x
_atom_site_fract_y
_atom_site_fract_z
Si Si1 0.302629 0.142028 0.813586
Si Si2 0.947409 0.543499 0.546907
Si Si3 0.789988 0.397592 0.244697
Si Si4 0.856390 0.340725 0.107248
Si Si5 0.469006 0.606089 0.536059
Si Si6 0.871872 0.797022 0.820960
Si Si7 0.144671 0.477405 0.279874
O O1 0.486440 0.104067 0.778078
O O2 0.389496 0.135674 0.899527
O O3 0.391530 0.182812 0.763462
O O4 0.981596 0.134009 0.796228
O O5 0.218888 0.573575 0.557453
O O6 0.840279 0.530363 0.630423
O O7 0.000000 0.500000 0.500000
O O8 0.713481 0.573882 0.510223
O O9 0.769841 0.379035 0.161863
O O10 0.965057 0.439649 0.244898
O O11 0.653905 0.302649 0.132623
O O12 0.158424 0.326365 0.133024
O O13 0.858151 0.360463 0.025012
O O14 0.750000 0.750000 0.817052
O O15 0.934007 0.515833 0.260989
#
# Coordination Sequence:
#
# PCOD9430330 Si02
#       7
#     8   8   8   8   8   8   8
#     4  10  19  38  63  84 114 158 200 244 308 354
#     4  12  27  41  57  86 125 170 209 270 324 355
#     4  10  20  38  55  83 114 156 207 252 296 367
#     4  10  23  36  65  92 119 164 200 242 309 375
#     4  12  22  43  61  87 127 162 212 258 303 382
#     4  10  21  41  65  95 125 153 195 247 304 376
#     4  12  24  37  58  82 116 160 209 267 314 357
#
# _framework density 20.745263999999999
#
# number of rings (size 3 to 8) (size 9 to 14) (size 15 to 20)
#    0.000    1.143    2.857    3.429    4.000    0.000 
#    0.000    0.714    0.000    5.143    0.000    0.000 
#    0.000    0.000    0.000    0.000    0.000    0.000 
#
# Total GULP energy -312398.570218 kJ/mol
# GULP energy per Si atom -5578.545897 kJ/mol
# Density = 2.069805 g / cm^3
# Si number density = 20.745264 Si / 1000 Ang^3
#
#
#
# Elastic Constant Matrix: (Units=GPa)
#
#
# Indices 1 2 3 4 5 6 
#
# 1 101.7324 4.2730 7.3709 0.0000 0.0000 0.0000
# 2 4.2730 88.1352 48.0075 0.0000 0.0000 0.0000
# 3 7.3709 48.0075 90.7636 0.0000 0.0000 0.0000
# 4 0.0000 0.0000 0.0000 11.4508 0.0000 0.0000
# 5 0.0000 0.0000 0.0000 0.0000 13.5272 0.0000
# 6 0.0000 0.0000 0.0000 0.0000 0.0000 33.4623
#
#
#
# Elastic Compliance Matrix: (Units=1/GPa)
#
#
# Indices 1 2 3 4 5 6 
#
# 1 0.009888 -0.000059 -0.000772 0.000000 0.000000 0.000000
# 2 -0.000059 0.015938 -0.008426 0.000000 0.000000 0.000000
# 3 -0.000772 -0.008426 0.015537 0.000000 0.000000 0.000000
# 4 0.000000 0.000000 0.000000 0.087330 0.000000 0.000000
# 5 0.000000 0.000000 0.000000 0.000000 0.073925 0.000000
# 6 0.000000 0.000000 0.000000 0.000000 0.000000 0.029884
#
#
# Mechanical properties :
#
#
# Convention : Reuss Voigt Hill
#
# Bulk Modulus (GPa) = 43.76228 44.43713 44.09971
# Shear Modulus (GPa) = 19.33239 26.42002 22.87620
#
# Velocity S-wave (km/s) = 3.05601 3.57255 3.32432
# Velocity P-wave (km/s) = 5.79596 6.20357 6.00323
#
# Compressibility (1/GPa) = 0.02285073
#
# Stress axis : x y z
#
# Youngs Moduli (GPa) = 101.13161 62.74120 64.36315
#
# Poissons Ratio (x) = 0.00370 0.04968
# Poissons Ratio (y) = 0.00597 0.54229
# Poissons Ratio (z) = 0.07805 0.52863
#
# Static dielectric constant tensor:
#      x y z
#    x 1.796060 0.000000 0.000000 
#    y 0.000000 1.793550 0.000000 
#    z 0.000000 0.000000 1.811260 
# 
# From -- ./inp_files/9829.got.cif
#   From: 2010.05.17/outbox.cif.g08.bks.cpg/sg56_5_cif.got.tgz:9829.got - 2010.06.03 13:42:01.
