data_PCOD9430953
_publ_section_title
;
Structure prediction by ZEFSAII (Michael W. Deem and Ramdas Pophale) SiO2 
 PCOD9430953
Probable space group: P C C N
;
_chemical_formula_sum "Si O2"
_cell_formula_units_Z 48
_cell_length_a 11.284046
_cell_length_b 9.816750
_cell_length_c 19.325172
_cell_angle_alpha 90.000000
_cell_angle_beta 90.000000
_cell_angle_gamma 90.000000
_cell_volume 2140.700680
_symmetry_space_group_name_H-M "P C C N"
_symmetry_group_IT_number 56
_symmetry_cell_setting 'orthorhombic'
loop_
_space_group_symop_operation_xyz
x,y,z
1/2-x,1/2-y,z
1/2+x,-y,1/2-z
-x,1/2+y,1/2-z
-x,-y,-z
1/2+x,1/2+y,-z
1/2-x,y,1/2+z
x,1/2-y,1/2+z
loop_
_atom_site_type_symbol
_atom_site_label
_atom_site_fract_x
_atom_site_fract_y
_atom_site_fract_z
Si Si1 0.750000 0.250000 0.045777
Si Si2 0.447816 0.414199 0.305814
Si Si3 0.630852 0.183527 0.274024
Si Si4 0.995232 0.405581 0.067968
Si Si5 0.624098 0.391220 0.932014
Si Si6 0.601343 0.828221 0.492014
Si Si7 0.750000 0.750000 0.110862
O O1 0.871945 0.313515 0.080280
O O2 0.720984 0.368678 0.990615
O O3 0.529943 0.300067 0.270256
O O4 0.403466 0.538192 0.258140
O O5 0.513236 0.495012 0.367469
O O6 0.340972 0.331669 0.341997
O O7 0.750000 0.250000 0.243805
O O8 0.651770 0.151379 0.355210
O O9 0.000000 0.500000 0.000000
O O10 0.105695 0.303524 0.056098
O O11 0.515855 0.303106 0.961773
O O12 0.584821 0.546155 0.941270
O O13 0.692619 0.851255 0.554180
#
# Coordination Sequence:
#
# PCOD9430953 Si02
#       7
#     4   8   8   8   8   8   4
#     4  10  20  38  70  96 138 176 236 304 366 414
#     4  12  29  48  73 104 153 189 257 296 372 443
#     4  12  29  50  76 102 149 206 246 300 361 443
#     4  11  22  43  68 106 136 184 236 310 363 433
#     4  10  20  41  63 100 138 179 232 288 355 428
#     4  10  22  36  71 104 138 177 230 303 367 418
#     4  12  22  46  68 110 144 186 234 320 362 434
#
# _framework density 22.422564999999999
#
# number of rings (size 3 to 8) (size 9 to 14) (size 15 to 20)
#    0.000    1.000    4.167    2.000    5.833    0.000 
#    0.000    0.833    0.000    0.000    0.000    0.000 
#    0.000    0.000    0.000    0.000    0.000    0.000 
#
# Total GULP energy -267500.936544 kJ/mol
# GULP energy per Si atom -5572.936178 kJ/mol
# Density = 2.237153 g / cm^3
# Si number density = 22.422565 Si / 1000 Ang^3
#
#
#
# Elastic Constant Matrix: (Units=GPa)
#
#
# Indices 1 2 3 4 5 6 
#
# 1 87.8583 39.8273 21.8093 0.0000 0.0000 0.0000
# 2 39.8273 156.6851 37.4573 0.0000 0.0000 0.0000
# 3 21.8093 37.4573 48.0952 0.0000 0.0000 0.0000
# 4 0.0000 0.0000 0.0000 44.9307 0.0000 0.0000
# 5 0.0000 0.0000 0.0000 0.0000 8.0855 0.0000
# 6 0.0000 0.0000 0.0000 0.0000 0.0000 30.7600
#
#
#
# Elastic Compliance Matrix: (Units=1/GPa)
#
#
# Indices 1 2 3 4 5 6 
#
# 1 0.013536 -0.002425 -0.004250 0.000000 0.000000 0.000000
# 2 -0.002425 0.008277 -0.005346 0.000000 0.000000 0.000000
# 3 -0.004250 -0.005346 0.026883 0.000000 0.000000 0.000000
# 4 0.000000 0.000000 0.000000 0.022256 0.000000 0.000000
# 5 0.000000 0.000000 0.000000 0.000000 0.123678 0.000000
# 6 0.000000 0.000000 0.000000 0.000000 0.000000 0.032510
#
#
# Mechanical properties :
#
#
# Convention : Reuss Voigt Hill
#
# Bulk Modulus (GPa) = 40.56126 54.53626 47.54876
# Shear Modulus (GPa) = 19.27527 29.65823 24.46675
#
# Velocity S-wave (km/s) = 2.93514 3.64083 3.30686
# Velocity P-wave (km/s) = 5.44201 6.48453 5.98601
#
# Compressibility (1/GPa) = 0.02465406
#
# Stress axis : x y z
#
# Youngs Moduli (GPa) = 73.87687 120.82094 37.19812
#
# Poissons Ratio (x) = 0.29296 0.15808
# Poissons Ratio (y) = 0.17913 0.19888
# Poissons Ratio (z) = 0.31395 0.64597
#
# Static dielectric constant tensor:
#      x y z
#    x 1.992050 0.000000 0.000000 
#    y 0.000000 1.934420 0.000000 
#    z 0.000000 0.000000 1.866630 
# 
# From -- ./inp_files/20928.got.cif
#   From: 2010.05.17/outbox.cif.g08.bks.cpg/sg56_11_cif.got.tgz:20928.got - 2010.06.03 13:42:01.
