data_PCOD9430099
_publ_section_title
;
Structure prediction by ZEFSAII (Michael W. Deem and Ramdas Pophale) SiO2 
 PCOD9430099
Probable space group: P C C N
;
_chemical_formula_sum "Si O2"
_cell_formula_units_Z 48
_cell_length_a 8.590661
_cell_length_b 15.924102
_cell_length_c 15.668289
_cell_angle_alpha 90.000000
_cell_angle_beta 90.000000
_cell_angle_gamma 90.000000
_cell_volume 2143.399404
_symmetry_space_group_name_H-M "P C C N"
_symmetry_group_IT_number 56
_symmetry_cell_setting 'orthorhombic'
loop_
_space_group_symop_operation_xyz
x,y,z
1/2-x,1/2-y,z
1/2+x,-y,1/2-z
-x,1/2+y,1/2-z
-x,-y,-z
1/2+x,1/2+y,-z
1/2-x,y,1/2+z
x,1/2-y,1/2+z
loop_
_atom_site_type_symbol
_atom_site_label
_atom_site_fract_x
_atom_site_fract_y
_atom_site_fract_z
Si Si1 0.120103 0.924107 0.512413
Si Si2 0.136460 0.184714 0.514632
Si Si3 0.437910 0.768068 0.818747
Si Si4 0.009383 0.590168 0.256689
Si Si5 0.133440 0.030827 0.065513
Si Si6 0.342952 0.557867 0.317260
O O1 0.187166 0.916585 0.416077
O O2 0.015047 0.845531 0.535908
O O3 0.255801 0.949967 0.574299
O O4 0.000000 0.000000 0.500000
O O5 0.250000 0.250000 0.471082
O O6 0.249908 0.105475 0.534707
O O7 0.055167 0.226492 0.599314
O O8 0.250000 0.750000 0.836415
O O9 0.490623 0.691219 0.758780
O O10 0.445110 0.863520 0.783839
O O11 0.935114 0.561932 0.346589
O O12 0.922438 0.532730 0.187935
O O13 0.185329 0.558889 0.265353
O O14 0.000000 0.000000 0.000000
#
# Coordination Sequence:
#
# PCOD9430099 Si02
#       6
#     8   8   8   8   8   8
#     4   9  20  36  58  87 123 155 205 259 304 371
#     4  10  19  33  62  90 114 160 216 250 300 370
#     4   9  20  39  60  90 123 164 222 257 302 382
#     4  11  22  37  65  89 128 165 207 260 316 375
#     4  11  21  38  60  90 128 159 204 262 318 374
#     4  10  22  37  61  94 119 166 211 257 318 370
#
# _framework density 22.394331999999999
#
# number of rings (size 3 to 8) (size 9 to 14) (size 15 to 20)
#    0.000    2.000    3.333    0.000    7.000    0.000 
#    0.000    0.000    7.333    0.000    0.000    0.000 
#    0.000    0.000    0.000    0.000    0.000    0.000 
#
# Total GULP energy -267433.583296 kJ/mol
# GULP energy per Si atom -5571.532985 kJ/mol
# Density = 2.234336 g / cm^3
# Si number density = 22.394332 Si / 1000 Ang^3
#
#
#
# Elastic Constant Matrix: (Units=GPa)
#
#
# Indices 1 2 3 4 5 6 
#
# 1 82.7102 37.3352 12.7146 0.0000 0.0000 0.0000
# 2 37.3352 121.6774 15.8129 0.0000 0.0000 0.0000
# 3 12.7146 15.8129 54.6934 0.0000 0.0000 0.0000
# 4 0.0000 0.0000 0.0000 30.9381 0.0000 0.0000
# 5 0.0000 0.0000 0.0000 0.0000 18.4160 0.0000
# 6 0.0000 0.0000 0.0000 0.0000 0.0000 53.5181
#
#
#
# Elastic Compliance Matrix: (Units=1/GPa)
#
#
# Indices 1 2 3 4 5 6 
#
# 1 0.014269 -0.004101 -0.002131 0.000000 0.000000 0.000000
# 2 -0.004101 0.009718 -0.001856 0.000000 0.000000 0.000000
# 3 -0.002131 -0.001856 0.019316 0.000000 0.000000 0.000000
# 4 0.000000 0.000000 0.000000 0.032323 0.000000 0.000000
# 5 0.000000 0.000000 0.000000 0.000000 0.054301 0.000000
# 6 0.000000 0.000000 0.000000 0.000000 0.000000 0.018685
#
#
# Mechanical properties :
#
#
# Convention : Reuss Voigt Hill
#
# Bulk Modulus (GPa) = 36.86589 43.42292 40.14441
# Shear Modulus (GPa) = 28.76343 33.45568 31.10955
#
# Velocity S-wave (km/s) = 3.58775 3.86934 3.73120
# Velocity P-wave (km/s) = 5.80177 6.27651 6.04380
#
# Compressibility (1/GPa) = 0.02712534
#
# Stress axis : x y z
#
# Youngs Moduli (GPa) = 70.07992 102.90025 51.77077
#
# Poissons Ratio (x) = 0.42203 0.11035
# Poissons Ratio (y) = 0.28743 0.09610
# Poissons Ratio (z) = 0.14937 0.19101
#
# Static dielectric constant tensor:
#      x y z
#    x 1.862220 0.000000 0.000000 
#    y 0.000000 1.903200 0.000000 
#    z 0.000000 0.000000 1.892710 
# 
# From -- ./inp_files/14800.got.cif
#   From: 2010.05.17/outbox.cif.g08.bks.cpg/sg56_8_cif.got.tgz:14800.got - 2010.06.03 13:42:01.
