data_PCOD9430583
_publ_section_title
;
Structure prediction by ZEFSAII (Michael W. Deem and Ramdas Pophale) SiO2 
 PCOD9430583
Probable space group: P C C N
;
_chemical_formula_sum "Si O2"
_cell_formula_units_Z 48
_cell_length_a 11.990682
_cell_length_b 11.116373
_cell_length_c 20.282735
_cell_angle_alpha 90.000000
_cell_angle_beta 90.000000
_cell_angle_gamma 90.000000
_cell_volume 2703.544439
_symmetry_space_group_name_H-M "P C C N"
_symmetry_group_IT_number 56
_symmetry_cell_setting 'orthorhombic'
loop_
_space_group_symop_operation_xyz
x,y,z
1/2-x,1/2-y,z
1/2+x,-y,1/2-z
-x,1/2+y,1/2-z
-x,-y,-z
1/2+x,1/2+y,-z
1/2-x,y,1/2+z
x,1/2-y,1/2+z
loop_
_atom_site_type_symbol
_atom_site_label
_atom_site_fract_x
_atom_site_fract_y
_atom_site_fract_z
Si Si1 0.469926 0.139918 0.985107
Si Si2 0.250000 0.250000 0.197242
Si Si3 0.243114 0.074493 0.818634
Si Si4 0.508259 0.078565 0.846565
Si Si5 0.643633 0.173983 0.722883
Si Si6 0.471293 0.199979 0.128169
Si Si7 0.250000 0.250000 0.429889
O O1 0.524777 0.156295 0.913195
O O2 0.340526 0.176611 0.972231
O O3 0.501249 0.211484 0.051013
O O4 0.500000 0.000000 0.000000
O O5 0.270602 0.140969 0.248529
O O6 0.358472 0.265374 0.151819
O O7 0.375484 0.069313 0.833124
O O8 0.194583 0.155297 0.878329
O O9 0.187838 0.945224 0.813509
O O10 0.568674 0.135383 0.784484
O O11 0.547656 0.942168 0.859038
O O12 0.750000 0.250000 0.745460
O O13 0.570407 0.252850 0.673372
#
# Coordination Sequence:
#
# PCOD9430583 Si02
#       7
#     8   4   8   8   8   8   4
#     4   9  20  37  59  85 119 160 206 242 296 371
#     4  11  19  32  58  86 112 152 202 244 290 360
#     4  10  20  35  57  89 116 154 201 248 297 360
#     4  10  20  38  57  81 119 162 197 241 302 355
#     4  12  23  36  61  94 122 151 202 260 305 353
#     4  11  21  35  60  86 116 157 201 244 295 361
#     4   9  19  38  64  82 118 168 202 244 310 358
#
# _framework density 17.754470000000001
#
# number of rings (size 3 to 8) (size 9 to 14) (size 15 to 20)
#    0.000    1.667    5.000    0.500    0.000    0.000 
#    0.000    1.667    0.000    0.000    0.000    0.000 
#    0.000    0.000    0.000    0.000    0.000    0.000 
#
# Total GULP energy -267412.116427 kJ/mol
# GULP energy per Si atom -5571.085759 kJ/mol
# Density = 1.771406 g / cm^3
# Si number density = 17.754470 Si / 1000 Ang^3
#
#
#
# Elastic Constant Matrix: (Units=GPa)
#
#
# Indices 1 2 3 4 5 6 
#
# 1 69.5350 11.4886 35.0813 0.0000 0.0000 0.0000
# 2 11.4886 55.7013 25.1300 0.0000 0.0000 0.0000
# 3 35.0813 25.1300 133.7740 0.0000 0.0000 0.0000
# 4 0.0000 0.0000 0.0000 16.1189 0.0000 0.0000
# 5 0.0000 0.0000 0.0000 0.0000 -1.7970 0.0000
# 6 0.0000 0.0000 0.0000 0.0000 0.0000 26.9992
#
#
#
# Elastic Compliance Matrix: (Units=1/GPa)
#
#
# Indices 1 2 3 4 5 6 
#
# 1 0.016704 -0.001605 -0.004079 0.000000 0.000000 0.000000
# 2 -0.001605 0.019770 -0.003293 0.000000 0.000000 0.000000
# 3 -0.004079 -0.003293 0.009164 0.000000 0.000000 0.000000
# 4 0.000000 0.000000 0.000000 0.062039 0.000000 0.000000
# 5 0.000000 0.000000 0.000000 0.000000 -0.556485 0.000000
# 6 0.000000 0.000000 0.000000 0.000000 0.000000 0.037038
#
#
# Mechanical properties :
#
#
# Convention : Reuss Voigt Hill
#
# Bulk Modulus (GPa) = 36.12259 44.71223 40.41741
# Shear Modulus (GPa) = -13.00090 20.75157 3.87533
#
# Velocity S-wave (km/s) = -2.70897 3.42249 1.47901
# Velocity P-wave (km/s) = 3.25655 6.39189 5.07254
#
# Compressibility (1/GPa) = 0.02768351
#
# Stress axis : x y z
#
# Youngs Moduli (GPa) = 59.86451 50.58282 109.12746
#
# Poissons Ratio (x) = 0.08119 0.44514
# Poissons Ratio (y) = 0.09608 0.35934
# Poissons Ratio (z) = 0.24419 0.16656
#
# Static dielectric constant tensor:
#      x y z
#    x 1.614350 0.000000 0.000000 
#    y 0.000000 1.617240 0.000000 
#    z 0.000000 0.000000 1.621740 
# 
# From -- ./inp_files/15636.got.cif
#   From: 2010.05.17/outbox.cif.g08.bks.cpg/sg56_8_cif.got.tgz:15636.got - 2010.06.03 13:42:01.
