data_PCOD9430177
_publ_section_title
;
Structure prediction by ZEFSAII (Michael W. Deem and Ramdas Pophale) SiO2 
 PCOD9430177
Probable space group: P C C N
;
_chemical_formula_sum "Si O2"
_cell_formula_units_Z 64
_cell_length_a 7.906405
_cell_length_b 15.445858
_cell_length_c 22.660246
_cell_angle_alpha 90.000000
_cell_angle_beta 90.000000
_cell_angle_gamma 90.000000
_cell_volume 2767.296636
_symmetry_space_group_name_H-M "P C C N"
_symmetry_group_IT_number 56
_symmetry_cell_setting 'orthorhombic'
loop_
_space_group_symop_operation_xyz
x,y,z
1/2-x,1/2-y,z
1/2+x,-y,1/2-z
-x,1/2+y,1/2-z
-x,-y,-z
1/2+x,1/2+y,-z
1/2-x,y,1/2+z
x,1/2-y,1/2+z
loop_
_atom_site_type_symbol
_atom_site_label
_atom_site_fract_x
_atom_site_fract_y
_atom_site_fract_z
Si Si1 0.430308 0.475521 0.589279
Si Si2 0.418101 0.207832 0.740025
Si Si3 0.052666 0.859698 0.517172
Si Si4 0.721190 0.353070 0.303790
Si Si5 0.042210 0.668093 0.501758
Si Si6 0.606505 0.378568 0.690524
Si Si7 0.074592 0.951858 0.098738
Si Si8 0.956326 0.120074 0.132226
O O1 0.491120 0.570887 0.568014
O O2 0.494812 0.404839 0.543038
O O3 0.492204 0.444448 0.653283
O O4 0.228721 0.483816 0.581828
O O5 0.250000 0.250000 0.765446
O O6 0.522408 0.151005 0.787537
O O7 0.509996 0.292553 0.711732
O O8 0.408390 0.149155 0.681247
O O9 0.985665 0.762576 0.523084
O O10 0.255275 0.846065 0.511258
O O11 0.750000 0.250000 0.300217
O O12 0.807759 0.408618 0.251599
O O13 0.821276 0.384146 0.361234
O O14 0.977743 0.593167 0.545022
O O15 0.009284 0.656876 0.432733
O O16 0.768599 0.351810 0.651507
O O17 0.948839 0.015923 0.131463
#
# Coordination Sequence:
#
# PCOD9430177 Si02
#       8
#     8   8   8   8   8   8   8   8
#     4  10  19  35  58  90 123 156 223 272 325 382
#     4  10  21  40  69 100 128 167 228 286 335 398
#     4   9  19  33  59  92 116 166 220 270 328 397
#     4   9  22  41  62  91 126 173 220 263 336 410
#     4  10  20  36  61  89 127 178 221 260 341 407
#     4  10  20  38  64  91 129 175 210 269 336 397
#     4  11  24  37  60  93 132 174 222 275 326 397
#     4  11  21  36  61  96 134 169 220 271 330 404
#
# _framework density 23.127264
#
# number of rings (size 3 to 8) (size 9 to 14) (size 15 to 20)
#    0.000    2.000    1.250    3.000    5.250    2.000 
#    0.000    2.500    0.000    0.000    0.000    0.875 
#    0.000    0.000    0.000    0.000    0.000    0.000 
#
# Total GULP energy -356779.609258 kJ/mol
# GULP energy per Si atom -5574.681395 kJ/mol
# Density = 2.307463 g / cm^3
# Si number density = 23.127264 Si / 1000 Ang^3
#
#
#
# Elastic Constant Matrix: (Units=GPa)
#
#
# Indices 1 2 3 4 5 6 
#
# 1 29.4762 23.8021 4.3606 0.0000 0.0000 0.0000
# 2 23.8021 80.1587 10.2555 0.0000 0.0000 0.0000
# 3 4.3606 10.2555 69.5996 0.0000 0.0000 0.0000
# 4 0.0000 0.0000 0.0000 17.4786 0.0000 0.0000
# 5 0.0000 0.0000 0.0000 0.0000 8.1190 0.0000
# 6 0.0000 0.0000 0.0000 0.0000 0.0000 27.4019
#
#
#
# Elastic Compliance Matrix: (Units=1/GPa)
#
#
# Indices 1 2 3 4 5 6 
#
# 1 0.044677 -0.013156 -0.000861 0.000000 0.000000 0.000000
# 2 -0.013156 0.016589 -0.001620 0.000000 0.000000 0.000000
# 3 -0.000861 -0.001620 0.014661 0.000000 0.000000 0.000000
# 4 0.000000 0.000000 0.000000 0.057213 0.000000 0.000000
# 5 0.000000 0.000000 0.000000 0.000000 0.123167 0.000000
# 6 0.000000 0.000000 0.000000 0.000000 0.000000 0.036494
#
#
# Mechanical properties :
#
#
# Convention : Reuss Voigt Hill
#
# Bulk Modulus (GPa) = 22.39507 28.45231 25.42369
# Shear Modulus (GPa) = 14.75110 19.98765 17.36937
#
# Velocity S-wave (km/s) = 2.52826 2.94300 2.74347
# Velocity P-wave (km/s) = 4.26933 4.88646 4.58828
#
# Compressibility (1/GPa) = 0.04465268
#
# Stress axis : x y z
#
# Youngs Moduli (GPa) = 22.38313 60.28078 68.21029
#
# Poissons Ratio (x) = 0.79305 0.05870
# Poissons Ratio (y) = 0.29447 0.11051
# Poissons Ratio (z) = 0.01926 0.09766
#
# Static dielectric constant tensor:
#      x y z
#    x 1.946490 0.000000 0.000000 
#    y 0.000000 1.905010 0.000000 
#    z 0.000000 0.000000 1.927520 
# 
# From -- ./inp_files/20642.got.cif
#   From: 2010.05.17/outbox.cif.g08.bks.cpg/sg56_11_cif.got.tgz:20642.got - 2010.06.03 13:42:01.
