data_PCOD9430256
_publ_section_title
;
Structure prediction by ZEFSAII (Michael W. Deem and Ramdas Pophale) SiO2 
 PCOD9430256
Probable space group: P C C N
;
_chemical_formula_sum "Si O2"
_cell_formula_units_Z 40
_cell_length_a 20.739831
_cell_length_b 7.278771
_cell_length_c 11.441607
_cell_angle_alpha 90.000000
_cell_angle_beta 90.000000
_cell_angle_gamma 90.000000
_cell_volume 1727.230490
_symmetry_space_group_name_H-M "P C C N"
_symmetry_group_IT_number 56
_symmetry_cell_setting 'orthorhombic'
loop_
_space_group_symop_operation_xyz
x,y,z
1/2-x,1/2-y,z
1/2+x,-y,1/2-z
-x,1/2+y,1/2-z
-x,-y,-z
1/2+x,1/2+y,-z
1/2-x,y,1/2+z
x,1/2-y,1/2+z
loop_
_atom_site_type_symbol
_atom_site_label
_atom_site_fract_x
_atom_site_fract_y
_atom_site_fract_z
Si Si1 0.273132 0.038076 0.760450
Si Si2 0.025260 0.598439 0.325754
Si Si3 0.223638 0.041968 0.007460
Si Si4 0.416088 0.515515 0.341083
Si Si5 0.916875 0.685661 0.516230
O O1 0.250000 0.250000 0.757392
O O2 0.254518 0.960347 0.632489
O O3 0.350441 0.033423 0.773870
O O4 0.244347 0.959257 0.882177
O O5 0.059700 0.411523 0.364411
O O6 0.983788 0.558238 0.211015
O O7 0.971295 0.650012 0.421523
O O8 0.075091 0.766056 0.332106
O O9 0.250000 0.250000 0.003993
O O10 0.147376 0.075059 0.013188
O O11 0.407348 0.402710 0.461828
#
# Coordination Sequence:
#
# PCOD9430256 Si02
#       5
#     8   8   8   8   8
#     4  10  20  36  64  94 126 172 225 270 333 397
#     4  11  25  38  66  96 131 171 217 276 345 402
#     4  10  19  36  66  91 123 181 220 272 337 395
#     4  12  21  41  64  96 128 172 226 270 340 409
#     4  11  22  43  62  92 135 169 217 285 335 399
#
# _framework density 23.158460999999999
#
# number of rings (size 3 to 8) (size 9 to 14) (size 15 to 20)
#    0.000    1.200    8.000    0.600    0.000    0.000 
#    0.000    1.000    0.000    2.400    0.000    0.000 
#    0.000    0.000    0.000    0.000    0.000    0.000 
#
# Total GULP energy -223071.594770 kJ/mol
# GULP energy per Si atom -5576.789869 kJ/mol
# Density = 2.310575 g / cm^3
# Si number density = 23.158461 Si / 1000 Ang^3
#
#
#
# Elastic Constant Matrix: (Units=GPa)
#
#
# Indices 1 2 3 4 5 6 
#
# 1 90.9850 0.0714 12.4012 0.0000 0.0000 0.0000
# 2 0.0714 77.5761 -11.8800 0.0000 0.0000 0.0000
# 3 12.4012 -11.8800 138.7993 0.0000 0.0000 0.0000
# 4 0.0000 0.0000 0.0000 -33.5052 0.0000 0.0000
# 5 0.0000 0.0000 0.0000 0.0000 42.1138 0.0000
# 6 0.0000 0.0000 0.0000 0.0000 0.0000 -17.2945
#
#
#
# Elastic Compliance Matrix: (Units=1/GPa)
#
#
# Indices 1 2 3 4 5 6 
#
# 1 0.011128 -0.000165 -0.001008 0.000000 0.000000 0.000000
# 2 -0.000165 0.013064 0.001133 0.000000 0.000000 0.000000
# 3 -0.001008 0.001133 0.007392 0.000000 0.000000 0.000000
# 4 0.000000 0.000000 0.000000 -0.029846 0.000000 0.000000
# 5 0.000000 0.000000 0.000000 0.000000 0.023745 0.000000
# 6 0.000000 0.000000 0.000000 0.000000 0.000000 -0.057822
#
#
# Mechanical properties :
#
#
# Convention : Reuss Voigt Hill
#
# Bulk Modulus (GPa) = 31.74198 34.28284 33.01241
# Shear Modulus (GPa) = -229.81152 18.71401 -105.54876
#
# Velocity S-wave (km/s) = -9.97245 2.84577 -6.75838
# Velocity P-wave (km/s) = 10.90246 5.06296 6.82752
#
# Compressibility (1/GPa) = 0.03150402
#
# Stress axis : x y z
#
# Youngs Moduli (GPa) = 89.86022 76.54497 135.28667
#
# Poissons Ratio (x) = 0.01260 0.13642
# Poissons Ratio (y) = 0.01480 -0.15327
# Poissons Ratio (z) = 0.09061 -0.08672
#
# Static dielectric constant tensor:
#      x y z
#    x 1.983680 0.000000 0.000000 
#    y 0.000000 1.847110 0.000000 
#    z 0.000000 0.000000 1.949730 
# 
# From -- ./inp_files/6315.got.cif
#   From: 2010.05.17/outbox.cif.g08.bks.cpg/sg56_4_cif.got.tgz:6315.got - 2010.06.03 13:42:01.
