data_PCOD9430923
_publ_section_title
;
Structure prediction by ZEFSAII (Michael W. Deem and Ramdas Pophale) SiO2 
 PCOD9430923
Probable space group: P C C N
;
_chemical_formula_sum "Si O2"
_cell_formula_units_Z 48
_cell_length_a 11.321857
_cell_length_b 11.768586
_cell_length_c 17.932083
_cell_angle_alpha 90.000000
_cell_angle_beta 90.000000
_cell_angle_gamma 90.000000
_cell_volume 2389.311046
_symmetry_space_group_name_H-M "P C C N"
_symmetry_group_IT_number 56
_symmetry_cell_setting 'orthorhombic'
loop_
_space_group_symop_operation_xyz
x,y,z
1/2-x,1/2-y,z
1/2+x,-y,1/2-z
-x,1/2+y,1/2-z
-x,-y,-z
1/2+x,1/2+y,-z
1/2-x,y,1/2+z
x,1/2-y,1/2+z
loop_
_atom_site_type_symbol
_atom_site_label
_atom_site_fract_x
_atom_site_fract_y
_atom_site_fract_z
Si Si1 0.070816 0.772921 0.780472
Si Si2 0.179504 0.984562 0.052005
Si Si3 0.159297 0.352669 0.804372
Si Si4 0.852811 0.652906 0.025627
Si Si5 0.285584 0.577091 0.222781
Si Si6 0.527023 0.323554 0.049254
O O1 0.101922 0.645793 0.754763
O O2 0.171682 0.850683 0.744319
O O3 0.071263 0.789123 0.869102
O O4 0.948304 0.813472 0.746650
O O5 0.203391 0.939888 0.134733
O O6 0.128347 0.883982 0.999936
O O7 0.076009 0.080429 0.056916
O O8 0.294268 0.047362 0.017918
O O9 0.250000 0.250000 0.808901
O O10 0.121600 0.379641 0.888964
O O11 0.220128 0.458429 0.764960
O O12 0.750000 0.750000 0.025738
O O13 0.965533 0.714521 0.989135
#
# Coordination Sequence:
#
# PCOD9430923 Si02
#       6
#     8   8   8   8   8   8
#     4  11  25  42  62  97 138 171 217 276 336 395
#     4  10  20  38  65  93 129 175 220 274 328 399
#     4  11  24  41  70  95 127 176 224 275 330 403
#     4   9  20  37  61  94 123 162 226 265 326 394
#     4  11  25  42  62  97 138 171 217 276 336 395
#     4  10  20  38  65  93 129 175 220 274 328 399
#
# _framework density 20.089472000000001
#
# number of rings (size 3 to 8) (size 9 to 14) (size 15 to 20)
#    0.000    1.667    1.667    2.000    4.667    2.667 
#    0.000   13.333    0.000    0.000    0.000    0.000 
#    0.000    0.000    0.000    0.000    0.000    0.000 
#
# Total GULP energy -268301.082028 kJ/mol
# GULP energy per Si atom -5589.605876 kJ/mol
# Density = 2.004375 g / cm^3
# Si number density = 20.089472 Si / 1000 Ang^3
#
#
#
# Elastic Constant Matrix: (Units=GPa)
#
#
# Indices 1 2 3 4 5 6 
#
# 1 43.2387 36.9931 39.2136 0.0000 0.0000 0.0000
# 2 36.9931 95.7498 73.8453 0.0000 0.0000 0.0000
# 3 39.2136 73.8453 218.2943 0.0000 0.0000 0.0000
# 4 0.0000 0.0000 0.0000 28.5704 0.0000 0.0000
# 5 0.0000 0.0000 0.0000 0.0000 5.4825 0.0000
# 6 0.0000 0.0000 0.0000 0.0000 0.0000 24.1458
#
#
#
# Elastic Compliance Matrix: (Units=1/GPa)
#
#
# Indices 1 2 3 4 5 6 
#
# 1 0.035412 -0.011873 -0.002345 0.000000 0.000000 0.000000
# 2 -0.011873 0.018111 -0.003994 0.000000 0.000000 0.000000
# 3 -0.002345 -0.003994 0.006353 0.000000 0.000000 0.000000
# 4 0.000000 0.000000 0.000000 0.035001 0.000000 0.000000
# 5 0.000000 0.000000 0.000000 0.000000 0.182398 0.000000
# 6 0.000000 0.000000 0.000000 0.000000 0.000000 0.041415
#
#
# Mechanical properties :
#
#
# Convention : Reuss Voigt Hill
#
# Bulk Modulus (GPa) = 42.63854 73.04300 57.84077
# Shear Modulus (GPa) = 13.77667 25.45511 19.61589
#
# Velocity S-wave (km/s) = 2.62155 3.56348 3.12817
# Velocity P-wave (km/s) = 5.51668 7.30541 6.47313
#
# Compressibility (1/GPa) = 0.02345296
#
# Stress axis : x y z
#
# Youngs Moduli (GPa) = 28.23890 55.21403 157.39942
#
# Poissons Ratio (x) = 0.65556 0.36907
# Poissons Ratio (y) = 0.33528 0.62864
# Poissons Ratio (z) = 0.06622 0.22052
#
# Static dielectric constant tensor:
#      x y z
#    x 1.679900 0.000000 0.000000 
#    y 0.000000 1.684450 0.000000 
#    z 0.000000 0.000000 1.668740 
# 
# From -- ./inp_files/15574.got.cif
#   From: 2010.05.17/outbox.cif.g08.bks.cpg/sg56_8_cif.got.tgz:15574.got - 2010.06.03 13:42:01.
