data_PCOD9430368
_publ_section_title
;
Structure prediction by ZEFSAII (Michael W. Deem and Ramdas Pophale) SiO2 
 PCOD9430368
Probable space group: P C C N
;
_chemical_formula_sum "Si O2"
_cell_formula_units_Z 48
_cell_length_a 14.607116
_cell_length_b 15.416413
_cell_length_c 8.871501
_cell_angle_alpha 90.000000
_cell_angle_beta 90.000000
_cell_angle_gamma 90.000000
_cell_volume 1997.767393
_symmetry_space_group_name_H-M "P C C N"
_symmetry_group_IT_number 56
_symmetry_cell_setting 'orthorhombic'
loop_
_space_group_symop_operation_xyz
x,y,z
1/2-x,1/2-y,z
1/2+x,-y,1/2-z
-x,1/2+y,1/2-z
-x,-y,-z
1/2+x,1/2+y,-z
1/2-x,y,1/2+z
x,1/2-y,1/2+z
loop_
_atom_site_type_symbol
_atom_site_label
_atom_site_fract_x
_atom_site_fract_y
_atom_site_fract_z
Si Si1 0.649809 0.285252 0.904831
Si Si2 0.254535 0.475709 0.585018
Si Si3 0.555158 0.554234 0.323041
Si Si4 0.439195 0.642856 0.788527
Si Si5 0.433889 0.086448 0.491151
Si Si6 0.345203 0.929614 0.848265
O O1 0.750000 0.250000 0.935269
O O2 0.702881 0.500810 0.760139
O O3 0.657187 0.346073 0.757018
O O4 0.614954 0.330795 0.057992
O O5 0.350163 0.423449 0.593673
O O6 0.415383 0.706917 0.652981
O O7 0.285310 0.563115 0.497709
O O8 0.577571 0.455972 0.264861
O O9 0.672586 0.566707 0.006792
O O10 0.451998 0.552512 0.386632
O O11 0.540242 0.641548 0.862232
O O12 0.454988 0.117076 0.322643
O O13 0.500000 0.000000 0.500000
#
# Coordination Sequence:
#
# PCOD9430368 Si02
#       6
#     8   8   8   8   8   8
#     4  12  27  38  62  99 142 179 207 263 348 422
#     4  12  23  38  71 102 131 169 226 283 326 396
#     4  11  22  43  69  98 133 172 230 279 324 386
#     4  11  24  43  62  91 138 176 214 266 334 395
#     4  10  19  39  64  89 125 176 214 274 326 374
#     4  12  25  41  66 106 137 172 222 271 339 401
#
# _framework density 24.026821999999999
#
# number of rings (size 3 to 8) (size 9 to 14) (size 15 to 20)
#    0.000    0.667    6.667    3.000    9.333    0.000 
#    0.000    0.000    0.000    1.000    0.000    0.000 
#    0.000    0.000    0.000    0.000    0.000    0.000 
#
# Total GULP energy -267889.373060 kJ/mol
# GULP energy per Si atom -5581.028605 kJ/mol
# Density = 2.397214 g / cm^3
# Si number density = 24.026822 Si / 1000 Ang^3
#
#
#
# Elastic Constant Matrix: (Units=GPa)
#
#
# Indices 1 2 3 4 5 6 
#
# 1 195.7025 12.3537 38.8888 0.0000 0.0000 0.0000
# 2 12.3537 40.8224 13.8413 0.0000 0.0000 0.0000
# 3 38.8888 13.8413 82.8591 0.0000 0.0000 0.0000
# 4 0.0000 0.0000 0.0000 32.3474 0.0000 0.0000
# 5 0.0000 0.0000 0.0000 0.0000 38.8616 0.0000
# 6 0.0000 0.0000 0.0000 0.0000 0.0000 28.5977
#
#
#
# Elastic Compliance Matrix: (Units=1/GPa)
#
#
# Indices 1 2 3 4 5 6 
#
# 1 0.005664 -0.000861 -0.002514 0.000000 0.000000 0.000000
# 2 -0.000861 0.026098 -0.003955 0.000000 0.000000 0.000000
# 3 -0.002514 -0.003955 0.013909 0.000000 0.000000 0.000000
# 4 0.000000 0.000000 0.000000 0.030914 0.000000 0.000000
# 5 0.000000 0.000000 0.000000 0.000000 0.025732 0.000000
# 6 0.000000 0.000000 0.000000 0.000000 0.000000 0.034968
#
#
# Mechanical properties :
#
#
# Convention : Reuss Voigt Hill
#
# Bulk Modulus (GPa) = 32.24841 49.95018 41.09929
# Shear Modulus (GPa) = 30.81007 36.91468 33.86237
#
# Velocity S-wave (km/s) = 3.58483 3.92394 3.75821
# Velocity P-wave (km/s) = 5.53043 6.43150 5.99791
#
# Compressibility (1/GPa) = 0.03100928
#
# Stress axis : x y z
#
# Youngs Moduli (GPa) = 176.55963 38.31688 71.89350
#
# Poissons Ratio (x) = 0.03301 0.18076
# Poissons Ratio (y) = 0.15210 0.28436
# Poissons Ratio (z) = 0.44393 0.15155
#
# Static dielectric constant tensor:
#      x y z
#    x 2.025530 0.000000 0.000000 
#    y 0.000000 1.993710 0.000000 
#    z 0.000000 0.000000 2.055580 
# 
# From -- ./inp_files/8071.got.cif
#   From: 2010.05.17/outbox.cif.g08.bks.cpg/sg56_5_cif.got.tgz:8071.got - 2010.06.03 13:42:01.
