data_PCOD9430380
_publ_section_title
;
Structure prediction by ZEFSAII (Michael W. Deem and Ramdas Pophale) SiO2 
 PCOD9430380
Probable space group: P C C N
;
_chemical_formula_sum "Si O2"
_cell_formula_units_Z 52
_cell_length_a 11.864464
_cell_length_b 8.246559
_cell_length_c 24.578034
_cell_angle_alpha 90.000000
_cell_angle_beta 90.000000
_cell_angle_gamma 90.000000
_cell_volume 2404.739483
_symmetry_space_group_name_H-M "P C C N"
_symmetry_group_IT_number 56
_symmetry_cell_setting 'orthorhombic'
loop_
_space_group_symop_operation_xyz
x,y,z
1/2-x,1/2-y,z
1/2+x,-y,1/2-z
-x,1/2+y,1/2-z
-x,-y,-z
1/2+x,1/2+y,-z
1/2-x,y,1/2+z
x,1/2-y,1/2+z
loop_
_atom_site_type_symbol
_atom_site_label
_atom_site_fract_x
_atom_site_fract_y
_atom_site_fract_z
Si Si1 0.450576 0.582398 0.931897
Si Si2 0.750000 0.750000 0.794391
Si Si3 0.938634 0.210290 0.876783
Si Si4 0.708892 0.007385 0.887171
Si Si5 0.545133 0.863524 0.737656
Si Si6 0.118626 0.794077 0.813579
Si Si7 0.819511 0.888000 0.993397
O O1 0.482928 0.396187 0.915622
O O2 0.424069 0.671089 0.875272
O O3 0.559466 0.650123 0.964158
O O4 0.346037 0.550075 0.971884
O O5 0.786619 0.608570 0.835356
O O6 0.642515 0.738538 0.755912
O O7 0.819661 0.116913 0.878177
O O8 0.905463 0.391831 0.891241
O O9 0.987483 0.198565 0.816988
O O10 0.734691 0.923366 0.943918
O O11 0.453091 0.848518 0.785318
O O12 0.594597 0.040954 0.721824
O O13 0.250000 0.750000 0.813367
O O14 0.750000 0.750000 0.025489
#
# Coordination Sequence:
#
# PCOD9430380 Si02
#       7
#     8   4   8   8   8   8   8
#     4   9  21  44  63  93 136 167 225 280 329 400
#     4  12  22  36  60  96 134 168 220 286 318 402
#     4   9  20  40  59  88 124 171 217 271 321 396
#     4  10  20  35  65  92 122 164 225 273 329 392
#     4  11  24  40  66  95 136 181 223 267 341 400
#     4  11  26  46  68 101 138 181 220 276 341 406
#     4  10  19  39  68  94 125 175 222 282 339 392
#
# _framework density 21.623964000000001
#
# number of rings (size 3 to 8) (size 9 to 14) (size 15 to 20)
#    0.000    1.846    0.769    3.692    6.462    0.000 
#   13.846    0.769    0.000    0.000    0.000    0.000 
#    0.000    0.000    0.000    0.000    0.000    0.000 
#
# Total GULP energy -290066.427077 kJ/mol
# GULP energy per Si atom -5578.200521 kJ/mol
# Density = 2.157475 g / cm^3
# Si number density = 21.623964 Si / 1000 Ang^3
#
#
#
# Elastic Constant Matrix: (Units=GPa)
#
#
# Indices 1 2 3 4 5 6 
#
# 1 66.9516 27.2309 22.3215 0.0000 0.0000 0.0000
# 2 27.2309 62.3657 23.0329 0.0000 0.0000 0.0000
# 3 22.3215 23.0329 99.7310 0.0000 0.0000 0.0000
# 4 0.0000 0.0000 0.0000 11.9735 0.0000 0.0000
# 5 0.0000 0.0000 0.0000 0.0000 13.7177 0.0000
# 6 0.0000 0.0000 0.0000 0.0000 0.0000 38.2380
#
#
#
# Elastic Compliance Matrix: (Units=1/GPa)
#
#
# Indices 1 2 3 4 5 6 
#
# 1 0.018722 -0.007245 -0.002517 0.000000 0.000000 0.000000
# 2 -0.007245 0.020333 -0.003074 0.000000 0.000000 0.000000
# 3 -0.002517 -0.003074 0.011300 0.000000 0.000000 0.000000
# 4 0.000000 0.000000 0.000000 0.083518 0.000000 0.000000
# 5 0.000000 0.000000 0.000000 0.000000 0.072899 0.000000
# 6 0.000000 0.000000 0.000000 0.000000 0.000000 0.026152
#
#
# Mechanical properties :
#
#
# Convention : Reuss Voigt Hill
#
# Bulk Modulus (GPa) = 40.51426 41.57990 41.04708
# Shear Modulus (GPa) = 18.73888 23.21671 20.97779
#
# Velocity S-wave (km/s) = 2.94697 3.28022 3.11805
# Velocity P-wave (km/s) = 5.50962 5.79800 5.65565
#
# Compressibility (1/GPa) = 0.02468267
#
# Stress axis : x y z
#
# Youngs Moduli (GPa) = 53.41286 49.18037 88.49266
#
# Poissons Ratio (x) = 0.35631 0.22274
# Poissons Ratio (y) = 0.38698 0.27206
# Poissons Ratio (z) = 0.13444 0.15120
#
# Static dielectric constant tensor:
#      x y z
#    x 1.785650 0.000000 0.000000 
#    y 0.000000 1.869310 0.000000 
#    z 0.000000 0.000000 1.806810 
# 
# From -- ./inp_files/22292.got.cif
#   From: 2010.05.17/outbox.cif.g08.bks.cpg/sg56_12_cif.got.tgz:22292.got - 2010.06.03 13:42:01.
