data_PCOD9430083
_publ_section_title
;
Structure prediction by ZEFSAII (Michael W. Deem and Ramdas Pophale) SiO2 
 PCOD9430083
Probable space group: P C C N
;
_chemical_formula_sum "Si O2"
_cell_formula_units_Z 48
_cell_length_a 19.563825
_cell_length_b 10.973619
_cell_length_c 10.942819
_cell_angle_alpha 90.000000
_cell_angle_beta 90.000000
_cell_angle_gamma 90.000000
_cell_volume 2349.269621
_symmetry_space_group_name_H-M "P C C N"
_symmetry_group_IT_number 56
_symmetry_cell_setting 'orthorhombic'
loop_
_space_group_symop_operation_xyz
x,y,z
1/2-x,1/2-y,z
1/2+x,-y,1/2-z
-x,1/2+y,1/2-z
-x,-y,-z
1/2+x,1/2+y,-z
1/2-x,y,1/2+z
x,1/2-y,1/2+z
loop_
_atom_site_type_symbol
_atom_site_label
_atom_site_fract_x
_atom_site_fract_y
_atom_site_fract_z
Si Si1 0.780685 0.114144 0.731551
Si Si2 0.535070 0.846988 0.508424
Si Si3 0.050138 0.965989 0.810330
Si Si4 0.398149 0.764756 0.653794
Si Si5 0.694201 0.074860 0.962696
Si Si6 0.559215 0.579032 0.437366
O O1 0.750000 0.250000 0.725685
O O2 0.859947 0.132589 0.767777
O O3 0.742461 0.053281 0.845912
O O4 0.772274 0.063994 0.595487
O O5 0.513709 0.906713 0.379948
O O6 0.464427 0.813865 0.582754
O O7 0.564846 0.715383 0.483741
O O8 0.579168 0.947002 0.581945
O O9 0.085892 0.850310 0.744334
O O10 0.039544 0.064040 0.704003
O O11 0.342508 0.708005 0.557890
O O12 0.631199 0.983802 0.958237
O O13 0.500000 0.500000 0.500000
#
# Coordination Sequence:
#
# PCOD9430083 Si02
#       6
#     8   8   8   8   8   8
#     4  10  20  34  57  88 124 159 213 263 320 374
#     4  11  21  36  57  91 132 167 211 262 331 395
#     4  10  22  34  55  91 127 168 209 255 322 399
#     4  10  19  33  57  87 126 161 207 270 325 383
#     4  10  21  36  56  89 118 169 209 268 328 389
#     4  11  22  38  59  87 133 166 207 268 335 392
#
# _framework density 20.431882000000002
#
# number of rings (size 3 to 8) (size 9 to 14) (size 15 to 20)
#    0.000    1.667    3.333    3.500    2.333    2.667 
#    0.000    0.000    0.000    0.000    0.000   64.167 
#    0.000    0.000    0.000    0.000    0.000    0.000 
#
# Total GULP energy -267508.451838 kJ/mol
# GULP energy per Si atom -5573.092747 kJ/mol
# Density = 2.038538 g / cm^3
# Si number density = 20.431882 Si / 1000 Ang^3
#
#
#
# Elastic Constant Matrix: (Units=GPa)
#
#
# Indices 1 2 3 4 5 6 
#
# 1 57.4811 17.8121 51.0190 0.0000 0.0000 0.0000
# 2 17.8121 83.3813 22.9152 0.0000 0.0000 0.0000
# 3 51.0190 22.9152 131.9628 0.0000 0.0000 0.0000
# 4 0.0000 0.0000 0.0000 37.6729 0.0000 0.0000
# 5 0.0000 0.0000 0.0000 0.0000 22.4702 0.0000
# 6 0.0000 0.0000 0.0000 0.0000 0.0000 19.6535
#
#
#
# Elastic Compliance Matrix: (Units=1/GPa)
#
#
# Indices 1 2 3 4 5 6 
#
# 1 0.027213 -0.003068 -0.009988 0.000000 0.000000 0.000000
# 2 -0.003068 0.012940 -0.001061 0.000000 0.000000 0.000000
# 3 -0.009988 -0.001061 0.011624 0.000000 0.000000 0.000000
# 4 0.000000 0.000000 0.000000 0.026544 0.000000 0.000000
# 5 0.000000 0.000000 0.000000 0.000000 0.044503 0.000000
# 6 0.000000 0.000000 0.000000 0.000000 0.000000 0.050882
#
#
# Mechanical properties :
#
#
# Convention : Reuss Voigt Hill
#
# Bulk Modulus (GPa) = 42.47672 50.70196 46.58934
# Shear Modulus (GPa) = 23.83355 28.03125 25.93240
#
# Velocity S-wave (km/s) = 3.41909 3.70798 3.56647
# Velocity P-wave (km/s) = 6.03502 6.57276 6.30962
#
# Compressibility (1/GPa) = 0.02354231
#
# Stress axis : x y z
#
# Youngs Moduli (GPa) = 36.74691 77.27923 86.03109
#
# Poissons Ratio (x) = 0.23712 0.85930
# Poissons Ratio (y) = 0.11275 0.09126
# Poissons Ratio (z) = 0.36704 0.08198
#
# Static dielectric constant tensor:
#      x y z
#    x 1.771170 0.000000 0.000000 
#    y 0.000000 1.770230 0.000000 
#    z 0.000000 0.000000 1.801600 
# 
# From -- ./inp_files/4735.got.cif
#   From: 2010.05.17/outbox.cif.g08.bks.cpg/sg56_3_cif.got.tgz:4735.got - 2010.06.03 13:42:01.
