data_PCOD9430074
_publ_section_title
;
Structure prediction by ZEFSAII (Michael W. Deem and Ramdas Pophale) SiO2 
 PCOD9430074
Probable space group: P C C N
;
_chemical_formula_sum "Si O2"
_cell_formula_units_Z 48
_cell_length_a 15.467907
_cell_length_b 5.497825
_cell_length_c 26.847376
_cell_angle_alpha 90.000000
_cell_angle_beta 90.000000
_cell_angle_gamma 90.000000
_cell_volume 2283.096715
_symmetry_space_group_name_H-M "P C C N"
_symmetry_group_IT_number 56
_symmetry_cell_setting 'orthorhombic'
loop_
_space_group_symop_operation_xyz
x,y,z
1/2-x,1/2-y,z
1/2+x,-y,1/2-z
-x,1/2+y,1/2-z
-x,-y,-z
1/2+x,1/2+y,-z
1/2-x,y,1/2+z
x,1/2-y,1/2+z
loop_
_atom_site_type_symbol
_atom_site_label
_atom_site_fract_x
_atom_site_fract_y
_atom_site_fract_z
Si Si1 0.014225 0.003918 0.628880
Si Si2 0.845074 0.343096 0.400955
Si Si3 0.041787 0.208174 0.269971
Si Si4 0.104082 0.042370 0.003562
Si Si5 0.154118 0.161736 0.185180
Si Si6 0.913968 0.455501 0.033887
O O1 0.078016 0.846821 0.594215
O O2 0.967437 0.846064 0.671759
O O3 0.944797 0.103875 0.589936
O O4 0.077700 0.186752 0.658214
O O5 0.750000 0.250000 0.411700
O O6 0.867155 0.561372 0.438777
O O7 0.849820 0.404647 0.342239
O O8 0.134344 0.176057 0.243422
O O9 0.009739 0.481735 0.256852
O O10 0.137469 0.779151 0.985445
O O11 0.129981 0.280435 0.972774
O O12 0.000000 0.000000 0.000000
O O13 0.250000 0.250000 0.173259
O O14 0.000000 0.500000 0.000000
#
# Coordination Sequence:
#
# PCOD9430074 Si02
#       6
#     8   8   8   8   8   8
#     4  11  21  36  57  85 115 151 200 236 289 349
#     4  12  22  34  56  88 119 147 185 242 308 342
#     4  10  22  37  57  82 115 153 198 238 289 358
#     4  10  20  34  54  78 113 147 188 222 280 347
#     4  11  22  36  56  86 123 151 189 250 309 348
#     4  10  19  33  56  80 107 149 190 230 272 330
#
# _framework density 21.024075
#
# number of rings (size 3 to 8) (size 9 to 14) (size 15 to 20)
#    0.000    1.333    6.667    2.000    0.000    0.000 
#    0.000    0.000    0.000    2.000    0.000    0.000 
#    0.000    0.000    0.000    0.000    0.000    0.000 
#
# Total GULP energy -267418.025512 kJ/mol
# GULP energy per Si atom -5571.208865 kJ/mol
# Density = 2.097622 g / cm^3
# Si number density = 21.024075 Si / 1000 Ang^3
#
#
#
# Elastic Constant Matrix: (Units=GPa)
#
#
# Indices 1 2 3 4 5 6 
#
# 1 32.8418 8.2136 25.8505 0.0000 0.0000 0.0000
# 2 8.2136 103.6639 7.6030 0.0000 0.0000 0.0000
# 3 25.8505 7.6030 96.4501 0.0000 0.0000 0.0000
# 4 0.0000 0.0000 0.0000 29.4513 0.0000 0.0000
# 5 0.0000 0.0000 0.0000 0.0000 16.8223 0.0000
# 6 0.0000 0.0000 0.0000 0.0000 0.0000 16.2777
#
#
#
# Elastic Compliance Matrix: (Units=1/GPa)
#
#
# Indices 1 2 3 4 5 6 
#
# 1 0.039149 -0.002346 -0.010308 0.000000 0.000000 0.000000
# 2 -0.002346 0.009843 -0.000147 0.000000 0.000000 0.000000
# 3 -0.010308 -0.000147 0.013142 0.000000 0.000000 0.000000
# 4 0.000000 0.000000 0.000000 0.033954 0.000000 0.000000
# 5 0.000000 0.000000 0.000000 0.000000 0.059445 0.000000
# 6 0.000000 0.000000 0.000000 0.000000 0.000000 0.061434
#
#
# Mechanical properties :
#
#
# Convention : Reuss Voigt Hill
#
# Bulk Modulus (GPa) = 27.37252 35.14331 31.25792
# Shear Modulus (GPa) = 19.62732 25.26286 22.44509
#
# Velocity S-wave (km/s) = 3.05874 3.47019 3.27094
# Velocity P-wave (km/s) = 5.05197 5.72786 5.40050
#
# Compressibility (1/GPa) = 0.03653299
#
# Stress axis : x y z
#
# Youngs Moduli (GPa) = 25.54334 101.59271 76.08993
#
# Poissons Ratio (x) = 0.23833 0.78432
# Poissons Ratio (y) = 0.05992 0.01120
# Poissons Ratio (z) = 0.26330 0.01495
#
# Static dielectric constant tensor:
#      x y z
#    x 1.764770 0.000000 0.000000 
#    y 0.000000 2.269850 0.000000 
#    z 0.000000 0.000000 1.797890 
# 
# From -- ./inp_files/20068.got.cif
#   From: 2010.05.17/outbox.cif.g08.bks.cpg/sg56_11_cif.got.tgz:20068.got - 2010.06.03 13:42:01.
