data_PCOD9430356
_publ_section_title
;
Structure prediction by ZEFSAII (Michael W. Deem and Ramdas Pophale) SiO2 
 PCOD9430356
Probable space group: P C C N
;
_chemical_formula_sum "Si O2"
_cell_formula_units_Z 40
_cell_length_a 10.818012
_cell_length_b 10.383855
_cell_length_c 14.331598
_cell_angle_alpha 90.000000
_cell_angle_beta 90.000000
_cell_angle_gamma 90.000000
_cell_volume 1609.906640
_symmetry_space_group_name_H-M "P C C N"
_symmetry_group_IT_number 56
_symmetry_cell_setting 'orthorhombic'
loop_
_space_group_symop_operation_xyz
x,y,z
1/2-x,1/2-y,z
1/2+x,-y,1/2-z
-x,1/2+y,1/2-z
-x,-y,-z
1/2+x,1/2+y,-z
1/2-x,y,1/2+z
x,1/2-y,1/2+z
loop_
_atom_site_type_symbol
_atom_site_label
_atom_site_fract_x
_atom_site_fract_y
_atom_site_fract_z
Si Si1 0.545748 0.299708 0.388531
Si Si2 0.820335 0.941408 0.693935
Si Si3 0.613007 0.016135 0.572500
Si Si4 0.887661 0.293053 0.093392
Si Si5 0.789840 0.048747 0.881229
O O1 0.419169 0.340706 0.342770
O O2 0.534642 0.319557 0.500652
O O3 0.601467 0.156971 0.372566
O O4 0.659007 0.388327 0.355667
O O5 0.683243 0.931839 0.649367
O O6 0.869719 0.085531 0.660501
O O7 0.813481 0.941279 0.805042
O O8 0.576953 0.149402 0.626483
O O9 0.716978 0.010584 0.489246
O O10 0.500000 0.000000 0.500000
O O11 0.750000 0.250000 0.058698
#
# Coordination Sequence:
#
# PCOD9430356 Si02
#       5
#     8   8   8   8   8
#     4  10  19  39  59  83 121 148 210 260 301 359
#     4  11  22  34  67  88 114 169 205 249 316 376
#     4  10  22  39  57  89 129 158 199 256 313 370
#     4   9  17  36  57  86 109 151 204 247 291 362
#     4  10  22  37  59  90 119 154 209 265 295 369
#
# _framework density 24.846160000000001
#
# number of rings (size 3 to 8) (size 9 to 14) (size 15 to 20)
#    0.000    2.000    6.000    0.600   11.200    0.000 
#    0.000    4.000    0.000    2.400    0.000    0.000 
#    0.000    0.000    0.000    0.000    0.000    0.000 
#
# Total GULP energy -222782.182887 kJ/mol
# GULP energy per Si atom -5569.554572 kJ/mol
# Density = 2.478961 g / cm^3
# Si number density = 24.846160 Si / 1000 Ang^3
#
#
#
# Elastic Constant Matrix: (Units=GPa)
#
#
# Indices 1 2 3 4 5 6 
#
# 1 86.4150 25.3699 -6.8707 0.0000 0.0000 0.0000
# 2 25.3699 60.2400 11.6892 0.0000 0.0000 0.0000
# 3 -6.8707 11.6892 91.4683 0.0000 0.0000 0.0000
# 4 0.0000 0.0000 0.0000 26.6112 0.0000 0.0000
# 5 0.0000 0.0000 0.0000 0.0000 31.3606 0.0000
# 6 0.0000 0.0000 0.0000 0.0000 0.0000 19.0299
#
#
#
# Elastic Compliance Matrix: (Units=1/GPa)
#
#
# Indices 1 2 3 4 5 6 
#
# 1 0.013482 -0.006024 0.001783 0.000000 0.000000 0.000000
# 2 -0.006024 0.019714 -0.002972 0.000000 0.000000 0.000000
# 3 0.001783 -0.002972 0.011446 0.000000 0.000000 0.000000
# 4 0.000000 0.000000 0.000000 0.037578 0.000000 0.000000
# 5 0.000000 0.000000 0.000000 0.000000 0.031887 0.000000
# 6 0.000000 0.000000 0.000000 0.000000 0.000000 0.052549
#
#
# Mechanical properties :
#
#
# Convention : Reuss Voigt Hill
#
# Bulk Modulus (GPa) = 33.09479 33.16668 33.13073
# Shear Modulus (GPa) = 26.15675 29.26267 27.70971
#
# Velocity S-wave (km/s) = 3.24813 3.43557 3.34316
# Velocity P-wave (km/s) = 5.23602 5.39586 5.31654
#
# Compressibility (1/GPa) = 0.03021624
#
# Stress axis : x y z
#
# Youngs Moduli (GPa) = 74.17128 50.72563 87.36347
#
# Poissons Ratio (x) = 0.30557 -0.15573
# Poissons Ratio (y) = 0.44680 0.25963
# Poissons Ratio (z) = -0.13221 0.15075
#
# Static dielectric constant tensor:
#      x y z
#    x 2.144630 0.000000 0.000000 
#    y 0.000000 2.290350 0.000000 
#    z 0.000000 0.000000 1.967760 
# 
# From -- ./inp_files/11398.got.cif
#   From: 2010.05.17/outbox.cif.g08.bks.cpg/sg56_6_cif.got.tgz:11398.got - 2010.06.03 13:42:01.
