data_PCOD9430487
_publ_section_title
;
Structure prediction by ZEFSAII (Michael W. Deem and Ramdas Pophale) SiO2 
 PCOD9430487
Probable space group: P C C N
;
_chemical_formula_sum "Si O2"
_cell_formula_units_Z 64
_cell_length_a 20.180262
_cell_length_b 8.268270
_cell_length_c 19.852531
_cell_angle_alpha 90.000000
_cell_angle_beta 90.000000
_cell_angle_gamma 90.000000
_cell_volume 3312.511032
_symmetry_space_group_name_H-M "P C C N"
_symmetry_group_IT_number 56
_symmetry_cell_setting 'orthorhombic'
loop_
_space_group_symop_operation_xyz
x,y,z
1/2-x,1/2-y,z
1/2+x,-y,1/2-z
-x,1/2+y,1/2-z
-x,-y,-z
1/2+x,1/2+y,-z
1/2-x,y,1/2+z
x,1/2-y,1/2+z
loop_
_atom_site_type_symbol
_atom_site_label
_atom_site_fract_x
_atom_site_fract_y
_atom_site_fract_z
Si Si1 0.569783 0.223640 0.002693
Si Si2 0.447631 0.638782 0.137537
Si Si3 0.903094 0.644307 0.676435
Si Si4 0.088664 0.723709 0.273414
Si Si5 0.822489 0.793948 0.562238
Si Si6 0.678339 0.164997 0.111312
Si Si7 0.573233 0.645496 0.450677
Si Si8 0.061363 0.273338 0.688042
O O1 0.575537 0.339457 0.938671
O O2 0.570496 0.042503 0.971353
O O3 0.627306 0.245165 0.057454
O O4 0.498079 0.230696 0.038115
O O5 0.526108 0.679724 0.140865
O O6 0.410890 0.748819 0.193304
O O7 0.439673 0.456712 0.163160
O O8 0.904399 0.462400 0.704474
O O9 0.846264 0.680427 0.623272
O O10 0.899911 0.755974 0.742311
O O11 0.143938 0.817559 0.315814
O O12 0.014636 0.779266 0.295962
O O13 0.750000 0.750000 0.538312
O O14 0.874221 0.779413 0.501635
O O15 0.820418 0.977637 0.589770
O O16 0.750000 0.250000 0.109553
O O17 0.589379 0.666515 0.372484
#
# Coordination Sequence:
#
# PCOD9430487 Si02
#       8
#     8   8   8   8   8   8   8   8
#     4  10  20  36  58  84 115 151 191 239 290 342
#     4  10  20  33  56  87 116 145 186 240 288 335
#     4  10  20  35  56  83 115 149 188 234 285 341
#     4  10  20  35  56  83 115 149 188 234 285 341
#     4  11  23  39  59  83 116 154 192 235 288 348
#     4  11  23  39  59  83 116 154 192 235 288 348
#     4  10  20  36  58  84 115 151 191 239 290 342
#     4  10  20  33  56  87 116 145 186 240 288 335
#
# _framework density 19.320689000000002
#
# number of rings (size 3 to 8) (size 9 to 14) (size 15 to 20)
#    0.000    1.750    2.500    2.250    0.000    4.500 
#    0.000    1.250    0.000    3.000    0.000    0.000 
#    0.000    0.000    0.000    0.000    0.000    0.000 
#
# Total GULP energy -357557.601522 kJ/mol
# GULP energy per Si atom -5586.837524 kJ/mol
# Density = 1.927671 g / cm^3
# Si number density = 19.320689 Si / 1000 Ang^3
#
#
#
# Elastic Constant Matrix: (Units=GPa)
#
#
# Indices 1 2 3 4 5 6 
#
# 1 74.3415 7.3223 5.5967 0.0000 0.0000 0.0000
# 2 7.3223 22.9768 -4.6715 0.0000 0.0000 0.0000
# 3 5.5967 -4.6715 41.4416 0.0000 0.0000 0.0000
# 4 0.0000 0.0000 0.0000 33.0200 0.0000 0.0000
# 5 0.0000 0.0000 0.0000 0.0000 23.1183 0.0000
# 6 0.0000 0.0000 0.0000 0.0000 0.0000 23.0463
#
#
#
# Elastic Compliance Matrix: (Units=1/GPa)
#
#
# Indices 1 2 3 4 5 6 
#
# 1 0.014131 -0.005006 -0.002473 0.000000 0.000000 0.000000
# 2 -0.005006 0.046316 0.005897 0.000000 0.000000 0.000000
# 3 -0.002473 0.005897 0.025129 0.000000 0.000000 0.000000
# 4 0.000000 0.000000 0.000000 0.030285 0.000000 0.000000
# 5 0.000000 0.000000 0.000000 0.000000 0.043256 0.000000
# 6 0.000000 0.000000 0.000000 0.000000 0.000000 0.043391
#
#
# Mechanical properties :
#
#
# Convention : Reuss Voigt Hill
#
# Bulk Modulus (GPa) = 12.13401 17.25054 14.69227
# Shear Modulus (GPa) = 21.44622 24.53775 22.99199
#
# Velocity S-wave (km/s) = 3.33530 3.56761 3.45341
# Velocity P-wave (km/s) = 4.59633 5.09101 4.84998
#
# Compressibility (1/GPa) = 0.08241300
#
# Stress axis : x y z
#
# Youngs Moduli (GPa) = 70.76816 21.59065 39.79466
#
# Poissons Ratio (x) = 0.10808 0.09840
# Poissons Ratio (y) = 0.35426 -0.23467
# Poissons Ratio (z) = 0.17498 -0.12732
#
# Static dielectric constant tensor:
#      x y z
#    x 1.652280 0.000000 0.000000 
#    y 0.000000 1.706420 0.000000 
#    z 0.000000 0.000000 1.659580 
# 
# From -- ./inp_files/19335.got.cif
#   From: 2010.05.17/outbox.cif.g08.bks.cpg/sg56_10_cif.got.tgz:19335.got - 2010.06.03 13:42:01.
