data_PCOD9430673
_publ_section_title
;
Structure prediction by ZEFSAII (Michael W. Deem and Ramdas Pophale) SiO2 
 PCOD9430673
Probable space group: P C C N
;
_chemical_formula_sum "Si O2"
_cell_formula_units_Z 40
_cell_length_a 7.130792
_cell_length_b 7.735071
_cell_length_c 32.671917
_cell_angle_alpha 90.000000
_cell_angle_beta 90.000000
_cell_angle_gamma 90.000000
_cell_volume 1802.090886
_symmetry_space_group_name_H-M "P C C N"
_symmetry_group_IT_number 56
_symmetry_cell_setting 'orthorhombic'
loop_
_space_group_symop_operation_xyz
x,y,z
1/2-x,1/2-y,z
1/2+x,-y,1/2-z
-x,1/2+y,1/2-z
-x,-y,-z
1/2+x,1/2+y,-z
1/2-x,y,1/2+z
x,1/2-y,1/2+z
loop_
_atom_site_type_symbol
_atom_site_label
_atom_site_fract_x
_atom_site_fract_y
_atom_site_fract_z
Si Si1 0.250000 0.250000 0.850525
Si Si2 0.145059 0.036090 0.567483
Si Si3 0.470176 0.982285 0.303476
Si Si4 0.484199 0.161103 0.428983
Si Si5 0.250000 0.250000 0.140992
Si Si6 0.250000 0.750000 0.738983
Si Si7 0.250000 0.250000 0.497085
O O1 0.287021 0.417678 0.822353
O O2 0.412144 0.295305 0.883622
O O3 0.364036 0.986319 0.570677
O O4 0.057130 0.850914 0.559491
O O5 0.119972 0.131095 0.610829
O O6 0.111342 0.157999 0.528929
O O7 0.602417 0.862697 0.332507
O O8 0.385025 0.866450 0.267321
O O9 0.612610 0.130005 0.287711
O O10 0.339652 0.116526 0.464950
#
# Coordination Sequence:
#
# PCOD9430673 Si02
#       7
#     4   8   8   8   4   4   4
#     4  11  24  40  68  97 132 174 222 273 324 394
#     4  10  21  38  61  93 128 180 216 273 329 389
#     4  12  26  46  72  99 138 168 222 271 332 406
#     4  10  21  38  61  93 128 180 216 273 329 389
#     4  11  24  40  68  97 132 174 222 273 324 394
#     4  12  28  48  72 104 132 178 212 272 344 400
#     4  10  20  36  60  90 132 160 234 268 328 380
#
# _framework density 22.196437
#
# number of rings (size 3 to 8) (size 9 to 14) (size 15 to 20)
#    0.000    1.200    2.000    3.600    5.600    0.000 
#    0.000    0.000    0.000    0.000    0.000    0.000 
#    0.000    0.000    0.000    0.000    0.000    0.000 
#
# Total GULP energy -222707.361796 kJ/mol
# GULP energy per Si atom -5567.684045 kJ/mol
# Density = 2.214592 g / cm^3
# Si number density = 22.196437 Si / 1000 Ang^3
#
#
#
# Elastic Constant Matrix: (Units=GPa)
#
#
# Indices 1 2 3 4 5 6 
#
# 1 54.0182 18.4697 24.4265 0.0000 0.0000 0.0000
# 2 18.4697 98.9428 48.4359 0.0000 0.0000 0.0000
# 3 24.4265 48.4359 112.5512 0.0000 0.0000 0.0000
# 4 0.0000 0.0000 0.0000 75.6808 0.0000 0.0000
# 5 0.0000 0.0000 0.0000 0.0000 32.2716 0.0000
# 6 0.0000 0.0000 0.0000 0.0000 0.0000 43.9041
#
#
#
# Elastic Compliance Matrix: (Units=1/GPa)
#
#
# Indices 1 2 3 4 5 6 
#
# 1 0.020874 -0.002127 -0.003615 0.000000 0.000000 0.000000
# 2 -0.002127 0.013021 -0.005142 0.000000 0.000000 0.000000
# 3 -0.003615 -0.005142 0.011882 0.000000 0.000000 0.000000
# 4 0.000000 0.000000 0.000000 0.013213 0.000000 0.000000
# 5 0.000000 0.000000 0.000000 0.000000 0.030987 0.000000
# 6 0.000000 0.000000 0.000000 0.000000 0.000000 0.022777
#
#
# Mechanical properties :
#
#
# Convention : Reuss Voigt Hill
#
# Bulk Modulus (GPa) = 41.64974 49.79739 45.72356
# Shear Modulus (GPa) = 35.08143 41.98330 38.53237
#
# Velocity S-wave (km/s) = 3.97986 4.35379 4.17102
# Velocity P-wave (km/s) = 6.31854 6.91068 6.62123
#
# Compressibility (1/GPa) = 0.02400975
#
# Stress axis : x y z
#
# Youngs Moduli (GPa) = 47.90620 76.79872 84.15964
#
# Poissons Ratio (x) = 0.16335 0.30423
# Poissons Ratio (y) = 0.10190 0.43274
# Poissons Ratio (z) = 0.17318 0.39489
#
# Static dielectric constant tensor:
#      x y z
#    x 3.341720 0.000000 0.000000 
#    y 0.000000 1.808820 0.000000 
#    z 0.000000 0.000000 1.841420 
# 
# From -- ./inp_files/22003.got.cif
#   From: 2010.05.17/outbox.cif.g08.bks.cpg/sg56_12_cif.got.tgz:22003.got - 2010.06.03 13:42:01.
