data_PCOD9430069
_publ_section_title
;
Structure prediction by ZEFSAII (Michael W. Deem and Ramdas Pophale) SiO2 
 PCOD9430069
Probable space group: P C C N
;
_chemical_formula_sum "Si O2"
_cell_formula_units_Z 48
_cell_length_a 16.707179
_cell_length_b 8.321118
_cell_length_c 16.972800
_cell_angle_alpha 90.000000
_cell_angle_beta 90.000000
_cell_angle_gamma 90.000000
_cell_volume 2359.599525
_symmetry_space_group_name_H-M "P C C N"
_symmetry_group_IT_number 56
_symmetry_cell_setting 'orthorhombic'
loop_
_space_group_symop_operation_xyz
x,y,z
1/2-x,1/2-y,z
1/2+x,-y,1/2-z
-x,1/2+y,1/2-z
-x,-y,-z
1/2+x,1/2+y,-z
1/2-x,y,1/2+z
x,1/2-y,1/2+z
loop_
_atom_site_type_symbol
_atom_site_label
_atom_site_fract_x
_atom_site_fract_y
_atom_site_fract_z
Si Si1 0.708283 0.002836 0.590214
Si Si2 0.072620 0.300178 0.334049
Si Si3 0.627044 0.352343 0.616682
Si Si4 0.994893 0.254998 0.995385
Si Si5 0.378724 0.467418 0.061070
Si Si6 0.427937 0.997871 0.725970
O O1 0.667312 0.176306 0.607995
O O2 0.801157 0.020155 0.608728
O O3 0.656923 0.874054 0.639030
O O4 0.695689 0.964122 0.497720
O O5 0.074745 0.173090 0.264223
O O6 0.032632 0.212464 0.409879
O O7 0.013362 0.446235 0.310315
O O8 0.561119 0.368834 0.547531
O O9 0.591311 0.376223 0.703296
O O10 0.935291 0.106833 0.975012
O O11 0.067523 0.191592 0.049639
O O12 0.367099 0.505843 0.152303
#
# Coordination Sequence:
#
# PCOD9430069 Si02
#       6
#     8   8   8   8   8   8
#     4   9  19  37  55  74 109 151 184 221 281 345
#     4  10  20  34  55  80 110 145 184 231 278 331
#     4  10  19  33  55  81 108 140 184 232 281 335
#     4   8  15  31  53  75 103 139 180 219 271 338
#     4   8  15  31  53  74 101 143 182 217 270 337
#     4  11  20  32  55  82 107 137 186 236 277 321
#
# _framework density 20.342434000000001
#
# number of rings (size 3 to 8) (size 9 to 14) (size 15 to 20)
#    0.000    2.667    0.000    5.000    0.000    1.333 
#    0.000   11.667    0.000    4.000    0.000    0.000 
#    0.000    0.000    0.000    0.000    0.000    0.000 
#
# Total GULP energy -267660.275108 kJ/mol
# GULP energy per Si atom -5576.255731 kJ/mol
# Density = 2.029613 g / cm^3
# Si number density = 20.342434 Si / 1000 Ang^3
#
#
#
# Elastic Constant Matrix: (Units=GPa)
#
#
# Indices 1 2 3 4 5 6 
#
# 1 79.1651 22.5239 48.8982 0.0000 0.0000 0.0000
# 2 22.5239 70.2198 24.0824 0.0000 0.0000 0.0000
# 3 48.8982 24.0824 144.1899 0.0000 0.0000 0.0000
# 4 0.0000 0.0000 0.0000 28.8172 0.0000 0.0000
# 5 0.0000 0.0000 0.0000 0.0000 11.4807 0.0000
# 6 0.0000 0.0000 0.0000 0.0000 0.0000 15.1814
#
#
#
# Elastic Compliance Matrix: (Units=1/GPa)
#
#
# Indices 1 2 3 4 5 6 
#
# 1 0.016816 -0.003647 -0.005093 0.000000 0.000000 0.000000
# 2 -0.003647 0.015897 -0.001418 0.000000 0.000000 0.000000
# 3 -0.005093 -0.001418 0.008899 0.000000 0.000000 0.000000
# 4 0.000000 0.000000 0.000000 0.034702 0.000000 0.000000
# 5 0.000000 0.000000 0.000000 0.000000 0.087103 0.000000
# 6 0.000000 0.000000 0.000000 0.000000 0.000000 0.065870
#
#
# Mechanical properties :
#
#
# Convention : Reuss Voigt Hill
#
# Bulk Modulus (GPa) = 46.95991 53.84262 50.40127
# Shear Modulus (GPa) = 19.47784 24.30055 21.88920
#
# Velocity S-wave (km/s) = 3.09770 3.46001 3.28386
# Velocity P-wave (km/s) = 5.99410 6.51827 6.26167
#
# Compressibility (1/GPa) = 0.02129476
#
# Stress axis : x y z
#
# Youngs Moduli (GPa) = 59.46884 62.90394 112.36595
#
# Poissons Ratio (x) = 0.22941 0.57233
# Poissons Ratio (y) = 0.21688 0.15938
# Poissons Ratio (z) = 0.30290 0.08922
#
# Static dielectric constant tensor:
#      x y z
#    x 1.732420 0.000000 0.000000 
#    y 0.000000 1.777750 0.000000 
#    z 0.000000 0.000000 1.717300 
# 
# From -- ./inp_files/12699.got.cif
#   From: 2010.05.17/outbox.cif.g08.bks.cpg/sg56_7_cif.got.tgz:12699.got - 2010.06.03 13:42:01.
