data_PCOD9430463
_publ_section_title
;
Structure prediction by ZEFSAII (Michael W. Deem and Ramdas Pophale) SiO2 
 PCOD9430463
Probable space group: P C C N
;
_chemical_formula_sum "Si O2"
_cell_formula_units_Z 52
_cell_length_a 15.572410
_cell_length_b 18.217521
_cell_length_c 9.705185
_cell_angle_alpha 90.000000
_cell_angle_beta 90.000000
_cell_angle_gamma 90.000000
_cell_volume 2753.270786
_symmetry_space_group_name_H-M "P C C N"
_symmetry_group_IT_number 56
_symmetry_cell_setting 'orthorhombic'
loop_
_space_group_symop_operation_xyz
x,y,z
1/2-x,1/2-y,z
1/2+x,-y,1/2-z
-x,1/2+y,1/2-z
-x,-y,-z
1/2+x,1/2+y,-z
1/2-x,y,1/2+z
x,1/2-y,1/2+z
loop_
_atom_site_type_symbol
_atom_site_label
_atom_site_fract_x
_atom_site_fract_y
_atom_site_fract_z
Si Si1 0.067582 0.203082 0.973322
Si Si2 0.422578 0.468513 0.911275
Si Si3 0.750000 0.750000 0.074775
Si Si4 0.018149 0.175882 0.254930
Si Si5 0.934225 0.463899 0.888143
Si Si6 0.236870 0.481025 0.996247
Si Si7 0.293279 0.386932 0.240475
O O1 0.081008 0.119410 0.925598
O O2 0.161608 0.239021 0.009445
O O3 0.034982 0.254481 0.850623
O O4 0.000136 0.202627 0.099727
O O5 0.433880 0.488659 0.751988
O O6 0.500000 0.500000 0.000000
O O7 0.335371 0.503843 0.973658
O O8 0.753675 0.680750 0.176970
O O9 0.107656 0.133382 0.223509
O O10 0.961302 0.117029 0.336613
O O11 0.837410 0.467055 0.947078
O O12 0.000000 0.500000 0.000000
O O13 0.244958 0.412218 0.103032
O O14 0.209256 0.454226 0.846026
#
# Coordination Sequence:
#
# PCOD9430463 Si02
#       7
#     8   8   4   8   8   8   8
#     4  11  23  38  61  93 137 174 214 267 335 398
#     4  12  24  43  68  95 131 176 221 276 333 395
#     4  10  20  32  56  90 138 178 204 254 328 408
#     4  11  24  40  58  96 129 174 216 262 323 405
#     4  12  25  41  66  94 135 175 226 274 320 404
#     4  12  22  39  60  94 127 171 216 274 331 379
#     4  11  20  35  55  88 133 165 215 250 326 399
#
# _framework density 18.886627000000001
#
# number of rings (size 3 to 8) (size 9 to 14) (size 15 to 20)
#    0.000    0.615    7.692    0.000    2.154    8.000 
#    0.000    0.000    0.000    0.923    0.000    0.000 
#    0.000    0.000    0.000    0.000    0.000    0.000 
#
# Total GULP energy -290199.058830 kJ/mol
# GULP energy per Si atom -5580.751131 kJ/mol
# Density = 1.884364 g / cm^3
# Si number density = 18.886627 Si / 1000 Ang^3
#
#
#
# Elastic Constant Matrix: (Units=GPa)
#
#
# Indices 1 2 3 4 5 6 
#
# 1 93.6830 37.4951 41.5432 0.0000 0.0000 0.0000
# 2 37.4951 75.2212 30.1620 0.0000 0.0000 0.0000
# 3 41.5432 30.1620 112.7043 0.0000 0.0000 0.0000
# 4 0.0000 0.0000 0.0000 32.5244 0.0000 0.0000
# 5 0.0000 0.0000 0.0000 0.0000 27.3960 0.0000
# 6 0.0000 0.0000 0.0000 0.0000 0.0000 27.8490
#
#
#
# Elastic Compliance Matrix: (Units=1/GPa)
#
#
# Indices 1 2 3 4 5 6 
#
# 1 0.014704 -0.005776 -0.003874 0.000000 0.000000 0.000000
# 2 -0.005776 0.017161 -0.002464 0.000000 0.000000 0.000000
# 3 -0.003874 -0.002464 0.010960 0.000000 0.000000 0.000000
# 4 0.000000 0.000000 0.000000 0.030746 0.000000 0.000000
# 5 0.000000 0.000000 0.000000 0.000000 0.036502 0.000000
# 6 0.000000 0.000000 0.000000 0.000000 0.000000 0.035908
#
#
# Mechanical properties :
#
#
# Convention : Reuss Voigt Hill
#
# Bulk Modulus (GPa) = 53.77011 55.55657 54.66334
# Shear Modulus (GPa) = 28.34342 29.04775 28.69558
#
# Velocity S-wave (km/s) = 3.87811 3.92600 3.90213
# Velocity P-wave (km/s) = 6.97027 7.07326 7.02195
#
# Compressibility (1/GPa) = 0.01859769
#
# Stress axis : x y z
#
# Youngs Moduli (GPa) = 68.00861 58.27137 91.23972
#
# Poissons Ratio (x) = 0.33657 0.35348
# Poissons Ratio (y) = 0.39281 0.22478
# Poissons Ratio (z) = 0.26348 0.14356
#
# Static dielectric constant tensor:
#      x y z
#    x 1.687090 0.000000 0.000000 
#    y 0.000000 1.652040 0.000000 
#    z 0.000000 0.000000 1.705900 
# 
# From -- ./inp_files/3536.got.cif
#   From: 2010.05.17/outbox.cif.g08.bks.cpg/sg56_2_cif.got.tgz:3536.got - 2010.06.03 13:42:01.
