data_PCOD9430973
_publ_section_title
;
Structure prediction by ZEFSAII (Michael W. Deem and Ramdas Pophale) SiO2 
 PCOD9430973
Probable space group: P C C N
;
_chemical_formula_sum "Si O2"
_cell_formula_units_Z 60
_cell_length_a 16.549061
_cell_length_b 15.999384
_cell_length_c 11.295065
_cell_angle_alpha 90.000000
_cell_angle_beta 90.000000
_cell_angle_gamma 90.000000
_cell_volume 2990.648371
_symmetry_space_group_name_H-M "P C C N"
_symmetry_group_IT_number 56
_symmetry_cell_setting 'orthorhombic'
loop_
_space_group_symop_operation_xyz
x,y,z
1/2-x,1/2-y,z
1/2+x,-y,1/2-z
-x,1/2+y,1/2-z
-x,-y,-z
1/2+x,1/2+y,-z
1/2-x,y,1/2+z
x,1/2-y,1/2+z
loop_
_atom_site_type_symbol
_atom_site_label
_atom_site_fract_x
_atom_site_fract_y
_atom_site_fract_z
Si Si1 0.333653 0.488490 0.540765
Si Si2 0.750000 0.250000 0.192416
Si Si3 0.955541 0.728922 0.188698
Si Si4 0.807274 0.406934 0.553716
Si Si5 0.072817 0.929047 0.737332
Si Si6 0.453672 0.561333 0.359363
Si Si7 0.909833 0.682082 0.929660
Si Si8 0.385327 0.828136 0.674919
O O1 0.250274 0.515927 0.480922
O O2 0.355524 0.556758 0.641330
O O3 0.407651 0.501852 0.449485
O O4 0.343954 0.392843 0.582826
O O5 0.743696 0.332904 0.114800
O O6 0.670294 0.244982 0.272537
O O7 0.010583 0.647162 0.217415
O O8 0.023368 0.798168 0.158550
O O9 0.911185 0.758157 0.311952
O O10 0.905841 0.716863 0.065266
O O11 0.881574 0.428387 0.638990
O O12 0.844942 0.364836 0.439226
O O13 0.018463 0.010672 0.716096
O O14 0.501813 0.636624 0.422454
O O15 0.388907 0.600003 0.272421
#
# Coordination Sequence:
#
# PCOD9430973 Si02
#       8
#     8   4   8   8   8   8   8   8
#     4  11  21  39  61  84 129 174 211 250 323 394
#     4  12  22  34  52  86 134 168 198 238 312 408
#     4  11  20  35  61  93 127 158 212 262 316 365
#     4  12  25  35  57  90 131 168 205 256 317 387
#     4  11  21  38  62  89 117 169 217 259 308 386
#     4  10  20  39  62  84 124 170 216 248 309 383
#     4  10  21  37  61  93 120 166 212 267 315 377
#     4  11  24  35  54  93 129 163 196 254 318 378
#
# _framework density 20.062538
#
# number of rings (size 3 to 8) (size 9 to 14) (size 15 to 20)
#    0.000    1.067    5.333    2.800    3.733    0.533 
#    0.000    1.333    0.000    0.000    0.000   31.733 
#    0.000    0.000    0.000    0.000    0.000    0.000 
#
# Total GULP energy -334602.463108 kJ/mol
# GULP energy per Si atom -5576.707718 kJ/mol
# Density = 2.001687 g / cm^3
# Si number density = 20.062538 Si / 1000 Ang^3
#
#
#
# Elastic Constant Matrix: (Units=GPa)
#
#
# Indices 1 2 3 4 5 6 
#
# 1 29.3661 13.1215 33.3134 0.0000 0.0000 0.0000
# 2 13.1215 67.9117 52.6216 0.0000 0.0000 0.0000
# 3 33.3134 52.6216 127.4050 0.0000 0.0000 0.0000
# 4 0.0000 0.0000 0.0000 34.1188 0.0000 0.0000
# 5 0.0000 0.0000 0.0000 0.0000 -8.6005 0.0000
# 6 0.0000 0.0000 0.0000 0.0000 0.0000 12.8083
#
#
#
# Elastic Compliance Matrix: (Units=1/GPa)
#
#
# Indices 1 2 3 4 5 6 
#
# 1 0.048434 0.000669 -0.012941 0.000000 0.000000 0.000000
# 2 0.000669 0.021665 -0.009123 0.000000 0.000000 0.000000
# 3 -0.012941 -0.009123 0.015001 0.000000 0.000000 0.000000
# 4 0.000000 0.000000 0.000000 0.029309 0.000000 0.000000
# 5 0.000000 0.000000 0.000000 0.000000 -0.116272 0.000000
# 6 0.000000 0.000000 0.000000 0.000000 0.000000 0.078074
#
#
# Mechanical properties :
#
#
# Convention : Reuss Voigt Hill
#
# Bulk Modulus (GPa) = 23.63501 46.97731 35.30616
# Shear Modulus (GPa) = 37.56456 16.04039 26.80247
#
# Velocity S-wave (km/s) = 4.33179 2.83065 3.65903
# Velocity P-wave (km/s) = 6.06839 5.84377 5.95714
#
# Compressibility (1/GPa) = 0.04231011
#
# Stress axis : x y z
#
# Youngs Moduli (GPa) = 20.64661 46.15785 66.66342
#
# Poissons Ratio (x) = -0.03088 0.86267
# Poissons Ratio (y) = -0.01381 0.60817
# Poissons Ratio (z) = 0.26718 0.42110
#
# Static dielectric constant tensor:
#      x y z
#    x 1.706330 0.000000 0.000000 
#    y 0.000000 -0.270280 0.000000 
#    z 0.000000 0.000000 1.782090 
# 
# From -- ./inp_files/8400.got.cif
#   From: 2010.05.17/outbox.cif.g08.bks.cpg/sg56_5_cif.got.tgz:8400.got - 2010.06.03 13:42:01.
