data_PCOD9430920
_publ_section_title
;
Structure prediction by ZEFSAII (Michael W. Deem and Ramdas Pophale) SiO2 
 PCOD9430920
Probable space group: P C C N
;
_chemical_formula_sum "Si O2"
_cell_formula_units_Z 40
_cell_length_a 16.352292
_cell_length_b 9.004701
_cell_length_c 13.668478
_cell_angle_alpha 90.000000
_cell_angle_beta 90.000000
_cell_angle_gamma 90.000000
_cell_volume 2012.649216
_symmetry_space_group_name_H-M "P C C N"
_symmetry_group_IT_number 56
_symmetry_cell_setting 'orthorhombic'
loop_
_space_group_symop_operation_xyz
x,y,z
1/2-x,1/2-y,z
1/2+x,-y,1/2-z
-x,1/2+y,1/2-z
-x,-y,-z
1/2+x,1/2+y,-z
1/2-x,y,1/2+z
x,1/2-y,1/2+z
loop_
_atom_site_type_symbol
_atom_site_label
_atom_site_fract_x
_atom_site_fract_y
_atom_site_fract_z
Si Si1 0.693696 0.884217 0.789709
Si Si2 0.454495 0.190326 0.715707
Si Si3 0.339959 0.559293 0.273385
Si Si4 0.452702 0.859872 0.951600
Si Si5 0.386240 0.674098 0.649471
O O1 0.750000 0.750000 0.832571
O O2 0.612940 0.808148 0.744960
O O3 0.755580 0.970276 0.718134
O O4 0.659271 0.015454 0.857883
O O5 0.488195 0.258023 0.614683
O O6 0.529871 0.161779 0.787957
O O7 0.403322 0.039842 0.709884
O O8 0.383498 0.584995 0.376494
O O9 0.334625 0.710210 0.212653
O O10 0.410762 0.775455 0.041530
O O11 0.500000 0.000000 0.000000
#
# Coordination Sequence:
#
# PCOD9430920 Si02
#       5
#     8   8   8   8   8
#     4  10  21  39  60  88 127 168 206 262 332 377
#     4  10  20  38  65  90 121 168 213 260 319 386
#     4  10  22  38  61  93 128 169 210 268 326 378
#     4  11  20  38  67  92 124 169 219 264 315 388
#     4  11  20  39  64  89 125 168 214 263 318 387
#
# _framework density 19.874302
#
# number of rings (size 3 to 8) (size 9 to 14) (size 15 to 20)
#    0.000    1.600    4.000    1.800    0.000    0.800 
#    0.000   15.000    0.000    0.000    0.000    0.000 
#    0.000    0.000    0.000    0.000    0.000    0.000 
#
# Total GULP energy -222886.997265 kJ/mol
# GULP energy per Si atom -5572.174932 kJ/mol
# Density = 1.982907 g / cm^3
# Si number density = 19.874302 Si / 1000 Ang^3
#
#
#
# Elastic Constant Matrix: (Units=GPa)
#
#
# Indices 1 2 3 4 5 6 
#
# 1 119.9741 45.6256 38.1995 0.0000 0.0000 0.0000
# 2 45.6256 92.1607 35.3177 0.0000 0.0000 0.0000
# 3 38.1995 35.3177 105.3107 0.0000 0.0000 0.0000
# 4 0.0000 0.0000 0.0000 25.4986 0.0000 0.0000
# 5 0.0000 0.0000 0.0000 0.0000 5.1719 0.0000
# 6 0.0000 0.0000 0.0000 0.0000 0.0000 32.5776
#
#
#
# Elastic Compliance Matrix: (Units=1/GPa)
#
#
# Indices 1 2 3 4 5 6 
#
# 1 0.010786 -0.004407 -0.002435 0.000000 0.000000 0.000000
# 2 -0.004407 0.014251 -0.003181 0.000000 0.000000 0.000000
# 3 -0.002435 -0.003181 0.011446 0.000000 0.000000 0.000000
# 4 0.000000 0.000000 0.000000 0.039218 0.000000 0.000000
# 5 0.000000 0.000000 0.000000 0.000000 0.193351 0.000000
# 6 0.000000 0.000000 0.000000 0.000000 0.000000 0.030696
#
#
# Mechanical properties :
#
#
# Convention : Reuss Voigt Hill
#
# Bulk Modulus (GPa) = 60.83335 61.74790 61.29063
# Shear Modulus (GPa) = 15.37175 25.86982 20.62078
#
# Velocity S-wave (km/s) = 2.78411 3.61178 3.22461
# Velocity P-wave (km/s) = 6.40395 6.96635 6.69106
#
# Compressibility (1/GPa) = 0.01643835
#
# Stress axis : x y z
#
# Youngs Moduli (GPa) = 92.71082 70.16901 87.37004
#
# Poissons Ratio (x) = 0.30923 0.21271
# Poissons Ratio (y) = 0.40857 0.27791
# Poissons Ratio (z) = 0.22571 0.22320
#
# Static dielectric constant tensor:
#      x y z
#    x 1.774620 0.000000 0.000000 
#    y 0.000000 1.821720 0.000000 
#    z 0.000000 0.000000 1.642880 
# 
# From -- ./inp_files/12575.got.cif
#   From: 2010.05.17/outbox.cif.g08.bks.cpg/sg56_7_cif.got.tgz:12575.got - 2010.06.03 13:42:01.
