data_PCOD9430153
_publ_section_title
;
Structure prediction by ZEFSAII (Michael W. Deem and Ramdas Pophale) SiO2 
 PCOD9430153
Probable space group: P C C N
;
_chemical_formula_sum "Si O2"
_cell_formula_units_Z 48
_cell_length_a 11.678893
_cell_length_b 14.119517
_cell_length_c 14.620940
_cell_angle_alpha 90.000000
_cell_angle_beta 90.000000
_cell_angle_gamma 90.000000
_cell_volume 2410.997805
_symmetry_space_group_name_H-M "P C C N"
_symmetry_group_IT_number 56
_symmetry_cell_setting 'orthorhombic'
loop_
_space_group_symop_operation_xyz
x,y,z
1/2-x,1/2-y,z
1/2+x,-y,1/2-z
-x,1/2+y,1/2-z
-x,-y,-z
1/2+x,1/2+y,-z
1/2-x,y,1/2+z
x,1/2-y,1/2+z
loop_
_atom_site_type_symbol
_atom_site_label
_atom_site_fract_x
_atom_site_fract_y
_atom_site_fract_z
Si Si1 0.268529 0.646032 0.838695
Si Si2 0.974434 0.399380 0.232158
Si Si3 0.021133 0.422514 0.898623
Si Si4 0.431725 0.483789 0.094285
Si Si5 0.980816 0.685157 0.279083
Si Si6 0.802154 0.469631 0.990290
O O1 0.250000 0.750000 0.880267
O O2 0.161135 0.621484 0.775895
O O3 0.385059 0.655185 0.783445
O O4 0.262231 0.573928 0.921980
O O5 0.000626 0.478166 0.155682
O O6 0.990275 0.447849 0.330176
O O7 0.032371 0.298008 0.214476
O O8 0.121834 0.443476 0.970588
O O9 0.059240 0.350419 0.820128
O O10 0.901289 0.401261 0.949183
O O11 0.433506 0.378171 0.137746
O O12 0.500000 0.500000 0.000000
O O13 0.298330 0.507782 0.079472
#
# Coordination Sequence:
#
# PCOD9430153 Si02
#       6
#     8   8   8   8   8   8
#     4   9  17  31  56  85 113 139 185 245 292 332
#     4   9  20  36  56  83 112 150 190 230 287 341
#     4   9  20  36  58  78 114 154 186 235 285 339
#     4  11  21  36  60  85 113 149 186 241 280 337
#     4  10  19  37  57  83 115 149 185 232 291 345
#     4  10  19  35  54  85 110 145 191 234 283 332
#
# _framework density 19.908771000000002
#
# number of rings (size 3 to 8) (size 9 to 14) (size 15 to 20)
#    0.000    2.333    1.667    1.000    0.000    1.333 
#    6.000    0.833    0.000    0.000    0.000    0.000 
#    0.000    0.000    0.000    0.000    0.000    0.000 
#
# Total GULP energy -267445.772762 kJ/mol
# GULP energy per Si atom -5571.786933 kJ/mol
# Density = 1.986346 g / cm^3
# Si number density = 19.908771 Si / 1000 Ang^3
#
#
#
# Elastic Constant Matrix: (Units=GPa)
#
#
# Indices 1 2 3 4 5 6 
#
# 1 33.9021 -3.5815 3.5536 0.0000 0.0000 0.0000
# 2 -3.5815 83.6976 18.3613 0.0000 0.0000 0.0000
# 3 3.5536 18.3613 80.2103 0.0000 0.0000 0.0000
# 4 0.0000 0.0000 0.0000 3.2510 0.0000 0.0000
# 5 0.0000 0.0000 0.0000 0.0000 26.4400 0.0000
# 6 0.0000 0.0000 0.0000 0.0000 0.0000 16.6492
#
#
#
# Elastic Compliance Matrix: (Units=1/GPa)
#
#
# Indices 1 2 3 4 5 6 
#
# 1 0.029849 0.001650 -0.001700 0.000000 0.000000 0.000000
# 2 0.001650 0.012671 -0.002974 0.000000 0.000000 0.000000
# 3 -0.001700 -0.002974 0.013223 0.000000 0.000000 0.000000
# 4 0.000000 0.000000 0.000000 0.307598 0.000000 0.000000
# 5 0.000000 0.000000 0.000000 0.000000 0.037822 0.000000
# 6 0.000000 0.000000 0.000000 0.000000 0.000000 0.060063
#
#
# Mechanical properties :
#
#
# Convention : Reuss Voigt Hill
#
# Bulk Modulus (GPa) = 20.12233 26.05300 23.08767
# Shear Modulus (GPa) = 10.33404 21.23313 15.78359
#
# Velocity S-wave (km/s) = 2.28078 3.26931 2.81872
# Velocity P-wave (km/s) = 4.13100 5.23123 4.71333
#
# Compressibility (1/GPa) = 0.04969603
#
# Stress axis : x y z
#
# Youngs Moduli (GPa) = 33.50172 78.92208 75.62432
#
# Poissons Ratio (x) = -0.13024 0.12858
# Poissons Ratio (y) = -0.05529 0.22488
# Poissons Ratio (z) = 0.05696 0.23468
#
# Static dielectric constant tensor:
#      x y z
#    x 1.721670 0.000000 0.000000 
#    y 0.000000 1.722760 0.000000 
#    z 0.000000 0.000000 1.715210 
# 
# From -- ./inp_files/11605.got.cif
#   From: 2010.05.17/outbox.cif.g08.bks.cpg/sg56_6_cif.got.tgz:11605.got - 2010.06.03 13:42:01.
