data_PCOD9430979
_publ_section_title
;
Structure prediction by ZEFSAII (Michael W. Deem and Ramdas Pophale) SiO2 
 PCOD9430979
Probable space group: P C C N
;
_chemical_formula_sum "Si O2"
_cell_formula_units_Z 64
_cell_length_a 15.823001
_cell_length_b 10.626598
_cell_length_c 20.719796
_cell_angle_alpha 90.000000
_cell_angle_beta 90.000000
_cell_angle_gamma 90.000000
_cell_volume 3483.923277
_symmetry_space_group_name_H-M "P C C N"
_symmetry_group_IT_number 56
_symmetry_cell_setting 'orthorhombic'
loop_
_space_group_symop_operation_xyz
x,y,z
1/2-x,1/2-y,z
1/2+x,-y,1/2-z
-x,1/2+y,1/2-z
-x,-y,-z
1/2+x,1/2+y,-z
1/2-x,y,1/2+z
x,1/2-y,1/2+z
loop_
_atom_site_type_symbol
_atom_site_label
_atom_site_fract_x
_atom_site_fract_y
_atom_site_fract_z
Si Si1 0.434004 0.479185 0.942247
Si Si2 0.847445 0.218099 0.010026
Si Si3 0.438440 0.024441 0.179958
Si Si4 0.458058 0.522571 0.189104
Si Si5 0.502581 0.103751 0.053424
Si Si6 0.845865 0.777354 0.981473
Si Si7 0.156991 0.209190 0.164342
Si Si8 0.850652 0.240560 0.355652
O O1 0.364213 0.583780 0.957501
O O2 0.483299 0.490738 0.875157
O O3 0.390656 0.348029 0.959724
O O4 0.500000 0.500000 0.000000
O O5 0.750000 0.250000 0.020850
O O6 0.918288 0.305759 0.042435
O O7 0.862219 0.229881 0.932513
O O8 0.481314 0.019327 0.249308
O O9 0.506317 0.038470 0.122725
O O10 0.391504 0.158957 0.173925
O O11 0.383568 0.899560 0.163160
O O12 0.394023 0.404820 0.195997
O O13 0.404627 0.651695 0.180925
O O14 0.412935 0.172325 0.040253
O O15 0.500000 0.000000 0.000000
O O16 0.750000 0.750000 0.000717
O O17 0.835164 0.841207 0.910391
O O18 0.250000 0.250000 0.186272
O O19 0.750000 0.250000 0.342548
#
# Coordination Sequence:
#
# PCOD9430979 Si02
#       8
#     8   8   8   8   8   8   8   8
#     4  12  20  40  62  87 122 158 203 252 309 360
#     4  11  23  38  64  97 122 160 210 264 314 364
#     4  11  24  39  61  92 122 165 205 246 313 374
#     4  12  23  41  63  89 124 167 205 247 311 379
#     4  11  21  39  60  87 124 156 197 257 308 362
#     4  10  21  35  63  91 116 154 206 254 306 358
#     4  10  20  39  63  87 116 158 208 251 298 366
#     4  11  22  39  65  95 121 157 215 264 304 370
#
# _framework density 18.370094999999999
#
# number of rings (size 3 to 8) (size 9 to 14) (size 15 to 20)
#    0.000    1.000    5.000    2.250    1.750    2.000 
#    0.000    4.375    0.000    0.000    0.000    0.000 
#    0.000    0.000    0.000    0.000    0.000    0.000 
#
# Total GULP energy -356509.136978 kJ/mol
# GULP energy per Si atom -5570.455265 kJ/mol
# Density = 1.832828 g / cm^3
# Si number density = 18.370095 Si / 1000 Ang^3
#
#
#
# Elastic Constant Matrix: (Units=GPa)
#
#
# Indices 1 2 3 4 5 6 
#
# 1 100.9765 22.4442 47.3008 0.0000 0.0000 0.0000
# 2 22.4442 82.5851 30.2343 0.0000 0.0000 0.0000
# 3 47.3008 30.2343 116.6818 0.0000 0.0000 0.0000
# 4 0.0000 0.0000 0.0000 18.4286 0.0000 0.0000
# 5 0.0000 0.0000 0.0000 0.0000 24.8997 0.0000
# 6 0.0000 0.0000 0.0000 0.0000 0.0000 27.8556
#
#
#
# Elastic Compliance Matrix: (Units=1/GPa)
#
#
# Indices 1 2 3 4 5 6 
#
# 1 0.012436 -0.001695 -0.004602 0.000000 0.000000 0.000000
# 2 -0.001695 0.013609 -0.002839 0.000000 0.000000 0.000000
# 3 -0.004602 -0.002839 0.011172 0.000000 0.000000 0.000000
# 4 0.000000 0.000000 0.000000 0.054263 0.000000 0.000000
# 5 0.000000 0.000000 0.000000 0.000000 0.040161 0.000000
# 6 0.000000 0.000000 0.000000 0.000000 0.000000 0.035899
#
#
# Mechanical properties :
#
#
# Convention : Reuss Voigt Hill
#
# Bulk Modulus (GPa) = 52.78755 55.57799 54.18277
# Shear Modulus (GPa) = 26.02445 27.58773 26.80609
#
# Velocity S-wave (km/s) = 3.76796 3.87948 3.82412
# Velocity P-wave (km/s) = 6.90854 7.09841 7.00412
#
# Compressibility (1/GPa) = 0.01894386
#
# Stress axis : x y z
#
# Youngs Moduli (GPa) = 80.41306 73.48210 89.51259
#
# Poissons Ratio (x) = 0.12454 0.41194
# Poissons Ratio (y) = 0.13629 0.25414
# Poissons Ratio (z) = 0.37007 0.20863
#
# Static dielectric constant tensor:
#      x y z
#    x 1.592790 0.000000 0.000000 
#    y 0.000000 1.180900 0.000000 
#    z 0.000000 0.000000 0.895380 
# 
# From -- ./inp_files/16356.got.cif
#   From: 2010.05.17/outbox.cif.g08.bks.cpg/sg56_9_cif.got.tgz:16356.got - 2010.06.03 13:42:01.
