data_PCOD9430181
_publ_section_title
;
Structure prediction by ZEFSAII (Michael W. Deem and Ramdas Pophale) SiO2 
 PCOD9430181
Probable space group: P C C N
;
_chemical_formula_sum "Si O2"
_cell_formula_units_Z 64
_cell_length_a 21.990797
_cell_length_b 14.123813
_cell_length_c 8.794484
_cell_angle_alpha 90.000000
_cell_angle_beta 90.000000
_cell_angle_gamma 90.000000
_cell_volume 2731.513124
_symmetry_space_group_name_H-M "P C C N"
_symmetry_group_IT_number 56
_symmetry_cell_setting 'orthorhombic'
loop_
_space_group_symop_operation_xyz
x,y,z
1/2-x,1/2-y,z
1/2+x,-y,1/2-z
-x,1/2+y,1/2-z
-x,-y,-z
1/2+x,1/2+y,-z
1/2-x,y,1/2+z
x,1/2-y,1/2+z
loop_
_atom_site_type_symbol
_atom_site_label
_atom_site_fract_x
_atom_site_fract_y
_atom_site_fract_z
Si Si1 0.061909 0.883042 0.433179
Si Si2 0.711915 0.085642 0.723598
Si Si3 0.101040 0.726379 0.195233
Si Si4 0.104646 0.196509 0.000063
Si Si5 0.163955 0.465973 0.012383
Si Si6 0.297455 0.666198 0.067323
Si Si7 0.059233 0.359977 0.190197
Si Si8 0.691368 0.817873 0.225065
O O1 0.075476 0.795790 0.320190
O O2 0.055159 0.839534 0.602314
O O3 0.998450 0.919837 0.367154
O O4 0.118970 0.954434 0.440832
O O5 0.656512 0.159228 0.753274
O O6 0.708932 0.077948 0.544900
O O7 0.774823 0.135302 0.767800
O O8 0.702311 0.006027 0.847054
O O9 0.135486 0.794641 0.075983
O O10 0.058657 0.255995 0.108803
O O11 0.154369 0.156695 0.120903
O O12 0.067110 0.137745 0.872672
O O13 0.145609 0.257370 0.881594
O O14 0.200446 0.410491 0.881172
O O15 0.118427 0.399155 0.106186
O O16 0.250000 0.750000 0.021252
O O17 0.750000 0.750000 0.254546
#
# Coordination Sequence:
#
# PCOD9430181 Si02
#       8
#     8   8   8   8   8   8   8   8
#     4  11  21  38  63  93 126 171 213 259 321 380
#     4  10  21  37  56  88 125 166 202 248 314 373
#     4  10  20  35  59  90 123 163 212 249 301 395
#     4   9  20  39  67  89 115 158 219 261 322 397
#     4  10  24  41  59  94 131 164 213 269 320 380
#     4  10  19  35  59  82 122 166 199 246 305 376
#     4  10  20  41  64  89 124 164 210 274 325 375
#     4  10  20  42  65  91 120 165 209 271 330 382
#
# _framework density 23.430237999999999
#
# number of rings (size 3 to 8) (size 9 to 14) (size 15 to 20)
#    0.000    2.000    1.250    2.625    3.500    0.000 
#   11.250    1.250    0.000    0.000    0.000    0.000 
#    0.000    0.000    0.000    0.000    0.000    0.000 
#
# Total GULP energy -356784.437793 kJ/mol
# GULP energy per Si atom -5574.756841 kJ/mol
# Density = 2.337691 g / cm^3
# Si number density = 23.430238 Si / 1000 Ang^3
#
#
#
# Elastic Constant Matrix: (Units=GPa)
#
#
# Indices 1 2 3 4 5 6 
#
# 1 55.0495 7.5049 22.3306 0.0000 0.0000 0.0000
# 2 7.5049 42.5048 19.8009 0.0000 0.0000 0.0000
# 3 22.3306 19.8009 121.7420 0.0000 0.0000 0.0000
# 4 0.0000 0.0000 0.0000 7.0398 0.0000 0.0000
# 5 0.0000 0.0000 0.0000 0.0000 14.3811 0.0000
# 6 0.0000 0.0000 0.0000 0.0000 0.0000 17.6774
#
#
#
# Elastic Compliance Matrix: (Units=1/GPa)
#
#
# Indices 1 2 3 4 5 6 
#
# 1 0.019774 -0.001949 -0.003310 0.000000 0.000000 0.000000
# 2 -0.001949 0.025648 -0.003814 0.000000 0.000000 0.000000
# 3 -0.003310 -0.003814 0.009442 0.000000 0.000000 0.000000
# 4 0.000000 0.000000 0.000000 0.142050 0.000000 0.000000
# 5 0.000000 0.000000 0.000000 0.000000 0.069536 0.000000
# 6 0.000000 0.000000 0.000000 0.000000 0.000000 0.056569
#
#
# Mechanical properties :
#
#
# Convention : Reuss Voigt Hill
#
# Bulk Modulus (GPa) = 27.23577 35.39659 31.31618
# Shear Modulus (GPa) = 14.14810 19.13029 16.63920
#
# Velocity S-wave (km/s) = 2.45998 2.86051 2.66777
# Velocity P-wave (km/s) = 4.44051 5.10392 4.78373
#
# Compressibility (1/GPa) = 0.03671642
#
# Stress axis : x y z
#
# Youngs Moduli (GPa) = 50.57166 38.98987 105.91478
#
# Poissons Ratio (x) = 0.07601 0.35058
# Poissons Ratio (y) = 0.09859 0.40395
# Poissons Ratio (z) = 0.16739 0.14870
#
# Static dielectric constant tensor:
#      x y z
#    x 1.926510 0.000000 0.000000 
#    y 0.000000 2.025880 0.000000 
#    z 0.000000 0.000000 1.876590 
# 
# From -- ./inp_files/4815.got.cif
#   From: 2010.05.17/outbox.cif.g08.bks.cpg/sg56_3_cif.got.tgz:4815.got - 2010.06.03 13:42:01.
