data_PCOD9430951
_publ_section_title
;
Structure prediction by ZEFSAII (Michael W. Deem and Ramdas Pophale) SiO2 
 PCOD9430951
Probable space group: P C C N
;
_chemical_formula_sum "Si O2"
_cell_formula_units_Z 56
_cell_length_a 15.058214
_cell_length_b 17.464449
_cell_length_c 9.289762
_cell_angle_alpha 90.000000
_cell_angle_beta 90.000000
_cell_angle_gamma 90.000000
_cell_volume 2443.053293
_symmetry_space_group_name_H-M "P C C N"
_symmetry_group_IT_number 56
_symmetry_cell_setting 'orthorhombic'
loop_
_space_group_symop_operation_xyz
x,y,z
1/2-x,1/2-y,z
1/2+x,-y,1/2-z
-x,1/2+y,1/2-z
-x,-y,-z
1/2+x,1/2+y,-z
1/2-x,y,1/2+z
x,1/2-y,1/2+z
loop_
_atom_site_type_symbol
_atom_site_label
_atom_site_fract_x
_atom_site_fract_y
_atom_site_fract_z
Si Si1 0.859854 0.961630 0.638884
Si Si2 0.866048 0.207445 0.629214
Si Si3 0.250000 0.750000 0.611170
Si Si4 0.298291 0.419245 0.646624
Si Si5 0.750000 0.750000 0.811195
Si Si6 0.498010 0.912531 0.756111
Si Si7 0.426076 0.301531 0.315302
Si Si8 0.982868 0.177614 0.015391
O O1 0.781490 0.948780 0.753268
O O2 0.810910 0.975679 0.488286
O O3 0.908943 0.881191 0.608068
O O4 0.936643 0.017967 0.691126
O O5 0.814023 0.205546 0.778664
O O6 0.804120 0.191902 0.492147
O O7 0.953643 0.157606 0.653773
O O8 0.892965 0.294874 0.591662
O O9 0.267997 0.331023 0.608793
O O10 0.396381 0.417635 0.719333
O O11 0.665640 0.741812 0.708013
O O12 0.482474 0.895211 0.586854
O O13 0.489288 0.246273 0.405824
O O14 0.453272 0.323854 0.152391
#
# Coordination Sequence:
#
# PCOD9430951 Si02
#       8
#     8   8   4   8   4   8   8   8
#     4  11  28  46  69 105 148 195 238 303 374 455
#     4  11  21  41  66  99 136 174 242 299 356 423
#     4  10  22  38  64  98 134 178 232 302 352 420
#     4  11  25  47  72 105 148 188 248 299 379 437
#     4  10  20  38  70 104 136 174 234 304 352 428
#     4  12  25  46  73 103 149 196 243 299 380 444
#     4  11  23  39  69 105 142 182 235 301 368 432
#     4  12  22  42  70 105 134 186 241 298 360 438
#
# _framework density 22.922135000000001
#
# number of rings (size 3 to 8) (size 9 to 14) (size 15 to 20)
#    0.000    0.857    4.286    2.143    4.000    4.571 
#    0.000    0.000    0.000    0.000    0.000    0.000 
#    0.000    0.000    0.000    0.000    0.000    0.000 
#
# Total GULP energy -312632.590946 kJ/mol
# GULP energy per Si atom -5582.724838 kJ/mol
# Density = 2.286996 g / cm^3
# Si number density = 22.922135 Si / 1000 Ang^3
#
#
#
# Elastic Constant Matrix: (Units=GPa)
#
#
# Indices 1 2 3 4 5 6 
#
# 1 115.1355 13.2666 22.1576 0.0000 0.0000 0.0000
# 2 13.2666 26.0069 -6.3102 0.0000 0.0000 0.0000
# 3 22.1576 -6.3102 97.7435 0.0000 0.0000 0.0000
# 4 0.0000 0.0000 0.0000 35.2203 0.0000 0.0000
# 5 0.0000 0.0000 0.0000 0.0000 40.0049 0.0000
# 6 0.0000 0.0000 0.0000 0.0000 0.0000 36.4556
#
#
#
# Elastic Compliance Matrix: (Units=1/GPa)
#
#
# Indices 1 2 3 4 5 6 
#
# 1 0.009835 -0.005647 -0.002594 0.000000 0.000000 0.000000
# 2 -0.005647 0.042305 0.004011 0.000000 0.000000 0.000000
# 3 -0.002594 0.004011 0.011078 0.000000 0.000000 0.000000
# 4 0.000000 0.000000 0.000000 0.028393 0.000000 0.000000
# 5 0.000000 0.000000 0.000000 0.000000 0.024997 0.000000
# 6 0.000000 0.000000 0.000000 0.000000 0.000000 0.027431
#
#
# Mechanical properties :
#
#
# Convention : Reuss Voigt Hill
#
# Bulk Modulus (GPa) = 18.26179 33.01265 25.63722
# Shear Modulus (GPa) = 29.28249 36.32093 32.80171
#
# Velocity S-wave (km/s) = 3.57806 3.98494 3.78697
# Velocity P-wave (km/s) = 5.00541 5.96711 5.50729
#
# Compressibility (1/GPa) = 0.05475913
#
# Stress axis : x y z
#
# Youngs Moduli (GPa) = 101.67483 23.63788 90.27007
#
# Poissons Ratio (x) = 0.13347 0.23417
# Poissons Ratio (y) = 0.57411 -0.36209
# Poissons Ratio (z) = 0.26375 -0.09482
#
# Static dielectric constant tensor:
#      x y z
#    x 1.937800 0.000000 0.000000 
#    y 0.000000 1.892290 0.000000 
#    z 0.000000 0.000000 1.888060 
# 
# From -- ./inp_files/3617.got.cif
#   From: 2010.05.17/outbox.cif.g08.bks.cpg/sg56_2_cif.got.tgz:3617.got - 2010.06.03 13:42:01.
