data_PCOD9430557
_publ_section_title
;
Structure prediction by ZEFSAII (Michael W. Deem and Ramdas Pophale) SiO2 
 PCOD9430557
Probable space group: P C C N
;
_chemical_formula_sum "Si O2"
_cell_formula_units_Z 40
_cell_length_a 5.395700
_cell_length_b 18.746325
_cell_length_c 19.225408
_cell_angle_alpha 90.000000
_cell_angle_beta 90.000000
_cell_angle_gamma 90.000000
_cell_volume 1944.641287
_symmetry_space_group_name_H-M "P C C N"
_symmetry_group_IT_number 56
_symmetry_cell_setting 'orthorhombic'
loop_
_space_group_symop_operation_xyz
x,y,z
1/2-x,1/2-y,z
1/2+x,-y,1/2-z
-x,1/2+y,1/2-z
-x,-y,-z
1/2+x,1/2+y,-z
1/2-x,y,1/2+z
x,1/2-y,1/2+z
loop_
_atom_site_type_symbol
_atom_site_label
_atom_site_fract_x
_atom_site_fract_y
_atom_site_fract_z
Si Si1 0.399706 0.922726 0.481484
Si Si2 0.593583 0.858312 0.941470
Si Si3 0.130885 0.825864 0.581602
Si Si4 0.999304 0.323566 0.208161
Si Si5 0.495609 0.161841 0.765165
O O1 0.624615 0.885157 0.440111
O O2 0.340575 0.879249 0.552412
O O3 0.128554 0.918144 0.444516
O O4 0.500000 0.000000 0.500000
O O5 0.525748 0.812180 0.874230
O O6 0.551046 0.819881 0.015372
O O7 0.250000 0.750000 0.596310
O O8 0.007036 0.850515 0.652714
O O9 0.241588 0.365547 0.232933
O O10 0.002239 0.247118 0.246971
O O11 0.747847 0.362982 0.228867
#
# Coordination Sequence:
#
# PCOD9430557 Si02
#       5
#     8   8   8   8   8
#     4  10  23  42  65  91 125 165 215 266 319 371
#     4  10  23  37  67  91 124 160 217 260 313 376
#     4  10  23  37  63  98 126 158 218 257 321 378
#     4  10  20  35  54  87 126 161 197 249 322 373
#     4  10  21  34  55  86 132 167 190 249 330 373
#
# _framework density 20.569345999999999
#
# number of rings (size 3 to 8) (size 9 to 14) (size 15 to 20)
#    1.200    0.800    2.000    1.800    5.600    2.400 
#    0.000    0.000    0.000    4.800    0.000    0.000 
#    0.000    0.000    0.000    0.000    0.000    0.000 
#
# Total GULP energy -222705.124940 kJ/mol
# GULP energy per Si atom -5567.628123 kJ/mol
# Density = 2.052253 g / cm^3
# Si number density = 20.569346 Si / 1000 Ang^3
#
#
#
# Elastic Constant Matrix: (Units=GPa)
#
#
# Indices 1 2 3 4 5 6 
#
# 1 153.9339 -2.8945 36.2942 0.0000 0.0000 0.0000
# 2 -2.8945 31.0923 -2.6979 0.0000 0.0000 0.0000
# 3 36.2942 -2.6979 149.1563 0.0000 0.0000 0.0000
# 4 0.0000 0.0000 0.0000 -2.7839 0.0000 0.0000
# 5 0.0000 0.0000 0.0000 0.0000 33.4192 0.0000
# 6 0.0000 0.0000 0.0000 0.0000 0.0000 17.5476
#
#
#
# Elastic Compliance Matrix: (Units=1/GPa)
#
#
# Indices 1 2 3 4 5 6 
#
# 1 0.006899 0.000497 -0.001670 0.000000 0.000000 0.000000
# 2 0.000497 0.032249 0.000462 0.000000 0.000000 0.000000
# 3 -0.001670 0.000462 0.007119 0.000000 0.000000 0.000000
# 4 0.000000 0.000000 0.000000 -0.359210 0.000000 0.000000
# 5 0.000000 0.000000 0.000000 0.000000 0.029923 0.000000
# 6 0.000000 0.000000 0.000000 0.000000 0.000000 0.056988
#
#
# Mechanical properties :
#
#
# Convention : Reuss Voigt Hill
#
# Bulk Modulus (GPa) = 22.29817 43.95405 33.12611
# Shear Modulus (GPa) = -23.84776 29.86863 3.01043
#
# Velocity S-wave (km/s) = -3.40867 3.81477 1.21109
# Velocity P-wave (km/s) = 2.15128 6.38893 4.25385
#
# Compressibility (1/GPa) = 0.04484673
#
# Stress axis : x y z
#
# Youngs Moduli (GPa) = 144.94105 31.00903 140.46808
#
# Poissons Ratio (x) = -0.01542 0.23456
# Poissons Ratio (y) = -0.07209 -0.06493
# Poissons Ratio (z) = 0.24203 -0.01433
#
# Static dielectric constant tensor:
#      x y z
#    x 1.842170 0.000000 0.000000 
#    y 0.000000 1.762140 0.000000 
#    z 0.000000 0.000000 1.746990 
# 
# From -- ./inp_files/13906.got.cif
#   From: 2010.05.17/outbox.cif.g08.bks.cpg/sg56_7_cif.got.tgz:13906.got - 2010.06.03 13:42:01.
