data_PCOD9430435
_publ_section_title
;
Structure prediction by ZEFSAII (Michael W. Deem and Ramdas Pophale) SiO2 
 PCOD9430435
Probable space group: P C C N
;
_chemical_formula_sum "Si O2"
_cell_formula_units_Z 64
_cell_length_a 28.524685
_cell_length_b 11.989870
_cell_length_c 8.786570
_cell_angle_alpha 90.000000
_cell_angle_beta 90.000000
_cell_angle_gamma 90.000000
_cell_volume 3005.070774
_symmetry_space_group_name_H-M "P C C N"
_symmetry_group_IT_number 56
_symmetry_cell_setting 'orthorhombic'
loop_
_space_group_symop_operation_xyz
x,y,z
1/2-x,1/2-y,z
1/2+x,-y,1/2-z
-x,1/2+y,1/2-z
-x,-y,-z
1/2+x,1/2+y,-z
1/2-x,y,1/2+z
x,1/2-y,1/2+z
loop_
_atom_site_type_symbol
_atom_site_label
_atom_site_fract_x
_atom_site_fract_y
_atom_site_fract_z
Si Si1 0.347781 0.193043 0.094747
Si Si2 0.331641 0.019249 0.345244
Si Si3 0.415751 0.936051 0.223390
Si Si4 0.732379 0.627563 0.636649
Si Si5 0.852532 0.549124 0.331509
Si Si6 0.496919 0.299815 0.230559
Si Si7 0.424923 0.445456 0.415309
Si Si8 0.028832 0.398982 0.426118
O O1 0.345946 0.134681 0.259135
O O2 0.358077 0.322078 0.116266
O O3 0.298736 0.161065 0.011565
O O4 0.388659 0.142383 0.990994
O O5 0.276946 0.046675 0.375028
O O6 0.348759 0.984922 0.512043
O O7 0.359187 0.931726 0.235620
O O8 0.448947 0.836447 0.278318
O O9 0.429661 0.037970 0.338156
O O10 0.431242 0.967836 0.052157
O O11 0.750000 0.750000 0.693326
O O12 0.695820 0.560847 0.740796
O O13 0.895062 0.509220 0.227419
O O14 0.469917 0.383838 0.346389
O O15 0.493836 0.175735 0.294406
O O16 0.469349 0.316912 0.071715
O O17 0.000000 0.500000 0.500000
#
# Coordination Sequence:
#
# PCOD9430435 Si02
#       8
#     8   8   8   8   8   8   8   8
#     4  10  20  30  42  70 104 149 202 252 305 370
#     4  11  20  30  48  68 109 152 205 252 296 372
#     4  10  23  40  54  84 116 161 213 262 307 380
#     4  11  19  29  44  67 104 152 202 249 308 375
#     4  11  20  30  45  75 108 155 205 258 306 372
#     4  11  22  39  62  82 119 157 203 266 325 367
#     4  10  22  32  52  75 111 158 210 252 309 371
#     4  10  23  40  62  89 114 153 207 261 320 389
#
# _framework density 21.297333999999999
#
# number of rings (size 3 to 8) (size 9 to 14) (size 15 to 20)
#    0.000    1.500    2.500    3.375    7.000    1.000 
#    0.000    0.000    0.000    0.000    0.000    0.000 
#    0.000    0.000    0.000  378.000    0.000    7.000 
#
# Total GULP energy -356701.522887 kJ/mol
# GULP energy per Si atom -5573.461295 kJ/mol
# Density = 2.124886 g / cm^3
# Si number density = 21.297334 Si / 1000 Ang^3
#
#
#
# Elastic Constant Matrix: (Units=GPa)
#
#
# Indices 1 2 3 4 5 6 
#
# 1 102.7082 21.2004 4.9433 0.0000 0.0000 0.0000
# 2 21.2004 27.4580 6.8478 0.0000 0.0000 0.0000
# 3 4.9433 6.8478 90.6793 0.0000 0.0000 0.0000
# 4 0.0000 0.0000 0.0000 12.6652 0.0000 0.0000
# 5 0.0000 0.0000 0.0000 0.0000 33.2875 0.0000
# 6 0.0000 0.0000 0.0000 0.0000 0.0000 15.1020
#
#
#
# Elastic Compliance Matrix: (Units=1/GPa)
#
#
# Indices 1 2 3 4 5 6 
#
# 1 0.011582 -0.008954 0.000045 0.000000 0.000000 0.000000
# 2 -0.008954 0.044040 -0.002838 0.000000 0.000000 0.000000
# 3 0.000045 -0.002838 0.011240 0.000000 0.000000 0.000000
# 4 0.000000 0.000000 0.000000 0.078956 0.000000 0.000000
# 5 0.000000 0.000000 0.000000 0.000000 0.030041 0.000000
# 6 0.000000 0.000000 0.000000 0.000000 0.000000 0.066217
#
#
# Mechanical properties :
#
#
# Convention : Reuss Voigt Hill
#
# Bulk Modulus (GPa) = 23.05806 31.86981 27.46394
# Shear Modulus (GPa) = 17.85543 24.73453 21.29498
#
# Velocity S-wave (km/s) = 2.89863 3.41162 3.16553
# Velocity P-wave (km/s) = 4.69606 5.52409 5.12682
#
# Compressibility (1/GPa) = 0.04336879
#
# Stress axis : x y z
#
# Youngs Moduli (GPa) = 86.33801 22.70643 88.97016
#
# Poissons Ratio (x) = 0.20331 -0.00398
# Poissons Ratio (y) = 0.77307 0.25247
# Poissons Ratio (z) = -0.00387 0.06443
#
# Static dielectric constant tensor:
#      x y z
#    x 1.867540 0.000000 0.000000 
#    y 0.000000 1.746130 0.000000 
#    z 0.000000 0.000000 1.881080 
# 
# From -- ./inp_files/5225.got.cif
#   From: 2010.05.17/outbox.cif.g08.bks.cpg/sg56_3_cif.got.tgz:5225.got - 2010.06.03 13:42:01.
