data_PCOD9430079
_publ_section_title
;
Structure prediction by ZEFSAII (Michael W. Deem and Ramdas Pophale) SiO2 
 PCOD9430079
Probable space group: P C C N
;
_chemical_formula_sum "Si O2"
_cell_formula_units_Z 40
_cell_length_a 19.835548
_cell_length_b 10.956550
_cell_length_c 8.616927
_cell_angle_alpha 90.000000
_cell_angle_beta 90.000000
_cell_angle_gamma 90.000000
_cell_volume 1872.709622
_symmetry_space_group_name_H-M "P C C N"
_symmetry_group_IT_number 56
_symmetry_cell_setting 'orthorhombic'
loop_
_space_group_symop_operation_xyz
x,y,z
1/2-x,1/2-y,z
1/2+x,-y,1/2-z
-x,1/2+y,1/2-z
-x,-y,-z
1/2+x,1/2+y,-z
1/2-x,y,1/2+z
x,1/2-y,1/2+z
loop_
_atom_site_type_symbol
_atom_site_label
_atom_site_fract_x
_atom_site_fract_y
_atom_site_fract_z
Si Si1 0.333639 0.312714 0.299362
Si Si2 0.059453 0.762638 0.972362
Si Si3 0.726686 0.585986 0.375962
Si Si4 0.037735 0.158829 0.785858
Si Si5 0.123020 0.914380 0.725409
O O1 0.306468 0.397228 0.156514
O O2 0.302639 0.181193 0.251859
O O3 0.305037 0.368859 0.460529
O O4 0.411975 0.276167 0.307292
O O5 0.116266 0.838217 0.882464
O O6 0.013753 0.689459 0.850938
O O7 0.090857 0.668712 0.092865
O O8 0.007782 0.850843 0.061814
O O9 0.696717 0.457139 0.328180
O O10 0.078745 0.037101 0.746856
#
# Coordination Sequence:
#
# PCOD9430079 Si02
#       5
#     8   8   8   8   8
#     4  10  19  33  56  88 118 148 190 245 297 359
#     4  10  21  36  56  86 121 155 200 244 302 378
#     4  10  20  36  58  87 120 151 193 246 308 353
#     4  10  19  34  57  87 120 150 192 253 312 359
#     4  10  21  37  56  83 118 160 199 246 301 357
#
# _framework density 21.359425999999999
#
# number of rings (size 3 to 8) (size 9 to 14) (size 15 to 20)
#    0.000    2.000    0.000    6.000    0.000    3.200 
#    0.000   12.000    0.000    3.600    0.000    0.000 
#    0.000    0.000    0.000    0.000    0.000    0.000 
#
# Total GULP energy -222972.491404 kJ/mol
# GULP energy per Si atom -5574.312285 kJ/mol
# Density = 2.131081 g / cm^3
# Si number density = 21.359426 Si / 1000 Ang^3
#
#
#
# Elastic Constant Matrix: (Units=GPa)
#
#
# Indices 1 2 3 4 5 6 
#
# 1 54.8845 27.3225 18.6334 0.0000 0.0000 0.0000
# 2 27.3225 81.6845 32.8536 0.0000 0.0000 0.0000
# 3 18.6334 32.8536 93.0960 0.0000 0.0000 0.0000
# 4 0.0000 0.0000 0.0000 -21.1612 0.0000 0.0000
# 5 0.0000 0.0000 0.0000 0.0000 9.8168 0.0000
# 6 0.0000 0.0000 0.0000 0.0000 0.0000 36.3345
#
#
#
# Elastic Compliance Matrix: (Units=1/GPa)
#
#
# Indices 1 2 3 4 5 6 
#
# 1 0.022215 -0.006576 -0.002126 0.000000 0.000000 0.000000
# 2 -0.006576 0.016214 -0.004406 0.000000 0.000000 0.000000
# 3 -0.002126 -0.004406 0.012722 0.000000 0.000000 0.000000
# 4 0.000000 0.000000 0.000000 -0.047256 0.000000 0.000000
# 5 0.000000 0.000000 0.000000 0.000000 0.101866 0.000000
# 6 0.000000 0.000000 0.000000 0.000000 0.000000 0.027522
#
#
# Mechanical properties :
#
#
# Convention : Reuss Voigt Hill
#
# Bulk Modulus (GPa) = 40.10213 43.03156 41.56685
# Shear Modulus (GPa) = 29.79570 15.05506 22.42538
#
# Velocity S-wave (km/s) = 3.73898 2.65777 3.24374
# Velocity P-wave (km/s) = 6.12010 5.44137 5.79069
#
# Compressibility (1/GPa) = 0.02493633
#
# Stress axis : x y z
#
# Youngs Moduli (GPa) = 45.01394 61.67627 78.60485
#
# Poissons Ratio (x) = 0.40557 0.16710
# Poissons Ratio (y) = 0.29600 0.34631
# Poissons Ratio (z) = 0.09569 0.27173
#
# Static dielectric constant tensor:
#      x y z
#    x 1.913050 0.000000 0.000000 
#    y 0.000000 1.773340 0.000000 
#    z 0.000000 0.000000 1.801120 
# 
# From -- ./inp_files/4378.got.cif
#   From: 2010.05.17/outbox.cif.g08.bks.cpg/sg56_3_cif.got.tgz:4378.got - 2010.06.03 13:42:01.
