data_PCOD9430284
_publ_section_title
;
Structure prediction by ZEFSAII (Michael W. Deem and Ramdas Pophale) SiO2 
 PCOD9430284
Probable space group: P C C N
;
_chemical_formula_sum "Si O2"
_cell_formula_units_Z 60
_cell_length_a 18.299586
_cell_length_b 12.704972
_cell_length_c 11.636318
_cell_angle_alpha 90.000000
_cell_angle_beta 90.000000
_cell_angle_gamma 90.000000
_cell_volume 2705.394222
_symmetry_space_group_name_H-M "P C C N"
_symmetry_group_IT_number 56
_symmetry_cell_setting 'orthorhombic'
loop_
_space_group_symop_operation_xyz
x,y,z
1/2-x,1/2-y,z
1/2+x,-y,1/2-z
-x,1/2+y,1/2-z
-x,-y,-z
1/2+x,1/2+y,-z
1/2-x,y,1/2+z
x,1/2-y,1/2+z
loop_
_atom_site_type_symbol
_atom_site_label
_atom_site_fract_x
_atom_site_fract_y
_atom_site_fract_z
Si Si1 0.625115 0.864361 0.547287
Si Si2 0.929621 0.259361 0.091662
Si Si3 0.817500 0.079463 0.156860
Si Si4 0.486462 0.799268 0.659669
Si Si5 0.250000 0.250000 0.091900
Si Si6 0.154936 0.971931 0.394058
Si Si7 0.781578 0.525439 0.872360
Si Si8 0.612678 0.991585 0.342119
O O1 0.571994 0.817760 0.641606
O O2 0.685511 0.789741 0.491527
O O3 0.658726 0.968929 0.602525
O O4 0.582630 0.908599 0.433772
O O5 0.864186 0.174132 0.106147
O O6 0.971332 0.247983 0.215353
O O7 0.901347 0.378653 0.089378
O O8 0.964375 0.248002 0.965018
O O9 0.730727 0.087032 0.139245
O O10 0.824560 0.056200 0.292605
O O11 0.439434 0.907853 0.660077
O O12 0.227457 0.352685 0.165646
O O13 0.125875 0.042612 0.289366
O O14 0.176379 0.032200 0.508116
O O15 0.697337 0.484731 0.880243
#
# Coordination Sequence:
#
# PCOD9430284 Si02
#       8
#     8   8   8   8   4   8   8   8
#     4  11  22  42  64  87 122 166 220 259 315 385
#     4  11  23  39  64  98 131 169 213 262 324 395
#     4  11  21  37  64  93 126 170 209 264 322 381
#     4  11  23  41  63  92 128 170 213 259 322 390
#     4  10  22  42  62  90 122 166 220 272 312 376
#     4  10  19  37  61  95 130 158 210 265 319 375
#     4  10  20  38  59  95 130 163 210 272 322 369
#     4   9  19  36  62  86 118 167 208 253 312 381
#
# _framework density 22.177913
#
# number of rings (size 3 to 8) (size 9 to 14) (size 15 to 20)
#    0.000    1.600    4.000    1.600    0.000    1.600 
#    4.800    4.000    0.000    4.000    0.000    0.000 
#    0.000    0.000    0.000    0.000    0.000    0.000 
#
# Total GULP energy -334351.240660 kJ/mol
# GULP energy per Si atom -5572.520678 kJ/mol
# Density = 2.212743 g / cm^3
# Si number density = 22.177913 Si / 1000 Ang^3
#
#
#
# Elastic Constant Matrix: (Units=GPa)
#
#
# Indices 1 2 3 4 5 6 
#
# 1 20.0108 3.8984 -1.9044 0.0000 0.0000 0.0000
# 2 3.8984 35.9203 -4.2410 0.0000 0.0000 0.0000
# 3 -1.9044 -4.2410 96.0930 0.0000 0.0000 0.0000
# 4 0.0000 0.0000 0.0000 22.2433 0.0000 0.0000
# 5 0.0000 0.0000 0.0000 0.0000 9.1227 0.0000
# 6 0.0000 0.0000 0.0000 0.0000 0.0000 2.2930
#
#
#
# Elastic Compliance Matrix: (Units=1/GPa)
#
#
# Indices 1 2 3 4 5 6 
#
# 1 0.051109 -0.005456 0.000772 0.000000 0.000000 0.000000
# 2 -0.005456 0.028568 0.001153 0.000000 0.000000 0.000000
# 3 0.000772 0.001153 0.010473 0.000000 0.000000 0.000000
# 4 0.000000 0.000000 0.000000 0.044957 0.000000 0.000000
# 5 0.000000 0.000000 0.000000 0.000000 0.109617 0.000000
# 6 0.000000 0.000000 0.000000 0.000000 0.000000 0.436119
#
#
# Mechanical properties :
#
#
# Convention : Reuss Voigt Hill
#
# Bulk Modulus (GPa) = 12.03544 16.39225 14.21384
# Shear Modulus (GPa) = 6.98714 17.01654 12.00184
#
# Velocity S-wave (km/s) = 1.77689 2.77298 2.32881
# Velocity P-wave (km/s) = 3.10618 4.20236 3.69514
#
# Compressibility (1/GPa) = 0.08308792
#
# Stress axis : x y z
#
# Youngs Moduli (GPa) = 19.56584 35.00471 95.48581
#
# Poissons Ratio (x) = 0.19098 -0.07372
# Poissons Ratio (y) = 0.10675 -0.11007
# Poissons Ratio (z) = -0.01511 -0.04035
#
# Static dielectric constant tensor:
#      x y z
#    x 1.838430 0.000000 0.000000 
#    y 0.000000 1.798200 0.000000 
#    z 0.000000 0.000000 1.925530 
# 
# From -- ./inp_files/8698.got.cif
#   From: 2010.05.17/outbox.cif.g08.bks.cpg/sg56_5_cif.got.tgz:8698.got - 2010.06.03 13:42:01.
