data_PCOD9430542
_publ_section_title
;
Structure prediction by ZEFSAII (Michael W. Deem and Ramdas Pophale) SiO2 
 PCOD9430542
Probable space group: P C C N
;
_chemical_formula_sum "Si O2"
_cell_formula_units_Z 60
_cell_length_a 9.548223
_cell_length_b 8.001349
_cell_length_c 30.828179
_cell_angle_alpha 90.000000
_cell_angle_beta 90.000000
_cell_angle_gamma 90.000000
_cell_volume 2355.231706
_symmetry_space_group_name_H-M "P C C N"
_symmetry_group_IT_number 56
_symmetry_cell_setting 'orthorhombic'
loop_
_space_group_symop_operation_xyz
x,y,z
1/2-x,1/2-y,z
1/2+x,-y,1/2-z
-x,1/2+y,1/2-z
-x,-y,-z
1/2+x,1/2+y,-z
1/2-x,y,1/2+z
x,1/2-y,1/2+z
loop_
_atom_site_type_symbol
_atom_site_label
_atom_site_fract_x
_atom_site_fract_y
_atom_site_fract_z
Si Si1 0.750000 0.750000 0.623021
Si Si2 0.273209 0.050021 0.525010
Si Si3 0.477618 0.379502 0.328719
Si Si4 0.794965 0.477312 0.569625
Si Si5 0.937744 0.018745 0.798971
Si Si6 0.441510 0.367642 0.107469
Si Si7 0.460153 0.997503 0.084591
Si Si8 0.890790 0.191694 0.718158
O O1 0.681821 0.615529 0.654144
O O2 0.848795 0.652368 0.590158
O O3 0.250000 0.250000 0.515528
O O4 0.376710 0.039912 0.565880
O O5 0.129265 0.966627 0.541763
O O6 0.324526 0.964595 0.481087
O O7 0.487723 0.197969 0.307409
O O8 0.563083 0.380301 0.373654
O O9 0.490903 0.553889 0.304127
O O10 0.625988 0.486468 0.573981
O O11 0.890449 0.358896 0.598756
O O12 0.836192 0.088807 0.761015
O O13 0.022112 0.863379 0.778350
O O14 0.901126 0.948839 0.846652
O O15 0.401135 0.174714 0.102280
O O16 0.750000 0.250000 0.694400
#
# Coordination Sequence:
#
# PCOD9430542 Si02
#       8
#     4   8   8   8   8   8   8   8
#     4  10  20  34  66  98 128 170 228 294 340 400
#     4  10  22  41  61  97 145 186 231 288 361 417
#     4  11  22  43  69  99 138 178 231 287 360 415
#     4  11  20  38  66  99 132 184 243 289 340 410
#     4  12  25  47  68 107 139 178 235 290 360 425
#     4  11  23  41  67  96 139 185 236 289 348 427
#     4  10  23  39  66  99 136 187 232 297 349 414
#     4  12  27  45  74 103 142 180 234 301 353 437
#
# _framework density 25.475197999999999
#
# number of rings (size 3 to 8) (size 9 to 14) (size 15 to 20)
#    0.000    1.067    4.667    2.000    1.867    1.067 
#    0.000    1.333    0.000    0.000    0.000    0.000 
#    0.000    0.000    0.000    0.000    0.000    0.000 
#
# Total GULP energy -334264.354168 kJ/mol
# GULP energy per Si atom -5571.072569 kJ/mol
# Density = 2.541722 g / cm^3
# Si number density = 25.475198 Si / 1000 Ang^3
#
#
#
# Elastic Constant Matrix: (Units=GPa)
#
#
# Indices 1 2 3 4 5 6 
#
# 1 58.6951 2.5073 3.6347 0.0000 0.0000 0.0000
# 2 2.5073 134.7264 30.7349 0.0000 0.0000 0.0000
# 3 3.6347 30.7349 113.7386 0.0000 0.0000 0.0000
# 4 0.0000 0.0000 0.0000 16.4055 0.0000 0.0000
# 5 0.0000 0.0000 0.0000 0.0000 15.7188 0.0000
# 6 0.0000 0.0000 0.0000 0.0000 0.0000 30.3830
#
#
#
# Elastic Compliance Matrix: (Units=1/GPa)
#
#
# Indices 1 2 3 4 5 6 
#
# 1 0.017076 -0.000206 -0.000490 0.000000 0.000000 0.000000
# 2 -0.000206 0.007913 -0.002132 0.000000 0.000000 0.000000
# 3 -0.000490 -0.002132 0.009384 0.000000 0.000000 0.000000
# 4 0.000000 0.000000 0.000000 0.060955 0.000000 0.000000
# 5 0.000000 0.000000 0.000000 0.000000 0.063618 0.000000
# 6 0.000000 0.000000 0.000000 0.000000 0.000000 0.032913
#
#
# Mechanical properties :
#
#
# Convention : Reuss Voigt Hill
#
# Bulk Modulus (GPa) = 34.82209 42.32376 38.57293
# Shear Modulus (GPa) = 24.14445 30.52032 27.33238
#
# Velocity S-wave (km/s) = 3.08192 3.46503 3.27907
# Velocity P-wave (km/s) = 5.13449 5.71475 5.43237
#
# Compressibility (1/GPa) = 0.02871740
#
# Stress axis : x y z
#
# Youngs Moduli (GPa) = 58.56059 126.38138 106.56712
#
# Poissons Ratio (x) = 0.02604 0.05222
# Poissons Ratio (y) = 0.01206 0.22716
# Poissons Ratio (z) = 0.02870 0.26939
#
# Static dielectric constant tensor:
#      x y z
#    x 2.105950 0.000000 0.000000 
#    y 0.000000 2.183080 0.000000 
#    z 0.000000 0.000000 2.105120 
# 
# From -- ./inp_files/23493.got.cif
#   From: 2010.05.17/outbox.cif.g08.bks.cpg/sg56_12_cif.got.tgz:23493.got - 2010.06.03 13:42:01.
