data_PCOD9430473
_publ_section_title
;
Structure prediction by ZEFSAII (Michael W. Deem and Ramdas Pophale) SiO2 
 PCOD9430473
Probable space group: P C C N
;
_chemical_formula_sum "Si O2"
_cell_formula_units_Z 64
_cell_length_a 14.083799
_cell_length_b 20.399137
_cell_length_c 11.664878
_cell_angle_alpha 90.000000
_cell_angle_beta 90.000000
_cell_angle_gamma 90.000000
_cell_volume 3351.288482
_symmetry_space_group_name_H-M "P C C N"
_symmetry_group_IT_number 56
_symmetry_cell_setting 'orthorhombic'
loop_
_space_group_symop_operation_xyz
x,y,z
1/2-x,1/2-y,z
1/2+x,-y,1/2-z
-x,1/2+y,1/2-z
-x,-y,-z
1/2+x,1/2+y,-z
1/2-x,y,1/2+z
x,1/2-y,1/2+z
loop_
_atom_site_type_symbol
_atom_site_label
_atom_site_fract_x
_atom_site_fract_y
_atom_site_fract_z
Si Si1 0.112974 0.116873 0.140802
Si Si2 0.310217 0.130287 0.052586
Si Si3 0.886957 0.493334 0.906974
Si Si4 0.565461 0.077354 0.122447
Si Si5 0.312352 0.530031 0.183245
Si Si6 0.645103 0.718498 0.655661
Si Si7 0.026005 0.574021 0.532775
Si Si8 0.437643 0.347034 0.763005
O O1 0.196839 0.136816 0.051583
O O2 0.121253 0.165052 0.247510
O O3 0.145336 0.043615 0.176644
O O4 0.011897 0.114807 0.076459
O O5 0.345106 0.139697 0.184133
O O6 0.344765 0.056548 0.022659
O O7 0.354724 0.182723 0.966985
O O8 0.800217 0.473596 0.827647
O O9 0.982512 0.522774 0.852942
O O10 0.913492 0.434114 0.990302
O O11 0.655479 0.061062 0.198183
O O12 0.520055 0.144378 0.167468
O O13 0.366447 0.570039 0.081254
O O14 0.750000 0.750000 0.671082
O O15 0.573270 0.778162 0.675192
O O16 0.000000 0.500000 0.500000
O O17 0.963622 0.600141 0.639929
#
# Coordination Sequence:
#
# PCOD9430473 Si02
#       8
#     8   8   8   8   8   8   8   8
#     4  10  20  33  49  77 119 155 196 235 286 358
#     4  10  21  34  49  80 116 160 201 230 289 362
#     4   9  18  35  59  80 112 156 186 244 299 346
#     4   9  18  36  55  81 117 143 198 234 288 358
#     4   9  18  35  54  84 110 151 190 245 300 340
#     4  12  23  31  50  79 120 167 199 231 290 369
#     4   9  19  36  55  76 110 149 197 249 294 345
#     4  10  21  34  53  75 113 156 189 246 280 342
#
# _framework density 19.097131999999998
#
# number of rings (size 3 to 8) (size 9 to 14) (size 15 to 20)
#    0.000    2.250    1.250    1.500    3.500    0.000 
#   22.500    0.000    0.000    0.000    0.000    0.875 
#    0.000    0.000    0.000    0.000    0.000    0.000 
#
# Total GULP energy -356541.046673 kJ/mol
# GULP energy per Si atom -5570.953854 kJ/mol
# Density = 1.905367 g / cm^3
# Si number density = 19.097132 Si / 1000 Ang^3
#
#
#
# Elastic Constant Matrix: (Units=GPa)
#
#
# Indices 1 2 3 4 5 6 
#
# 1 59.9512 12.3345 5.7955 0.0000 0.0000 0.0000
# 2 12.3345 67.6004 26.8447 0.0000 0.0000 0.0000
# 3 5.7955 26.8447 31.4352 0.0000 0.0000 0.0000
# 4 0.0000 0.0000 0.0000 32.4677 0.0000 0.0000
# 5 0.0000 0.0000 0.0000 0.0000 26.6022 0.0000
# 6 0.0000 0.0000 0.0000 0.0000 0.0000 27.7686
#
#
#
# Elastic Compliance Matrix: (Units=1/GPa)
#
#
# Indices 1 2 3 4 5 6 
#
# 1 0.017342 -0.002867 -0.000749 0.000000 0.000000 0.000000
# 2 -0.002867 0.022857 -0.018991 0.000000 0.000000 0.000000
# 3 -0.000749 -0.018991 0.048167 0.000000 0.000000 0.000000
# 4 0.000000 0.000000 0.000000 0.030800 0.000000 0.000000
# 5 0.000000 0.000000 0.000000 0.000000 0.037591 0.000000
# 6 0.000000 0.000000 0.000000 0.000000 0.000000 0.036012
#
#
# Mechanical properties :
#
#
# Convention : Reuss Voigt Hill
#
# Bulk Modulus (GPa) = 23.17320 27.65958 25.41639
# Shear Modulus (GPa) = 19.81230 24.96850 22.39040
#
# Velocity S-wave (km/s) = 3.22444 3.61979 3.42782
# Velocity P-wave (km/s) = 5.10132 5.65558 5.38558
#
# Compressibility (1/GPa) = 0.04315330
#
# Stress axis : x y z
#
# Youngs Moduli (GPa) = 57.66185 43.74942 20.76092
#
# Poissons Ratio (x) = 0.12542 0.01555
# Poissons Ratio (y) = 0.16531 0.39427
# Poissons Ratio (z) = 0.04319 0.83085
#
# Static dielectric constant tensor:
#      x y z
#    x 1.695290 0.000000 0.000000 
#    y 0.000000 1.682050 0.000000 
#    z 0.000000 0.000000 1.701400 
# 
# From -- ./inp_files/8042.got.cif
#   From: 2010.05.17/outbox.cif.g08.bks.cpg/sg56_5_cif.got.tgz:8042.got - 2010.06.03 13:42:01.
