data_PCOD9430769
_publ_section_title
;
Structure prediction by ZEFSAII (Michael W. Deem and Ramdas Pophale) SiO2 
 PCOD9430769
Probable space group: P C C N
;
_chemical_formula_sum "Si O2"
_cell_formula_units_Z 60
_cell_length_a 10.594807
_cell_length_b 14.088636
_cell_length_c 20.295482
_cell_angle_alpha 90.000000
_cell_angle_beta 90.000000
_cell_angle_gamma 90.000000
_cell_volume 3029.433115
_symmetry_space_group_name_H-M "P C C N"
_symmetry_group_IT_number 56
_symmetry_cell_setting 'orthorhombic'
loop_
_space_group_symop_operation_xyz
x,y,z
1/2-x,1/2-y,z
1/2+x,-y,1/2-z
-x,1/2+y,1/2-z
-x,-y,-z
1/2+x,1/2+y,-z
1/2-x,y,1/2+z
x,1/2-y,1/2+z
loop_
_atom_site_type_symbol
_atom_site_label
_atom_site_fract_x
_atom_site_fract_y
_atom_site_fract_z
Si Si1 0.476748 0.337110 0.929607
Si Si2 0.916484 0.445539 0.099926
Si Si3 0.274100 0.932414 0.601317
Si Si4 0.750000 0.750000 0.348993
Si Si5 0.980510 0.368053 0.965964
Si Si6 0.144261 0.500284 0.356013
Si Si7 0.861038 0.557403 0.795408
Si Si8 0.924369 0.609778 0.426258
O O1 0.607219 0.363051 0.893076
O O2 0.458058 0.225723 0.935796
O O3 0.370756 0.402160 0.896791
O O4 0.490564 0.369962 0.005044
O O5 0.773265 0.446775 0.124628
O O6 0.939704 0.542596 0.059180
O O7 0.009509 0.444217 0.162541
O O8 0.959918 0.368688 0.044986
O O9 0.158767 0.882859 0.564674
O O10 0.226823 0.978769 0.669021
O O11 0.321561 0.026225 0.562288
O O12 0.695694 0.662716 0.306340
O O13 0.854171 0.699803 0.395332
O O14 0.131556 0.471478 0.280104
O O15 0.026528 0.565720 0.376895
#
# Coordination Sequence:
#
# PCOD9430769 Si02
#       8
#     8   8   8   4   8   8   8   8
#     4  11  21  35  63  95 123 154 216 267 311 371
#     4  10  22  39  62  89 126 172 204 260 323 380
#     4   9  19  37  59  84 120 168 197 254 318 376
#     4  10  22  42  66  90 124 164 212 258 316 376
#     4  10  20  37  61  91 124 156 211 266 322 366
#     4  11  24  39  62  91 127 169 210 256 319 390
#     4  10  23  40  62  86 128 169 209 252 313 382
#     4  10  21  39  64  91 119 162 207 263 318 378
#
# _framework density 19.805683999999999
#
# number of rings (size 3 to 8) (size 9 to 14) (size 15 to 20)
#    0.000    1.867    0.000    4.400    5.600    4.800 
#    2.400    2.000    0.000    0.000    0.000    0.000 
#    0.000    0.000    0.000    0.000    0.000    0.000 
#
# Total GULP energy -334968.307154 kJ/mol
# GULP energy per Si atom -5582.805119 kJ/mol
# Density = 1.976061 g / cm^3
# Si number density = 19.805684 Si / 1000 Ang^3
#
#
#
# Elastic Constant Matrix: (Units=GPa)
#
#
# Indices 1 2 3 4 5 6 
#
# 1 76.5588 19.0095 40.2753 0.0000 0.0000 0.0000
# 2 19.0095 84.3970 41.8620 0.0000 0.0000 0.0000
# 3 40.2753 41.8620 115.0560 0.0000 0.0000 0.0000
# 4 0.0000 0.0000 0.0000 23.3919 0.0000 0.0000
# 5 0.0000 0.0000 0.0000 0.0000 14.3739 0.0000
# 6 0.0000 0.0000 0.0000 0.0000 0.0000 8.6642
#
#
#
# Elastic Compliance Matrix: (Units=1/GPa)
#
#
# Indices 1 2 3 4 5 6 
#
# 1 0.016081 -0.001013 -0.005261 0.000000 0.000000 0.000000
# 2 -0.001013 0.014522 -0.004929 0.000000 0.000000 0.000000
# 3 -0.005261 -0.004929 0.012326 0.000000 0.000000 0.000000
# 4 0.000000 0.000000 0.000000 0.042750 0.000000 0.000000
# 5 0.000000 0.000000 0.000000 0.000000 0.069571 0.000000
# 6 0.000000 0.000000 0.000000 0.000000 0.000000 0.115417
#
#
# Mechanical properties :
#
#
# Convention : Reuss Voigt Hill
#
# Bulk Modulus (GPa) = 48.72342 53.14507 50.93425
# Shear Modulus (GPa) = 16.67154 20.94369 18.80761
#
# Velocity S-wave (km/s) = 2.90445 3.25539 3.08491
# Velocity P-wave (km/s) = 5.99182 6.40481 6.20175
#
# Compressibility (1/GPa) = 0.02052401
#
# Stress axis : x y z
#
# Youngs Moduli (GPa) = 62.18618 68.86217 81.12730
#
# Poissons Ratio (x) = 0.06973 0.42678
# Poissons Ratio (y) = 0.06297 0.39989
# Poissons Ratio (z) = 0.32714 0.33943
#
# Static dielectric constant tensor:
#      x y z
#    x 1.704120 0.000000 0.000000 
#    y 0.000000 1.716820 0.000000 
#    z 0.000000 0.000000 1.673690 
# 
# From -- ./inp_files/15765.got.cif
#   From: 2010.05.17/outbox.cif.g08.bks.cpg/sg56_8_cif.got.tgz:15765.got - 2010.06.03 13:42:01.
