data_PCOD9430149
_publ_section_title
;
Structure prediction by ZEFSAII (Michael W. Deem and Ramdas Pophale) SiO2 
 PCOD9430149
Probable space group: P C C N
;
_chemical_formula_sum "Si O2"
_cell_formula_units_Z 60
_cell_length_a 27.639947
_cell_length_b 13.258008
_cell_length_c 8.221200
_cell_angle_alpha 90.000000
_cell_angle_beta 90.000000
_cell_angle_gamma 90.000000
_cell_volume 3012.663989
_symmetry_space_group_name_H-M "P C C N"
_symmetry_group_IT_number 56
_symmetry_cell_setting 'orthorhombic'
loop_
_space_group_symop_operation_xyz
x,y,z
1/2-x,1/2-y,z
1/2+x,-y,1/2-z
-x,1/2+y,1/2-z
-x,-y,-z
1/2+x,1/2+y,-z
1/2-x,y,1/2+z
x,1/2-y,1/2+z
loop_
_atom_site_type_symbol
_atom_site_label
_atom_site_fract_x
_atom_site_fract_y
_atom_site_fract_z
Si Si1 0.464251 0.917169 0.689679
Si Si2 0.383685 0.475952 0.955565
Si Si3 0.950941 0.806554 0.990933
Si Si4 0.986804 0.618911 0.146164
Si Si5 0.250000 0.750000 0.813347
Si Si6 0.691360 0.130595 0.423629
Si Si7 0.383177 0.700674 0.349163
Si Si8 0.100234 0.891707 0.683036
O O1 0.427612 0.968198 0.557323
O O2 0.510458 0.868612 0.603025
O O3 0.435501 0.832743 0.785551
O O4 0.475285 0.002082 0.823968
O O5 0.332093 0.523910 0.016615
O O6 0.398559 0.358806 0.981729
O O7 0.389037 0.501301 0.763678
O O8 0.959109 0.687353 0.016115
O O9 0.967873 0.830178 0.810801
O O10 0.044398 0.624393 0.142107
O O11 0.263290 0.846466 0.699308
O O12 0.207757 0.794627 0.929679
O O13 0.650896 0.168411 0.298122
O O14 0.373127 0.644989 0.519200
O O15 0.386520 0.820529 0.337348
#
# Coordination Sequence:
#
# PCOD9430149 Si02
#       8
#     8   8   8   8   4   8   8   8
#     4  10  19  35  48  69 103 146 192 236 261 302
#     4  10  20  35  52  71 107 144 186 219 273 318
#     4  11  20  35  49  70 106 147 194 236 270 306
#     4  11  21  31  47  68 100 147 195 226 271 290
#     4  10  20  38  60  82 110 130 172 214 278 342
#     4  10  21  36  55  79 107 141 164 217 271 332
#     4  11  22  30  49  74 106 138 187 216 258 323
#     4  12  19  29  46  72 103 146 187 228 255 305
#
# _framework density 19.915928000000001
#
# number of rings (size 3 to 8) (size 9 to 14) (size 15 to 20)
#    0.000    1.333    4.000    4.800    0.000    2.667 
#    0.000    0.000    0.000    0.000    0.000    0.000 
#    0.000   28.800    0.000    0.000    0.000    0.000 
#
# Total GULP energy -334100.198412 kJ/mol
# GULP energy per Si atom -5568.336640 kJ/mol
# Density = 1.987060 g / cm^3
# Si number density = 19.915928 Si / 1000 Ang^3
#
#
#
# Elastic Constant Matrix: (Units=GPa)
#
#
# Indices 1 2 3 4 5 6 
#
# 1 66.9743 15.6682 17.0616 0.0000 0.0000 0.0000
# 2 15.6682 27.8921 -13.5476 0.0000 0.0000 0.0000
# 3 17.0616 -13.5476 74.6113 0.0000 0.0000 0.0000
# 4 0.0000 0.0000 0.0000 26.4109 0.0000 0.0000
# 5 0.0000 0.0000 0.0000 0.0000 34.3902 0.0000
# 6 0.0000 0.0000 0.0000 0.0000 0.0000 26.2434
#
#
#
# Elastic Compliance Matrix: (Units=1/GPa)
#
#
# Indices 1 2 3 4 5 6 
#
# 1 0.020315 -0.014990 -0.007367 0.000000 0.000000 0.000000
# 2 -0.014990 0.050381 0.012576 0.000000 0.000000 0.000000
# 3 -0.007367 0.012576 0.017371 0.000000 0.000000 0.000000
# 4 0.000000 0.000000 0.000000 0.037863 0.000000 0.000000
# 5 0.000000 0.000000 0.000000 0.000000 0.029078 0.000000
# 6 0.000000 0.000000 0.000000 0.000000 0.000000 0.038105
#
#
# Mechanical properties :
#
#
# Convention : Reuss Voigt Hill
#
# Bulk Modulus (GPa) = 14.59769 23.09355 18.84562
# Shear Modulus (GPa) = 21.23049 27.42862 24.32955
#
# Velocity S-wave (km/s) = 3.26852 3.71512 3.49895
# Velocity P-wave (km/s) = 4.64649 5.47937 5.08003
#
# Compressibility (1/GPa) = 0.06850401
#
# Stress axis : x y z
#
# Youngs Moduli (GPa) = 49.22543 19.84868 57.56735
#
# Poissons Ratio (x) = 0.29753 0.42411
# Poissons Ratio (y) = 0.73789 -0.72396
# Poissons Ratio (z) = 0.36266 -0.24961
#
# Static dielectric constant tensor:
#      x y z
#    x 1.788410 0.000000 0.000000 
#    y 0.000000 1.796750 0.000000 
#    z 0.000000 0.000000 1.771710 
# 
# From -- ./inp_files/5021.got.cif
#   From: 2010.05.17/outbox.cif.g08.bks.cpg/sg56_3_cif.got.tgz:5021.got - 2010.06.03 13:42:01.
