data_PCOD9430295
_publ_section_title
;
Structure prediction by ZEFSAII (Michael W. Deem and Ramdas Pophale) SiO2 
 PCOD9430295
Probable space group: P C C N
;
_chemical_formula_sum "Si O2"
_cell_formula_units_Z 48
_cell_length_a 29.514816
_cell_length_b 5.457581
_cell_length_c 13.453174
_cell_angle_alpha 90.000000
_cell_angle_beta 90.000000
_cell_angle_gamma 90.000000
_cell_volume 2167.030528
_symmetry_space_group_name_H-M "P C C N"
_symmetry_group_IT_number 56
_symmetry_cell_setting 'orthorhombic'
loop_
_space_group_symop_operation_xyz
x,y,z
1/2-x,1/2-y,z
1/2+x,-y,1/2-z
-x,1/2+y,1/2-z
-x,-y,-z
1/2+x,1/2+y,-z
1/2-x,y,1/2+z
x,1/2-y,1/2+z
loop_
_atom_site_type_symbol
_atom_site_label
_atom_site_fract_x
_atom_site_fract_y
_atom_site_fract_z
Si Si1 0.600884 0.138469 0.159465
Si Si2 0.222921 0.489987 0.383979
Si Si3 0.149790 0.797831 0.019846
Si Si4 0.906055 0.650933 0.354344
Si Si5 0.997916 0.227708 0.186201
Si Si6 0.165441 0.966071 0.699926
O O1 0.551041 0.241193 0.136030
O O2 0.630372 0.323118 0.227756
O O3 0.593635 0.917140 0.236276
O O4 0.629541 0.104544 0.059619
O O5 0.250000 0.250000 0.414821
O O6 0.179661 0.520836 0.454485
O O7 0.204775 0.446989 0.271888
O O8 0.250000 0.750000 0.386477
O O9 0.180932 0.705011 0.109889
O O10 0.107816 0.926807 0.075536
O O11 0.956312 0.742862 0.378483
O O12 0.864702 0.836679 0.357319
O O13 0.001580 0.459161 0.262036
#
# Coordination Sequence:
#
# PCOD9430295 Si02
#       6
#     8   8   8   8   8   8
#     4   9  20  39  63  93 136 182 218 269 322 389
#     4  11  28  49  72  99 131 172 219 277 345 413
#     4  10  24  42  67 100 132 172 220 278 338 399
#     4  10  21  38  67  94 134 181 222 273 331 388
#     4  10  19  37  63  95 134 184 230 265 316 385
#     4  10  22  43  68  93 133 173 217 272 338 398
#
# _framework density 22.150124999999999
#
# number of rings (size 3 to 8) (size 9 to 14) (size 15 to 20)
#    0.000    2.000    1.667    0.000    9.333    2.667 
#    0.000    0.833    0.000    0.000    0.000    0.000 
#    0.000    0.000    0.000    0.000    0.000    0.000 
#
# Total GULP energy -267617.397034 kJ/mol
# GULP energy per Si atom -5575.362438 kJ/mol
# Density = 2.209971 g / cm^3
# Si number density = 22.150125 Si / 1000 Ang^3
#
#
#
# Elastic Constant Matrix: (Units=GPa)
#
#
# Indices 1 2 3 4 5 6 
#
# 1 64.7118 4.7372 32.6165 0.0000 0.0000 0.0000
# 2 4.7372 48.2246 14.8259 0.0000 0.0000 0.0000
# 3 32.6165 14.8259 111.0737 0.0000 0.0000 0.0000
# 4 0.0000 0.0000 0.0000 9.9686 0.0000 0.0000
# 5 0.0000 0.0000 0.0000 0.0000 13.8745 0.0000
# 6 0.0000 0.0000 0.0000 0.0000 0.0000 27.1164
#
#
#
# Elastic Compliance Matrix: (Units=1/GPa)
#
#
# Indices 1 2 3 4 5 6 
#
# 1 0.018139 -0.000150 -0.005306 0.000000 0.000000 0.000000
# 2 -0.000150 0.021625 -0.002842 0.000000 0.000000 0.000000
# 3 -0.005306 -0.002842 0.010941 0.000000 0.000000 0.000000
# 4 0.000000 0.000000 0.000000 0.100315 0.000000 0.000000
# 5 0.000000 0.000000 0.000000 0.000000 0.072075 0.000000
# 6 0.000000 0.000000 0.000000 0.000000 0.000000 0.036878
#
#
# Mechanical properties :
#
#
# Convention : Reuss Voigt Hill
#
# Bulk Modulus (GPa) = 29.32025 36.48549 32.90287
# Shear Modulus (GPa) = 17.36482 21.64726 19.50604
#
# Velocity S-wave (km/s) = 2.80297 3.12957 2.97076
# Velocity P-wave (km/s) = 4.87250 5.43752 5.16275
#
# Compressibility (1/GPa) = 0.03410612
#
# Stress axis : x y z
#
# Youngs Moduli (GPa) = 55.13087 46.24296 91.40270
#
# Poissons Ratio (x) = 0.00696 0.48501
# Poissons Ratio (y) = 0.00829 0.25979
# Poissons Ratio (z) = 0.29254 0.13144
#
# Static dielectric constant tensor:
#      x y z
#    x 1.856660 0.000000 0.000000 
#    y 0.000000 1.917950 0.000000 
#    z 0.000000 0.000000 1.772230 
# 
# From -- ./inp_files/13360.got.cif
#   From: 2010.05.17/outbox.cif.g08.bks.cpg/sg56_7_cif.got.tgz:13360.got - 2010.06.03 13:42:01.
