data_PCOD9430363
_publ_section_title
;
Structure prediction by ZEFSAII (Michael W. Deem and Ramdas Pophale) SiO2 
 PCOD9430363
Probable space group: P C C N
;
_chemical_formula_sum "Si O2"
_cell_formula_units_Z 40
_cell_length_a 11.745115
_cell_length_b 10.759598
_cell_length_c 13.564154
_cell_angle_alpha 90.000000
_cell_angle_beta 90.000000
_cell_angle_gamma 90.000000
_cell_volume 1714.138979
_symmetry_space_group_name_H-M "P C C N"
_symmetry_group_IT_number 56
_symmetry_cell_setting 'orthorhombic'
loop_
_space_group_symop_operation_xyz
x,y,z
1/2-x,1/2-y,z
1/2+x,-y,1/2-z
-x,1/2+y,1/2-z
-x,-y,-z
1/2+x,1/2+y,-z
1/2-x,y,1/2+z
x,1/2-y,1/2+z
loop_
_atom_site_type_symbol
_atom_site_label
_atom_site_fract_x
_atom_site_fract_y
_atom_site_fract_z
Si Si1 0.630269 0.602567 0.661337
Si Si2 0.591012 0.000752 0.886269
Si Si3 0.615503 0.720955 0.869628
Si Si4 0.307998 0.032025 0.482082
Si Si5 0.785196 0.108908 0.199239
O O1 0.520545 0.582195 0.593594
O O2 0.601400 0.684472 0.755438
O O3 0.743076 0.623561 0.595702
O O4 0.667911 0.469184 0.705551
O O5 0.632155 0.047375 0.778973
O O6 0.703252 0.018182 0.952121
O O7 0.559741 0.854653 0.886008
O O8 0.750000 0.750000 0.878601
O O9 0.605372 0.608883 0.949398
O O10 0.340663 0.920378 0.408129
O O11 0.750000 0.250000 0.213959
#
# Coordination Sequence:
#
# PCOD9430363 Si02
#       5
#     8   8   8   8   8
#     4  10  22  38  61  92 118 162 203 247 307 354
#     4  11  22  38  65  91 119 162 203 256 300 354
#     4  10  19  39  63  87 121 156 207 252 298 354
#     4   9  19  39  60  85 116 164 200 249 299 352
#     4  10  23  40  60  88 130 161 194 248 312 365
#
# _framework density 23.335329999999999
#
# number of rings (size 3 to 8) (size 9 to 14) (size 15 to 20)
#    1.200    0.800    4.000    0.600    2.800    8.000 
#    0.000    1.000    0.000    0.000    0.000    0.000 
#    0.000    0.000    0.000    0.000    0.000    0.000 
#
# Total GULP energy -222750.259253 kJ/mol
# GULP energy per Si atom -5568.756481 kJ/mol
# Density = 2.328222 g / cm^3
# Si number density = 23.335330 Si / 1000 Ang^3
#
#
#
# Elastic Constant Matrix: (Units=GPa)
#
#
# Indices 1 2 3 4 5 6 
#
# 1 35.0541 -2.7338 7.9717 0.0000 0.0000 0.0000
# 2 -2.7338 66.9122 16.1564 0.0000 0.0000 0.0000
# 3 7.9717 16.1564 106.0643 0.0000 0.0000 0.0000
# 4 0.0000 0.0000 0.0000 6.2711 0.0000 0.0000
# 5 0.0000 0.0000 0.0000 0.0000 19.3607 0.0000
# 6 0.0000 0.0000 0.0000 0.0000 0.0000 -0.2488
#
#
#
# Elastic Compliance Matrix: (Units=1/GPa)
#
#
# Indices 1 2 3 4 5 6 
#
# 1 0.029229 0.001790 -0.002470 0.000000 0.000000 0.000000
# 2 0.001790 0.015625 -0.002515 0.000000 0.000000 0.000000
# 3 -0.002470 -0.002515 0.009997 0.000000 0.000000 0.000000
# 4 0.000000 0.000000 0.000000 0.159462 0.000000 0.000000
# 5 0.000000 0.000000 0.000000 0.000000 0.051651 0.000000
# 6 0.000000 0.000000 0.000000 0.000000 0.000000 -4.018833
#
#
# Mechanical properties :
#
#
# Convention : Reuss Voigt Hill
#
# Bulk Modulus (GPa) = 20.63422 27.86881 24.25151
# Shear Modulus (GPa) = -1.34037 17.51900 8.08932
#
# Velocity S-wave (km/s) = -0.75871 2.74295 1.86389
# Velocity P-wave (km/s) = 2.84502 4.69046 3.87908
#
# Compressibility (1/GPa) = 0.04846318
#
# Stress axis : x y z
#
# Youngs Moduli (GPa) = 34.21312 63.99875 100.03098
#
# Poissons Ratio (x) = -0.11459 0.24703
# Poissons Ratio (y) = -0.06126 0.25155
# Poissons Ratio (z) = 0.08449 0.16094
#
# Static dielectric constant tensor:
#      x y z
#    x 1.930380 0.000000 0.000000 
#    y 0.000000 1.964550 0.000000 
#    z 0.000000 0.000000 1.976900 
# 
# From -- ./inp_files/12139.got.cif
#   From: 2010.05.17/outbox.cif.g08.bks.cpg/sg56_7_cif.got.tgz:12139.got - 2010.06.03 13:42:01.
