data_PCOD9430047
_publ_section_title
;
Structure prediction by ZEFSAII (Michael W. Deem and Ramdas Pophale) SiO2 
 PCOD9430047
Probable space group: P C C N
;
_chemical_formula_sum "Si O2"
_cell_formula_units_Z 40
_cell_length_a 7.383883
_cell_length_b 10.257697
_cell_length_c 22.008723
_cell_angle_alpha 90.000000
_cell_angle_beta 90.000000
_cell_angle_gamma 90.000000
_cell_volume 1666.976653
_symmetry_space_group_name_H-M "P C C N"
_symmetry_group_IT_number 56
_symmetry_cell_setting 'orthorhombic'
loop_
_space_group_symop_operation_xyz
x,y,z
1/2-x,1/2-y,z
1/2+x,-y,1/2-z
-x,1/2+y,1/2-z
-x,-y,-z
1/2+x,1/2+y,-z
1/2-x,y,1/2+z
x,1/2-y,1/2+z
loop_
_atom_site_type_symbol
_atom_site_label
_atom_site_fract_x
_atom_site_fract_y
_atom_site_fract_z
Si Si1 0.559237 0.279957 0.477129
Si Si2 0.535106 0.481418 0.582238
Si Si3 0.050046 0.092156 0.190523
Si Si4 0.520718 0.619779 0.288920
Si Si5 0.355141 0.113146 0.562623
O O1 0.750000 0.250000 0.446313
O O2 0.603025 0.366966 0.537846
O O3 0.424237 0.371264 0.438239
O O4 0.463421 0.148883 0.501846
O O5 0.570497 0.446031 0.651748
O O6 0.317313 0.480325 0.566800
O O7 0.968732 0.228183 0.215147
O O8 0.266142 0.110069 0.196701
O O9 0.013933 0.081986 0.118700
O O10 0.005991 0.965806 0.229332
O O11 0.250000 0.250000 0.576425
#
# Coordination Sequence:
#
# PCOD9430047 Si02
#       5
#     8   8   8   8   8
#     4  10  19  32  59  84 106 141 197 229 269 337
#     4   9  19  38  56  77 116 151 177 235 287 335
#     4  10  19  37  59  85 110 154 187 229 280 342
#     4  10  20  38  60  83 116 149 190 229 288 336
#     4   9  16  37  60  73 114 155 176 218 297 336
#
# _framework density 23.995536000000001
#
# number of rings (size 3 to 8) (size 9 to 14) (size 15 to 20)
#    0.000    2.400    6.000    0.000    0.000    3.200 
#    7.200    0.000   22.000    0.000    0.000    0.000 
#    0.000    0.000    0.000    0.000    0.000    0.000 
#
# Total GULP energy -223186.781927 kJ/mol
# GULP energy per Si atom -5579.669548 kJ/mol
# Density = 2.394092 g / cm^3
# Si number density = 23.995536 Si / 1000 Ang^3
#
#
#
# Elastic Constant Matrix: (Units=GPa)
#
#
# Indices 1 2 3 4 5 6 
#
# 1 47.9592 -9.9564 -17.0663 0.0000 0.0000 0.0000
# 2 -9.9564 93.1847 14.5424 0.0000 0.0000 0.0000
# 3 -17.0663 14.5424 52.1369 0.0000 0.0000 0.0000
# 4 0.0000 0.0000 0.0000 25.9677 0.0000 0.0000
# 5 0.0000 0.0000 0.0000 0.0000 19.1467 0.0000
# 6 0.0000 0.0000 0.0000 0.0000 0.0000 26.2068
#
#
#
# Elastic Compliance Matrix: (Units=1/GPa)
#
#
# Indices 1 2 3 4 5 6 
#
# 1 0.023770 0.001386 0.007394 0.000000 0.000000 0.000000
# 2 0.001386 0.011301 -0.002698 0.000000 0.000000 0.000000
# 3 0.007394 -0.002698 0.022353 0.000000 0.000000 0.000000
# 4 0.000000 0.000000 0.000000 0.038509 0.000000 0.000000
# 5 0.000000 0.000000 0.000000 0.000000 0.052228 0.000000
# 6 0.000000 0.000000 0.000000 0.000000 0.000000 0.038158
#
#
# Mechanical properties :
#
#
# Convention : Reuss Voigt Hill
#
# Bulk Modulus (GPa) = 14.37049 18.70225 16.53637
# Shear Modulus (GPa) = 25.33543 27.98165 26.65854
#
# Velocity S-wave (km/s) = 3.25289 3.41855 3.33675
# Velocity P-wave (km/s) = 4.48444 4.83663 4.66386
#
# Compressibility (1/GPa) = 0.06958703
#
# Stress axis : x y z
#
# Youngs Moduli (GPa) = 42.06990 88.49126 44.73610
#
# Poissons Ratio (x) = -0.12263 -0.33079
# Poissons Ratio (y) = -0.05830 0.12072
# Poissons Ratio (z) = -0.31107 0.23879
#
# Static dielectric constant tensor:
#      x y z
#    x 2.037290 0.000000 0.000000 
#    y 0.000000 1.999090 0.000000 
#    z 0.000000 0.000000 1.970220 
# 
# From -- ./inp_files/18004.got.cif
#   From: 2010.05.17/outbox.cif.g08.bks.cpg/sg56_10_cif.got.tgz:18004.got - 2010.06.03 13:42:01.
