data_PCOD9430936
_publ_section_title
;
Structure prediction by ZEFSAII (Michael W. Deem and Ramdas Pophale) SiO2 
 PCOD9430936
Probable space group: P C C N
;
_chemical_formula_sum "Si O2"
_cell_formula_units_Z 52
_cell_length_a 26.963771
_cell_length_b 11.425357
_cell_length_c 7.819590
_cell_angle_alpha 90.000000
_cell_angle_beta 90.000000
_cell_angle_gamma 90.000000
_cell_volume 2408.986641
_symmetry_space_group_name_H-M "P C C N"
_symmetry_group_IT_number 56
_symmetry_cell_setting 'orthorhombic'
loop_
_space_group_symop_operation_xyz
x,y,z
1/2-x,1/2-y,z
1/2+x,-y,1/2-z
-x,1/2+y,1/2-z
-x,-y,-z
1/2+x,1/2+y,-z
1/2-x,y,1/2+z
x,1/2-y,1/2+z
loop_
_atom_site_type_symbol
_atom_site_label
_atom_site_fract_x
_atom_site_fract_y
_atom_site_fract_z
Si Si1 0.374488 0.113092 0.979130
Si Si2 0.750000 0.250000 0.734882
Si Si3 0.182652 0.885237 0.508158
Si Si4 0.578278 0.196326 0.126046
Si Si5 0.513549 0.352969 0.312594
Si Si6 0.420628 0.331094 0.840321
Si Si7 0.933572 0.502700 0.339096
O O1 0.398033 0.052686 0.811342
O O2 0.329768 0.023451 0.024110
O O3 0.375726 0.247416 0.912113
O O4 0.407220 0.120609 0.152750
O O5 0.776332 0.145811 0.632341
O O6 0.705982 0.183751 0.833422
O O7 0.131783 0.821475 0.453290
O O8 0.555894 0.319428 0.177722
O O9 0.575914 0.133341 0.312749
O O10 0.539354 0.136890 0.995233
O O11 0.469766 0.252920 0.325494
O O12 0.487470 0.465032 0.232894
O O13 0.426459 0.428963 0.985710
#
# Coordination Sequence:
#
# PCOD9430936 Si02
#       7
#     8   4   8   8   8   8   8
#     4  10  20  38  66  97 122 169 224 251 313 388
#     4  10  22  50  74  88 128 150 198 278 366 392
#     4  10  23  44  69  97 118 165 208 271 336 402
#     4  11  22  36  58  92 125 168 227 269 307 384
#     4  11  19  36  53  84 137 171 220 264 295 351
#     4  11  19  38  62  89 137 186 208 257 307 361
#     4  10  21  38  56  85 132 187 217 257 311 351
#
# _framework density 21.585840000000001
#
# number of rings (size 3 to 8) (size 9 to 14) (size 15 to 20)
#    0.000    1.538    4.615    2.308    0.000    1.846 
#   19.385    0.000    0.000    2.769    0.000    0.000 
#    0.000    0.000    0.000    0.000    0.000    0.000 
#
# Total GULP energy -289931.626174 kJ/mol
# GULP energy per Si atom -5575.608196 kJ/mol
# Density = 2.153671 g / cm^3
# Si number density = 21.585840 Si / 1000 Ang^3
#
#
#
# Elastic Constant Matrix: (Units=GPa)
#
#
# Indices 1 2 3 4 5 6 
#
# 1 79.8320 41.8358 21.6132 0.0000 0.0000 0.0000
# 2 41.8358 69.3643 24.1638 0.0000 0.0000 0.0000
# 3 21.6132 24.1638 113.8193 0.0000 0.0000 0.0000
# 4 0.0000 0.0000 0.0000 -26.8475 0.0000 0.0000
# 5 0.0000 0.0000 0.0000 0.0000 19.2626 0.0000
# 6 0.0000 0.0000 0.0000 0.0000 0.0000 31.7268
#
#
#
# Elastic Compliance Matrix: (Units=1/GPa)
#
#
# Indices 1 2 3 4 5 6 
#
# 1 0.018474 -0.010713 -0.001234 0.000000 0.000000 0.000000
# 2 -0.010713 0.021780 -0.002590 0.000000 0.000000 0.000000
# 3 -0.001234 -0.002590 0.009570 0.000000 0.000000 0.000000
# 4 0.000000 0.000000 0.000000 -0.037247 0.000000 0.000000
# 5 0.000000 0.000000 0.000000 0.000000 0.051914 0.000000
# 6 0.000000 0.000000 0.000000 0.000000 0.000000 0.031519
#
#
# Mechanical properties :
#
#
# Convention : Reuss Voigt Hill
#
# Bulk Modulus (GPa) = 48.18820 48.69347 48.44084
# Shear Modulus (GPa) = 37.87908 16.52192 27.20050
#
# Velocity S-wave (km/s) = 4.19359 2.76960 3.55365
# Velocity P-wave (km/s) = 6.76910 5.73015 6.27118
#
# Compressibility (1/GPa) = 0.02075197
#
# Stress axis : x y z
#
# Youngs Moduli (GPa) = 54.12941 45.91397 104.49404
#
# Poissons Ratio (x) = 0.49186 0.12892
# Poissons Ratio (y) = 0.57987 0.27060
# Poissons Ratio (z) = 0.06678 0.11890
#
# Static dielectric constant tensor:
#      x y z
#    x 1.762800 0.000000 0.000000 
#    y 0.000000 2.002420 0.000000 
#    z 0.000000 0.000000 1.826710 
# 
# From -- ./inp_files/4445.got.cif
#   From: 2010.05.17/outbox.cif.g08.bks.cpg/sg56_3_cif.got.tgz:4445.got - 2010.06.03 13:42:01.
