data_PCOD9430900
_publ_section_title
;
Structure prediction by ZEFSAII (Michael W. Deem and Ramdas Pophale) SiO2 
 PCOD9430900
Probable space group: P C C N
;
_chemical_formula_sum "Si O2"
_cell_formula_units_Z 48
_cell_length_a 13.979906
_cell_length_b 9.580914
_cell_length_c 18.092317
_cell_angle_alpha 90.000000
_cell_angle_beta 90.000000
_cell_angle_gamma 90.000000
_cell_volume 2423.289953
_symmetry_space_group_name_H-M "P C C N"
_symmetry_group_IT_number 56
_symmetry_cell_setting 'orthorhombic'
loop_
_space_group_symop_operation_xyz
x,y,z
1/2-x,1/2-y,z
1/2+x,-y,1/2-z
-x,1/2+y,1/2-z
-x,-y,-z
1/2+x,1/2+y,-z
1/2-x,y,1/2+z
x,1/2-y,1/2+z
loop_
_atom_site_type_symbol
_atom_site_label
_atom_site_fract_x
_atom_site_fract_y
_atom_site_fract_z
Si Si1 0.250000 0.750000 0.042898
Si Si2 0.589655 0.225320 0.340843
Si Si3 0.750000 0.250000 0.720678
Si Si4 0.542068 0.915962 0.397053
Si Si5 0.654838 0.505494 0.033906
Si Si6 0.278883 0.440095 0.816240
Si Si7 0.406993 0.282976 0.256377
O O1 0.157745 0.716893 0.094449
O O2 0.274632 0.612659 0.996756
O O3 0.659765 0.214037 0.271520
O O4 0.495559 0.302999 0.312141
O O5 0.558953 0.072068 0.366519
O O6 0.775440 0.393036 0.680934
O O7 0.436562 0.921756 0.432023
O O8 0.561073 0.815856 0.327390
O O9 0.615313 0.903008 0.465537
O O10 0.699121 0.597697 0.099099
O O11 0.181315 0.379821 0.782291
O O12 0.364113 0.373297 0.767312
#
# Coordination Sequence:
#
# PCOD9430900 Si02
#       7
#     4   8   4   8   8   8   8
#     4   9  21  38  64  92 126 164 224 262 320 394
#     4  10  20  38  63  91 124 166 217 270 315 376
#     4  11  21  36  66  94 124 170 218 270 318 372
#     4  10  20  40  66  89 129 177 212 258 335 381
#     4  10  20  39  64  92 127 178 209 268 325 389
#     4  11  23  39  64  97 135 166 217 266 320 386
#     4  11  23  40  62  97 133 168 214 273 319 385
#
# _framework density 19.807780999999999
#
# number of rings (size 3 to 8) (size 9 to 14) (size 15 to 20)
#    0.000    1.667    3.333    1.500    0.000    0.000 
#    0.000    4.167    0.000    0.000    0.000    0.000 
#    0.000    0.000    0.000    0.000    0.000    0.000 
#
# Total GULP energy -267725.685282 kJ/mol
# GULP energy per Si atom -5577.618443 kJ/mol
# Density = 1.976270 g / cm^3
# Si number density = 19.807781 Si / 1000 Ang^3
#
#
#
# Elastic Constant Matrix: (Units=GPa)
#
#
# Indices 1 2 3 4 5 6 
#
# 1 100.7849 25.0941 46.2527 0.0000 0.0000 0.0000
# 2 25.0941 70.8541 33.3764 0.0000 0.0000 0.0000
# 3 46.2527 33.3764 122.1243 0.0000 0.0000 0.0000
# 4 0.0000 0.0000 0.0000 25.6601 0.0000 0.0000
# 5 0.0000 0.0000 0.0000 0.0000 86.3439 0.0000
# 6 0.0000 0.0000 0.0000 0.0000 0.0000 14.7718
#
#
#
# Elastic Compliance Matrix: (Units=1/GPa)
#
#
# Indices 1 2 3 4 5 6 
#
# 1 0.012383 -0.002498 -0.004007 0.000000 0.000000 0.000000
# 2 -0.002498 0.016703 -0.003619 0.000000 0.000000 0.000000
# 3 -0.004007 -0.003619 0.010695 0.000000 0.000000 0.000000
# 4 0.000000 0.000000 0.000000 0.038971 0.000000 0.000000
# 5 0.000000 0.000000 0.000000 0.000000 0.011582 0.000000
# 6 0.000000 0.000000 0.000000 0.000000 0.000000 0.067697
#
#
# Mechanical properties :
#
#
# Convention : Reuss Voigt Hill
#
# Bulk Modulus (GPa) = 51.19544 55.91217 53.55381
# Shear Modulus (GPa) = 27.05786 37.95783 32.50784
#
# Velocity S-wave (km/s) = 3.69998 4.38232 4.05552
# Velocity P-wave (km/s) = 6.64495 7.34132 7.00180
#
# Compressibility (1/GPa) = 0.01953299
#
# Stress axis : x y z
#
# Youngs Moduli (GPa) = 80.75520 59.86992 93.50123
#
# Poissons Ratio (x) = 0.14956 0.37468
# Poissons Ratio (y) = 0.20173 0.33836
# Poissons Ratio (z) = 0.32360 0.21666
#
# Static dielectric constant tensor:
#      x y z
#    x 1.715610 0.000000 0.000000 
#    y 0.000000 1.787260 0.000000 
#    z 0.000000 0.000000 1.722250 
# 
# From -- ./inp_files/15652.got.cif
#   From: 2010.05.17/outbox.cif.g08.bks.cpg/sg56_8_cif.got.tgz:15652.got - 2010.06.03 13:42:01.
