data_PCOD9430533
_publ_section_title
;
Structure prediction by ZEFSAII (Michael W. Deem and Ramdas Pophale) SiO2 
 PCOD9430533
Probable space group: P C C N
;
_chemical_formula_sum "Si O2"
_cell_formula_units_Z 64
_cell_length_a 17.201430
_cell_length_b 21.097344
_cell_length_c 9.455981
_cell_angle_alpha 90.000000
_cell_angle_beta 90.000000
_cell_angle_gamma 90.000000
_cell_volume 3431.617924
_symmetry_space_group_name_H-M "P C C N"
_symmetry_group_IT_number 56
_symmetry_cell_setting 'orthorhombic'
loop_
_space_group_symop_operation_xyz
x,y,z
1/2-x,1/2-y,z
1/2+x,-y,1/2-z
-x,1/2+y,1/2-z
-x,-y,-z
1/2+x,1/2+y,-z
1/2-x,y,1/2+z
x,1/2-y,1/2+z
loop_
_atom_site_type_symbol
_atom_site_label
_atom_site_fract_x
_atom_site_fract_y
_atom_site_fract_z
Si Si1 0.601608 0.447546 0.884068
Si Si2 0.582645 0.028978 0.852605
Si Si3 0.991577 0.918752 0.886651
Si Si4 0.907856 0.687127 0.911022
Si Si5 0.613827 0.820711 0.567081
Si Si6 0.248903 0.014365 0.685961
Si Si7 0.274823 0.105506 0.935905
Si Si8 0.469735 0.591110 0.391277
O O1 0.559105 0.516507 0.890065
O O2 0.688593 0.459711 0.835466
O O3 0.562972 0.404566 0.764904
O O4 0.574118 0.420118 0.031836
O O5 0.522931 0.077023 0.773854
O O6 0.662973 0.010908 0.775522
O O7 0.537517 0.962642 0.877995
O O8 0.593896 0.061509 0.004237
O O9 0.940205 0.868681 0.974683
O O10 0.900480 0.686115 0.737997
O O11 0.846133 0.642076 0.992291
O O12 0.991556 0.655974 0.939286
O O13 0.895281 0.754852 0.983427
O O14 0.701115 0.848124 0.561307
O O15 0.240293 0.045403 0.533443
O O16 0.280895 0.072056 0.783229
#
# Coordination Sequence:
#
# PCOD9430533 Si02
#       8
#     8   8   8   8   8   8   8   8
#     4  10  20  34  61  83 121 156 192 247 309 355
#     4  10  21  35  59  88 122 149 197 243 311 365
#     4  10  21  37  58  85 116 157 199 251 298 356
#     4  12  27  42  61  84 121 166 215 246 295 353
#     4  12  26  43  59  86 118 167 211 248 293 356
#     4  12  22  37  60  94 122 165 189 240 309 370
#     4  12  24  38  58  86 130 158 203 238 282 365
#     4  10  20  38  56  87 117 155 197 256 291 355
#
# _framework density 18.650095
#
# number of rings (size 3 to 8) (size 9 to 14) (size 15 to 20)
#    0.000    1.000    5.000    1.875    8.750    1.000 
#    0.000    0.000    0.000    0.000    0.000    5.250 
#    0.000    0.000    0.000    0.000    0.000    0.000 
#
# Total GULP energy -356334.617349 kJ/mol
# GULP energy per Si atom -5567.728396 kJ/mol
# Density = 1.860765 g / cm^3
# Si number density = 18.650095 Si / 1000 Ang^3
#
#
#
# Elastic Constant Matrix: (Units=GPa)
#
#
# Indices 1 2 3 4 5 6 
#
# 1 43.2980 23.9961 2.5758 0.0000 0.0000 0.0000
# 2 23.9961 40.1352 6.4129 0.0000 0.0000 0.0000
# 3 2.5758 6.4129 45.9728 0.0000 0.0000 0.0000
# 4 0.0000 0.0000 0.0000 22.3222 0.0000 0.0000
# 5 0.0000 0.0000 0.0000 0.0000 21.5313 0.0000
# 6 0.0000 0.0000 0.0000 0.0000 0.0000 12.7957
#
#
#
# Elastic Compliance Matrix: (Units=1/GPa)
#
#
# Indices 1 2 3 4 5 6 
#
# 1 0.034583 -0.020831 0.000968 0.000000 0.000000 0.000000
# 2 -0.020831 0.038032 -0.004138 0.000000 0.000000 0.000000
# 3 0.000968 -0.004138 0.022275 0.000000 0.000000 0.000000
# 4 0.000000 0.000000 0.000000 0.044798 0.000000 0.000000
# 5 0.000000 0.000000 0.000000 0.000000 0.046444 0.000000
# 6 0.000000 0.000000 0.000000 0.000000 0.000000 0.078151
#
#
# Mechanical properties :
#
#
# Convention : Reuss Voigt Hill
#
# Bulk Modulus (GPa) = 21.32768 21.70840 21.51804
# Shear Modulus (GPa) = 15.24787 17.75793 16.50290
#
# Velocity S-wave (km/s) = 2.86243 3.08906 2.97790
# Velocity P-wave (km/s) = 4.73130 4.93844 4.83598
#
# Compressibility (1/GPa) = 0.04688743
#
# Stress axis : x y z
#
# Youngs Moduli (GPa) = 28.91593 26.29391 44.89340
#
# Poissons Ratio (x) = 0.54774 -0.04347
# Poissons Ratio (y) = 0.60236 0.18577
# Poissons Ratio (z) = -0.02800 0.10880
#
# Static dielectric constant tensor:
#      x y z
#    x 1.724200 0.000000 0.000000 
#    y 0.000000 1.629730 0.000000 
#    z 0.000000 0.000000 1.701930 
# 
# From -- ./inp_files/4226.got.cif
#   From: 2010.05.17/outbox.cif.g08.bks.cpg/sg56_3_cif.got.tgz:4226.got - 2010.06.03 13:42:01.
