data_PCOD9430316
_publ_section_title
;
Structure prediction by ZEFSAII (Michael W. Deem and Ramdas Pophale) SiO2 
 PCOD9430316
Probable space group: P C C N
;
_chemical_formula_sum "Si O2"
_cell_formula_units_Z 52
_cell_length_a 7.886773
_cell_length_b 27.523619
_cell_length_c 9.179830
_cell_angle_alpha 90.000000
_cell_angle_beta 90.000000
_cell_angle_gamma 90.000000
_cell_volume 1992.688971
_symmetry_space_group_name_H-M "P C C N"
_symmetry_group_IT_number 56
_symmetry_cell_setting 'orthorhombic'
loop_
_space_group_symop_operation_xyz
x,y,z
1/2-x,1/2-y,z
1/2+x,-y,1/2-z
-x,1/2+y,1/2-z
-x,-y,-z
1/2+x,1/2+y,-z
1/2-x,y,1/2+z
x,1/2-y,1/2+z
loop_
_atom_site_type_symbol
_atom_site_label
_atom_site_fract_x
_atom_site_fract_y
_atom_site_fract_z
Si Si1 0.969686 0.704534 0.634428
Si Si2 0.250000 0.750000 0.920402
Si Si3 0.560898 0.589039 0.780126
Si Si4 0.404045 0.309082 0.350406
Si Si5 0.855042 0.062582 0.485572
Si Si6 0.739086 0.544500 0.519774
Si Si7 0.380980 0.656026 0.370639
O O1 0.781156 0.694099 0.576272
O O2 0.938906 0.756370 0.718934
O O3 0.108883 0.723289 0.521146
O O4 0.002565 0.655567 0.728882
O O5 0.216242 0.703868 0.818542
O O6 0.579480 0.646600 0.761355
O O7 0.396079 0.572796 0.684668
O O8 0.709648 0.563277 0.682698
O O9 0.606545 0.569974 0.938668
O O10 0.524287 0.324196 0.485204
O O11 0.785959 0.109432 0.569821
O O12 0.049941 0.057196 0.545903
O O13 0.754119 0.013550 0.509532
#
# Coordination Sequence:
#
# PCOD9430316 Si02
#       7
#     8   4   8   8   8   8   8
#     4  10  20  35  55  79 112 148 188 231 285 342
#     4  10  22  36  50  80 114 150 186 224 286 354
#     4   9  17  34  56  81 109 141 186 239 287 336
#     4   9  20  33  56  86 103 145 194 238 283 334
#     4   8  18  34  57  75 109 152 181 227 300 343
#     4   9  17  34  56  80 108 145 179 234 290 342
#     4  10  19  38  56  78 115 147 189 238 285 346
#
# _framework density 26.095392
#
# number of rings (size 3 to 8) (size 9 to 14) (size 15 to 20)
#    0.923    1.846    0.000    1.385    0.000    4.923 
#    2.769    0.769    0.000    0.000    0.000    0.000 
#    0.000    0.000    0.000    0.000    0.000    0.000 
#
# Total GULP energy -289803.048766 kJ/mol
# GULP energy per Si atom -5573.135553 kJ/mol
# Density = 2.603600 g / cm^3
# Si number density = 26.095392 Si / 1000 Ang^3
#
#
#
# Elastic Constant Matrix: (Units=GPa)
#
#
# Indices 1 2 3 4 5 6 
#
# 1 37.2635 -2.3681 2.4070 0.0000 0.0000 0.0000
# 2 -2.3681 89.5857 0.1138 0.0000 0.0000 0.0000
# 3 2.4070 0.1138 62.7070 0.0000 0.0000 0.0000
# 4 0.0000 0.0000 0.0000 26.0700 0.0000 0.0000
# 5 0.0000 0.0000 0.0000 0.0000 29.1766 0.0000
# 6 0.0000 0.0000 0.0000 0.0000 0.0000 24.4860
#
#
#
# Elastic Compliance Matrix: (Units=1/GPa)
#
#
# Indices 1 2 3 4 5 6 
#
# 1 0.026948 0.000714 -0.001036 0.000000 0.000000 0.000000
# 2 0.000714 0.011181 -0.000048 0.000000 0.000000 0.000000
# 3 -0.001036 -0.000048 0.015987 0.000000 0.000000 0.000000
# 4 0.000000 0.000000 0.000000 0.038358 0.000000 0.000000
# 5 0.000000 0.000000 0.000000 0.000000 0.034274 0.000000
# 6 0.000000 0.000000 0.000000 0.000000 0.000000 0.040840
#
#
# Mechanical properties :
#
#
# Convention : Reuss Voigt Hill
#
# Bulk Modulus (GPa) = 18.73461 21.09574 19.91518
# Shear Modulus (GPa) = 26.86434 28.57344 27.71889
#
# Velocity S-wave (km/s) = 3.21201 3.31261 3.26270
# Velocity P-wave (km/s) = 4.57721 4.76789 4.67353
#
# Compressibility (1/GPa) = 0.05337715
#
# Stress axis : x y z
#
# Youngs Moduli (GPa) = 37.10826 89.43410 62.55068
#
# Poissons Ratio (x) = -0.06383 0.06478
# Poissons Ratio (y) = -0.02648 0.00298
# Poissons Ratio (z) = 0.03843 0.00427
#
# Static dielectric constant tensor:
#      x y z
#    x 2.489440 0.000000 0.000000 
#    y 0.000000 2.133520 0.000000 
#    z 0.000000 0.000000 2.104460 
# 
# From -- ./inp_files/6495.got.cif
#   From: 2010.05.17/outbox.cif.g08.bks.cpg/sg56_4_cif.got.tgz:6495.got - 2010.06.03 13:42:01.
