data_PCOD9430145
_publ_section_title
;
Structure prediction by ZEFSAII (Michael W. Deem and Ramdas Pophale) SiO2 
 PCOD9430145
Probable space group: P C C N
;
_chemical_formula_sum "Si O2"
_cell_formula_units_Z 64
_cell_length_a 31.242529
_cell_length_b 5.576659
_cell_length_c 18.835134
_cell_angle_alpha 90.000000
_cell_angle_beta 90.000000
_cell_angle_gamma 90.000000
_cell_volume 3281.625253
_symmetry_space_group_name_H-M "P C C N"
_symmetry_group_IT_number 56
_symmetry_cell_setting 'orthorhombic'
loop_
_space_group_symop_operation_xyz
x,y,z
1/2-x,1/2-y,z
1/2+x,-y,1/2-z
-x,1/2+y,1/2-z
-x,-y,-z
1/2+x,1/2+y,-z
1/2-x,y,1/2+z
x,1/2-y,1/2+z
loop_
_atom_site_type_symbol
_atom_site_label
_atom_site_fract_x
_atom_site_fract_y
_atom_site_fract_z
Si Si1 0.356673 0.543025 0.881074
Si Si2 0.507245 0.099999 0.792180
Si Si3 0.125139 0.570211 0.990942
Si Si4 0.396081 0.933571 0.152858
Si Si5 0.919963 0.670958 0.143185
Si Si6 0.208080 0.876154 0.300684
Si Si7 0.134270 0.061430 0.220771
Si Si8 0.292604 0.151117 0.942572
O O1 0.400240 0.436966 0.849312
O O2 0.330280 0.700071 0.825249
O O3 0.322488 0.345814 0.904585
O O4 0.370263 0.675252 0.952839
O O5 0.502675 0.343033 0.745037
O O6 0.555086 0.083015 0.821074
O O7 0.470198 0.139475 0.850741
O O8 0.105235 0.560358 0.067635
O O9 0.098871 0.422766 0.931171
O O10 0.174295 0.480070 0.993638
O O11 0.373236 0.683952 0.176705
O O12 0.376409 0.185779 0.182130
O O13 0.897381 0.545750 0.210733
O O14 0.250000 0.750000 0.269651
O O15 0.183032 0.059719 0.250069
O O16 0.222172 0.989989 0.375918
O O17 0.250000 0.250000 0.977729
#
# Coordination Sequence:
#
# PCOD9430145 Si02
#       8
#     8   8   8   8   8   8   8   8
#     4  10  19  37  64  94 135 162 233 277 346 390
#     4  12  25  43  71 104 133 176 236 291 342 423
#     4  10  25  40  65  97 136 181 224 283 352 414
#     4  12  27  47  66  99 141 187 222 282 364 417
#     4  11  22  40  70  99 128 177 230 282 334 400
#     4  11  21  35  64 106 131 174 231 296 334 399
#     4  12  24  43  70  95 139 180 226 282 346 411
#     4  10  19  34  64  97 126 173 231 285 325 405
#
# _framework density 19.502531000000001
#
# number of rings (size 3 to 8) (size 9 to 14) (size 15 to 20)
#    0.000    1.000    7.500    0.750    5.250    0.500 
#    0.000    1.875    0.000    0.000    0.000    0.000 
#    0.000    0.000    0.000    0.000    0.000    0.000 
#
# Total GULP energy -356841.140269 kJ/mol
# GULP energy per Si atom -5575.642817 kJ/mol
# Density = 1.945814 g / cm^3
# Si number density = 19.502531 Si / 1000 Ang^3
#
#
#
# Elastic Constant Matrix: (Units=GPa)
#
#
# Indices 1 2 3 4 5 6 
#
# 1 85.0695 29.1035 32.3694 0.0000 0.0000 0.0000
# 2 29.1035 105.0668 38.6801 0.0000 0.0000 0.0000
# 3 32.3694 38.6801 100.6042 0.0000 0.0000 0.0000
# 4 0.0000 0.0000 0.0000 105.3356 0.0000 0.0000
# 5 0.0000 0.0000 0.0000 0.0000 26.6559 0.0000
# 6 0.0000 0.0000 0.0000 0.0000 0.0000 32.1549
#
#
#
# Elastic Compliance Matrix: (Units=1/GPa)
#
#
# Indices 1 2 3 4 5 6 
#
# 1 0.013971 -0.002580 -0.003503 0.000000 0.000000 0.000000
# 2 -0.002580 0.011564 -0.003616 0.000000 0.000000 0.000000
# 3 -0.003503 -0.003616 0.012457 0.000000 0.000000 0.000000
# 4 0.000000 0.000000 0.000000 0.009493 0.000000 0.000000
# 5 0.000000 0.000000 0.000000 0.000000 0.037515 0.000000
# 6 0.000000 0.000000 0.000000 0.000000 0.000000 0.031099
#
#
# Mechanical properties :
#
#
# Convention : Reuss Voigt Hill
#
# Bulk Modulus (GPa) = 53.78225 54.56070 54.17147
# Shear Modulus (GPa) = 35.28690 45.53512 40.41101
#
# Velocity S-wave (km/s) = 4.25826 4.83725 4.55696
# Velocity P-wave (km/s) = 7.19819 7.69647 7.45150
#
# Compressibility (1/GPa) = 0.01859350
#
# Stress axis : x y z
#
# Youngs Moduli (GPa) = 71.57809 86.47807 80.27467
#
# Poissons Ratio (x) = 0.22314 0.28120
# Poissons Ratio (y) = 0.18469 0.29025
# Poissons Ratio (z) = 0.25074 0.31268
#
# Static dielectric constant tensor:
#      x y z
#    x 1.616120 0.000000 0.000000 
#    y 0.000000 1.723140 0.000000 
#    z 0.000000 0.000000 1.662650 
# 
# From -- ./inp_files/17144.got.cif
#   From: 2010.05.17/outbox.cif.g08.bks.cpg/sg56_9_cif.got.tgz:17144.got - 2010.06.03 13:42:01.
