data_PCOD9430763
_publ_section_title
;
Structure prediction by ZEFSAII (Michael W. Deem and Ramdas Pophale) SiO2 
 PCOD9430763
Probable space group: P C C N
;
_chemical_formula_sum "Si O2"
_cell_formula_units_Z 48
_cell_length_a 15.416857
_cell_length_b 7.678519
_cell_length_c 18.129720
_cell_angle_alpha 90.000000
_cell_angle_beta 90.000000
_cell_angle_gamma 90.000000
_cell_volume 2146.171405
_symmetry_space_group_name_H-M "P C C N"
_symmetry_group_IT_number 56
_symmetry_cell_setting 'orthorhombic'
loop_
_space_group_symop_operation_xyz
x,y,z
1/2-x,1/2-y,z
1/2+x,-y,1/2-z
-x,1/2+y,1/2-z
-x,-y,-z
1/2+x,1/2+y,-z
1/2-x,y,1/2+z
x,1/2-y,1/2+z
loop_
_atom_site_type_symbol
_atom_site_label
_atom_site_fract_x
_atom_site_fract_y
_atom_site_fract_z
Si Si1 0.101589 0.762236 0.406809
Si Si2 0.836629 0.355662 0.450822
Si Si3 0.336207 0.356746 0.454341
Si Si4 0.999683 0.736775 0.131968
Si Si5 0.101855 0.228899 0.097849
Si Si6 0.498663 0.870150 0.783834
O O1 0.250000 0.750000 0.066276
O O2 0.152340 0.631291 0.460120
O O3 0.085004 0.766895 0.318440
O O4 0.146324 0.946984 0.426803
O O5 0.916857 0.245715 0.418920
O O6 0.852915 0.544227 0.415318
O O7 0.000537 0.260452 0.571330
O O8 0.250000 0.250000 0.435855
O O9 0.415324 0.251402 0.417725
O O10 0.347702 0.356577 0.542891
O O11 0.996142 0.557333 0.177538
O O12 0.003052 0.878912 0.196578
O O13 0.086236 0.282436 0.182695
#
# Coordination Sequence:
#
# PCOD9430763 Si02
#       6
#     8   8   8   8   8   8
#     4   9  20  39  58  89 116 159 207 252 312 371
#     4  12  23  36  60  90 124 159 204 258 316 380
#     4  11  21  37  63  89 120 155 203 265 318 378
#     4  11  21  41  58  85 121 154 211 246 326 376
#     4  10  20  37  61  88 116 160 205 250 313 370
#     4   9  21  36  66  80 114 168 196 263 307 386
#
# _framework density 22.365409
#
# number of rings (size 3 to 8) (size 9 to 14) (size 15 to 20)
#    1.000    0.667    1.667    4.000    0.000    0.000 
#    0.000    6.667    0.000    0.000    0.000    0.000 
#    0.000    0.000    0.000    0.000    0.000    0.000 
#
# Total GULP energy -267487.294916 kJ/mol
# GULP energy per Si atom -5572.651977 kJ/mol
# Density = 2.231450 g / cm^3
# Si number density = 22.365409 Si / 1000 Ang^3
#
#
#
# Elastic Constant Matrix: (Units=GPa)
#
#
# Indices 1 2 3 4 5 6 
#
# 1 152.7496 34.4290 25.7132 0.0000 0.0000 0.0000
# 2 34.4290 91.7654 2.7496 0.0000 0.0000 0.0000
# 3 25.7132 2.7496 67.5229 0.0000 0.0000 0.0000
# 4 0.0000 0.0000 0.0000 35.2096 0.0000 0.0000
# 5 0.0000 0.0000 0.0000 0.0000 7.3849 0.0000
# 6 0.0000 0.0000 0.0000 0.0000 0.0000 31.8296
#
#
#
# Elastic Compliance Matrix: (Units=1/GPa)
#
#
# Indices 1 2 3 4 5 6 
#
# 1 0.007645 -0.002785 -0.002798 0.000000 0.000000 0.000000
# 2 -0.002785 0.011925 0.000575 0.000000 0.000000 0.000000
# 3 -0.002798 0.000575 0.015852 0.000000 0.000000 0.000000
# 4 0.000000 0.000000 0.000000 0.028401 0.000000 0.000000
# 5 0.000000 0.000000 0.000000 0.000000 0.135411 0.000000
# 6 0.000000 0.000000 0.000000 0.000000 0.000000 0.031417
#
#
# Mechanical properties :
#
#
# Convention : Reuss Voigt Hill
#
# Bulk Modulus (GPa) = 39.36001 48.64682 44.00341
# Shear Modulus (GPa) = 20.06938 31.49457 25.78197
#
# Velocity S-wave (km/s) = 2.99881 3.75665 3.39892
# Velocity P-wave (km/s) = 5.44310 6.37296 5.92630
#
# Compressibility (1/GPa) = 0.02540650
#
# Stress axis : x y z
#
# Youngs Moduli (GPa) = 130.79957 83.85843 63.08400
#
# Poissons Ratio (x) = 0.23351 0.17651
# Poissons Ratio (y) = 0.36422 -0.03626
# Poissons Ratio (z) = 0.36598 -0.04820
#
# Static dielectric constant tensor:
#      x y z
#    x 1.819700 0.000000 0.000000 
#    y 0.000000 1.954910 0.000000 
#    z 0.000000 0.000000 1.845080 
# 
# From -- ./inp_files/14948.got.cif
#   From: 2010.05.17/outbox.cif.g08.bks.cpg/sg56_8_cif.got.tgz:14948.got - 2010.06.03 13:42:01.
