data_PCOD9430115
_publ_section_title
;
Structure prediction by ZEFSAII (Michael W. Deem and Ramdas Pophale) SiO2 
 PCOD9430115
Probable space group: P C C N
;
_chemical_formula_sum "Si O2"
_cell_formula_units_Z 24
_cell_length_a 5.022483
_cell_length_b 7.291518
_cell_length_c 25.723838
_cell_angle_alpha 90.000000
_cell_angle_beta 90.000000
_cell_angle_gamma 90.000000
_cell_volume 942.046182
_symmetry_space_group_name_H-M "P C C N"
_symmetry_group_IT_number 56
_symmetry_cell_setting 'orthorhombic'
loop_
_space_group_symop_operation_xyz
x,y,z
1/2-x,1/2-y,z
1/2+x,-y,1/2-z
-x,1/2+y,1/2-z
-x,-y,-z
1/2+x,1/2+y,-z
1/2-x,y,1/2+z
x,1/2-y,1/2+z
loop_
_atom_site_type_symbol
_atom_site_label
_atom_site_fract_x
_atom_site_fract_y
_atom_site_fract_z
Si Si1 0.802067 0.532622 0.951595
Si Si2 0.207592 0.527022 0.396918
Si Si3 0.381202 0.949551 0.281032
O O1 0.750000 0.750000 0.949136
O O2 0.503811 0.460234 0.940760
O O3 0.992431 0.461064 0.905450
O O4 0.000000 0.500000 0.000000
O O5 0.250000 0.750000 0.401135
O O6 0.101794 0.480766 0.340073
O O7 0.250000 0.750000 0.284830
O O8 0.666149 0.945684 0.254049
#
# Coordination Sequence:
#
# PCOD9430115 Si02
#       3
#     8   8   8
#     4  10  19  34  55  80 109 146 190 235 285 347
#     4   9  19  35  56  80 111 151 191 231 289 359
#     4  11  22  39  62  88 119 159 202 248 299 358
#
# _framework density 25.476458000000001
#
# number of rings (size 3 to 8) (size 9 to 14) (size 15 to 20)
#    0.000    2.000    0.000    4.000    0.000    5.333 
#    0.000    6.667    0.000    2.000    0.000    0.000 
#    0.000    0.000    0.000    0.000    0.000    0.000 
#
# Total GULP energy -134010.090866 kJ/mol
# GULP energy per Si atom -5583.753786 kJ/mol
# Density = 2.541847 g / cm^3
# Si number density = 25.476458 Si / 1000 Ang^3
#
#
#
# Elastic Constant Matrix: (Units=GPa)
#
#
# Indices 1 2 3 4 5 6 
#
# 1 212.4592 16.9087 67.5519 0.0000 0.0000 0.0000
# 2 16.9087 66.4613 4.1668 0.0000 0.0000 0.0000
# 3 67.5519 4.1668 139.7678 0.0000 0.0000 0.0000
# 4 0.0000 0.0000 0.0000 33.6239 0.0000 0.0000
# 5 0.0000 0.0000 0.0000 0.0000 46.3388 0.0000
# 6 0.0000 0.0000 0.0000 0.0000 0.0000 17.9262
#
#
#
# Elastic Compliance Matrix: (Units=1/GPa)
#
#
# Indices 1 2 3 4 5 6 
#
# 1 0.005667 -0.001272 -0.002701 0.000000 0.000000 0.000000
# 2 -0.001272 0.015360 0.000157 0.000000 0.000000 0.000000
# 3 -0.002701 0.000157 0.008455 0.000000 0.000000 0.000000
# 4 0.000000 0.000000 0.000000 0.029741 0.000000 0.000000
# 5 0.000000 0.000000 0.000000 0.000000 0.021580 0.000000
# 6 0.000000 0.000000 0.000000 0.000000 0.000000 0.055784
#
#
# Mechanical properties :
#
#
# Convention : Reuss Voigt Hill
#
# Bulk Modulus (GPa) = 45.76675 66.21590 55.99133
# Shear Modulus (GPa) = 33.00251 41.58183 37.29217
#
# Velocity S-wave (km/s) = 3.60309 4.04439 3.83010
# Velocity P-wave (km/s) = 5.94247 6.91787 6.44864
#
# Compressibility (1/GPa) = 0.02184992
#
# Stress axis : x y z
#
# Youngs Moduli (GPa) = 176.46598 65.10327 118.26710
#
# Poissons Ratio (x) = 0.08284 0.31943
# Poissons Ratio (y) = 0.22453 -0.01857
# Poissons Ratio (z) = 0.47662 -0.01022
#
# Static dielectric constant tensor:
#      x y z
#    x 1.928140 0.000000 0.000000 
#    y 0.000000 1.979670 0.000000 
#    z 0.000000 0.000000 2.088730 
# 
# From -- ./inp_files/19726.got.cif
#   From: 2010.05.17/outbox.cif.g08.bks.cpg/sg56_10_cif.got.tgz:19726.got - 2010.06.03 13:42:01.
