data_PCOD9430141
_publ_section_title
;
Structure prediction by ZEFSAII (Michael W. Deem and Ramdas Pophale) SiO2 
 PCOD9430141
Probable space group: P C C N
;
_chemical_formula_sum "Si O2"
_cell_formula_units_Z 48
_cell_length_a 9.726903
_cell_length_b 12.277161
_cell_length_c 18.745188
_cell_angle_alpha 90.000000
_cell_angle_beta 90.000000
_cell_angle_gamma 90.000000
_cell_volume 2238.526997
_symmetry_space_group_name_H-M "P C C N"
_symmetry_group_IT_number 56
_symmetry_cell_setting 'orthorhombic'
loop_
_space_group_symop_operation_xyz
x,y,z
1/2-x,1/2-y,z
1/2+x,-y,1/2-z
-x,1/2+y,1/2-z
-x,-y,-z
1/2+x,1/2+y,-z
1/2-x,y,1/2+z
x,1/2-y,1/2+z
loop_
_atom_site_type_symbol
_atom_site_label
_atom_site_fract_x
_atom_site_fract_y
_atom_site_fract_z
Si Si1 0.123335 0.679917 0.181592
Si Si2 0.979821 0.506327 0.084471
Si Si3 0.698648 0.507548 0.771007
Si Si4 0.057624 0.378222 0.291971
Si Si5 0.266898 0.374454 0.593898
Si Si6 0.291572 0.377641 0.926674
O O1 0.250000 0.750000 0.151353
O O2 0.054213 0.609873 0.119696
O O3 0.201341 0.597247 0.234481
O O4 0.012221 0.760247 0.216599
O O5 0.071576 0.403276 0.106199
O O6 0.820800 0.531944 0.098541
O O7 0.000000 0.500000 0.000000
O O8 0.787192 0.603556 0.735227
O O9 0.546679 0.464153 0.754248
O O10 0.690219 0.544706 0.853100
O O11 0.074677 0.394172 0.377790
O O12 0.250000 0.250000 0.613505
O O13 0.212739 0.388168 0.512675
O O14 0.250000 0.250000 0.913717
#
# Coordination Sequence:
#
# PCOD9430141 Si02
#       6
#     8   8   8   8   8   8
#     4   9  19  38  57  89 122 161 204 258 316 378
#     4   9  17  33  60  88 118 154 207 258 308 378
#     4  10  24  39  59  93 126 164 209 260 316 374
#     4  11  23  38  65  89 122 163 213 260 314 387
#     4   9  20  37  57  88 125 159 202 258 316 372
#     4  10  19  34  62  90 114 162 210 252 315 389
#
# _framework density 21.442672000000002
#
# number of rings (size 3 to 8) (size 9 to 14) (size 15 to 20)
#    0.000    2.333    1.667    0.000    4.667    2.667 
#    0.000    0.000    0.000    0.000    0.000    0.000 
#    0.000    0.000    0.000    0.000    0.000    0.000 
#
# Total GULP energy -267241.523805 kJ/mol
# GULP energy per Si atom -5567.531746 kJ/mol
# Density = 2.139387 g / cm^3
# Si number density = 21.442672 Si / 1000 Ang^3
#
#
#
# Elastic Constant Matrix: (Units=GPa)
#
#
# Indices 1 2 3 4 5 6 
#
# 1 81.6842 46.9406 30.7625 0.0000 0.0000 0.0000
# 2 46.9406 98.8557 16.4953 0.0000 0.0000 0.0000
# 3 30.7625 16.4953 59.0201 0.0000 0.0000 0.0000
# 4 0.0000 0.0000 0.0000 12.6535 0.0000 0.0000
# 5 0.0000 0.0000 0.0000 0.0000 27.1517 0.0000
# 6 0.0000 0.0000 0.0000 0.0000 0.0000 45.7381
#
#
#
# Elastic Compliance Matrix: (Units=1/GPa)
#
#
# Indices 1 2 3 4 5 6 
#
# 1 0.019980 -0.008129 -0.008142 0.000000 0.000000 0.000000
# 2 -0.008129 0.013918 0.000347 0.000000 0.000000 0.000000
# 3 -0.008142 0.000347 0.021090 0.000000 0.000000 0.000000
# 4 0.000000 0.000000 0.000000 0.079029 0.000000 0.000000
# 5 0.000000 0.000000 0.000000 0.000000 0.036830 0.000000
# 6 0.000000 0.000000 0.000000 0.000000 0.000000 0.021864
#
#
# Mechanical properties :
#
#
# Convention : Reuss Voigt Hill
#
# Bulk Modulus (GPa) = 43.21457 47.55076 45.38266
# Shear Modulus (GPa) = 21.52655 26.79942 24.16299
#
# Velocity S-wave (km/s) = 3.17189 3.53911 3.36052
# Velocity P-wave (km/s) = 5.79757 6.23893 6.02230
#
# Compressibility (1/GPa) = 0.02314034
#
# Stress axis : x y z
#
# Youngs Moduli (GPa) = 50.05066 71.85134 47.41542
#
# Poissons Ratio (x) = 0.58405 0.38606
# Poissons Ratio (y) = 0.40684 -0.01645
# Poissons Ratio (z) = 0.40751 -0.02493
#
# Static dielectric constant tensor:
#      x y z
#    x 1.870320 0.000000 0.000000 
#    y 0.000000 1.792170 0.000000 
#    z 0.000000 0.000000 1.893350 
# 
# From -- ./inp_files/20491.got.cif
#   From: 2010.05.17/outbox.cif.g08.bks.cpg/sg56_11_cif.got.tgz:20491.got - 2010.06.03 13:42:01.
