data_PCOD9430059
_publ_section_title
;
Structure prediction by ZEFSAII (Michael W. Deem and Ramdas Pophale) SiO2 
 PCOD9430059
Probable space group: P C C N
;
_chemical_formula_sum "Si O2"
_cell_formula_units_Z 60
_cell_length_a 12.896938
_cell_length_b 11.894201
_cell_length_c 21.574496
_cell_angle_alpha 90.000000
_cell_angle_beta 90.000000
_cell_angle_gamma 90.000000
_cell_volume 3309.501211
_symmetry_space_group_name_H-M "P C C N"
_symmetry_group_IT_number 56
_symmetry_cell_setting 'orthorhombic'
loop_
_space_group_symop_operation_xyz
x,y,z
1/2-x,1/2-y,z
1/2+x,-y,1/2-z
-x,1/2+y,1/2-z
-x,-y,-z
1/2+x,1/2+y,-z
1/2-x,y,1/2+z
x,1/2-y,1/2+z
loop_
_atom_site_type_symbol
_atom_site_label
_atom_site_fract_x
_atom_site_fract_y
_atom_site_fract_z
Si Si1 0.627285 0.274082 0.656084
Si Si2 0.250000 0.750000 0.059632
Si Si3 0.990490 0.216338 0.276525
Si Si4 0.432177 0.820427 0.472423
Si Si5 0.138435 0.001768 0.276272
Si Si6 0.069046 0.071161 0.936060
Si Si7 0.125208 0.882667 0.144243
Si Si8 0.824503 0.856397 0.187319
O O1 0.750000 0.250000 0.648814
O O2 0.579548 0.209523 0.715407
O O3 0.567912 0.238173 0.594111
O O4 0.615678 0.403934 0.674745
O O5 0.227211 0.855506 0.104847
O O6 0.149160 0.753772 0.015599
O O7 0.921085 0.260929 0.333758
O O8 0.075234 0.318408 0.273432
O O9 0.056716 0.103302 0.284173
O O10 0.539521 0.841842 0.509346
O O11 0.395683 0.949919 0.460507
O O12 0.135698 0.951321 0.207210
O O13 0.255563 0.043984 0.286519
O O14 0.142839 0.116942 0.882795
O O15 0.959155 0.058231 0.899663
O O16 0.750000 0.750000 0.187115
#
# Coordination Sequence:
#
# PCOD9430059 Si02
#       8
#     8   4   8   8   8   8   8   8
#     4  11  21  32  54  86 110 137 185 236 263 320
#     4  10  20  34  48  76 110 136 174 222 266 308
#     4   9  20  36  53  80 114 143 173 224 283 335
#     4  10  19  33  54  75 105 141 182 221 260 309
#     4  10  20  33  57  83 109 141 178 223 288 326
#     4   9  18  34  56  73 103 147 181 213 264 324
#     4   9  19  34  52  80 108 137 175 227 274 326
#     4   9  18  35  57  79 107 143 177 217 268 338
#
# _framework density 18.129619000000002
#
# number of rings (size 3 to 8) (size 9 to 14) (size 15 to 20)
#    0.000    2.400    0.667    1.600    3.733    2.133 
#    0.000    0.000    2.933    7.200    0.000    0.000 
#    0.000    0.000    0.000    0.000    0.000    0.000 
#
# Total GULP energy -334153.181819 kJ/mol
# GULP energy per Si atom -5569.219697 kJ/mol
# Density = 1.808836 g / cm^3
# Si number density = 18.129619 Si / 1000 Ang^3
#
#
#
# Elastic Constant Matrix: (Units=GPa)
#
#
# Indices 1 2 3 4 5 6 
#
# 1 55.9964 20.2664 26.0596 0.0000 0.0000 0.0000
# 2 20.2664 68.3596 34.5563 0.0000 0.0000 0.0000
# 3 26.0596 34.5563 105.1450 0.0000 0.0000 0.0000
# 4 0.0000 0.0000 0.0000 15.7953 0.0000 0.0000
# 5 0.0000 0.0000 0.0000 0.0000 24.3326 0.0000
# 6 0.0000 0.0000 0.0000 0.0000 0.0000 24.3409
#
#
#
# Elastic Compliance Matrix: (Units=1/GPa)
#
#
# Indices 1 2 3 4 5 6 
#
# 1 0.021215 -0.004355 -0.003827 0.000000 0.000000 0.000000
# 2 -0.004355 0.018437 -0.004980 0.000000 0.000000 0.000000
# 3 -0.003827 -0.004980 0.012096 0.000000 0.000000 0.000000
# 4 0.000000 0.000000 0.000000 0.063310 0.000000 0.000000
# 5 0.000000 0.000000 0.000000 0.000000 0.041097 0.000000
# 6 0.000000 0.000000 0.000000 0.000000 0.000000 0.041083
#
#
# Mechanical properties :
#
#
# Convention : Reuss Voigt Hill
#
# Bulk Modulus (GPa) = 39.33232 43.47396 41.40314
# Shear Modulus (GPa) = 21.54825 22.80167 22.17496
#
# Velocity S-wave (km/s) = 3.45130 3.55026 3.50113
# Velocity P-wave (km/s) = 6.13385 6.39041 6.26344
#
# Compressibility (1/GPa) = 0.02542438
#
# Stress axis : x y z
#
# Youngs Moduli (GPa) = 47.13545 54.23835 82.67321
#
# Poissons Ratio (x) = 0.23622 0.31637
# Poissons Ratio (y) = 0.20529 0.41171
# Poissons Ratio (z) = 0.18038 0.27011
#
# Static dielectric constant tensor:
#      x y z
#    x 1.656250 0.000000 0.000000 
#    y 0.000000 1.631220 0.000000 
#    z 0.000000 0.000000 1.627210 
# 
# From -- ./inp_files/18823.got.cif
#   From: 2010.05.17/outbox.cif.g08.bks.cpg/sg56_10_cif.got.tgz:18823.got - 2010.06.03 13:42:01.
