data_PCOD9430718
_publ_section_title
;
Structure prediction by ZEFSAII (Michael W. Deem and Ramdas Pophale) SiO2 
 PCOD9430718
Probable space group: P C C N
;
_chemical_formula_sum "Si O2"
_cell_formula_units_Z 44
_cell_length_a 8.113810
_cell_length_b 14.861328
_cell_length_c 15.297116
_cell_angle_alpha 90.000000
_cell_angle_beta 90.000000
_cell_angle_gamma 90.000000
_cell_volume 1844.556715
_symmetry_space_group_name_H-M "P C C N"
_symmetry_group_IT_number 56
_symmetry_cell_setting 'orthorhombic'
loop_
_space_group_symop_operation_xyz
x,y,z
1/2-x,1/2-y,z
1/2+x,-y,1/2-z
-x,1/2+y,1/2-z
-x,-y,-z
1/2+x,1/2+y,-z
1/2-x,y,1/2+z
x,1/2-y,1/2+z
loop_
_atom_site_type_symbol
_atom_site_label
_atom_site_fract_x
_atom_site_fract_y
_atom_site_fract_z
Si Si1 0.477472 0.229533 0.840160
Si Si2 0.299681 0.408083 0.466865
Si Si3 0.709404 0.416842 0.254620
Si Si4 0.250000 0.750000 0.526071
Si Si5 0.526700 0.580417 0.156950
Si Si6 0.573557 0.101936 0.090098
O O1 0.363441 0.170010 0.902082
O O2 0.580656 0.161311 0.779764
O O3 0.604718 0.274689 0.908511
O O4 0.416168 0.322967 0.800011
O O5 0.109626 0.421252 0.440078
O O6 0.385101 0.499127 0.433144
O O7 0.381749 0.386216 0.561065
O O8 0.614301 0.501308 0.213775
O O9 0.845168 0.384228 0.184296
O O10 0.830903 0.439773 0.335344
O O11 0.179671 0.831319 0.470150
#
# Coordination Sequence:
#
# PCOD9430718 Si02
#       6
#     8   8   8   4   8   8
#     4  11  21  41  66  96 130 184 224 268 346 412
#     4   9  20  40  63  88 131 175 222 267 332 401
#     4  11  22  39  65 102 135 171 228 285 330 401
#     4  10  20  36  66  92 124 178 222 258 340 406
#     4  11  22  38  66  96 130 179 221 272 339 410
#     4   9  20  37  63  94 125 172 218 277 326 384
#
# _framework density 23.853971000000001
#
# number of rings (size 3 to 8) (size 9 to 14) (size 15 to 20)
#    0.000    1.818    1.818    2.727    2.545    0.000 
#    0.000    3.636    4.000    2.182    0.000    0.000 
#    0.000    0.000    0.000    0.000    0.000    0.000 
#
# Total GULP energy -245172.510091 kJ/mol
# GULP energy per Si atom -5572.102502 kJ/mol
# Density = 2.379968 g / cm^3
# Si number density = 23.853971 Si / 1000 Ang^3
#
#
#
# Elastic Constant Matrix: (Units=GPa)
#
#
# Indices 1 2 3 4 5 6 
#
# 1 66.6850 24.0886 13.3909 0.0000 0.0000 0.0000
# 2 24.0886 144.2182 17.9363 0.0000 0.0000 0.0000
# 3 13.3909 17.9363 46.3443 0.0000 0.0000 0.0000
# 4 0.0000 0.0000 0.0000 23.5666 0.0000 0.0000
# 5 0.0000 0.0000 0.0000 0.0000 33.1480 0.0000
# 6 0.0000 0.0000 0.0000 0.0000 0.0000 34.3839
#
#
#
# Elastic Compliance Matrix: (Units=1/GPa)
#
#
# Indices 1 2 3 4 5 6 
#
# 1 0.016608 -0.002287 -0.003914 0.000000 0.000000 0.000000
# 2 -0.002287 0.007600 -0.002280 0.000000 0.000000 0.000000
# 3 -0.003914 -0.002280 0.023591 0.000000 0.000000 0.000000
# 4 0.000000 0.000000 0.000000 0.042433 0.000000 0.000000
# 5 0.000000 0.000000 0.000000 0.000000 0.030168 0.000000
# 6 0.000000 0.000000 0.000000 0.000000 0.000000 0.029083
#
#
# Mechanical properties :
#
#
# Convention : Reuss Voigt Hill
#
# Bulk Modulus (GPa) = 32.42939 40.89769 36.66354
# Shear Modulus (GPa) = 28.29276 31.67514 29.98395
#
# Velocity S-wave (km/s) = 3.44769 3.64796 3.54924
# Velocity P-wave (km/s) = 5.42893 5.90980 5.67446
#
# Compressibility (1/GPa) = 0.03083623
#
# Stress axis : x y z
#
# Youngs Moduli (GPa) = 60.21198 131.58623 42.38910
#
# Poissons Ratio (x) = 0.30098 0.16589
# Poissons Ratio (y) = 0.13772 0.09666
# Poissons Ratio (z) = 0.23564 0.30006
#
# Static dielectric constant tensor:
#      x y z
#    x 2.008080 0.000000 0.000000 
#    y 0.000000 1.878520 0.000000 
#    z 0.000000 0.000000 2.020940 
# 
# From -- ./inp_files/14689.got.cif
#   From: 2010.05.17/outbox.cif.g08.bks.cpg/sg56_8_cif.got.tgz:14689.got - 2010.06.03 13:42:01.
