data_PCOD9430941
_publ_section_title
;
Structure prediction by ZEFSAII (Michael W. Deem and Ramdas Pophale) SiO2 
 PCOD9430941
Probable space group: P C C N
;
_chemical_formula_sum "Si O2"
_cell_formula_units_Z 48
_cell_length_a 8.343197
_cell_length_b 11.276149
_cell_length_c 22.433510
_cell_angle_alpha 90.000000
_cell_angle_beta 90.000000
_cell_angle_gamma 90.000000
_cell_volume 2110.525160
_symmetry_space_group_name_H-M "P C C N"
_symmetry_group_IT_number 56
_symmetry_cell_setting 'orthorhombic'
loop_
_space_group_symop_operation_xyz
x,y,z
1/2-x,1/2-y,z
1/2+x,-y,1/2-z
-x,1/2+y,1/2-z
-x,-y,-z
1/2+x,1/2+y,-z
1/2-x,y,1/2+z
x,1/2-y,1/2+z
loop_
_atom_site_type_symbol
_atom_site_label
_atom_site_fract_x
_atom_site_fract_y
_atom_site_fract_z
Si Si1 0.172534 0.485523 0.555503
Si Si2 0.670288 0.126000 0.727225
Si Si3 0.630006 0.861371 0.044851
Si Si4 0.930464 0.789551 0.670448
Si Si5 0.092435 0.699143 0.477829
Si Si6 0.409224 0.961361 0.676455
O O1 0.281733 0.451353 0.498939
O O2 0.123915 0.616391 0.535144
O O3 0.212555 0.493368 0.625117
O O4 0.032821 0.384978 0.555953
O O5 0.750000 0.250000 0.705404
O O6 0.536785 0.158798 0.776787
O O7 0.811340 0.056069 0.762222
O O8 0.566288 0.044462 0.683161
O O9 0.750000 0.750000 0.050503
O O10 0.579952 0.877896 0.113314
O O11 0.486901 0.815616 0.004589
O O12 0.750000 0.750000 0.687923
O O13 0.022725 0.666588 0.656427
O O14 0.250000 0.750000 0.446301
#
# Coordination Sequence:
#
# PCOD9430941 Si02
#       6
#     8   8   8   8   8   8
#     4  10  22  39  62  91 130 169 210 270 326 394
#     4  10  24  42  67 101 129 173 233 277 332 389
#     4   9  19  37  59  93 124 165 214 257 324 386
#     4  10  20  38  67  94 128 168 220 278 321 398
#     4  10  21  37  58  91 126 162 211 260 314 388
#     4  11  22  43  65  95 132 174 221 278 332 393
#
# _framework density 22.743154000000001
#
# number of rings (size 3 to 8) (size 9 to 14) (size 15 to 20)
#    0.000    2.000    1.667    1.000    4.667    1.333 
#    0.000   12.500    0.000    0.000    0.000    0.000 
#    0.000    0.000    0.000    0.000    0.000    0.000 
#
# Total GULP energy -267394.886638 kJ/mol
# GULP energy per Si atom -5570.726805 kJ/mol
# Density = 2.269139 g / cm^3
# Si number density = 22.743154 Si / 1000 Ang^3
#
#
#
# Elastic Constant Matrix: (Units=GPa)
#
#
# Indices 1 2 3 4 5 6 
#
# 1 94.8538 22.8370 11.0825 0.0000 0.0000 0.0000
# 2 22.8370 61.4997 25.0323 0.0000 0.0000 0.0000
# 3 11.0825 25.0323 79.1681 0.0000 0.0000 0.0000
# 4 0.0000 0.0000 0.0000 -36.1222 0.0000 0.0000
# 5 0.0000 0.0000 0.0000 0.0000 -32.2858 0.0000
# 6 0.0000 0.0000 0.0000 0.0000 0.0000 33.8451
#
#
#
# Elastic Compliance Matrix: (Units=1/GPa)
#
#
# Indices 1 2 3 4 5 6 
#
# 1 0.011584 -0.004179 -0.000300 0.000000 0.000000 0.000000
# 2 -0.004179 0.020170 -0.005793 0.000000 0.000000 0.000000
# 3 -0.000300 -0.005793 0.014505 0.000000 0.000000 0.000000
# 4 0.000000 0.000000 0.000000 -0.027684 0.000000 0.000000
# 5 0.000000 0.000000 0.000000 0.000000 -0.030973 0.000000
# 6 0.000000 0.000000 0.000000 0.000000 0.000000 0.029546
#
#
# Mechanical properties :
#
#
# Convention : Reuss Voigt Hill
#
# Bulk Modulus (GPa) = 38.88820 39.26946 39.07883
# Shear Modulus (GPa) = 108.07698 4.85874 56.46786
#
# Velocity S-wave (km/s) = 6.90100 1.46321 4.98823
# Velocity P-wave (km/s) = 8.97967 4.48984 7.09905
#
# Compressibility (1/GPa) = 0.02571474
#
# Stress axis : x y z
#
# Youngs Moduli (GPa) = 86.32738 49.57883 68.94212
#
# Poissons Ratio (x) = 0.20721 0.02069
# Poissons Ratio (y) = 0.36079 0.39935
# Poissons Ratio (z) = 0.02591 0.28719
#
# Static dielectric constant tensor:
#      x y z
#    x 1.913460 0.000000 0.000000 
#    y 0.000000 1.818150 0.000000 
#    z 0.000000 0.000000 1.854870 
# 
# From -- ./inp_files/20509.got.cif
#   From: 2010.05.17/outbox.cif.g08.bks.cpg/sg56_11_cif.got.tgz:20509.got - 2010.06.03 13:42:01.
