data_PCOD9430780
_publ_section_title
;
Structure prediction by ZEFSAII (Michael W. Deem and Ramdas Pophale) SiO2 
 PCOD9430780
Probable space group: P C C N
;
_chemical_formula_sum "Si O2"
_cell_formula_units_Z 52
_cell_length_a 12.412127
_cell_length_b 8.421684
_cell_length_c 21.353020
_cell_angle_alpha 90.000000
_cell_angle_beta 90.000000
_cell_angle_gamma 90.000000
_cell_volume 2232.052776
_symmetry_space_group_name_H-M "P C C N"
_symmetry_group_IT_number 56
_symmetry_cell_setting 'orthorhombic'
loop_
_space_group_symop_operation_xyz
x,y,z
1/2-x,1/2-y,z
1/2+x,-y,1/2-z
-x,1/2+y,1/2-z
-x,-y,-z
1/2+x,1/2+y,-z
1/2-x,y,1/2+z
x,1/2-y,1/2+z
loop_
_atom_site_type_symbol
_atom_site_label
_atom_site_fract_x
_atom_site_fract_y
_atom_site_fract_z
Si Si1 0.122299 0.467761 0.524682
Si Si2 0.011720 0.716194 0.761104
Si Si3 0.750000 0.250000 0.541737
Si Si4 0.645156 0.053820 0.142707
Si Si5 0.869785 0.522444 0.690094
Si Si6 0.132945 0.826516 0.129719
Si Si7 0.083044 0.260633 0.424495
O O1 0.202575 0.601196 0.496243
O O2 0.133479 0.497764 0.598585
O O3 0.131810 0.296738 0.492316
O O4 0.000000 0.500000 0.500000
O O5 0.043882 0.592313 0.814764
O O6 0.083864 0.687581 0.698743
O O7 0.893228 0.671955 0.735823
O O8 0.047755 0.885356 0.788430
O O9 0.840620 0.185166 0.589167
O O10 0.750481 0.047991 0.187042
O O11 0.636979 0.888117 0.107859
O O12 0.891890 0.588245 0.620362
O O13 0.250000 0.750000 0.128707
O O14 0.046025 0.738954 0.083638
#
# Coordination Sequence:
#
# PCOD9430780 Si02
#       7
#     8   8   4   8   8   8   8
#     4  10  21  40  63  95 128 172 225 277 335 400
#     4  11  22  37  60  97 132 175 223 266 345 407
#     4  12  22  40  72  94 124 184 228 276 342 398
#     4  12  22  40  67  99 131 173 234 282 333 396
#     4  11  21  37  58  94 132 174 216 281 328 390
#     4  10  20  37  62  88 129 178 208 263 339 403
#     4  10  22  38  64  96 125 172 228 285 321 390
#
# _framework density 23.296939999999999
#
# number of rings (size 3 to 8) (size 9 to 14) (size 15 to 20)
#    0.000    1.231    3.846    3.231    0.000    0.000 
#    0.000    3.077    3.385    5.538   12.000    0.000 
#    0.000    0.000    0.000    0.000    0.000    0.000 
#
# Total GULP energy -290269.138255 kJ/mol
# GULP energy per Si atom -5582.098813 kJ/mol
# Density = 2.324392 g / cm^3
# Si number density = 23.296940 Si / 1000 Ang^3
#
#
#
# Elastic Constant Matrix: (Units=GPa)
#
#
# Indices 1 2 3 4 5 6 
#
# 1 68.3476 -7.3051 -10.7479 0.0000 0.0000 0.0000
# 2 -7.3051 83.2727 25.6102 0.0000 0.0000 0.0000
# 3 -10.7479 25.6102 76.7999 0.0000 0.0000 0.0000
# 4 0.0000 0.0000 0.0000 20.8881 0.0000 0.0000
# 5 0.0000 0.0000 0.0000 0.0000 14.3002 0.0000
# 6 0.0000 0.0000 0.0000 0.0000 0.0000 32.0819
#
#
#
# Elastic Compliance Matrix: (Units=1/GPa)
#
#
# Indices 1 2 3 4 5 6 
#
# 1 0.015002 0.000747 0.001850 0.000000 0.000000 0.000000
# 2 0.000747 0.013418 -0.004370 0.000000 0.000000 0.000000
# 3 0.001850 -0.004370 0.014737 0.000000 0.000000 0.000000
# 4 0.000000 0.000000 0.000000 0.047874 0.000000 0.000000
# 5 0.000000 0.000000 0.000000 0.000000 0.069929 0.000000
# 6 0.000000 0.000000 0.000000 0.000000 0.000000 0.031170
#
#
# Mechanical properties :
#
#
# Convention : Reuss Voigt Hill
#
# Bulk Modulus (GPa) = 25.24493 27.05939 26.15216
# Shear Modulus (GPa) = 23.93719 28.17825 26.05772
#
# Velocity S-wave (km/s) = 3.20891 3.48160 3.34803
# Velocity P-wave (km/s) = 4.95875 5.27278 5.11817
#
# Compressibility (1/GPa) = 0.03961192
#
# Stress axis : x y z
#
# Youngs Moduli (GPa) = 66.65819 74.52544 67.85613
#
# Poissons Ratio (x) = -0.05567 -0.12556
# Poissons Ratio (y) = -0.04979 0.29653
# Poissons Ratio (z) = -0.12334 0.32568
#
# Static dielectric constant tensor:
#      x y z
#    x 1.961830 0.000000 0.000000 
#    y 0.000000 1.993290 0.000000 
#    z 0.000000 0.000000 1.916420 
# 
# From -- ./inp_files/19066.got.cif
#   From: 2010.05.17/outbox.cif.g08.bks.cpg/sg56_10_cif.got.tgz:19066.got - 2010.06.03 13:42:01.
