data_PCOD9430104
_publ_section_title
;
Structure prediction by ZEFSAII (Michael W. Deem and Ramdas Pophale) SiO2 
 PCOD9430104
Probable space group: P C C N
;
_chemical_formula_sum "Si O2"
_cell_formula_units_Z 64
_cell_length_a 29.380672
_cell_length_b 14.271906
_cell_length_c 8.758273
_cell_angle_alpha 90.000000
_cell_angle_beta 90.000000
_cell_angle_gamma 90.000000
_cell_volume 3672.503173
_symmetry_space_group_name_H-M "P C C N"
_symmetry_group_IT_number 56
_symmetry_cell_setting 'orthorhombic'
loop_
_space_group_symop_operation_xyz
x,y,z
1/2-x,1/2-y,z
1/2+x,-y,1/2-z
-x,1/2+y,1/2-z
-x,-y,-z
1/2+x,1/2+y,-z
1/2-x,y,1/2+z
x,1/2-y,1/2+z
loop_
_atom_site_type_symbol
_atom_site_label
_atom_site_fract_x
_atom_site_fract_y
_atom_site_fract_z
Si Si1 0.977736 0.652340 0.124340
Si Si2 0.688383 0.414669 0.070481
Si Si3 0.141904 0.784017 0.385009
Si Si4 0.401072 0.000218 0.391655
Si Si5 0.460316 0.154614 0.227836
Si Si6 0.032009 0.978441 0.146985
Si Si7 0.768156 0.148248 0.783458
Si Si8 0.583253 0.171223 0.837136
O O1 0.957129 0.738634 0.219134
O O2 0.971629 0.559085 0.225553
O O3 0.031462 0.676831 0.107772
O O4 0.957410 0.643807 0.954637
O O5 0.658934 0.318256 0.057841
O O6 0.653238 0.496575 0.103749
O O7 0.725541 0.395496 0.198266
O O8 0.715554 0.419987 0.914834
O O9 0.187599 0.831258 0.320686
O O10 0.117508 0.839242 0.520802
O O11 0.104166 0.758582 0.257296
O O12 0.415756 0.916563 0.277710
O O13 0.423796 0.092410 0.320446
O O14 0.419632 0.977239 0.562008
O O15 0.509596 0.113233 0.279306
O O16 0.000000 0.000000 0.000000
O O17 0.750000 0.250000 0.843610
#
# Coordination Sequence:
#
# PCOD9430104 Si02
#       8
#     8   8   8   8   8   8   8   8
#     4  12  23  37  62  82 112 165 195 238 304 341
#     4  10  21  33  52  76 107 155 184 245 280 342
#     4  10  20  31  49  75 112 150 197 229 266 338
#     4  10  23  38  52  76 118 149 192 252 287 329
#     4  11  23  38  57  82 115 151 201 249 286 355
#     4  10  20  39  55  80 115 149 196 250 286 337
#     4  10  19  34  52  76 109 150 196 230 291 347
#     4  11  21  33  50  82 112 155 200 230 276 337
#
# _framework density 17.426805999999999
#
# number of rings (size 3 to 8) (size 9 to 14) (size 15 to 20)
#    0.000    1.500    3.750    3.750    7.000    1.000 
#    0.000    0.000    0.000    0.000    0.000    0.000 
#    0.000   12.000    0.000    0.000    0.000    0.000 
#
# Total GULP energy -357072.759852 kJ/mol
# GULP energy per Si atom -5579.261873 kJ/mol
# Density = 1.738714 g / cm^3
# Si number density = 17.426806 Si / 1000 Ang^3
#
#
#
# Elastic Constant Matrix: (Units=GPa)
#
#
# Indices 1 2 3 4 5 6 
#
# 1 82.9100 9.6344 11.2636 0.0000 0.0000 0.0000
# 2 9.6344 36.8089 5.7263 0.0000 0.0000 0.0000
# 3 11.2636 5.7263 74.3644 0.0000 0.0000 0.0000
# 4 0.0000 0.0000 0.0000 24.2128 0.0000 0.0000
# 5 0.0000 0.0000 0.0000 0.0000 31.1754 0.0000
# 6 0.0000 0.0000 0.0000 0.0000 0.0000 22.8521
#
#
#
# Elastic Compliance Matrix: (Units=1/GPa)
#
#
# Indices 1 2 3 4 5 6 
#
# 1 0.012644 -0.003048 -0.001680 0.000000 0.000000 0.000000
# 2 -0.003048 0.028231 -0.001712 0.000000 0.000000 0.000000
# 3 -0.001680 -0.001712 0.013834 0.000000 0.000000 0.000000
# 4 0.000000 0.000000 0.000000 0.041301 0.000000 0.000000
# 5 0.000000 0.000000 0.000000 0.000000 0.032077 0.000000
# 6 0.000000 0.000000 0.000000 0.000000 0.000000 0.043760
#
#
# Mechanical properties :
#
#
# Convention : Reuss Voigt Hill
#
# Bulk Modulus (GPa) = 23.90762 27.48133 25.69448
# Shear Modulus (GPa) = 25.16744 26.81200 25.98972
#
# Velocity S-wave (km/s) = 3.80436 3.92669 3.86601
# Velocity P-wave (km/s) = 5.74858 6.03012 5.89103
#
# Compressibility (1/GPa) = 0.04182767
#
# Stress axis : x y z
#
# Youngs Moduli (GPa) = 79.09052 35.42144 72.28748
#
# Poissons Ratio (x) = 0.10796 0.12147
# Poissons Ratio (y) = 0.24107 0.12377
# Poissons Ratio (z) = 0.13290 0.06065
#
# Static dielectric constant tensor:
#      x y z
#    x 1.636440 0.000000 0.000000 
#    y 0.000000 1.593070 0.000000 
#    z 0.000000 0.000000 1.633510 
# 
# From -- ./inp_files/5236.got.cif
#   From: 2010.05.17/outbox.cif.g08.bks.cpg/sg56_3_cif.got.tgz:5236.got - 2010.06.03 13:42:01.
