data_PCOD9430860
_publ_section_title
;
Structure prediction by ZEFSAII (Michael W. Deem and Ramdas Pophale) SiO2 
 PCOD9430860
Probable space group: P C C N
;
_chemical_formula_sum "Si O2"
_cell_formula_units_Z 24
_cell_length_a 14.513032
_cell_length_b 4.907956
_cell_length_c 16.991258
_cell_angle_alpha 90.000000
_cell_angle_beta 90.000000
_cell_angle_gamma 90.000000
_cell_volume 1210.275795
_symmetry_space_group_name_H-M "P C C N"
_symmetry_group_IT_number 56
_symmetry_cell_setting 'orthorhombic'
loop_
_space_group_symop_operation_xyz
x,y,z
1/2-x,1/2-y,z
1/2+x,-y,1/2-z
-x,1/2+y,1/2-z
-x,-y,-z
1/2+x,1/2+y,-z
1/2-x,y,1/2+z
x,1/2-y,1/2+z
loop_
_atom_site_type_symbol
_atom_site_label
_atom_site_fract_x
_atom_site_fract_y
_atom_site_fract_z
Si Si1 0.689365 0.499123 0.653223
Si Si2 0.982852 0.754630 0.557247
Si Si3 0.446305 0.735055 0.724422
O O1 0.750000 0.750000 0.682782
O O2 0.614799 0.654901 0.597437
O O3 0.637380 0.348154 0.724668
O O4 0.750000 0.250000 0.615754
O O5 0.000000 0.500000 0.500000
O O6 0.052701 0.732260 0.630957
O O7 0.000000 0.000000 0.500000
O O8 0.468826 0.423970 0.745350
#
# Coordination Sequence:
#
# PCOD9430860 Si02
#       3
#     8   8   8
#     4  11  22  39  61  88 119 158 207 260 301 347
#     4  11  22  39  62  88 121 160 198 244 307 376
#     4  10  20  38  61  84 113 158 203 234 286 371
#
# _framework density 19.830190000000002
#
# number of rings (size 3 to 8) (size 9 to 14) (size 15 to 20)
#    0.000    1.333    0.000   10.000    0.000    0.000 
#    0.000   10.000    0.000    0.000    0.000    0.000 
#    0.000    0.000    0.000    0.000    0.000    0.000 
#
# Total GULP energy -133666.702658 kJ/mol
# GULP energy per Si atom -5569.445944 kJ/mol
# Density = 1.978506 g / cm^3
# Si number density = 19.830190 Si / 1000 Ang^3
#
#
#
# Elastic Constant Matrix: (Units=GPa)
#
#
# Indices 1 2 3 4 5 6 
#
# 1 86.2041 25.2789 26.2978 0.0000 0.0000 0.0000
# 2 25.2789 125.2529 32.5683 0.0000 0.0000 0.0000
# 3 26.2978 32.5683 144.0958 0.0000 0.0000 0.0000
# 4 0.0000 0.0000 0.0000 46.9741 0.0000 0.0000
# 5 0.0000 0.0000 0.0000 0.0000 17.9831 0.0000
# 6 0.0000 0.0000 0.0000 0.0000 0.0000 42.5253
#
#
#
# Elastic Compliance Matrix: (Units=1/GPa)
#
#
# Indices 1 2 3 4 5 6 
#
# 1 0.012782 -0.002096 -0.001859 0.000000 0.000000 0.000000
# 2 -0.002096 0.008826 -0.001612 0.000000 0.000000 0.000000
# 3 -0.001859 -0.001612 0.007643 0.000000 0.000000 0.000000
# 4 0.000000 0.000000 0.000000 0.021288 0.000000 0.000000
# 5 0.000000 0.000000 0.000000 0.000000 0.055608 0.000000
# 6 0.000000 0.000000 0.000000 0.000000 0.000000 0.023515
#
#
# Mechanical properties :
#
#
# Convention : Reuss Voigt Hill
#
# Bulk Modulus (GPa) = 55.19782 58.20472 56.70127
# Shear Modulus (GPa) = 34.05126 39.59037 36.82082
#
# Velocity S-wave (km/s) = 4.14834 4.47303 4.31374
# Velocity P-wave (km/s) = 7.13026 7.48950 7.31209
#
# Compressibility (1/GPa) = 0.01811666
#
# Stress axis : x y z
#
# Youngs Moduli (GPa) = 78.23358 113.29943 130.83015
#
# Poissons Ratio (x) = 0.23752 0.24321
# Poissons Ratio (y) = 0.16401 0.21094
# Poissons Ratio (z) = 0.14543 0.18267
#
# Static dielectric constant tensor:
#      x y z
#    x 1.855400 0.000000 0.000000 
#    y 0.000000 1.788090 0.000000 
#    z 0.000000 0.000000 1.695680 
# 
# From -- ./inp_files/9270.got.cif
#   From: 2010.05.17/outbox.cif.g08.bks.cpg/sg56_5_cif.got.tgz:9270.got - 2010.06.03 13:42:01.
