data_PCOD9430212
_publ_section_title
;
Structure prediction by ZEFSAII (Michael W. Deem and Ramdas Pophale) SiO2 
 PCOD9430212
Probable space group: P C C N
;
_chemical_formula_sum "Si O2"
_cell_formula_units_Z 52
_cell_length_a 13.766415
_cell_length_b 8.428214
_cell_length_c 20.719441
_cell_angle_alpha 90.000000
_cell_angle_beta 90.000000
_cell_angle_gamma 90.000000
_cell_volume 2403.999904
_symmetry_space_group_name_H-M "P C C N"
_symmetry_group_IT_number 56
_symmetry_cell_setting 'orthorhombic'
loop_
_space_group_symop_operation_xyz
x,y,z
1/2-x,1/2-y,z
1/2+x,-y,1/2-z
-x,1/2+y,1/2-z
-x,-y,-z
1/2+x,1/2+y,-z
1/2-x,y,1/2+z
x,1/2-y,1/2+z
loop_
_atom_site_type_symbol
_atom_site_label
_atom_site_fract_x
_atom_site_fract_y
_atom_site_fract_z
Si Si1 0.049571 0.145257 0.587483
Si Si2 0.565821 0.407142 0.704939
Si Si3 0.250000 0.750000 0.250930
Si Si4 0.230918 0.010926 0.657502
Si Si5 0.028765 0.785442 0.540794
Si Si6 0.750000 0.750000 0.239036
Si Si7 0.250000 0.750000 0.556675
Si Si8 0.051888 0.280227 0.324213
O O1 0.982783 0.192342 0.647175
O O2 0.034447 0.246806 0.523171
O O3 0.153974 0.119576 0.620167
O O4 0.019120 0.968646 0.563880
O O5 0.676230 0.352330 0.708385
O O6 0.550034 0.591029 0.689233
O O7 0.514591 0.367824 0.772261
O O8 0.310146 0.870248 0.204143
O O9 0.274843 0.903112 0.601454
O O10 0.287213 0.117555 0.709393
O O11 0.144581 0.774719 0.524326
O O12 0.987985 0.692300 0.603419
O O13 0.663805 0.681727 0.194998
#
# Coordination Sequence:
#
# PCOD9430212 Si02
#       8
#     8   8   4   8   8   4   4   8
#     4   9  18  35  56  83 115 155 196 239 296 358
#     4  11  21  36  59  87 116 151 198 249 300 353
#     4  11  20  33  56  92 121 149 196 256 297 349
#     4  10  19  36  56  84 115 155 196 242 294 353
#     4   9  19  35  58  84 116 153 197 242 297 358
#     4  12  22  36  56  88 118 152 196 240 302 360
#     4   9  18  35  60  84 115 151 196 240 293 351
#     4  11  23  36  60  86 116 153 196 252 299 359
#
# _framework density 21.630617000000001
#
# number of rings (size 3 to 8) (size 9 to 14) (size 15 to 20)
#    0.000    1.846    3.077    3.692    0.000    0.615 
#    0.000    0.769    0.000    3.692    0.000    0.000 
#    0.000    0.000    0.000    0.000    0.000    0.000 
#
# Total GULP energy -289470.257416 kJ/mol
# GULP energy per Si atom -5566.735720 kJ/mol
# Density = 2.158139 g / cm^3
# Si number density = 21.630617 Si / 1000 Ang^3
#
#
#
# Elastic Constant Matrix: (Units=GPa)
#
#
# Indices 1 2 3 4 5 6 
#
# 1 94.3732 5.2130 44.0508 0.0000 0.0000 0.0000
# 2 5.2130 30.5248 6.1867 0.0000 0.0000 0.0000
# 3 44.0508 6.1867 130.5029 0.0000 0.0000 0.0000
# 4 0.0000 0.0000 0.0000 7.5064 0.0000 0.0000
# 5 0.0000 0.0000 0.0000 0.0000 -15.3852 0.0000
# 6 0.0000 0.0000 0.0000 0.0000 0.0000 19.9326
#
#
#
# Elastic Compliance Matrix: (Units=1/GPa)
#
#
# Indices 1 2 3 4 5 6 
#
# 1 0.012629 -0.001305 -0.004201 0.000000 0.000000 0.000000
# 2 -0.001305 0.033213 -0.001134 0.000000 0.000000 0.000000
# 3 -0.004201 -0.001134 0.009134 0.000000 0.000000 0.000000
# 4 0.000000 0.000000 0.000000 0.133220 0.000000 0.000000
# 5 0.000000 0.000000 0.000000 0.000000 -0.064998 0.000000
# 6 0.000000 0.000000 0.000000 0.000000 0.000000 0.050169
#
#
# Mechanical properties :
#
#
# Convention : Reuss Voigt Hill
#
# Bulk Modulus (GPa) = 23.98307 40.70021 32.34164
# Shear Modulus (GPa) = 24.93173 15.74079 20.33626
#
# Velocity S-wave (km/s) = 3.39870 2.70053 3.06953
# Velocity P-wave (km/s) = 5.14909 5.34609 5.24852
#
# Compressibility (1/GPa) = 0.04169608
#
# Stress axis : x y z
#
# Youngs Moduli (GPa) = 79.18104 30.10868 109.47527
#
# Poissons Ratio (x) = 0.03930 0.45991
# Poissons Ratio (y) = 0.10336 0.12413
# Poissons Ratio (z) = 0.33265 0.03414
#
# Static dielectric constant tensor:
#      x y z
#    x 1.842130 0.000000 0.000000 
#    y 0.000000 1.885360 0.000000 
#    z 0.000000 0.000000 1.804860 
# 
# From -- ./inp_files/19100.got.cif
#   From: 2010.05.17/outbox.cif.g08.bks.cpg/sg56_10_cif.got.tgz:19100.got - 2010.06.03 13:42:01.
