data_PCOD9430959
_publ_section_title
;
Structure prediction by ZEFSAII (Michael W. Deem and Ramdas Pophale) SiO2 
 PCOD9430959
Probable space group: P C C N
;
_chemical_formula_sum "Si O2"
_cell_formula_units_Z 40
_cell_length_a 5.116728
_cell_length_b 27.813762
_cell_length_c 13.992752
_cell_angle_alpha 90.000000
_cell_angle_beta 90.000000
_cell_angle_gamma 90.000000
_cell_volume 1991.384865
_symmetry_space_group_name_H-M "P C C N"
_symmetry_group_IT_number 56
_symmetry_cell_setting 'orthorhombic'
loop_
_space_group_symop_operation_xyz
x,y,z
1/2-x,1/2-y,z
1/2+x,-y,1/2-z
-x,1/2+y,1/2-z
-x,-y,-z
1/2+x,1/2+y,-z
1/2-x,y,1/2+z
x,1/2-y,1/2+z
loop_
_atom_site_type_symbol
_atom_site_label
_atom_site_fract_x
_atom_site_fract_y
_atom_site_fract_z
Si Si1 0.250000 0.250000 0.239850
Si Si2 0.707395 0.305221 0.953907
Si Si3 0.250000 0.750000 0.870858
Si Si4 0.187384 0.158720 0.365149
Si Si5 0.003630 0.493540 0.384685
Si Si6 0.001271 0.056939 0.296157
O O1 0.501828 0.231068 0.184354
O O2 0.149533 0.204989 0.299233
O O3 0.750000 0.250000 0.914759
O O4 0.483342 0.335495 0.902114
O O5 0.981170 0.332435 0.950098
O O6 0.634636 0.291993 0.061812
O O7 0.093318 0.111396 0.311393
O O8 0.777376 0.457657 0.343572
O O9 0.980130 0.540338 0.314944
O O10 0.000000 0.500000 0.500000
O O11 0.284565 0.472922 0.355640
#
# Coordination Sequence:
#
# PCOD9430959 Si02
#       6
#     4   8   4   8   8   8
#     4  12  20  36  58  86 128 160 210 262 302 362
#     4  10  20  39  56  76 121 169 204 245 308 363
#     4  10  22  36  54  82 116 170 208 258 294 352
#     4  12  21  39  62  87 120 171 206 249 320 375
#     4  10  21  45  68  93 128 165 202 270 332 381
#     4  10  23  40  67  96 128 160 213 262 319 392
#
# _framework density 20.086524000000001
#
# number of rings (size 3 to 8) (size 9 to 14) (size 15 to 20)
#    0.600    0.800    2.000    4.200    0.000    0.000 
#   10.800    0.000    0.000    0.000    0.000    0.000 
#    0.000    0.000    0.000    0.000    0.000    0.000 
#
# Total GULP energy -222707.313813 kJ/mol
# GULP energy per Si atom -5567.682845 kJ/mol
# Density = 2.004081 g / cm^3
# Si number density = 20.086524 Si / 1000 Ang^3
#
#
#
# Elastic Constant Matrix: (Units=GPa)
#
#
# Indices 1 2 3 4 5 6 
#
# 1 95.5855 -7.0989 10.0820 0.0000 0.0000 0.0000
# 2 -7.0989 54.9395 4.5474 0.0000 0.0000 0.0000
# 3 10.0820 4.5474 100.5247 0.0000 0.0000 0.0000
# 4 0.0000 0.0000 0.0000 27.7065 0.0000 0.0000
# 5 0.0000 0.0000 0.0000 0.0000 30.6442 0.0000
# 6 0.0000 0.0000 0.0000 0.0000 0.0000 26.4346
#
#
#
# Elastic Compliance Matrix: (Units=1/GPa)
#
#
# Indices 1 2 3 4 5 6 
#
# 1 0.010692 0.001476 -0.001139 0.000000 0.000000 0.000000
# 2 0.001476 0.018474 -0.000984 0.000000 0.000000 0.000000
# 3 -0.001139 -0.000984 0.010107 0.000000 0.000000 0.000000
# 4 0.000000 0.000000 0.000000 0.036093 0.000000 0.000000
# 5 0.000000 0.000000 0.000000 0.000000 0.032633 0.000000
# 6 0.000000 0.000000 0.000000 0.000000 0.000000 0.037829
#
#
# Mechanical properties :
#
#
# Convention : Reuss Voigt Hill
#
# Bulk Modulus (GPa) = 26.33098 29.56786 27.94942
# Shear Modulus (GPa) = 31.29307 33.19168 32.24237
#
# Velocity S-wave (km/s) = 3.95132 4.06943 4.01081
# Velocity P-wave (km/s) = 5.82705 6.06898 5.94924
#
# Compressibility (1/GPa) = 0.03797808
#
# Stress axis : x y z
#
# Youngs Moduli (GPa) = 93.53147 54.13031 98.94584
#
# Poissons Ratio (x) = -0.07988 0.11270
# Poissons Ratio (y) = -0.13803 0.09733
# Poissons Ratio (z) = 0.10654 0.05325
#
# Static dielectric constant tensor:
#      x y z
#    x 1.273740 0.000000 0.000000 
#    y 0.000000 1.717120 0.000000 
#    z 0.000000 0.000000 1.747480 
# 
# From -- ./inp_files/5656.got.cif
#   From: 2010.05.17/outbox.cif.g08.bks.cpg/sg56_3_cif.got.tgz:5656.got - 2010.06.03 13:42:01.
