data_PCOD9430173
_publ_section_title
;
Structure prediction by ZEFSAII (Michael W. Deem and Ramdas Pophale) SiO2 
 PCOD9430173
Probable space group: P C C N
;
_chemical_formula_sum "Si O2"
_cell_formula_units_Z 60
_cell_length_a 14.906179
_cell_length_b 9.256437
_cell_length_c 20.479870
_cell_angle_alpha 90.000000
_cell_angle_beta 90.000000
_cell_angle_gamma 90.000000
_cell_volume 2825.773691
_symmetry_space_group_name_H-M "P C C N"
_symmetry_group_IT_number 56
_symmetry_cell_setting 'orthorhombic'
loop_
_space_group_symop_operation_xyz
x,y,z
1/2-x,1/2-y,z
1/2+x,-y,1/2-z
-x,1/2+y,1/2-z
-x,-y,-z
1/2+x,1/2+y,-z
1/2-x,y,1/2+z
x,1/2-y,1/2+z
loop_
_atom_site_type_symbol
_atom_site_label
_atom_site_fract_x
_atom_site_fract_y
_atom_site_fract_z
Si Si1 0.152399 0.620979 0.246462
Si Si2 0.620620 0.399418 0.397929
Si Si3 0.491181 0.845166 0.884883
Si Si4 0.668480 0.444634 0.699118
Si Si5 0.750000 0.250000 0.002786
Si Si6 0.901771 0.081151 0.043902
Si Si7 0.467898 0.896765 0.600271
Si Si8 0.451017 0.114168 0.713314
O O1 0.173258 0.586359 0.170778
O O2 0.223731 0.548864 0.295918
O O3 0.154606 0.793476 0.260233
O O4 0.049655 0.576924 0.258869
O O5 0.561854 0.540522 0.412480
O O6 0.684497 0.342116 0.455537
O O7 0.550728 0.268569 0.385999
O O8 0.396206 0.915533 0.862951
O O9 0.465177 0.713328 0.932336
O O10 0.537271 0.768213 0.821793
O O11 0.624358 0.583590 0.733637
O O12 0.802574 0.139765 0.048541
O O13 0.930444 0.943511 0.085170
O O14 0.918524 0.060531 0.967151
O O15 0.432274 0.997182 0.657169
#
# Coordination Sequence:
#
# PCOD9430173 Si02
#       8
#     8   8   8   8   4   8   8   8
#     4  10  20  32  60  89 118 156 210 244 308 372
#     4  11  20  37  61  91 115 162 206 258 305 375
#     4  10  22  36  61  88 125 159 202 256 315 364
#     4  10  19  35  58  88 122 159 200 248 301 371
#     4  10  22  34  64  86 118 150 220 266 300 368
#     4   9  20  39  59  89 112 159 208 255 308 362
#     4   9  19  35  63  80 116 159 206 239 303 371
#     4  10  19  36  59  87 123 161 197 254 306 372
#
# _framework density 21.233122000000002
#
# number of rings (size 3 to 8) (size 9 to 14) (size 15 to 20)
#    0.000    2.133    2.667    0.800    1.867    5.333 
#    0.000    0.667    0.000   12.000    0.000    0.000 
#    0.000    0.000    0.000    0.000    0.000    0.000 
#
# Total GULP energy -334528.783301 kJ/mol
# GULP energy per Si atom -5575.479722 kJ/mol
# Density = 2.118479 g / cm^3
# Si number density = 21.233122 Si / 1000 Ang^3
#
#
#
# Elastic Constant Matrix: (Units=GPa)
#
#
# Indices 1 2 3 4 5 6 
#
# 1 100.2937 37.8886 5.1827 0.0000 0.0000 0.0000
# 2 37.8886 68.0867 2.8973 0.0000 0.0000 0.0000
# 3 5.1827 2.8973 38.3232 0.0000 0.0000 0.0000
# 4 0.0000 0.0000 0.0000 19.3256 0.0000 0.0000
# 5 0.0000 0.0000 0.0000 0.0000 22.2733 0.0000
# 6 0.0000 0.0000 0.0000 0.0000 0.0000 28.6617
#
#
#
# Elastic Compliance Matrix: (Units=1/GPa)
#
#
# Indices 1 2 3 4 5 6 
#
# 1 0.012678 -0.007005 -0.001185 0.000000 0.000000 0.000000
# 2 -0.007005 0.018605 -0.000459 0.000000 0.000000 0.000000
# 3 -0.001185 -0.000459 0.026289 0.000000 0.000000 0.000000
# 4 0.000000 0.000000 0.000000 0.051745 0.000000 0.000000
# 5 0.000000 0.000000 0.000000 0.000000 0.044897 0.000000
# 6 0.000000 0.000000 0.000000 0.000000 0.000000 0.034890
#
#
# Mechanical properties :
#
#
# Convention : Reuss Voigt Hill
#
# Bulk Modulus (GPa) = 24.83007 33.18234 29.00620
# Shear Modulus (GPa) = 22.74533 24.76779 23.75656
#
# Velocity S-wave (km/s) = 3.27650 3.41907 3.34854
# Velocity P-wave (km/s) = 5.10229 5.59001 5.35171
#
# Compressibility (1/GPa) = 0.04027376
#
# Stress axis : x y z
#
# Youngs Moduli (GPa) = 78.87585 53.75006 38.03900
#
# Poissons Ratio (x) = 0.37650 0.04508
# Poissons Ratio (y) = 0.55250 0.01747
# Poissons Ratio (z) = 0.09347 0.02469
#
# Static dielectric constant tensor:
#      x y z
#    x 1.850510 0.000000 0.000000 
#    y 0.000000 1.758910 0.000000 
#    z 0.000000 0.000000 1.823680 
# 
# From -- ./inp_files/21114.got.cif
#   From: 2010.05.17/outbox.cif.g08.bks.cpg/sg56_11_cif.got.tgz:21114.got - 2010.06.03 13:42:01.
