data_PCOD9430601
_publ_section_title
;
Structure prediction by ZEFSAII (Michael W. Deem and Ramdas Pophale) SiO2 
 PCOD9430601
Probable space group: P C C N
;
_chemical_formula_sum "Si O2"
_cell_formula_units_Z 64
_cell_length_a 9.586956
_cell_length_b 27.717090
_cell_length_c 11.822755
_cell_angle_alpha 90.000000
_cell_angle_beta 90.000000
_cell_angle_gamma 90.000000
_cell_volume 3141.572279
_symmetry_space_group_name_H-M "P C C N"
_symmetry_group_IT_number 56
_symmetry_cell_setting 'orthorhombic'
loop_
_space_group_symop_operation_xyz
x,y,z
1/2-x,1/2-y,z
1/2+x,-y,1/2-z
-x,1/2+y,1/2-z
-x,-y,-z
1/2+x,1/2+y,-z
1/2-x,y,1/2+z
x,1/2-y,1/2+z
loop_
_atom_site_type_symbol
_atom_site_label
_atom_site_fract_x
_atom_site_fract_y
_atom_site_fract_z
Si Si1 0.126987 0.450172 0.891412
Si Si2 0.366239 0.620030 0.581532
Si Si3 0.562887 0.923947 0.564504
Si Si4 0.996222 0.527759 0.345967
Si Si5 0.302181 0.551303 0.398838
Si Si6 0.410664 0.731900 0.553044
Si Si7 0.112474 0.873924 0.235132
Si Si8 0.587000 0.265338 0.698164
O O1 0.276501 0.425220 0.898890
O O2 0.090404 0.468705 0.766784
O O3 0.144872 0.501642 0.955365
O O4 0.003196 0.413384 0.917863
O O5 0.268941 0.591512 0.492643
O O6 0.405886 0.674003 0.549451
O O7 0.273379 0.624539 0.694302
O O8 0.557088 0.930860 0.430561
O O9 0.484842 0.880915 0.626282
O O10 0.486883 0.973834 0.604281
O O11 0.161514 0.536643 0.333515
O O12 0.407097 0.580445 0.317967
O O13 0.250000 0.750000 0.555576
O O14 0.469441 0.746480 0.678558
O O15 0.468626 0.748751 0.428655
O O16 0.082008 0.823210 0.292093
O O17 0.750000 0.250000 0.696549
#
# Coordination Sequence:
#
# PCOD9430601 Si02
#       8
#     8   8   8   8   8   8   8   8
#     4  11  24  38  58  87 126 168 209 261 307 378
#     4  12  22  37  60  93 119 161 211 263 317 378
#     4  10  23  38  56  81 119 166 206 249 314 376
#     4  10  20  38  55  79 120 163 208 259 302 364
#     4  11  22  36  59  89 121 162 214 259 307 374
#     4  10  20  36  57  91 127 149 201 266 328 370
#     4  12  20  36  62  87 120 162 204 254 320 378
#     4  10  20  35  58  93 121 153 197 269 322 375
#
# _framework density 20.371963999999998
#
# number of rings (size 3 to 8) (size 9 to 14) (size 15 to 20)
#    0.000    1.250    7.500    0.375    0.000    1.000 
#    2.250    0.000    0.000    0.750    0.000    1.750 
#    0.000    0.000    0.000    0.000    0.000    0.000 
#
# Total GULP energy -356468.100302 kJ/mol
# GULP energy per Si atom -5569.814067 kJ/mol
# Density = 2.032560 g / cm^3
# Si number density = 20.371964 Si / 1000 Ang^3
#
#
#
# Elastic Constant Matrix: (Units=GPa)
#
#
# Indices 1 2 3 4 5 6 
#
# 1 61.6584 9.8447 -1.6218 0.0000 0.0000 0.0000
# 2 9.8447 90.7713 15.8339 0.0000 0.0000 0.0000
# 3 -1.6218 15.8339 90.4461 0.0000 0.0000 0.0000
# 4 0.0000 0.0000 0.0000 22.6086 0.0000 0.0000
# 5 0.0000 0.0000 0.0000 0.0000 18.4342 0.0000
# 6 0.0000 0.0000 0.0000 0.0000 0.0000 14.8113
#
#
#
# Elastic Compliance Matrix: (Units=1/GPa)
#
#
# Indices 1 2 3 4 5 6 
#
# 1 0.016539 -0.001904 0.000630 0.000000 0.000000 0.000000
# 2 -0.001904 0.011583 -0.002062 0.000000 0.000000 0.000000
# 3 0.000630 -0.002062 0.011429 0.000000 0.000000 0.000000
# 4 0.000000 0.000000 0.000000 0.044231 0.000000 0.000000
# 5 0.000000 0.000000 0.000000 0.000000 0.054247 0.000000
# 6 0.000000 0.000000 0.000000 0.000000 0.000000 0.067516
#
#
# Mechanical properties :
#
#
# Convention : Reuss Voigt Hill
#
# Bulk Modulus (GPa) = 30.41462 32.33217 31.37339
# Shear Modulus (GPa) = 22.40393 25.75875 24.08134
#
# Velocity S-wave (km/s) = 3.31984 3.55973 3.44187
# Velocity P-wave (km/s) = 5.44584 5.72721 5.58829
#
# Compressibility (1/GPa) = 0.03287893
#
# Stress axis : x y z
#
# Youngs Moduli (GPa) = 60.46356 86.33469 87.50010
#
# Poissons Ratio (x) = 0.16435 -0.05511
# Poissons Ratio (y) = 0.11510 0.18041
# Poissons Ratio (z) = -0.03808 0.17801
#
# Static dielectric constant tensor:
#      x y z
#    x 1.722160 0.000000 0.000000 
#    y 0.000000 1.737470 0.000000 
#    z 0.000000 0.000000 1.860330 
# 
# From -- ./inp_files/6611.got.cif
#   From: 2010.05.17/outbox.cif.g08.bks.cpg/sg56_4_cif.got.tgz:6611.got - 2010.06.03 13:42:01.
