data_PCOD9430771
_publ_section_title
;
Structure prediction by ZEFSAII (Michael W. Deem and Ramdas Pophale) SiO2 
 PCOD9430771
Probable space group: P C C N
;
_chemical_formula_sum "Si O2"
_cell_formula_units_Z 56
_cell_length_a 14.139795
_cell_length_b 13.334942
_cell_length_c 13.531529
_cell_angle_alpha 90.000000
_cell_angle_beta 90.000000
_cell_angle_gamma 90.000000
_cell_volume 2551.415072
_symmetry_space_group_name_H-M "P C C N"
_symmetry_group_IT_number 56
_symmetry_cell_setting 'orthorhombic'
loop_
_space_group_symop_operation_xyz
x,y,z
1/2-x,1/2-y,z
1/2+x,-y,1/2-z
-x,1/2+y,1/2-z
-x,-y,-z
1/2+x,1/2+y,-z
1/2-x,y,1/2+z
x,1/2-y,1/2+z
loop_
_atom_site_type_symbol
_atom_site_label
_atom_site_fract_x
_atom_site_fract_y
_atom_site_fract_z
Si Si1 0.654441 0.310642 0.078474
Si Si2 0.887873 0.501715 0.010174
Si Si3 0.976507 0.798005 0.781665
Si Si4 0.572880 0.489659 0.727262
Si Si5 0.737030 0.427609 0.234732
Si Si6 0.631251 0.891594 0.821676
Si Si7 0.121356 0.799203 0.610736
O O1 0.750000 0.250000 0.104435
O O2 0.558916 0.277368 0.136427
O O3 0.687619 0.414964 0.127129
O O4 0.639370 0.294659 0.961586
O O5 0.851135 0.586756 0.937245
O O6 0.865289 0.391022 0.968639
O O7 0.874549 0.520079 0.124871
O O8 0.000000 0.500000 0.000000
O O9 0.944177 0.912874 0.792125
O O10 0.889410 0.722613 0.795721
O O11 0.022686 0.790599 0.671196
O O12 0.652436 0.411743 0.759504
O O13 0.470990 0.442501 0.705491
O O14 0.708182 0.538984 0.269335
O O15 0.686147 0.343119 0.301796
#
# Coordination Sequence:
#
# PCOD9430771 Si02
#       7
#     8   8   8   8   8   8   8
#     4  11  21  37  61  93 123 157 217 269 319 370
#     4   9  15  33  61  85 108 158 206 261 304 377
#     4  11  22  36  65  92 124 174 209 264 320 385
#     4  11  20  39  64  89 127 167 218 263 320 382
#     4  10  22  39  61  93 130 164 205 270 324 378
#     4  10  20  38  59  90 126 160 218 258 318 386
#     4  10  20  37  61  93 119 159 220 260 326 380
#
# _framework density 21.948605000000001
#
# number of rings (size 3 to 8) (size 9 to 14) (size 15 to 20)
#    0.000    1.714    5.714    3.429    0.000    4.000 
#    0.000    0.714    9.429    3.429    0.000    0.000 
#    0.000    0.000    0.000    0.000    0.000    0.000 
#
# Total GULP energy -311830.837935 kJ/mol
# GULP energy per Si atom -5568.407820 kJ/mol
# Density = 2.189865 g / cm^3
# Si number density = 21.948605 Si / 1000 Ang^3
#
#
#
# Elastic Constant Matrix: (Units=GPa)
#
#
# Indices 1 2 3 4 5 6 
#
# 1 46.2682 -14.3750 5.6019 0.0000 0.0000 0.0000
# 2 -14.3750 38.3319 7.9857 0.0000 0.0000 0.0000
# 3 5.6019 7.9857 83.4462 0.0000 0.0000 0.0000
# 4 0.0000 0.0000 0.0000 15.3289 0.0000 0.0000
# 5 0.0000 0.0000 0.0000 0.0000 16.4898 0.0000
# 6 0.0000 0.0000 0.0000 0.0000 0.0000 37.9932
#
#
#
# Elastic Compliance Matrix: (Units=1/GPa)
#
#
# Indices 1 2 3 4 5 6 
#
# 1 0.025016 0.009929 -0.002630 0.000000 0.000000 0.000000
# 2 0.009929 0.030560 -0.003591 0.000000 0.000000 0.000000
# 3 -0.002630 -0.003591 0.012504 0.000000 0.000000 0.000000
# 4 0.000000 0.000000 0.000000 0.065236 0.000000 0.000000
# 5 0.000000 0.000000 0.000000 0.000000 0.060644 0.000000
# 6 0.000000 0.000000 0.000000 0.000000 0.000000 0.026320
#
#
# Mechanical properties :
#
#
# Convention : Reuss Voigt Hill
#
# Bulk Modulus (GPa) = 13.24551 18.49682 15.87116
# Shear Modulus (GPa) = 21.00583 25.21795 23.11189
#
# Velocity S-wave (km/s) = 3.09697 3.39330 3.24852
# Velocity P-wave (km/s) = 4.34007 4.87835 4.61706
#
# Compressibility (1/GPa) = 0.07549730
#
# Stress axis : x y z
#
# Youngs Moduli (GPa) = 39.97375 32.72284 79.97462
#
# Poissons Ratio (x) = -0.32492 0.21030
# Poissons Ratio (y) = -0.39691 0.28720
# Poissons Ratio (z) = 0.10512 0.11751
#
# Static dielectric constant tensor:
#      x y z
#    x 1.827740 0.000000 0.000000 
#    y 0.000000 1.884170 0.000000 
#    z 0.000000 0.000000 1.944030 
# 
# From -- ./inp_files/7899.got.cif
#   From: 2010.05.17/outbox.cif.g08.bks.cpg/sg56_4_cif.got.tgz:7899.got - 2010.06.03 13:42:01.
