data_PCOD9430713
_publ_section_title
;
Structure prediction by ZEFSAII (Michael W. Deem and Ramdas Pophale) SiO2 
 PCOD9430713
Probable space group: P C C N
;
_chemical_formula_sum "Si O2"
_cell_formula_units_Z 40
_cell_length_a 14.470541
_cell_length_b 10.080691
_cell_length_c 10.548453
_cell_angle_alpha 90.000000
_cell_angle_beta 90.000000
_cell_angle_gamma 90.000000
_cell_volume 1538.735037
_symmetry_space_group_name_H-M "P C C N"
_symmetry_group_IT_number 56
_symmetry_cell_setting 'orthorhombic'
loop_
_space_group_symop_operation_xyz
x,y,z
1/2-x,1/2-y,z
1/2+x,-y,1/2-z
-x,1/2+y,1/2-z
-x,-y,-z
1/2+x,1/2+y,-z
1/2-x,y,1/2+z
x,1/2-y,1/2+z
loop_
_atom_site_type_symbol
_atom_site_label
_atom_site_fract_x
_atom_site_fract_y
_atom_site_fract_z
Si Si1 0.399501 0.880164 0.047645
Si Si2 0.952976 0.747938 0.863046
Si Si3 0.249240 0.000440 0.364540
Si Si4 0.750000 0.250000 0.818854
Si Si5 0.250000 0.250000 0.689204
Si Si6 0.452158 0.017650 0.312810
O O1 0.338525 0.756106 0.092483
O O2 0.428792 0.956246 0.173762
O O3 0.482226 0.827913 0.962461
O O4 0.325749 0.969621 0.970798
O O5 0.844092 0.730410 0.887278
O O6 0.973489 0.669877 0.728377
O O7 0.979112 0.904132 0.863143
O O8 0.227322 0.128041 0.281069
O O9 0.244606 0.875502 0.270881
O O10 0.358144 0.015339 0.395417
#
# Coordination Sequence:
#
# PCOD9430713 Si02
#       6
#     8   8   8   4   4   8
#     4  11  20  37  64  93 121 162 209 254 308 374
#     4  11  22  41  61  87 125 164 206 257 305 368
#     4  10  21  41  65  92 128 160 205 263 311 373
#     4  10  20  36  64  98 122 160 210 260 310 364
#     4  10  24  42  60  86 128 170 204 258 322 360
#     4  10  23  40  64  93 122 164 205 252 315 366
#
# _framework density 25.995379
#
# number of rings (size 3 to 8) (size 9 to 14) (size 15 to 20)
#    0.000    1.600    0.000    6.000    0.000    0.000 
#    0.000   26.000    0.000    2.400    0.000    0.000 
#    0.000    0.000    0.000    0.000    0.000    0.000 
#
# Total GULP energy -224072.272213 kJ/mol
# GULP energy per Si atom -5601.806805 kJ/mol
# Density = 2.593621 g / cm^3
# Si number density = 25.995379 Si / 1000 Ang^3
#
#
#
# Elastic Constant Matrix: (Units=GPa)
#
#
# Indices 1 2 3 4 5 6 
#
# 1 163.4796 18.1022 62.9860 0.0000 0.0000 0.0000
# 2 18.1022 131.6930 20.4257 0.0000 0.0000 0.0000
# 3 62.9860 20.4257 84.1300 0.0000 0.0000 0.0000
# 4 0.0000 0.0000 0.0000 40.9978 0.0000 0.0000
# 5 0.0000 0.0000 0.0000 0.0000 32.2228 0.0000
# 6 0.0000 0.0000 0.0000 0.0000 0.0000 34.3151
#
#
#
# Elastic Compliance Matrix: (Units=1/GPa)
#
#
# Indices 1 2 3 4 5 6 
#
# 1 0.008601 -0.000191 -0.006393 0.000000 0.000000 0.000000
# 2 -0.000191 0.007895 -0.001774 0.000000 0.000000 0.000000
# 3 -0.006393 -0.001774 0.017104 0.000000 0.000000 0.000000
# 4 0.000000 0.000000 0.000000 0.024392 0.000000 0.000000
# 5 0.000000 0.000000 0.000000 0.000000 0.031034 0.000000
# 6 0.000000 0.000000 0.000000 0.000000 0.000000 0.029142
#
#
# Mechanical properties :
#
#
# Convention : Reuss Voigt Hill
#
# Bulk Modulus (GPa) = 59.22869 64.70339 61.96604
# Shear Modulus (GPa) = 35.58451 40.02640 37.80545
#
# Velocity S-wave (km/s) = 3.70385 3.92822 3.81768
# Velocity P-wave (km/s) = 6.41289 6.74677 6.58195
#
# Compressibility (1/GPa) = 0.01688371
#
# Stress axis : x y z
#
# Youngs Moduli (GPa) = 116.26126 126.66601 58.46736
#
# Poissons Ratio (x) = 0.02416 0.37380
# Poissons Ratio (y) = 0.02217 0.10372
# Poissons Ratio (z) = 0.74329 0.22470
#
# Static dielectric constant tensor:
#      x y z
#    x 2.047250 0.000000 0.000000 
#    y 0.000000 2.086870 0.000000 
#    z 0.000000 0.000000 2.029060 
# 
# From -- ./inp_files/7690.got.cif
#   From: 2010.05.17/outbox.cif.g08.bks.cpg/sg56_4_cif.got.tgz:7690.got - 2010.06.03 13:42:01.
