data_PCOD9430220
_publ_section_title
;
Structure prediction by ZEFSAII (Michael W. Deem and Ramdas Pophale) SiO2 
 PCOD9430220
Probable space group: P C C N
;
_chemical_formula_sum "Si O2"
_cell_formula_units_Z 32
_cell_length_a 12.263326
_cell_length_b 5.029144
_cell_length_c 19.788686
_cell_angle_alpha 90.000000
_cell_angle_beta 90.000000
_cell_angle_gamma 90.000000
_cell_volume 1220.448061
_symmetry_space_group_name_H-M "P C C N"
_symmetry_group_IT_number 56
_symmetry_cell_setting 'orthorhombic'
loop_
_space_group_symop_operation_xyz
x,y,z
1/2-x,1/2-y,z
1/2+x,-y,1/2-z
-x,1/2+y,1/2-z
-x,-y,-z
1/2+x,1/2+y,-z
1/2-x,y,1/2+z
x,1/2-y,1/2+z
loop_
_atom_site_type_symbol
_atom_site_label
_atom_site_fract_x
_atom_site_fract_y
_atom_site_fract_z
Si Si1 0.594926 0.621261 0.611852
Si Si2 0.881157 0.408737 0.524721
Si Si3 0.645166 0.115088 0.377542
Si Si4 0.931380 0.685969 0.256018
O O1 0.612663 0.378602 0.560046
O O2 0.463959 0.699901 0.616714
O O3 0.629776 0.579160 0.689301
O O4 0.649186 0.885118 0.582242
O O5 0.820286 0.452076 0.454159
O O6 0.000000 0.500000 0.500000
O O7 0.750000 0.250000 0.345037
O O8 0.617478 0.868979 0.329319
O O9 0.962810 0.990122 0.243680
#
# Coordination Sequence:
#
# PCOD9430220 Si02
#       4
#     8   8   8   8
#     4  10  20  38  60  80 112 157 195 225 280 358
#     4  10  19  36  59  83 111 153 194 229 280 351
#     4  10  21  37  61  92 119 146 194 253 291 327
#     4  10  20  37  59  85 115 156 195 231 285 356
#
# _framework density 26.219877
#
# number of rings (size 3 to 8) (size 9 to 14) (size 15 to 20)
#    0.000    2.000    0.000    7.500    0.000    2.000 
#    0.000   32.500    0.000   18.000    0.000    0.000 
#    0.000    0.000    0.000    0.000    0.000    0.000 
#
# Total GULP energy -178795.823642 kJ/mol
# GULP energy per Si atom -5587.369489 kJ/mol
# Density = 2.616020 g / cm^3
# Si number density = 26.219877 Si / 1000 Ang^3
#
#
#
# Elastic Constant Matrix: (Units=GPa)
#
#
# Indices 1 2 3 4 5 6 
#
# 1 70.6204 12.5770 -7.8481 0.0000 0.0000 0.0000
# 2 12.5770 115.0968 39.6579 0.0000 0.0000 0.0000
# 3 -7.8481 39.6579 209.6472 0.0000 0.0000 0.0000
# 4 0.0000 0.0000 0.0000 54.6782 0.0000 0.0000
# 5 0.0000 0.0000 0.0000 0.0000 3.6923 0.0000
# 6 0.0000 0.0000 0.0000 0.0000 0.0000 30.0785
#
#
#
# Elastic Compliance Matrix: (Units=1/GPa)
#
#
# Indices 1 2 3 4 5 6 
#
# 1 0.014601 -0.001908 0.000908 0.000000 0.000000 0.000000
# 2 -0.001908 0.009544 -0.001877 0.000000 0.000000 0.000000
# 3 0.000908 -0.001877 0.005159 0.000000 0.000000 0.000000
# 4 0.000000 0.000000 0.000000 0.018289 0.000000 0.000000
# 5 0.000000 0.000000 0.000000 0.000000 0.270834 0.000000
# 6 0.000000 0.000000 0.000000 0.000000 0.000000 0.033246
#
#
# Mechanical properties :
#
#
# Convention : Reuss Voigt Hill
#
# Bulk Modulus (GPa) = 42.46546 53.79312 48.12929
# Shear Modulus (GPa) = 13.68824 41.08830 27.38827
#
# Velocity S-wave (km/s) = 2.28733 3.96291 3.23547
# Velocity P-wave (km/s) = 4.81736 6.44207 5.68802
#
# Compressibility (1/GPa) = 0.02354855
#
# Stress axis : x y z
#
# Youngs Moduli (GPa) = 68.48889 104.78328 193.83964
#
# Poissons Ratio (x) = 0.19995 -0.17592
# Poissons Ratio (y) = 0.13069 0.36378
# Poissons Ratio (z) = -0.06216 0.19665
#
# Static dielectric constant tensor:
#      x y z
#    x 2.278320 0.000000 0.000000 
#    y 0.000000 2.287060 0.000000 
#    z 0.000000 0.000000 2.108420 
# 
# From -- ./inp_files/15951.got.cif
#   From: 2010.05.17/outbox.cif.g08.bks.cpg/sg56_8_cif.got.tgz:15951.got - 2010.06.03 13:42:01.
