data_PCOD9430155
_publ_section_title
;
Structure prediction by ZEFSAII (Michael W. Deem and Ramdas Pophale) SiO2 
 PCOD9430155
Probable space group: P C C N
;
_chemical_formula_sum "Si O2"
_cell_formula_units_Z 56
_cell_length_a 9.841652
_cell_length_b 20.363625
_cell_length_c 12.920611
_cell_angle_alpha 90.000000
_cell_angle_beta 90.000000
_cell_angle_gamma 90.000000
_cell_volume 2589.441754
_symmetry_space_group_name_H-M "P C C N"
_symmetry_group_IT_number 56
_symmetry_cell_setting 'orthorhombic'
loop_
_space_group_symop_operation_xyz
x,y,z
1/2-x,1/2-y,z
1/2+x,-y,1/2-z
-x,1/2+y,1/2-z
-x,-y,-z
1/2+x,1/2+y,-z
1/2-x,y,1/2+z
x,1/2-y,1/2+z
loop_
_atom_site_type_symbol
_atom_site_label
_atom_site_fract_x
_atom_site_fract_y
_atom_site_fract_z
Si Si1 0.250000 0.750000 0.788705
Si Si2 0.041022 0.394511 0.302967
Si Si3 0.750000 0.605832 0.882135
Si Si4 0.250000 0.479636 0.425163
Si Si5 0.250000 0.605591 0.297528
Si Si6 0.750000 0.750000 0.382928
Si Si7 0.458828 0.250000 0.804456
Si Si8 0.041021 0.105489 0.302967
O O1 0.250000 0.679652 0.843378
O O2 0.382701 0.750000 0.718826
O O3 0.121035 0.396877 0.193947
O O4 0.115396 0.447350 0.373767
O O5 0.069172 0.321667 0.350760
O O6 0.883694 0.403367 0.274029
O O7 0.750000 0.678408 0.935027
O O8 0.621035 0.603122 0.806053
O O9 0.750000 0.544652 0.958073
O O10 0.250000 0.554602 0.391242
O O11 0.384604 0.447350 0.373768
O O12 0.116306 0.596633 0.225971
O O13 0.621900 0.750000 0.304395
O O14 0.430828 0.178333 0.850760
#
# Coordination Sequence:
#
# PCOD9430155 Si02
#       8
#     4   8   8   8   8   4   8   8
#     4   8  16  30  52  72  92 130 176 210 246 298
#     4   9  19  35  53  75 105 135 171 212 250 299
#     4   9  19  33  50  77 102 133 170 205 254 303
#     4  11  21  32  52  79 107 136 166 206 261 309
#     4  10  19  35  55  75 100 136 174 212 256 301
#     4   8  14  28  48  70 102 128 162 208 244 298
#     4   8  14  29  52  72  95 135 171 203 249 293
#     4   9  19  35  53  75 105 135 171 212 250 299
#
# _framework density 21.626282
#
# number of rings (size 3 to 8) (size 9 to 14) (size 15 to 20)
#    0.000    2.857    0.000    1.714    0.000    2.286 
#    0.000    1.429    0.000    0.000    0.000   20.000 
#    0.000    0.000    0.000    0.000    0.000    0.000 
#
# Total GULP energy -312185.120586 kJ/mol
# GULP energy per Si atom -5574.734296 kJ/mol
# Density = 2.157706 g / cm^3
# Si number density = 21.626282 Si / 1000 Ang^3
#
#
#
# Elastic Constant Matrix: (Units=GPa)
#
#
# Indices 1 2 3 4 5 6 
#
# 1 163.1207 10.8390 28.9472 0.0000 0.0000 0.0000
# 2 10.8390 109.1004 3.1350 0.0000 0.0000 0.0000
# 3 28.9472 3.1350 32.0707 0.0000 0.0000 0.0000
# 4 0.0000 0.0000 0.0000 29.2468 0.0000 0.0000
# 5 0.0000 0.0000 0.0000 0.0000 -13.6923 0.0000
# 6 0.0000 0.0000 0.0000 0.0000 0.0000 20.0667
#
#
#
# Elastic Compliance Matrix: (Units=1/GPa)
#
#
# Indices 1 2 3 4 5 6 
#
# 1 0.007331 -0.000540 -0.006564 0.000000 0.000000 0.000000
# 2 -0.000540 0.009231 -0.000415 0.000000 0.000000 0.000000
# 3 -0.006564 -0.000415 0.037147 0.000000 0.000000 0.000000
# 4 0.000000 0.000000 0.000000 0.034192 0.000000 0.000000
# 5 0.000000 0.000000 0.000000 0.000000 -0.073034 0.000000
# 6 0.000000 0.000000 0.000000 0.000000 0.000000 0.049834
#
#
# Mechanical properties :
#
#
# Convention : Reuss Voigt Hill
#
# Bulk Modulus (GPa) = 25.85944 43.34826 34.60385
# Shear Modulus (GPa) = 53.97800 24.54895 39.26348
#
# Velocity S-wave (km/s) = 5.00136 3.37285 4.26554
# Velocity P-wave (km/s) = 6.73312 5.93767 6.34786
#
# Compressibility (1/GPa) = 0.03867060
#
# Stress axis : x y z
#
# Youngs Moduli (GPa) = 136.40312 108.32570 26.92023
#
# Poissons Ratio (x) = 0.05846 0.17672
# Poissons Ratio (y) = 0.07362 0.01118
# Poissons Ratio (z) = 0.89541 0.04498
#
# Static dielectric constant tensor:
#      x y z
#    x 1.786170 0.000000 0.000000 
#    y 0.000000 1.892470 0.000000 
#    z 0.000000 0.000000 1.743760 
# 
# From -- ./inp_files/10927.got.cif
#   From: 2010.05.17/outbox.cif.g08.bks.cpg/sg56_6_cif.got.tgz:10927.got - 2010.06.03 13:42:01.
