data_PCOD9430550
_publ_section_title
;
Structure prediction by ZEFSAII (Michael W. Deem and Ramdas Pophale) SiO2 
 PCOD9430550
Probable space group: P C C N
;
_chemical_formula_sum "Si O2"
_cell_formula_units_Z 64
_cell_length_a 14.582086
_cell_length_b 8.564173
_cell_length_c 29.209353
_cell_angle_alpha 90.000000
_cell_angle_beta 90.000000
_cell_angle_gamma 90.000000
_cell_volume 3647.766446
_symmetry_space_group_name_H-M "P C C N"
_symmetry_group_IT_number 56
_symmetry_cell_setting 'orthorhombic'
loop_
_space_group_symop_operation_xyz
x,y,z
1/2-x,1/2-y,z
1/2+x,-y,1/2-z
-x,1/2+y,1/2-z
-x,-y,-z
1/2+x,1/2+y,-z
1/2-x,y,1/2+z
x,1/2-y,1/2+z
loop_
_atom_site_type_symbol
_atom_site_label
_atom_site_fract_x
_atom_site_fract_y
_atom_site_fract_z
Si Si1 0.602760 0.562501 0.751737
Si Si2 0.602400 0.561904 0.499300
Si Si3 0.250000 0.438834 0.075775
Si Si4 0.750000 0.939867 0.677267
Si Si5 0.750000 0.435853 0.821697
Si Si6 0.750000 0.940646 0.073156
Si Si7 0.397240 0.437499 0.748263
Si Si8 0.602400 0.561904 0.999300
O O1 0.661152 0.513516 0.706827
O O2 0.661255 0.501129 0.794797
O O3 0.500000 0.500000 0.750000
O O4 0.601852 0.750000 0.753361
O O5 0.500000 0.500000 0.500000
O O6 0.661430 0.515212 0.454626
O O7 0.661292 0.511540 0.543671
O O8 0.600366 0.750000 0.499610
O O9 0.250000 0.250000 0.079421
O O10 0.250000 0.510478 0.125880
O O11 0.338570 0.484788 0.045374
O O12 0.750000 0.750000 0.675944
O O13 0.750000 0.996524 0.625245
O O14 0.661151 0.986484 0.706827
O O15 0.750000 0.250000 0.818806
O O16 0.838745 0.501128 0.794797
O O17 0.750000 0.750000 0.073945
O O18 0.838708 0.988460 0.043671
O O19 0.500000 0.500000 0.000000
#
# Coordination Sequence:
#
# PCOD9430550 Si02
#       8
#     8   8   8   8   8   8   8   8
#     4  10  20  35  54  78 108 140 172 214 264 317
#     4   9  18  32  52  75 102 134 167 206 255 306
#     4   9  19  36  52  72 106 143 173 211 265 317
#     4   8  16  31  52  75 100 131 169 208 248 297
#     4  11  22  36  55  78 102 137 183 227 268 313
#     4   8  15  31  51  71  96 129 165 200 241 297
#     4  10  20  35  54  78 108 140 172 214 264 317
#     4   9  18  32  52  75 102 134 167 206 255 306
#
# _framework density 17.544983999999999
#
# number of rings (size 3 to 8) (size 9 to 14) (size 15 to 20)
#    0.000    2.750    0.000    4.125    0.000    3.000 
#    0.000    4.375    0.000    7.500    0.000    0.000 
#    0.000    0.000    0.000    0.000    0.000    0.000 
#
# Total GULP energy -356903.204141 kJ/mol
# GULP energy per Si atom -5576.612565 kJ/mol
# Density = 1.750505 g / cm^3
# Si number density = 17.544984 Si / 1000 Ang^3
#
#
#
# Elastic Constant Matrix: (Units=GPa)
#
#
# Indices 1 2 3 4 5 6 
#
# 1 204.3185 43.3395 112.4443 0.0000 0.0000 0.0000
# 2 43.3395 45.3823 42.4614 0.0000 0.0000 0.0000
# 3 112.4443 42.4614 198.0016 0.0000 0.0000 0.0000
# 4 0.0000 0.0000 0.0000 16.5254 0.0000 0.0000
# 5 0.0000 0.0000 0.0000 0.0000 6.3337 0.0000
# 6 0.0000 0.0000 0.0000 0.0000 0.0000 35.7298
#
#
#
# Elastic Compliance Matrix: (Units=1/GPa)
#
#
# Indices 1 2 3 4 5 6 
#
# 1 0.007676 -0.004068 -0.003487 0.000000 0.000000 0.000000
# 2 -0.004068 0.029722 -0.004064 0.000000 0.000000 0.000000
# 3 -0.003487 -0.004064 0.007902 0.000000 0.000000 0.000000
# 4 0.000000 0.000000 0.000000 0.060513 0.000000 0.000000
# 5 0.000000 0.000000 0.000000 0.000000 0.157886 0.000000
# 6 0.000000 0.000000 0.000000 0.000000 0.000000 0.027988
#
#
# Mechanical properties :
#
#
# Convention : Reuss Voigt Hill
#
# Bulk Modulus (GPa) = 45.32453 93.79921 69.56187
# Shear Modulus (GPa) = 15.51452 28.34825 21.93139
#
# Velocity S-wave (km/s) = 2.97690 4.02400 3.53938
# Velocity P-wave (km/s) = 6.14046 8.66996 7.51244
#
# Compressibility (1/GPa) = 0.02206311
#
# Stress axis : x y z
#
# Youngs Moduli (GPa) = 130.27250 33.64491 126.54911
#
# Poissons Ratio (x) = 0.13688 0.44126
# Poissons Ratio (y) = 0.52998 0.51424
# Poissons Ratio (z) = 0.45424 0.13672
#
# Static dielectric constant tensor:
#      x y z
#    x 1.573640 0.000000 0.000000 
#    y 0.000000 1.596360 0.000000 
#    z 0.000000 0.000000 1.589550 
# 
# From -- ./inp_files/23509.got.cif
#   From: 2010.05.17/outbox.cif.g08.bks.cpg/sg56_12_cif.got.tgz:23509.got - 2010.06.03 13:42:01.
