data_PCOD9430009
_publ_section_title
;
Structure prediction by ZEFSAII (Michael W. Deem and Ramdas Pophale) SiO2 
 PCOD9430009
Probable space group: P C C N
;
_chemical_formula_sum "Si O2"
_cell_formula_units_Z 48
_cell_length_a 17.040324
_cell_length_b 5.344480
_cell_length_c 26.344991
_cell_angle_alpha 90.000000
_cell_angle_beta 90.000000
_cell_angle_gamma 90.000000
_cell_volume 2399.282348
_symmetry_space_group_name_H-M "P C C N"
_symmetry_group_IT_number 56
_symmetry_cell_setting 'orthorhombic'
loop_
_space_group_symop_operation_xyz
x,y,z
1/2-x,1/2-y,z
1/2+x,-y,1/2-z
-x,1/2+y,1/2-z
-x,-y,-z
1/2+x,1/2+y,-z
1/2-x,y,1/2+z
x,1/2-y,1/2+z
loop_
_atom_site_type_symbol
_atom_site_label
_atom_site_fract_x
_atom_site_fract_y
_atom_site_fract_z
Si Si1 0.559373 0.453248 0.452149
Si Si2 0.325511 0.607527 0.920578
Si Si3 0.830443 0.848991 0.185753
Si Si4 0.969313 0.139672 0.225083
Si Si5 0.553447 0.042365 0.132357
Si Si6 0.092345 0.046169 0.012968
O O1 0.500000 0.500000 0.500000
O O2 0.509701 0.399424 0.401594
O O3 0.614919 0.222221 0.464492
O O4 0.600636 0.721722 0.449880
O O5 0.250000 0.750000 0.940442
O O6 0.305645 0.484506 0.866627
O O7 0.393125 0.806122 0.907301
O O8 0.360335 0.415078 0.961014
O O9 0.750000 0.750000 0.209377
O O10 0.890846 0.633980 0.166546
O O11 0.879889 0.039754 0.220275
O O12 0.986106 0.253382 0.169320
O O13 0.983752 0.385513 0.260102
O O14 0.000000 0.000000 0.000000
#
# Coordination Sequence:
#
# PCOD9430009 Si02
#       6
#     8   8   8   8   8   8
#     4  10  19  32  53  78 114 154 202 229 269 338
#     4  11  21  31  51  87 127 159 188 238 306 371
#     4  11  22  36  61  91 129 156 191 246 331 394
#     4  11  24  42  59  86 125 155 205 256 312 378
#     4  11  21  36  60  85 124 157 191 250 307 363
#     4  10  19  32  49  72 118 153 200 227 264 340
#
# _framework density 20.005981999999999
#
# number of rings (size 3 to 8) (size 9 to 14) (size 15 to 20)
#    0.000    1.333    6.667    2.000    2.333    0.000 
#    0.000    0.000    0.000    0.000    0.000    4.667 
#    0.000    0.000    0.000    0.000    0.000    0.000 
#
# Total GULP energy -267604.108588 kJ/mol
# GULP energy per Si atom -5575.085596 kJ/mol
# Density = 1.996045 g / cm^3
# Si number density = 20.005982 Si / 1000 Ang^3
#
#
#
# Elastic Constant Matrix: (Units=GPa)
#
#
# Indices 1 2 3 4 5 6 
#
# 1 48.3639 18.2564 41.9406 0.0000 0.0000 0.0000
# 2 18.2564 126.9770 23.0195 0.0000 0.0000 0.0000
# 3 41.9406 23.0195 54.4905 0.0000 0.0000 0.0000
# 4 0.0000 0.0000 0.0000 24.0859 0.0000 0.0000
# 5 0.0000 0.0000 0.0000 0.0000 17.9827 0.0000
# 6 0.0000 0.0000 0.0000 0.0000 0.0000 27.5981
#
#
#
# Elastic Compliance Matrix: (Units=1/GPa)
#
#
# Indices 1 2 3 4 5 6 
#
# 1 0.062188 -0.000286 -0.047744 0.000000 0.000000 0.000000
# 2 -0.000286 0.008530 -0.003384 0.000000 0.000000 0.000000
# 3 -0.047744 -0.003384 0.056529 0.000000 0.000000 0.000000
# 4 0.000000 0.000000 0.000000 0.041518 0.000000 0.000000
# 5 0.000000 0.000000 0.000000 0.000000 0.055609 0.000000
# 6 0.000000 0.000000 0.000000 0.000000 0.000000 0.036234
#
#
# Mechanical properties :
#
#
# Convention : Reuss Voigt Hill
#
# Bulk Modulus (GPa) = 40.95035 44.02937 42.48986
# Shear Modulus (GPa) = 13.45621 23.70766 18.58194
#
# Velocity S-wave (km/s) = 2.59628 3.44616 3.05096
# Velocity P-wave (km/s) = 5.43149 6.15553 5.80481
#
# Compressibility (1/GPa) = 0.02441982
#
# Stress axis : x y z
#
# Youngs Moduli (GPa) = 16.08035 117.23443 17.68992
#
# Poissons Ratio (x) = 0.03349 0.84459
# Poissons Ratio (y) = 0.00459 0.05985
# Poissons Ratio (z) = 0.76775 0.39667
#
# Static dielectric constant tensor:
#      x y z
#    x 1.737770 0.000000 0.000000 
#    y 0.000000 1.753610 0.000000 
#    z 0.000000 0.000000 1.731150 
# 
# From -- ./inp_files/21241.got.cif
#   From: 2010.05.17/outbox.cif.g08.bks.cpg/sg56_11_cif.got.tgz:21241.got - 2010.06.03 13:42:01.
