data_PCOD9430004
_publ_section_title
;
Structure prediction by ZEFSAII (Michael W. Deem and Ramdas Pophale) SiO2 
 PCOD9430004
Probable space group: P C C N
;
_chemical_formula_sum "Si O2"
_cell_formula_units_Z 48
_cell_length_a 22.757996
_cell_length_b 7.282595
_cell_length_c 11.151858
_cell_angle_alpha 90.000000
_cell_angle_beta 90.000000
_cell_angle_gamma 90.000000
_cell_volume 1848.278477
_symmetry_space_group_name_H-M "P C C N"
_symmetry_group_IT_number 56
_symmetry_cell_setting 'orthorhombic'
loop_
_space_group_symop_operation_xyz
x,y,z
1/2-x,1/2-y,z
1/2+x,-y,1/2-z
-x,1/2+y,1/2-z
-x,-y,-z
1/2+x,1/2+y,-z
1/2-x,y,1/2+z
x,1/2-y,1/2+z
loop_
_atom_site_type_symbol
_atom_site_label
_atom_site_fract_x
_atom_site_fract_y
_atom_site_fract_z
Si Si1 0.501958 0.193287 0.812641
Si Si2 0.611404 0.978952 0.927790
Si Si3 0.813528 0.526339 0.696409
Si Si4 0.680730 0.529451 0.669994
Si Si5 0.066345 0.557772 0.402816
Si Si6 0.406437 0.057087 0.647272
O O1 0.537151 0.205454 0.684479
O O2 0.462429 0.365496 0.857589
O O3 0.447883 0.073112 0.762059
O O4 0.562493 0.437677 0.954372
O O5 0.661530 0.018408 0.828279
O O6 0.600878 0.759322 0.910010
O O7 0.549513 0.079945 0.894058
O O8 0.641020 0.018435 0.055381
O O9 0.748013 0.467430 0.665876
O O10 0.817137 0.747118 0.678407
O O11 0.864013 0.443784 0.614329
O O12 0.652480 0.475038 0.797709
#
# Coordination Sequence:
#
# PCOD9430004 Si02
#       6
#     8   8   8   8   8   8
#     4  11  21  41  56  84 126 162 206 246 306 371
#     4  10  20  35  56  83 123 154 196 251 303 367
#     4   9  19  32  52  85 121 152 192 251 310 357
#     4  10  19  31  56  87 123 155 193 252 322 350
#     4  11  22  38  60  87 127 159 208 252 302 369
#     4  11  20  36  54  89 121 158 198 254 301 364
#
# _framework density 25.970112
#
# number of rings (size 3 to 8) (size 9 to 14) (size 15 to 20)
#    0.000    1.667    6.667    0.500    2.333    4.000 
#    0.000    0.000    0.000    0.000    0.000    4.667 
#   20.000    0.000    0.000    0.000    0.000    0.000 
#
# Total GULP energy -268138.582191 kJ/mol
# GULP energy per Si atom -5586.220462 kJ/mol
# Density = 2.591100 g / cm^3
# Si number density = 25.970112 Si / 1000 Ang^3
#
#
#
# Elastic Constant Matrix: (Units=GPa)
#
#
# Indices 1 2 3 4 5 6 
#
# 1 198.8918 39.1508 69.1165 0.0000 0.0000 0.0000
# 2 39.1508 114.8372 41.4225 0.0000 0.0000 0.0000
# 3 69.1165 41.4225 119.8256 0.0000 0.0000 0.0000
# 4 0.0000 0.0000 0.0000 -11.7389 0.0000 0.0000
# 5 0.0000 0.0000 0.0000 0.0000 35.8058 0.0000
# 6 0.0000 0.0000 0.0000 0.0000 0.0000 13.9807
#
#
#
# Elastic Compliance Matrix: (Units=1/GPa)
#
#
# Indices 1 2 3 4 5 6 
#
# 1 0.006381 -0.000969 -0.003346 0.000000 0.000000 0.000000
# 2 -0.000969 0.010096 -0.002931 0.000000 0.000000 0.000000
# 3 -0.003346 -0.002931 0.011289 0.000000 0.000000 0.000000
# 4 0.000000 0.000000 0.000000 -0.085187 0.000000 0.000000
# 5 0.000000 0.000000 0.000000 0.000000 0.027928 0.000000
# 6 0.000000 0.000000 0.000000 0.000000 0.000000 0.071527
#
#
# Mechanical properties :
#
#
# Convention : Reuss Voigt Hill
#
# Bulk Modulus (GPa) = 75.33542 81.43714 78.38628
# Shear Modulus (GPa) = 82.03359 26.53383 54.28371
#
# Velocity S-wave (km/s) = 5.62639 3.19988 4.57687
# Velocity P-wave (km/s) = 8.44274 6.71405 7.62752
#
# Compressibility (1/GPa) = 0.01327397
#
# Stress axis : x y z
#
# Youngs Moduli (GPa) = 156.70871 99.05389 88.58406
#
# Poissons Ratio (x) = 0.09595 0.29640
# Poissons Ratio (y) = 0.15179 0.25966
# Poissons Ratio (z) = 0.52434 0.29035
#
# Static dielectric constant tensor:
#      x y z
#    x 2.032020 0.000000 0.000000 
#    y 0.000000 2.105540 0.000000 
#    z 0.000000 0.000000 2.143630 
# 
# From -- ./inp_files/13193.got.cif
#   From: 2010.05.17/outbox.cif.g08.bks.cpg/sg56_7_cif.got.tgz:13193.got - 2010.06.03 13:42:01.
