data_PCOD9430271
_publ_section_title
;
Structure prediction by ZEFSAII (Michael W. Deem and Ramdas Pophale) SiO2 
 PCOD9430271
Probable space group: P C C N
;
_chemical_formula_sum "Si O2"
_cell_formula_units_Z 40
_cell_length_a 12.383650
_cell_length_b 4.803050
_cell_length_c 30.709539
_cell_angle_alpha 90.000000
_cell_angle_beta 90.000000
_cell_angle_gamma 90.000000
_cell_volume 1826.581580
_symmetry_space_group_name_H-M "P C C N"
_symmetry_group_IT_number 56
_symmetry_cell_setting 'orthorhombic'
loop_
_space_group_symop_operation_xyz
x,y,z
1/2-x,1/2-y,z
1/2+x,-y,1/2-z
-x,1/2+y,1/2-z
-x,-y,-z
1/2+x,1/2+y,-z
1/2-x,y,1/2+z
x,1/2-y,1/2+z
loop_
_atom_site_type_symbol
_atom_site_label
_atom_site_fract_x
_atom_site_fract_y
_atom_site_fract_z
Si Si1 0.584892 0.176700 0.046938
Si Si2 0.033331 0.320673 0.809328
Si Si3 0.634769 0.677338 0.989663
Si Si4 0.370932 0.682587 0.854888
Si Si5 0.828804 0.999356 0.773703
O O1 0.630182 0.366246 0.007616
O O2 0.625362 0.258517 0.093896
O O3 0.612066 0.864777 0.032744
O O4 0.458196 0.242370 0.043686
O O5 0.040214 0.625006 0.830703
O O6 0.099207 0.354223 0.764136
O O7 0.918318 0.170351 0.802000
O O8 0.101198 0.129753 0.842210
O O9 0.750000 0.750000 0.971473
O O10 0.250000 0.750000 0.839716
O O11 0.750000 0.250000 0.758247
O O12 0.750000 0.750000 0.791219
#
# Coordination Sequence:
#
# PCOD9430271 Si02
#       5
#     8   8   8   8   8
#     4  10  22  36  58  90 118 151 200 242 294 358
#     4  12  25  40  63  91 119 155 204 246 300 368
#     4  10  19  37  60  83 116 159 198 239 286 351
#     4  12  23  38  60  91 125 154 192 255 312 353
#     4  12  24  43  66  89 121 163 206 254 303 363
#
# _framework density 21.89883
#
# number of rings (size 3 to 8) (size 9 to 14) (size 15 to 20)
#    0.000    0.800    0.000   10.200    0.000    0.000 
#    0.000    3.000    0.000    2.400    0.000    0.000 
#    0.000    0.000    0.000    0.000    0.000    0.000 
#
# Total GULP energy -223516.443964 kJ/mol
# GULP energy per Si atom -5587.911099 kJ/mol
# Density = 2.184899 g / cm^3
# Si number density = 21.898830 Si / 1000 Ang^3
#
#
#
# Elastic Constant Matrix: (Units=GPa)
#
#
# Indices 1 2 3 4 5 6 
#
# 1 149.5011 21.0152 12.8176 0.0000 0.0000 0.0000
# 2 21.0152 86.5501 -0.6278 0.0000 0.0000 0.0000
# 3 12.8176 -0.6278 43.3849 0.0000 0.0000 0.0000
# 4 0.0000 0.0000 0.0000 -3.6064 0.0000 0.0000
# 5 0.0000 0.0000 0.0000 0.0000 10.4507 0.0000
# 6 0.0000 0.0000 0.0000 0.0000 0.0000 45.7908
#
#
#
# Elastic Compliance Matrix: (Units=1/GPa)
#
#
# Indices 1 2 3 4 5 6 
#
# 1 0.007116 -0.001743 -0.002128 0.000000 0.000000 0.000000
# 2 -0.001743 0.011982 0.000688 0.000000 0.000000 0.000000
# 3 -0.002128 0.000688 0.023688 0.000000 0.000000 0.000000
# 4 0.000000 0.000000 0.000000 -0.277287 0.000000 0.000000
# 5 0.000000 0.000000 0.000000 0.000000 0.095688 0.000000
# 6 0.000000 0.000000 0.000000 0.000000 0.000000 0.021838
#
#
# Mechanical properties :
#
#
# Convention : Reuss Voigt Hill
#
# Bulk Modulus (GPa) = 27.45630 38.42735 32.94182
# Shear Modulus (GPa) = -50.77759 26.94243 -11.91758
#
# Velocity S-wave (km/s) = -4.82055 3.51139 -2.33536
# Velocity P-wave (km/s) = 4.29169 5.83314 2.79347
#
# Compressibility (1/GPa) = 0.03642152
#
# Stress axis : x y z
#
# Youngs Moduli (GPa) = 140.52056 83.45645 42.21541
#
# Poissons Ratio (x) = 0.14550 0.08982
# Poissons Ratio (y) = 0.24498 -0.02906
# Poissons Ratio (z) = 0.29898 -0.05746
#
# Static dielectric constant tensor:
#      x y z
#    x 1.848570 0.000000 0.000000 
#    y 0.000000 1.776050 0.000000 
#    z 0.000000 0.000000 1.752980 
# 
# From -- ./inp_files/23449.got.cif
#   From: 2010.05.17/outbox.cif.g08.bks.cpg/sg56_12_cif.got.tgz:23449.got - 2010.06.03 13:42:01.
