data_PCOD9430618
_publ_section_title
;
Structure prediction by ZEFSAII (Michael W. Deem and Ramdas Pophale) SiO2 
 PCOD9430618
Probable space group: P C C N
;
_chemical_formula_sum "Si O2"
_cell_formula_units_Z 36
_cell_length_a 13.622150
_cell_length_b 8.134523
_cell_length_c 15.914044
_cell_angle_alpha 90.000000
_cell_angle_beta 90.000000
_cell_angle_gamma 90.000000
_cell_volume 1763.430322
_symmetry_space_group_name_H-M "P C C N"
_symmetry_group_IT_number 56
_symmetry_cell_setting 'orthorhombic'
loop_
_space_group_symop_operation_xyz
x,y,z
1/2-x,1/2-y,z
1/2+x,-y,1/2-z
-x,1/2+y,1/2-z
-x,-y,-z
1/2+x,1/2+y,-z
1/2-x,y,1/2+z
x,1/2-y,1/2+z
loop_
_atom_site_type_symbol
_atom_site_label
_atom_site_fract_x
_atom_site_fract_y
_atom_site_fract_z
Si Si1 0.685080 0.890505 0.844207
Si Si2 0.551042 0.106086 0.737169
Si Si3 0.717392 0.423560 0.108308
Si Si4 0.750000 0.750000 0.002550
Si Si5 0.147266 0.943182 0.224758
O O1 0.750000 0.750000 0.796916
O O2 0.592787 0.960951 0.796590
O O3 0.769406 0.031855 0.845658
O O4 0.667941 0.813819 0.935666
O O5 0.610028 0.093972 0.649764
O O6 0.587486 0.273744 0.780012
O O7 0.436228 0.081911 0.724946
O O8 0.750000 0.250000 0.066745
O O9 0.722607 0.590428 0.055726
O O10 0.791390 0.440179 0.188284
#
# Coordination Sequence:
#
# PCOD9430618 Si02
#       5
#     8   8   8   4   8
#     4   9  20  36  54  86 111 147 193 226 291 337
#     4  10  20  35  62  86 111 146 201 248 276 330
#     4   9  21  38  58  87 113 153 195 236 291 340
#     4  10  22  36  64  76 128 156 182 226 306 354
#     4  10  20  35  62  86 111 146 201 248 276 330
#
# _framework density 20.414756000000001
#
# number of rings (size 3 to 8) (size 9 to 14) (size 15 to 20)
#    0.667    1.778    0.000    3.333    9.333    1.778 
#    0.000    2.222    0.000    0.000    0.000    0.000 
#    0.000    0.000    0.000    0.000    0.000    0.000 
#
# Total GULP energy -200448.207470 kJ/mol
# GULP energy per Si atom -5568.005763 kJ/mol
# Density = 2.036829 g / cm^3
# Si number density = 20.414756 Si / 1000 Ang^3
#
#
#
# Elastic Constant Matrix: (Units=GPa)
#
#
# Indices 1 2 3 4 5 6 
#
# 1 105.9433 10.1852 4.4705 0.0000 0.0000 0.0000
# 2 10.1852 126.5123 35.3069 0.0000 0.0000 0.0000
# 3 4.4705 35.3069 43.7470 0.0000 0.0000 0.0000
# 4 0.0000 0.0000 0.0000 28.9199 0.0000 0.0000
# 5 0.0000 0.0000 0.0000 0.0000 0.0697 0.0000
# 6 0.0000 0.0000 0.0000 0.0000 0.0000 29.9579
#
#
#
# Elastic Compliance Matrix: (Units=1/GPa)
#
#
# Indices 1 2 3 4 5 6 
#
# 1 0.009520 -0.000639 -0.000457 0.000000 0.000000 0.000000
# 2 -0.000639 0.010245 -0.008203 0.000000 0.000000 0.000000
# 3 -0.000457 -0.008203 0.029526 0.000000 0.000000 0.000000
# 4 0.000000 0.000000 0.000000 0.034578 0.000000 0.000000
# 5 0.000000 0.000000 0.000000 0.000000 14.352747 0.000000
# 6 0.000000 0.000000 0.000000 0.000000 0.000000 0.033380
#
#
# Mechanical properties :
#
#
# Convention : Reuss Voigt Hill
#
# Bulk Modulus (GPa) = 32.58154 41.79199 37.18676
# Shear Modulus (GPa) = 0.34486 26.87215 13.60850
#
# Velocity S-wave (km/s) = 0.41145 3.63203 2.58466
# Velocity P-wave (km/s) = 4.02743 6.17291 5.21176
#
# Compressibility (1/GPa) = 0.03069223
#
# Stress axis : x y z
#
# Youngs Moduli (GPa) = 105.04507 97.60705 33.86840
#
# Poissons Ratio (x) = 0.06235 0.01549
# Poissons Ratio (y) = 0.06710 0.27783
# Poissons Ratio (z) = 0.04803 0.80070
#
# Static dielectric constant tensor:
#      x y z
#    x 1.707930 0.000000 0.000000 
#    y 0.000000 1.926880 0.000000 
#    z 0.000000 0.000000 1.723230 
# 
# From -- ./inp_files/14560.got.cif
#   From: 2010.05.17/outbox.cif.g08.bks.cpg/sg56_8_cif.got.tgz:14560.got - 2010.06.03 13:42:01.
