data_PCOD9430996
_publ_section_title
;
Structure prediction by ZEFSAII (Michael W. Deem and Ramdas Pophale) SiO2 
 PCOD9430996
Probable space group: P C C N
;
_chemical_formula_sum "Si O2"
_cell_formula_units_Z 56
_cell_length_a 20.752941
_cell_length_b 12.202457
_cell_length_c 9.379196
_cell_angle_alpha 90.000000
_cell_angle_beta 90.000000
_cell_angle_gamma 90.000000
_cell_volume 2375.158240
_symmetry_space_group_name_H-M "P C C N"
_symmetry_group_IT_number 56
_symmetry_cell_setting 'orthorhombic'
loop_
_space_group_symop_operation_xyz
x,y,z
1/2-x,1/2-y,z
1/2+x,-y,1/2-z
-x,1/2+y,1/2-z
-x,-y,-z
1/2+x,1/2+y,-z
1/2-x,y,1/2+z
x,1/2-y,1/2+z
loop_
_atom_site_type_symbol
_atom_site_label
_atom_site_fract_x
_atom_site_fract_y
_atom_site_fract_z
Si Si1 0.806486 0.339396 0.605367
Si Si2 0.800504 0.502957 0.148522
Si Si3 0.112327 0.337610 0.364782
Si Si4 0.312790 0.201320 0.639371
Si Si5 0.628056 0.306822 0.815412
Si Si6 0.502894 0.076104 0.228106
Si Si7 0.571700 0.597442 0.565942
O O1 0.750000 0.250000 0.578811
O O2 0.768278 0.454609 0.599634
O O3 0.841816 0.305746 0.752642
O O4 0.858159 0.320280 0.481577
O O5 0.793749 0.609539 0.246481
O O6 0.830424 0.402703 0.239131
O O7 0.858271 0.539432 0.041563
O O8 0.146780 0.354259 0.514762
O O9 0.154453 0.301557 0.226911
O O10 0.078150 0.221737 0.391307
O O11 0.058642 0.426876 0.329922
O O12 0.250000 0.250000 0.565325
O O13 0.554506 0.332134 0.774418
O O14 0.541939 0.965183 0.201874
O O15 0.473009 0.096080 0.071885
#
# Coordination Sequence:
#
# PCOD9430996 Si02
#       7
#     8   8   8   8   8   8   8
#     4  10  20  39  65  96 139 171 218 278 337 420
#     4   9  21  41  65  91 134 175 227 280 342 411
#     4  11  22  42  67  98 131 179 224 289 346 411
#     4  11  24  42  66  95 131 174 233 286 346 404
#     4  10  22  38  66 100 133 177 218 273 345 413
#     4  10  21  41  69  97 136 180 230 278 347 427
#     4   9  20  41  67  96 133 178 227 285 348 415
#
# _framework density 23.577375
#
# number of rings (size 3 to 8) (size 9 to 14) (size 15 to 20)
#    0.000    2.000    1.429    1.714    2.000    3.429 
#    0.000   10.714    0.000    0.000    0.000    0.000 
#    0.000    0.000    0.000    0.000    0.000    0.000 
#
# Total GULP energy -312782.766409 kJ/mol
# GULP energy per Si atom -5585.406543 kJ/mol
# Density = 2.352371 g / cm^3
# Si number density = 23.577375 Si / 1000 Ang^3
#
#
#
# Elastic Constant Matrix: (Units=GPa)
#
#
# Indices 1 2 3 4 5 6 
#
# 1 107.8776 31.0365 53.3509 0.0000 0.0000 0.0000
# 2 31.0365 65.5572 10.8852 0.0000 0.0000 0.0000
# 3 53.3509 10.8852 91.3157 0.0000 0.0000 0.0000
# 4 0.0000 0.0000 0.0000 23.0756 0.0000 0.0000
# 5 0.0000 0.0000 0.0000 0.0000 1.5584 0.0000
# 6 0.0000 0.0000 0.0000 0.0000 0.0000 27.2862
#
#
#
# Elastic Compliance Matrix: (Units=1/GPa)
#
#
# Indices 1 2 3 4 5 6 
#
# 1 0.014874 -0.005712 -0.008009 0.000000 0.000000 0.000000
# 2 -0.005712 0.017755 0.001221 0.000000 0.000000 0.000000
# 3 -0.008009 0.001221 0.015485 0.000000 0.000000 0.000000
# 4 0.000000 0.000000 0.000000 0.043336 0.000000 0.000000
# 5 0.000000 0.000000 0.000000 0.000000 0.641693 0.000000
# 6 0.000000 0.000000 0.000000 0.000000 0.000000 0.036649
#
#
# Mechanical properties :
#
#
# Convention : Reuss Voigt Hill
#
# Bulk Modulus (GPa) = 43.26512 50.58841 46.92676
# Shear Modulus (GPa) = 6.23055 21.68256 13.95655
#
# Velocity S-wave (km/s) = 1.62737 3.03584 2.43564
# Velocity P-wave (km/s) = 4.68201 5.81303 5.27790
#
# Compressibility (1/GPa) = 0.02311331
#
# Stress axis : x y z
#
# Youngs Moduli (GPa) = 67.23115 56.32105 64.57912
#
# Poissons Ratio (x) = 0.32170 0.51723
# Poissons Ratio (y) = 0.38402 -0.07883
# Poissons Ratio (z) = 0.53847 -0.06875
#
# Static dielectric constant tensor:
#      x y z
#    x 1.970790 0.000000 0.000000 
#    y 0.000000 1.883970 0.000000 
#    z 0.000000 0.000000 1.878420 
# 
# From -- ./inp_files/4468.got.cif
#   From: 2010.05.17/outbox.cif.g08.bks.cpg/sg56_3_cif.got.tgz:4468.got - 2010.06.03 13:42:01.
