data_PCOD9430794
_publ_section_title
;
Structure prediction by ZEFSAII (Michael W. Deem and Ramdas Pophale) SiO2 
 PCOD9430794
Probable space group: P C C N
;
_chemical_formula_sum "Si O2"
_cell_formula_units_Z 60
_cell_length_a 7.431462
_cell_length_b 16.177559
_cell_length_c 25.483750
_cell_angle_alpha 90.000000
_cell_angle_beta 90.000000
_cell_angle_gamma 90.000000
_cell_volume 3063.730709
_symmetry_space_group_name_H-M "P C C N"
_symmetry_group_IT_number 56
_symmetry_cell_setting 'orthorhombic'
loop_
_space_group_symop_operation_xyz
x,y,z
1/2-x,1/2-y,z
1/2+x,-y,1/2-z
-x,1/2+y,1/2-z
-x,-y,-z
1/2+x,1/2+y,-z
1/2-x,y,1/2+z
x,1/2-y,1/2+z
loop_
_atom_site_type_symbol
_atom_site_label
_atom_site_fract_x
_atom_site_fract_y
_atom_site_fract_z
Si Si1 0.500008 0.017936 0.910815
Si Si2 0.348438 0.384983 0.247650
Si Si3 0.652515 0.162745 0.671447
Si Si4 0.130874 0.559168 0.431184
Si Si5 0.750000 0.250000 0.891201
Si Si6 0.014742 0.550076 0.795425
Si Si7 0.632980 0.417016 0.949883
Si Si8 0.386346 0.181698 0.862704
O O1 0.682424 0.030091 0.942847
O O2 0.408055 0.107217 0.903279
O O3 0.345120 0.958213 0.931692
O O4 0.541753 0.989040 0.851435
O O5 0.483355 0.334063 0.210741
O O6 0.151518 0.396272 0.223981
O O7 0.438254 0.475594 0.255899
O O8 0.326486 0.349202 0.305904
O O9 0.750000 0.250000 0.663169
O O10 0.593293 0.121346 0.616401
O O11 0.804770 0.102267 0.695497
O O12 0.082422 0.591234 0.489033
O O13 0.021171 0.473405 0.423166
O O14 0.675069 0.327825 0.924708
O O15 0.585251 0.218407 0.856891
O O16 0.250000 0.250000 0.882714
#
# Coordination Sequence:
#
# PCOD9430794 Si02
#       8
#     8   8   8   8   4   8   8   8
#     4   9  19  37  57  84 113 149 194 244 289 349
#     4  11  22  38  59  84 114 160 202 240 294 361
#     4  11  25  39  58  90 127 161 202 252 300 363
#     4  10  21  38  61  86 116 160 198 239 297 368
#     4  10  22  38  58  90 120 146 188 260 302 350
#     4  10  21  39  60  83 116 158 203 244 296 358
#     4  10  20  37  64  88 114 151 200 244 304 361
#     4  10  22  35  55  84 117 149 188 242 297 341
#
# _framework density 19.583966
#
# number of rings (size 3 to 8) (size 9 to 14) (size 15 to 20)
#    0.000    1.867    1.333    2.000    3.733    0.000 
#    2.400    0.000    0.000    0.000    0.000    0.000 
#    0.000    0.000    0.000    0.000    0.000    0.000 
#
# Total GULP energy -334975.863276 kJ/mol
# GULP energy per Si atom -5582.931055 kJ/mol
# Density = 1.953939 g / cm^3
# Si number density = 19.583966 Si / 1000 Ang^3
#
#
#
# Elastic Constant Matrix: (Units=GPa)
#
#
# Indices 1 2 3 4 5 6 
#
# 1 51.8976 -1.6745 4.8800 0.0000 0.0000 0.0000
# 2 -1.6745 52.8299 -1.8288 0.0000 0.0000 0.0000
# 3 4.8800 -1.8288 38.5541 0.0000 0.0000 0.0000
# 4 0.0000 0.0000 0.0000 3.8236 0.0000 0.0000
# 5 0.0000 0.0000 0.0000 0.0000 -7.9696 0.0000
# 6 0.0000 0.0000 0.0000 0.0000 0.0000 35.8859
#
#
#
# Elastic Compliance Matrix: (Units=1/GPa)
#
#
# Indices 1 2 3 4 5 6 
#
# 1 0.019516 0.000534 -0.002445 0.000000 0.000000 0.000000
# 2 0.000534 0.018974 0.000832 0.000000 0.000000 0.000000
# 3 -0.002445 0.000832 0.026287 0.000000 0.000000 0.000000
# 4 0.000000 0.000000 0.000000 0.261532 0.000000 0.000000
# 5 0.000000 0.000000 0.000000 0.000000 -0.125477 0.000000
# 6 0.000000 0.000000 0.000000 0.000000 0.000000 0.027866
#
#
# Mechanical properties :
#
#
# Convention : Reuss Voigt Hill
#
# Bulk Modulus (GPa) = 15.96940 16.22611 16.09775
# Shear Modulus (GPa) = 19.86267 15.80830 17.83549
#
# Velocity S-wave (km/s) = 3.18816 2.84422 3.02109
# Velocity P-wave (km/s) = 4.66095 4.36915 4.51741
#
# Compressibility (1/GPa) = 0.06261978
#
# Stress axis : x y z
#
# Youngs Moduli (GPa) = 51.24038 52.70253 38.04234
#
# Poissons Ratio (x) = -0.02814 0.09301
# Poissons Ratio (y) = -0.02736 -0.03167
# Poissons Ratio (z) = 0.12528 -0.04387
#
# Static dielectric constant tensor:
#      x y z
#    x 1.679700 0.000000 0.000000 
#    y 0.000000 1.705450 0.000000 
#    z 0.000000 0.000000 1.666040 
# 
# From -- ./inp_files/21803.got.cif
#   From: 2010.05.17/outbox.cif.g08.bks.cpg/sg56_11_cif.got.tgz:21803.got - 2010.06.03 13:42:01.
