data_PCOD9430988
_publ_section_title
;
Structure prediction by ZEFSAII (Michael W. Deem and Ramdas Pophale) SiO2 
 PCOD9430988
Probable space group: P C C N
;
_chemical_formula_sum "Si O2"
_cell_formula_units_Z 40
_cell_length_a 5.403360
_cell_length_b 17.660074
_cell_length_c 19.142381
_cell_angle_alpha 90.000000
_cell_angle_beta 90.000000
_cell_angle_gamma 90.000000
_cell_volume 1826.637539
_symmetry_space_group_name_H-M "P C C N"
_symmetry_group_IT_number 56
_symmetry_cell_setting 'orthorhombic'
loop_
_space_group_symop_operation_xyz
x,y,z
1/2-x,1/2-y,z
1/2+x,-y,1/2-z
-x,1/2+y,1/2-z
-x,-y,-z
1/2+x,1/2+y,-z
1/2-x,y,1/2+z
x,1/2-y,1/2+z
loop_
_atom_site_type_symbol
_atom_site_label
_atom_site_fract_x
_atom_site_fract_y
_atom_site_fract_z
Si Si1 0.712783 0.161548 0.175513
Si Si2 0.320875 0.438755 0.467302
Si Si3 0.752626 0.465163 0.278263
Si Si4 0.998074 0.700876 0.966486
Si Si5 0.968394 0.541099 0.397492
O O1 0.750000 0.250000 0.188693
O O2 0.668797 0.116724 0.247694
O O3 0.523669 0.158730 0.109327
O O4 0.944398 0.115842 0.142958
O O5 0.500000 0.500000 0.500000
O O6 0.462587 0.359344 0.470838
O O7 0.191158 0.479625 0.402626
O O8 0.104121 0.431002 0.525751
O O9 0.477645 0.484229 0.252637
O O10 0.762487 0.490908 0.358653
O O11 0.250000 0.750000 0.973460
O O12 0.750000 0.750000 0.964807
#
# Coordination Sequence:
#
# PCOD9430988 Si02
#       5
#     8   8   8   8   8
#     4  10  20  39  64  94 119 159 204 264 309 361
#     4  11  21  37  65  91 124 167 213 252 313 379
#     4  10  22  39  61  89 124 160 202 250 310 370
#     4  11  23  38  61  92 125 160 206 262 309 361
#     4  10  22  38  62  94 126 163 209 261 310 377
#
# _framework density 21.898159
#
# number of rings (size 3 to 8) (size 9 to 14) (size 15 to 20)
#    0.000    1.600    2.000    3.600    5.600    3.200 
#    0.000    0.000    4.400    0.000    0.000    0.000 
#    0.000    0.000    0.000    0.000    0.000    0.000 
#
# Total GULP energy -222825.742567 kJ/mol
# GULP energy per Si atom -5570.643564 kJ/mol
# Density = 2.184832 g / cm^3
# Si number density = 21.898159 Si / 1000 Ang^3
#
#
#
# Elastic Constant Matrix: (Units=GPa)
#
#
# Indices 1 2 3 4 5 6 
#
# 1 89.9805 17.9825 8.8625 0.0000 0.0000 0.0000
# 2 17.9825 144.2740 29.4059 0.0000 0.0000 0.0000
# 3 8.8625 29.4059 26.9112 0.0000 0.0000 0.0000
# 4 0.0000 0.0000 0.0000 31.2394 0.0000 0.0000
# 5 0.0000 0.0000 0.0000 0.0000 34.1188 0.0000
# 6 0.0000 0.0000 0.0000 0.0000 0.0000 29.8113
#
#
#
# Elastic Compliance Matrix: (Units=1/GPa)
#
#
# Indices 1 2 3 4 5 6 
#
# 1 0.011568 -0.000856 -0.002874 0.000000 0.000000 0.000000
# 2 -0.000856 0.008981 -0.009531 0.000000 0.000000 0.000000
# 3 -0.002874 -0.009531 0.048521 0.000000 0.000000 0.000000
# 4 0.000000 0.000000 0.000000 0.032011 0.000000 0.000000
# 5 0.000000 0.000000 0.000000 0.000000 0.029309 0.000000
# 6 0.000000 0.000000 0.000000 0.000000 0.000000 0.033544
#
#
# Mechanical properties :
#
#
# Convention : Reuss Voigt Hill
#
# Bulk Modulus (GPa) = 23.50394 41.51862 32.51128
# Shear Modulus (GPa) = 24.43338 32.69490 28.56414
#
# Velocity S-wave (km/s) = 3.34394 3.86818 3.61558
# Velocity P-wave (km/s) = 5.06615 6.24111 5.68407
#
# Compressibility (1/GPa) = 0.04254606
#
# Stress axis : x y z
#
# Youngs Moduli (GPa) = 86.44781 111.35109 20.60983
#
# Poissons Ratio (x) = 0.09532 0.05924
# Poissons Ratio (y) = 0.07400 0.19644
# Poissons Ratio (z) = 0.24846 1.06131
#
# Static dielectric constant tensor:
#      x y z
#    x 1.887130 0.000000 0.000000 
#    y 0.000000 1.826990 0.000000 
#    z 0.000000 0.000000 1.933010 
# 
# From -- ./inp_files/13837.got.cif
#   From: 2010.05.17/outbox.cif.g08.bks.cpg/sg56_7_cif.got.tgz:13837.got - 2010.06.03 13:42:01.
