data_PCOD9430839
_publ_section_title
;
Structure prediction by ZEFSAII (Michael W. Deem and Ramdas Pophale) SiO2 
 PCOD9430839
Probable space group: P C C N
;
_chemical_formula_sum "Si O2"
_cell_formula_units_Z 48
_cell_length_a 9.890376
_cell_length_b 14.036975
_cell_length_c 16.435529
_cell_angle_alpha 90.000000
_cell_angle_beta 90.000000
_cell_angle_gamma 90.000000
_cell_volume 2281.760280
_symmetry_space_group_name_H-M "P C C N"
_symmetry_group_IT_number 56
_symmetry_cell_setting 'orthorhombic'
loop_
_space_group_symop_operation_xyz
x,y,z
1/2-x,1/2-y,z
1/2+x,-y,1/2-z
-x,1/2+y,1/2-z
-x,-y,-z
1/2+x,1/2+y,-z
1/2-x,y,1/2+z
x,1/2-y,1/2+z
loop_
_atom_site_type_symbol
_atom_site_label
_atom_site_fract_x
_atom_site_fract_y
_atom_site_fract_z
Si Si1 0.702162 0.894210 0.074256
Si Si2 0.037938 0.020439 0.646893
Si Si3 0.895978 0.780434 0.436305
Si Si4 0.798869 0.039354 0.939745
Si Si5 0.157951 0.837025 0.910209
Si Si6 0.428846 0.468984 0.835589
O O1 0.817899 0.888436 0.142257
O O2 0.584642 0.962126 0.108022
O O3 0.629938 0.805506 0.031207
O O4 0.777578 0.947871 0.998896
O O5 0.049125 0.123633 0.605192
O O6 0.025414 0.032612 0.742931
O O7 0.176887 0.966414 0.623861
O O8 0.750000 0.750000 0.401983
O O9 0.007005 0.700915 0.423217
O O10 0.942247 0.037973 0.894983
O O11 0.787722 0.126833 0.002419
O O12 0.250000 0.750000 0.879866
O O13 0.145822 0.930108 0.853902
#
# Coordination Sequence:
#
# PCOD9430839 Si02
#       6
#     8   8   8   8   8   8
#     4  10  20  38  60  82 110 154 197 226 276 355
#     4  11  22  39  61  86 118 156 190 232 293 356
#     4  11  21  37  59  86 114 150 198 248 283 327
#     4  10  20  38  60  82 110 154 197 226 276 355
#     4  11  21  37  59  86 114 150 198 248 283 327
#     4  11  22  39  61  86 118 156 190 232 293 356
#
# _framework density 21.036390999999998
#
# number of rings (size 3 to 8) (size 9 to 14) (size 15 to 20)
#    0.000    1.333    0.000   11.000    0.000    0.000 
#    0.000   10.000    0.000    0.000    0.000    0.000 
#    0.000    0.000    0.000    0.000    0.000    0.000 
#
# Total GULP energy -268257.938580 kJ/mol
# GULP energy per Si atom -5588.707054 kJ/mol
# Density = 2.098851 g / cm^3
# Si number density = 21.036391 Si / 1000 Ang^3
#
#
#
# Elastic Constant Matrix: (Units=GPa)
#
#
# Indices 1 2 3 4 5 6 
#
# 1 87.7039 -6.9831 -0.6883 0.0000 0.0000 0.0000
# 2 -6.9831 39.9542 0.1526 0.0000 0.0000 0.0000
# 3 -0.6883 0.1526 80.6933 0.0000 0.0000 0.0000
# 4 0.0000 0.0000 0.0000 6.7649 0.0000 0.0000
# 5 0.0000 0.0000 0.0000 0.0000 21.8742 0.0000
# 6 0.0000 0.0000 0.0000 0.0000 0.0000 34.0202
#
#
#
# Elastic Compliance Matrix: (Units=1/GPa)
#
#
# Indices 1 2 3 4 5 6 
#
# 1 0.011564 0.002021 0.000095 0.000000 0.000000 0.000000
# 2 0.002021 0.025382 -0.000031 0.000000 0.000000 0.000000
# 3 0.000095 -0.000031 0.012393 0.000000 0.000000 0.000000
# 4 0.000000 0.000000 0.000000 0.147822 0.000000 0.000000
# 5 0.000000 0.000000 0.000000 0.000000 0.045716 0.000000
# 6 0.000000 0.000000 0.000000 0.000000 0.000000 0.029394
#
#
# Mechanical properties :
#
#
# Convention : Reuss Voigt Hill
#
# Bulk Modulus (GPa) = 18.68861 21.47932 20.08396
# Shear Modulus (GPa) = 17.48632 26.92322 22.20477
#
# Velocity S-wave (km/s) = 2.88625 3.58137 3.25243
# Velocity P-wave (km/s) = 4.47331 5.22822 4.86543
#
# Compressibility (1/GPa) = 0.05350854
#
# Stress axis : x y z
#
# Youngs Moduli (GPa) = 86.47803 39.39804 80.68767
#
# Poissons Ratio (x) = -0.07961 -0.00765
# Poissons Ratio (y) = -0.17475 0.00248
# Poissons Ratio (z) = -0.00820 0.00121
#
# Static dielectric constant tensor:
#      x y z
#    x 1.774110 0.000000 0.000000 
#    y 0.000000 1.802550 0.000000 
#    z 0.000000 0.000000 1.734740 
# 
# From -- ./inp_files/14767.got.cif
#   From: 2010.05.17/outbox.cif.g08.bks.cpg/sg56_8_cif.got.tgz:14767.got - 2010.06.03 13:42:01.
