data_PCOD9430731
_publ_section_title
;
Structure prediction by ZEFSAII (Michael W. Deem and Ramdas Pophale) SiO2 
 PCOD9430731
Probable space group: P C C N
;
_chemical_formula_sum "Si O2"
_cell_formula_units_Z 64
_cell_length_a 8.584466
_cell_length_b 12.821532
_cell_length_c 28.638770
_cell_angle_alpha 90.000000
_cell_angle_beta 90.000000
_cell_angle_gamma 90.000000
_cell_volume 3152.155017
_symmetry_space_group_name_H-M "P C C N"
_symmetry_group_IT_number 56
_symmetry_cell_setting 'orthorhombic'
loop_
_space_group_symop_operation_xyz
x,y,z
1/2-x,1/2-y,z
1/2+x,-y,1/2-z
-x,1/2+y,1/2-z
-x,-y,-z
1/2+x,1/2+y,-z
1/2-x,y,1/2+z
x,1/2-y,1/2+z
loop_
_atom_site_type_symbol
_atom_site_label
_atom_site_fract_x
_atom_site_fract_y
_atom_site_fract_z
Si Si1 0.997964 0.495392 0.405509
Si Si2 0.424279 0.201230 0.816333
Si Si3 0.245792 0.130442 0.453226
Si Si4 0.763712 0.366401 0.653254
Si Si5 0.086121 0.573965 0.253042
Si Si6 0.109822 0.590246 0.691525
Si Si7 0.021309 0.487531 0.884967
Si Si8 0.729745 0.869454 0.937886
O O1 0.084966 0.414230 0.438949
O O2 0.123181 0.565709 0.378656
O O3 0.902051 0.444923 0.362517
O O4 0.893090 0.572311 0.434734
O O5 0.250000 0.250000 0.823544
O O6 0.438477 0.132542 0.769474
O O7 0.551843 0.291298 0.809504
O O8 0.483427 0.121775 0.856451
O O9 0.250000 0.250000 0.435923
O O10 0.129052 0.051679 0.427529
O O11 0.194082 0.134545 0.507086
O O12 0.750000 0.250000 0.634678
O O13 0.835253 0.362667 0.704734
O O14 0.605142 0.431879 0.650581
O O15 0.223065 0.565528 0.214513
O O16 0.019586 0.470502 0.277417
O O17 0.885612 0.556921 0.908106
O O18 0.750000 0.750000 0.920575
#
# Coordination Sequence:
#
# PCOD9430731 Si02
#       8
#     8   8   8   8   8   8   8   8
#     4  10  21  37  59  85 118 158 202 253 311 367
#     4  12  23  39  63  90 124 164 208 259 311 369
#     4  10  21  40  63  87 120 159 202 255 320 384
#     4  10  20  37  57  80 117 161 201 244 300 365
#     4  11  23  38  59  87 121 162 207 252 303 365
#     4  11  22  39  59  87 124 164 209 259 311 372
#     4  11  22  39  63  89 120 163 206 250 314 380
#     4  11  23  39  61  91 122 155 203 262 316 378
#
# _framework density 20.303570000000001
#
# number of rings (size 3 to 8) (size 9 to 14) (size 15 to 20)
#    0.000    1.250    0.000    8.250    0.000    0.000 
#    0.000    9.375    0.000    7.500    0.000    0.000 
#    0.000    0.000    0.000    0.000    0.000    0.000 
#
# Total GULP energy -356865.162026 kJ/mol
# GULP energy per Si atom -5576.018157 kJ/mol
# Density = 2.025736 g / cm^3
# Si number density = 20.303570 Si / 1000 Ang^3
#
#
#
# Elastic Constant Matrix: (Units=GPa)
#
#
# Indices 1 2 3 4 5 6 
#
# 1 87.3906 40.8225 22.4705 0.0000 0.0000 0.0000
# 2 40.8225 141.3961 28.8261 0.0000 0.0000 0.0000
# 3 22.4705 28.8261 59.1517 0.0000 0.0000 0.0000
# 4 0.0000 0.0000 0.0000 34.1505 0.0000 0.0000
# 5 0.0000 0.0000 0.0000 0.0000 203.1732 0.0000
# 6 0.0000 0.0000 0.0000 0.0000 0.0000 53.2057
#
#
#
# Elastic Compliance Matrix: (Units=1/GPa)
#
#
# Indices 1 2 3 4 5 6 
#
# 1 0.013918 -0.003265 -0.003696 0.000000 0.000000 0.000000
# 2 -0.003265 0.008618 -0.002960 0.000000 0.000000 0.000000
# 3 -0.003696 -0.002960 0.019752 0.000000 0.000000 0.000000
# 4 0.000000 0.000000 0.000000 0.029282 0.000000 0.000000
# 5 0.000000 0.000000 0.000000 0.000000 0.004922 0.000000
# 6 0.000000 0.000000 0.000000 0.000000 0.000000 0.018795
#
#
# Mechanical properties :
#
#
# Convention : Reuss Voigt Hill
#
# Bulk Modulus (GPa) = 44.54881 52.46406 48.50643
# Shear Modulus (GPa) = 40.77909 71.16050 55.96979
#
# Velocity S-wave (km/s) = 4.48646 5.92658 5.25607
# Velocity P-wave (km/s) = 6.98761 8.52809 7.79600
#
# Compressibility (1/GPa) = 0.02244729
#
# Stress axis : x y z
#
# Youngs Moduli (GPa) = 71.84742 116.03206 50.62738
#
# Poissons Ratio (x) = 0.37883 0.18713
# Poissons Ratio (y) = 0.23457 0.14984
# Poissons Ratio (z) = 0.26557 0.34342
#
# Static dielectric constant tensor:
#      x y z
#    x 1.769090 0.000000 0.000000 
#    y 0.000000 1.671260 0.000000 
#    z 0.000000 0.000000 1.768860 
# 
# From -- ./inp_files/23408.got.cif
#   From: 2010.05.17/outbox.cif.g08.bks.cpg/sg56_12_cif.got.tgz:23408.got - 2010.06.03 13:42:01.
