data_PCOD9430387
_publ_section_title
;
Structure prediction by ZEFSAII (Michael W. Deem and Ramdas Pophale) SiO2 
 PCOD9430387
Probable space group: P C C N
;
_chemical_formula_sum "Si O2"
_cell_formula_units_Z 32
_cell_length_a 13.687031
_cell_length_b 7.789190
_cell_length_c 13.886213
_cell_angle_alpha 90.000000
_cell_angle_beta 90.000000
_cell_angle_gamma 90.000000
_cell_volume 1480.421457
_symmetry_space_group_name_H-M "P C C N"
_symmetry_group_IT_number 56
_symmetry_cell_setting 'orthorhombic'
loop_
_space_group_symop_operation_xyz
x,y,z
1/2-x,1/2-y,z
1/2+x,-y,1/2-z
-x,1/2+y,1/2-z
-x,-y,-z
1/2+x,1/2+y,-z
1/2-x,y,1/2+z
x,1/2-y,1/2+z
loop_
_atom_site_type_symbol
_atom_site_label
_atom_site_fract_x
_atom_site_fract_y
_atom_site_fract_z
Si Si1 0.365770 0.104567 0.323074
Si Si2 0.195413 0.567075 0.709498
Si Si3 0.979085 0.258196 0.188569
Si Si4 0.090413 0.380558 0.532800
O O1 0.438477 0.234306 0.270332
O O2 0.353084 0.154553 0.434205
O O3 0.268835 0.060411 0.264046
O O4 0.425566 0.924435 0.317694
O O5 0.250000 0.750000 0.689354
O O6 0.106102 0.613696 0.780584
O O7 0.154690 0.482298 0.611663
O O8 0.039542 0.277605 0.089264
O O9 0.000000 0.500000 0.500000
#
# Coordination Sequence:
#
# PCOD9430387 Si02
#       4
#     8   8   8   8
#     4  10  22  40  65  89 128 163 210 256 315 372
#     4  10  21  38  65  94 122 167 211 253 308 385
#     4  10  19  40  62  91 124 166 200 263 308 366
#     4  10  20  39  66  85 128 167 197 260 319 359
#
# _framework density 21.615468
#
# number of rings (size 3 to 8) (size 9 to 14) (size 15 to 20)
#    0.000    2.000    5.000    0.000    0.000    6.000 
#    0.000    6.250    0.000    0.000    0.000    0.000 
#    0.000    0.000    0.000    0.000    0.000    0.000 
#
# Total GULP energy -178571.908580 kJ/mol
# GULP energy per Si atom -5580.372143 kJ/mol
# Density = 2.156627 g / cm^3
# Si number density = 21.615468 Si / 1000 Ang^3
#
#
#
# Elastic Constant Matrix: (Units=GPa)
#
#
# Indices 1 2 3 4 5 6 
#
# 1 153.5211 37.7088 87.2579 0.0000 0.0000 0.0000
# 2 37.7088 58.4682 34.2095 0.0000 0.0000 0.0000
# 3 87.2579 34.2095 184.7431 0.0000 0.0000 0.0000
# 4 0.0000 0.0000 0.0000 -14.9748 0.0000 0.0000
# 5 0.0000 0.0000 0.0000 0.0000 48.0209 0.0000
# 6 0.0000 0.0000 0.0000 0.0000 0.0000 20.8438
#
#
#
# Elastic Compliance Matrix: (Units=1/GPa)
#
#
# Indices 1 2 3 4 5 6 
#
# 1 0.009671 -0.003998 -0.003828 0.000000 0.000000 0.000000
# 2 -0.003998 0.020834 -0.001970 0.000000 0.000000 0.000000
# 3 -0.003828 -0.001970 0.007586 0.000000 0.000000 0.000000
# 4 0.000000 0.000000 0.000000 -0.066779 0.000000 0.000000
# 5 0.000000 0.000000 0.000000 0.000000 0.020824 0.000000
# 6 0.000000 0.000000 0.000000 0.000000 0.000000 0.047976
#
#
# Mechanical properties :
#
#
# Convention : Reuss Voigt Hill
#
# Bulk Modulus (GPa) = 54.05233 79.45387 66.75310
# Shear Modulus (GPa) = 75.90796 26.61509 51.26152
#
# Velocity S-wave (km/s) = 5.93242 3.51279 4.87511
# Velocity P-wave (km/s) = 8.48443 7.30004 7.91442
#
# Compressibility (1/GPa) = 0.01850059
#
# Stress axis : x y z
#
# Youngs Moduli (GPa) = 103.39875 47.99809 131.83010
#
# Poissons Ratio (x) = 0.19189 0.50460
# Poissons Ratio (y) = 0.41338 0.25966
# Poissons Ratio (z) = 0.39577 0.09454
#
# Static dielectric constant tensor:
#      x y z
#    x 1.744920 0.000000 0.000000 
#    y 0.000000 1.830690 0.000000 
#    z 0.000000 0.000000 1.787680 
# 
# From -- ./inp_files/5970.got.cif
#   From: 2010.05.17/outbox.cif.g08.bks.cpg/sg56_3_cif.got.tgz:5970.got - 2010.06.03 13:42:01.
