data_PCOD9430707
_publ_section_title
;
Structure prediction by ZEFSAII (Michael W. Deem and Ramdas Pophale) SiO2 
 PCOD9430707
Probable space group: P C C N
;
_chemical_formula_sum "Si O2"
_cell_formula_units_Z 60
_cell_length_a 16.791681
_cell_length_b 10.915743
_cell_length_c 17.106849
_cell_angle_alpha 90.000000
_cell_angle_beta 90.000000
_cell_angle_gamma 90.000000
_cell_volume 3135.577209
_symmetry_space_group_name_H-M "P C C N"
_symmetry_group_IT_number 56
_symmetry_cell_setting 'orthorhombic'
loop_
_space_group_symop_operation_xyz
x,y,z
1/2-x,1/2-y,z
1/2+x,-y,1/2-z
-x,1/2+y,1/2-z
-x,-y,-z
1/2+x,1/2+y,-z
1/2-x,y,1/2+z
x,1/2-y,1/2+z
loop_
_atom_site_type_symbol
_atom_site_label
_atom_site_fract_x
_atom_site_fract_y
_atom_site_fract_z
Si Si1 0.209281 0.117109 0.654464
Si Si2 0.750000 0.750000 0.114151
Si Si3 0.257570 0.493869 0.488647
Si Si4 0.359021 0.005971 0.731186
Si Si5 0.523420 0.397575 0.885370
Si Si6 0.914319 0.111606 0.046152
Si Si7 0.330331 0.821447 0.869256
Si Si8 0.598432 0.729248 0.227409
O O1 0.250000 0.250000 0.637988
O O2 0.211446 0.039700 0.574912
O O3 0.269040 0.049075 0.714012
O O4 0.126615 0.147805 0.698239
O O5 0.673845 0.727856 0.168648
O O6 0.762826 0.630573 0.061500
O O7 0.166404 0.542268 0.482290
O O8 0.307891 0.598513 0.445329
O O9 0.408720 0.129613 0.747312
O O10 0.396341 0.942758 0.655690
O O11 0.359462 0.913108 0.802891
O O12 0.470091 0.513511 0.911186
O O13 0.475327 0.320466 0.821503
O O14 0.543841 0.336096 0.968232
O O15 0.891986 0.218238 0.105517
O O16 0.250000 0.750000 0.843641
#
# Coordination Sequence:
#
# PCOD9430707 Si02
#       8
#     8   4   8   8   8   8   8   8
#     4  10  20  36  64  93 118 151 211 257 300 357
#     4  12  18  34  68  88 120 154 210 258 298 346
#     4  11  19  38  64  91 119 156 205 262 296 358
#     4  11  22  41  61  92 125 160 199 262 306 373
#     4  11  24  41  63  87 126 166 204 247 314 377
#     4  10  23  42  61  86 122 167 202 241 313 377
#     4  10  23  41  62  89 123 160 205 255 312 363
#     4  11  22  40  62  93 120 162 210 255 307 362
#
# _framework density 19.135232999999999
#
# number of rings (size 3 to 8) (size 9 to 14) (size 15 to 20)
#    0.000    1.333    6.667    0.000    3.733    0.000 
#    4.800    0.667    0.000    0.000    0.000    0.000 
#    0.000    0.000    0.000    0.000    0.000    0.000 
#
# Total GULP energy -334993.860564 kJ/mol
# GULP energy per Si atom -5583.231009 kJ/mol
# Density = 1.909168 g / cm^3
# Si number density = 19.135233 Si / 1000 Ang^3
#
#
#
# Elastic Constant Matrix: (Units=GPa)
#
#
# Indices 1 2 3 4 5 6 
#
# 1 25.5892 9.9873 8.9773 0.0000 0.0000 0.0000
# 2 9.9873 57.1254 24.9041 0.0000 0.0000 0.0000
# 3 8.9773 24.9041 90.8524 0.0000 0.0000 0.0000
# 4 0.0000 0.0000 0.0000 104.4277 0.0000 0.0000
# 5 0.0000 0.0000 0.0000 0.0000 10.0324 0.0000
# 6 0.0000 0.0000 0.0000 0.0000 0.0000 16.3406
#
#
#
# Elastic Compliance Matrix: (Units=1/GPa)
#
#
# Indices 1 2 3 4 5 6 
#
# 1 0.042416 -0.006347 -0.002451 0.000000 0.000000 0.000000
# 2 -0.006347 0.020831 -0.005083 0.000000 0.000000 0.000000
# 3 -0.002451 -0.005083 0.012642 0.000000 0.000000 0.000000
# 4 0.000000 0.000000 0.000000 0.009576 0.000000 0.000000
# 5 0.000000 0.000000 0.000000 0.000000 0.099677 0.000000
# 6 0.000000 0.000000 0.000000 0.000000 0.000000 0.061197
#
#
# Mechanical properties :
#
#
# Convention : Reuss Voigt Hill
#
# Bulk Modulus (GPa) = 20.77841 29.03381 24.90611
# Shear Modulus (GPa) = 17.23278 34.80670 26.01974
#
# Velocity S-wave (km/s) = 3.00422 4.26958 3.69152
# Velocity P-wave (km/s) = 4.78707 6.28583 5.58694
#
# Compressibility (1/GPa) = 0.04812687
#
# Stress axis : x y z
#
# Youngs Moduli (GPa) = 23.57594 48.00560 79.09895
#
# Poissons Ratio (x) = 0.30469 0.19390
# Poissons Ratio (y) = 0.14964 0.40205
# Poissons Ratio (z) = 0.05779 0.24401
#
# Static dielectric constant tensor:
#      x y z
#    x 1.664250 0.000000 0.000000 
#    y 0.000000 1.659850 0.000000 
#    z 0.000000 0.000000 1.670340 
# 
# From -- ./inp_files/12822.got.cif
#   From: 2010.05.17/outbox.cif.g08.bks.cpg/sg56_7_cif.got.tgz:12822.got - 2010.06.03 13:42:01.
