data_PCOD9430531
_publ_section_title
;
Structure prediction by ZEFSAII (Michael W. Deem and Ramdas Pophale) SiO2 
 PCOD9430531
Probable space group: P C C N
;
_chemical_formula_sum "Si O2"
_cell_formula_units_Z 48
_cell_length_a 5.473160
_cell_length_b 11.922507
_cell_length_c 33.523767
_cell_angle_alpha 90.000000
_cell_angle_beta 90.000000
_cell_angle_gamma 90.000000
_cell_volume 2187.552799
_symmetry_space_group_name_H-M "P C C N"
_symmetry_group_IT_number 56
_symmetry_cell_setting 'orthorhombic'
loop_
_space_group_symop_operation_xyz
x,y,z
1/2-x,1/2-y,z
1/2+x,-y,1/2-z
-x,1/2+y,1/2-z
-x,-y,-z
1/2+x,1/2+y,-z
1/2-x,y,1/2+z
x,1/2-y,1/2+z
loop_
_atom_site_type_symbol
_atom_site_label
_atom_site_fract_x
_atom_site_fract_y
_atom_site_fract_z
Si Si1 0.487092 0.524019 0.200407
Si Si2 0.030862 0.815189 0.491664
Si Si3 0.017690 0.449234 0.615910
Si Si4 0.692608 0.527187 0.034535
Si Si5 0.250000 0.750000 0.841374
Si Si6 0.007526 0.611288 0.780715
Si Si7 0.250000 0.250000 0.579613
O O1 0.456892 0.533783 0.152941
O O2 0.749470 0.462746 0.208176
O O3 0.479696 0.624990 0.232658
O O4 0.249162 0.449074 0.211109
O O5 0.250000 0.750000 0.512777
O O6 0.826747 0.858748 0.522093
O O7 0.962685 0.738790 0.453442
O O8 0.109608 0.929087 0.469672
O O9 0.932327 0.515949 0.577187
O O10 0.827158 0.353680 0.631125
O O11 0.242145 0.364657 0.604665
O O12 0.500000 0.500000 0.000000
O O13 0.037161 0.715527 0.810368
#
# Coordination Sequence:
#
# PCOD9430531 Si02
#       7
#     8   8   8   8   4   8   4
#     4   9  19  34  54  82 124 156 191 237 307 381
#     4  11  21  37  57  81 116 166 206 260 316 382
#     4  11  20  33  56  90 119 154 202 264 305 376
#     4  11  22  37  54  84 121 163 206 259 320 377
#     4  10  20  34  60  92 122 148 200 256 320 358
#     4   9  18  35  54  84 121 157 186 236 315 381
#     4  12  20  34  58  84 120 150 204 262 320 352
#
# _framework density 21.942326000000001
#
# number of rings (size 3 to 8) (size 9 to 14) (size 15 to 20)
#    0.000    1.667    3.333    2.000    0.000    3.333 
#    0.000    0.000    0.000    0.000    6.500   14.000 
#    0.000    0.000    0.000    0.000    0.000    0.000 
#
# Total GULP energy -267379.328483 kJ/mol
# GULP energy per Si atom -5570.402677 kJ/mol
# Density = 2.189238 g / cm^3
# Si number density = 21.942326 Si / 1000 Ang^3
#
#
#
# Elastic Constant Matrix: (Units=GPa)
#
#
# Indices 1 2 3 4 5 6 
#
# 1 97.5990 16.6109 30.0283 0.0000 0.0000 0.0000
# 2 16.6109 51.1165 33.3339 0.0000 0.0000 0.0000
# 3 30.0283 33.3339 209.8294 0.0000 0.0000 0.0000
# 4 0.0000 0.0000 0.0000 8.2172 0.0000 0.0000
# 5 0.0000 0.0000 0.0000 0.0000 34.2702 0.0000
# 6 0.0000 0.0000 0.0000 0.0000 0.0000 15.7593
#
#
#
# Elastic Compliance Matrix: (Units=1/GPa)
#
#
# Indices 1 2 3 4 5 6 
#
# 1 0.011081 -0.002864 -0.001131 0.000000 0.000000 0.000000
# 2 -0.002864 0.022564 -0.003175 0.000000 0.000000 0.000000
# 3 -0.001131 -0.003175 0.005432 0.000000 0.000000 0.000000
# 4 0.000000 0.000000 0.000000 0.121696 0.000000 0.000000
# 5 0.000000 0.000000 0.000000 0.000000 0.029180 0.000000
# 6 0.000000 0.000000 0.000000 0.000000 0.000000 0.063455
#
#
# Mechanical properties :
#
#
# Convention : Reuss Voigt Hill
#
# Bulk Modulus (GPa) = 40.42220 57.61012 49.01616
# Shear Modulus (GPa) = 18.11643 30.22079 24.16861
#
# Velocity S-wave (km/s) = 2.87651 3.71520 3.32243
# Velocity P-wave (km/s) = 5.43088 6.68699 6.09140
#
# Compressibility (1/GPa) = 0.02473888
#
# Stress axis : x y z
#
# Youngs Moduli (GPa) = 90.24200 44.31840 184.09523
#
# Poissons Ratio (x) = 0.12691 0.20820
# Poissons Ratio (y) = 0.25841 0.58446
# Poissons Ratio (z) = 0.10206 0.14070
#
# Static dielectric constant tensor:
#      x y z
#    x 1.508290 0.000000 0.000000 
#    y 0.000000 1.935420 0.000000 
#    z 0.000000 0.000000 1.827280 
# 
# From -- ./inp_files/22848.got.cif
#   From: 2010.05.17/outbox.cif.g08.bks.cpg/sg56_12_cif.got.tgz:22848.got - 2010.06.03 13:42:01.
