data_PCOD9430928
_publ_section_title
;
Structure prediction by ZEFSAII (Michael W. Deem and Ramdas Pophale) SiO2 
 PCOD9430928
Probable space group: P C C N
;
_chemical_formula_sum "Si O2"
_cell_formula_units_Z 40
_cell_length_a 12.570937
_cell_length_b 15.384952
_cell_length_c 8.878184
_cell_angle_alpha 90.000000
_cell_angle_beta 90.000000
_cell_angle_gamma 90.000000
_cell_volume 1717.069749
_symmetry_space_group_name_H-M "P C C N"
_symmetry_group_IT_number 56
_symmetry_cell_setting 'orthorhombic'
loop_
_space_group_symop_operation_xyz
x,y,z
1/2-x,1/2-y,z
1/2+x,-y,1/2-z
-x,1/2+y,1/2-z
-x,-y,-z
1/2+x,1/2+y,-z
1/2-x,y,1/2+z
x,1/2-y,1/2+z
loop_
_atom_site_type_symbol
_atom_site_label
_atom_site_fract_x
_atom_site_fract_y
_atom_site_fract_z
Si Si1 0.910821 0.725123 0.476957
Si Si2 0.286171 0.555133 0.392387
Si Si3 0.637236 0.630566 0.701135
Si Si4 0.404093 0.550147 0.707662
Si Si5 0.487878 0.636266 0.252650
O O1 0.850404 0.790984 0.586450
O O2 0.841453 0.663459 0.369471
O O3 0.976719 0.786786 0.363957
O O4 0.984788 0.667629 0.585448
O O5 0.298899 0.454466 0.343651
O O6 0.330173 0.563513 0.561186
O O7 0.165093 0.576256 0.352673
O O8 0.367275 0.609974 0.288616
O O9 0.512424 0.604071 0.694643
O O10 0.442823 0.450144 0.713150
#
# Coordination Sequence:
#
# PCOD9430928 Si02
#       5
#     8   8   8   8   8
#     4  10  20  38  66  86 114 160 188 242 294 346
#     4  11  23  40  61  87 117 156 198 240 284 348
#     4  10  21  42  63  83 121 153 197 236 295 340
#     4  11  23  40  61  87 117 156 198 240 284 348
#     4  10  21  42  63  83 121 153 197 236 295 340
#
# _framework density 23.295501999999999
#
# number of rings (size 3 to 8) (size 9 to 14) (size 15 to 20)
#    0.000    1.600    4.000    1.200    5.600    1.600 
#    0.000   12.000    0.000    0.000    0.000    0.000 
#    0.000    0.000    0.000    0.000    0.000    0.000 
#
# Total GULP energy -224022.593159 kJ/mol
# GULP energy per Si atom -5600.564829 kJ/mol
# Density = 2.324248 g / cm^3
# Si number density = 23.295502 Si / 1000 Ang^3
#
#
#
# Elastic Constant Matrix: (Units=GPa)
#
#
# Indices 1 2 3 4 5 6 
#
# 1 106.7539 16.5797 24.6509 0.0000 0.0000 0.0000
# 2 16.5797 68.0291 42.9079 0.0000 0.0000 0.0000
# 3 24.6509 42.9079 130.3371 0.0000 0.0000 0.0000
# 4 0.0000 0.0000 0.0000 24.2553 0.0000 0.0000
# 5 0.0000 0.0000 0.0000 0.0000 23.5251 0.0000
# 6 0.0000 0.0000 0.0000 0.0000 0.0000 2.6390
#
#
#
# Elastic Compliance Matrix: (Units=1/GPa)
#
#
# Indices 1 2 3 4 5 6 
#
# 1 0.009924 -0.001558 -0.001364 0.000000 0.000000 0.000000
# 2 -0.001558 0.018796 -0.005893 0.000000 0.000000 0.000000
# 3 -0.001364 -0.005893 0.009870 0.000000 0.000000 0.000000
# 4 0.000000 0.000000 0.000000 0.041228 0.000000 0.000000
# 5 0.000000 0.000000 0.000000 0.000000 0.042508 0.000000
# 6 0.000000 0.000000 0.000000 0.000000 0.000000 0.378936
#
#
# Mechanical properties :
#
#
# Convention : Reuss Voigt Hill
#
# Bulk Modulus (GPa) = 47.70972 52.59967 50.15470
# Shear Modulus (GPa) = 9.50785 24.81597 17.16191
#
# Velocity S-wave (km/s) = 2.02244 3.26739 2.71718
# Velocity P-wave (km/s) = 5.09690 6.07147 5.60541
#
# Compressibility (1/GPa) = 0.02096009
#
# Stress axis : x y z
#
# Youngs Moduli (GPa) = 100.76246 53.20175 101.31247
#
# Poissons Ratio (x) = 0.08291 0.13819
# Poissons Ratio (y) = 0.15703 0.59705
# Poissons Ratio (z) = 0.13744 0.31353
#
# Static dielectric constant tensor:
#      x y z
#    x 1.864900 0.000000 0.000000 
#    y 0.000000 1.856350 0.000000 
#    z 0.000000 0.000000 1.875980 
# 
# From -- ./inp_files/2571.got.cif
#   From: 2010.05.17/outbox.cif.g08.bks.cpg/sg56_2_cif.got.tgz:2571.got - 2010.06.03 13:42:01.
