data_PCOD9430030
_publ_section_title
;
Structure prediction by ZEFSAII (Michael W. Deem and Ramdas Pophale) SiO2 
 PCOD9430030
Probable space group: P C C N
;
_chemical_formula_sum "Si O2"
_cell_formula_units_Z 52
_cell_length_a 6.051495
_cell_length_b 16.933519
_cell_length_c 26.479303
_cell_angle_alpha 90.000000
_cell_angle_beta 90.000000
_cell_angle_gamma 90.000000
_cell_volume 2713.416411
_symmetry_space_group_name_H-M "P C C N"
_symmetry_group_IT_number 56
_symmetry_cell_setting 'orthorhombic'
loop_
_space_group_symop_operation_xyz
x,y,z
1/2-x,1/2-y,z
1/2+x,-y,1/2-z
-x,1/2+y,1/2-z
-x,-y,-z
1/2+x,1/2+y,-z
1/2-x,y,1/2+z
x,1/2-y,1/2+z
loop_
_atom_site_type_symbol
_atom_site_label
_atom_site_fract_x
_atom_site_fract_y
_atom_site_fract_z
Si Si1 0.943774 0.360437 0.830034
Si Si2 0.431754 0.020531 0.423320
Si Si3 0.814088 0.433707 0.993893
Si Si4 0.728894 0.502015 0.185833
Si Si5 0.393577 0.171355 0.938208
Si Si6 0.564671 0.379819 0.752336
Si Si7 0.750000 0.750000 0.738449
O O1 0.710502 0.357192 0.801536
O O2 0.048838 0.448540 0.827856
O O3 0.963292 0.327804 0.886625
O O4 0.109813 0.307529 0.797171
O O5 0.669037 0.044635 0.444771
O O6 0.415391 0.999512 0.364807
O O7 0.276171 0.097620 0.431721
O O8 0.342550 0.948433 0.457997
O O9 0.939913 0.352101 0.983294
O O10 0.000000 0.500000 0.000000
O O11 0.598937 0.551749 0.228096
O O12 0.784480 0.417931 0.209540
O O13 0.250000 0.250000 0.944507
O O14 0.423100 0.305804 0.733490
#
# Coordination Sequence:
#
# PCOD9430030 Si02
#       7
#     8   8   8   8   8   8   4
#     4  10  19  35  50  80 116 146 176 235 285 352
#     4   9  19  35  55  83 114 143 190 234 279 339
#     4   9  18  35  55  78 110 149 180 228 281 333
#     4  10  20  33  56  84 110 148 198 234 283 339
#     4  10  19  32  54  86 116 141 181 224 298 349
#     4  11  20  35  54  79 114 152 191 239 286 349
#     4  10  22  34  50  76 112 150 188 228 294 342
#
# _framework density 19.164031999999999
#
# number of rings (size 3 to 8) (size 9 to 14) (size 15 to 20)
#    0.000    2.154    2.308    1.385    0.000    0.615 
#    2.769    0.000    1.692    0.000    8.000    0.000 
#    0.000    0.000    0.000    0.000    0.000    0.000 
#
# Total GULP energy -290057.165497 kJ/mol
# GULP energy per Si atom -5578.022413 kJ/mol
# Density = 1.912041 g / cm^3
# Si number density = 19.164032 Si / 1000 Ang^3
#
#
#
# Elastic Constant Matrix: (Units=GPa)
#
#
# Indices 1 2 3 4 5 6 
#
# 1 71.2838 31.5205 16.5821 0.0000 0.0000 0.0000
# 2 31.5205 88.7786 40.9585 0.0000 0.0000 0.0000
# 3 16.5821 40.9585 68.8192 0.0000 0.0000 0.0000
# 4 0.0000 0.0000 0.0000 17.1282 0.0000 0.0000
# 5 0.0000 0.0000 0.0000 0.0000 13.7230 0.0000
# 6 0.0000 0.0000 0.0000 0.0000 0.0000 36.4183
#
#
#
# Elastic Compliance Matrix: (Units=1/GPa)
#
#
# Indices 1 2 3 4 5 6 
#
# 1 0.016664 -0.005602 -0.000681 0.000000 0.000000 0.000000
# 2 -0.005602 0.017411 -0.009012 0.000000 0.000000 0.000000
# 3 -0.000681 -0.009012 0.020059 0.000000 0.000000 0.000000
# 4 0.000000 0.000000 0.000000 0.058383 0.000000 0.000000
# 5 0.000000 0.000000 0.000000 0.000000 0.072870 0.000000
# 6 0.000000 0.000000 0.000000 0.000000 0.000000 0.027459
#
#
# Mechanical properties :
#
#
# Convention : Reuss Voigt Hill
#
# Bulk Modulus (GPa) = 42.47661 45.22265 43.84963
# Shear Modulus (GPa) = 19.89771 22.77526 21.33649
#
# Velocity S-wave (km/s) = 3.22574 3.45111 3.34033
# Velocity P-wave (km/s) = 6.00722 6.28722 6.14882
#
# Compressibility (1/GPa) = 0.02354237
#
# Stress axis : x y z
#
# Youngs Moduli (GPa) = 60.00922 57.43487 49.85351
#
# Poissons Ratio (x) = 0.32177 0.03395
# Poissons Ratio (y) = 0.33619 0.44930
# Poissons Ratio (z) = 0.04086 0.51763
#
# Static dielectric constant tensor:
#      x y z
#    x 1.712310 0.000000 0.000000 
#    y 0.000000 1.677300 0.000000 
#    z 0.000000 0.000000 1.658180 
# 
# From -- ./inp_files/21773.got.cif
#   From: 2010.05.17/outbox.cif.g08.bks.cpg/sg56_11_cif.got.tgz:21773.got - 2010.06.03 13:42:01.
