data_PCOD9430101
_publ_section_title
;
Structure prediction by ZEFSAII (Michael W. Deem and Ramdas Pophale) SiO2 
 PCOD9430101
Probable space group: P C C N
;
_chemical_formula_sum "Si O2"
_cell_formula_units_Z 60
_cell_length_a 27.353397
_cell_length_b 14.282583
_cell_length_c 8.783261
_cell_angle_alpha 90.000000
_cell_angle_beta 90.000000
_cell_angle_gamma 90.000000
_cell_volume 3431.419489
_symmetry_space_group_name_H-M "P C C N"
_symmetry_group_IT_number 56
_symmetry_cell_setting 'orthorhombic'
loop_
_space_group_symop_operation_xyz
x,y,z
1/2-x,1/2-y,z
1/2+x,-y,1/2-z
-x,1/2+y,1/2-z
-x,-y,-z
1/2+x,1/2+y,-z
1/2-x,y,1/2+z
x,1/2-y,1/2+z
loop_
_atom_site_type_symbol
_atom_site_label
_atom_site_fract_x
_atom_site_fract_y
_atom_site_fract_z
Si Si1 0.812543 0.150466 0.372984
Si Si2 0.425975 0.559586 0.968215
Si Si3 0.750000 0.250000 0.629592
Si Si4 0.113684 0.002141 0.641948
Si Si5 0.553601 0.672224 0.313542
Si Si6 0.593205 0.223810 0.322029
Si Si7 0.046428 0.638467 0.973812
Si Si8 0.536000 0.868879 0.456545
O O1 0.788791 0.196332 0.522756
O O2 0.774720 0.171868 0.237622
O O3 0.833883 0.045453 0.392885
O O4 0.860086 0.210823 0.327814
O O5 0.399854 0.531628 0.812912
O O6 0.435173 0.465957 0.066092
O O7 0.398668 0.636739 0.066411
O O8 0.479323 0.603699 0.931630
O O9 0.074034 0.953183 0.531083
O O10 0.101668 0.112497 0.641083
O O11 0.507226 0.629128 0.405172
O O12 0.553348 0.781228 0.357732
O O13 0.543600 0.656371 0.134781
O O14 0.549056 0.287244 0.388188
O O15 0.578955 0.185591 0.158434
#
# Coordination Sequence:
#
# PCOD9430101 Si02
#       8
#     8   8   4   8   8   8   8   8
#     4  10  20  34  52  80  99 133 155 213 259 324
#     4  10  19  34  45  68  98 142 178 219 231 290
#     4  10  20  36  56  72 106 124 162 200 282 332
#     4  10  22  32  50  71 103 128 179 210 254 294
#     4  11  20  34  45  68  99 143 180 216 237 285
#     4  11  19  31  50  71 106 134 179 204 250 293
#     4  11  19  29  44  71  96 143 173 212 235 287
#     4  10  22  31  46  65 100 142 189 207 249 262
#
# _framework density 17.485475000000001
#
# number of rings (size 3 to 8) (size 9 to 14) (size 15 to 20)
#    0.000    1.600    2.667    4.400    1.867    1.067 
#    0.000    0.000    0.000    0.000    0.000    0.000 
#    0.000   36.267    0.000    0.000    0.000    0.000 
#
# Total GULP energy -334874.999668 kJ/mol
# GULP energy per Si atom -5581.249994 kJ/mol
# Density = 1.744568 g / cm^3
# Si number density = 17.485475 Si / 1000 Ang^3
#
#
#
# Elastic Constant Matrix: (Units=GPa)
#
#
# Indices 1 2 3 4 5 6 
#
# 1 45.4736 18.1887 -2.4418 0.0000 0.0000 0.0000
# 2 18.1887 92.1082 9.9714 0.0000 0.0000 0.0000
# 3 -2.4418 9.9714 37.9344 0.0000 0.0000 0.0000
# 4 0.0000 0.0000 0.0000 22.9209 0.0000 0.0000
# 5 0.0000 0.0000 0.0000 0.0000 18.5692 0.0000
# 6 0.0000 0.0000 0.0000 0.0000 0.0000 24.8229
#
#
#
# Elastic Compliance Matrix: (Units=1/GPa)
#
#
# Indices 1 2 3 4 5 6 
#
# 1 0.024181 -0.005088 0.002894 0.000000 0.000000 0.000000
# 2 -0.005088 0.012246 -0.003546 0.000000 0.000000 0.000000
# 3 0.002894 -0.003546 0.027480 0.000000 0.000000 0.000000
# 4 0.000000 0.000000 0.000000 0.043628 0.000000 0.000000
# 5 0.000000 0.000000 0.000000 0.000000 0.053853 0.000000
# 6 0.000000 0.000000 0.000000 0.000000 0.000000 0.040285
#
#
# Mechanical properties :
#
#
# Convention : Reuss Voigt Hill
#
# Bulk Modulus (GPa) = 19.07475 25.21698 22.14587
# Shear Modulus (GPa) = 21.67977 23.24912 22.46444
#
# Velocity S-wave (km/s) = 3.52500 3.65036 3.58823
# Velocity P-wave (km/s) = 5.24406 5.67625 5.46443
#
# Compressibility (1/GPa) = 0.05242531
#
# Stress axis : x y z
#
# Youngs Moduli (GPa) = 41.35394 81.66238 36.39038
#
# Poissons Ratio (x) = 0.41554 -0.10532
# Poissons Ratio (y) = 0.21043 0.12905
# Poissons Ratio (z) = -0.11968 0.28961
#
# Static dielectric constant tensor:
#      x y z
#    x 1.597760 0.000000 0.000000 
#    y 0.000000 1.636310 0.000000 
#    z 0.000000 0.000000 1.629720 
# 
# From -- ./inp_files/3749.got.cif
#   From: 2010.05.17/outbox.cif.g08.bks.cpg/sg56_2_cif.got.tgz:3749.got - 2010.06.03 13:42:01.
