data_PCOD9430097
_publ_section_title
;
Structure prediction by ZEFSAII (Michael W. Deem and Ramdas Pophale) SiO2 
 PCOD9430097
Probable space group: P C C N
;
_chemical_formula_sum "Si O2"
_cell_formula_units_Z 48
_cell_length_a 10.085215
_cell_length_b 12.018983
_cell_length_c 17.869877
_cell_angle_alpha 90.000000
_cell_angle_beta 90.000000
_cell_angle_gamma 90.000000
_cell_volume 2166.079765
_symmetry_space_group_name_H-M "P C C N"
_symmetry_group_IT_number 56
_symmetry_cell_setting 'orthorhombic'
loop_
_space_group_symop_operation_xyz
x,y,z
1/2-x,1/2-y,z
1/2+x,-y,1/2-z
-x,1/2+y,1/2-z
-x,-y,-z
1/2+x,1/2+y,-z
1/2-x,y,1/2+z
x,1/2-y,1/2+z
loop_
_atom_site_type_symbol
_atom_site_label
_atom_site_fract_x
_atom_site_fract_y
_atom_site_fract_z
Si Si1 0.823126 0.443590 0.445938
Si Si2 0.964358 0.099894 0.281349
Si Si3 0.052240 0.177104 0.038661
Si Si4 0.025283 0.886702 0.544239
Si Si5 0.816780 0.472462 0.274490
Si Si6 0.108905 0.719709 0.828612
O O1 0.835880 0.580146 0.453017
O O2 0.685064 0.382617 0.464266
O O3 0.845081 0.423011 0.356961
O O4 0.931610 0.391394 0.500587
O O5 0.996689 0.104269 0.367729
O O6 0.841434 0.014554 0.268320
O O7 0.901001 0.210903 0.248060
O O8 0.094904 0.080764 0.233026
O O9 0.002847 0.238303 0.114751
O O10 0.062743 0.284383 0.985030
O O11 0.000000 0.000000 0.500000
O O12 0.875402 0.403650 0.203666
O O13 0.250000 0.750000 0.865059
#
# Coordination Sequence:
#
# PCOD9430097 Si02
#       6
#     8   8   8   8   8   8
#     4  10  22  39  63  90 128 164 217 277 316 387
#     4  10  21  38  60  87 120 155 205 252 317 380
#     4  11  21  38  63  92 123 167 221 263 324 381
#     4  11  23  39  60  90 128 171 209 263 333 393
#     4  10  20  39  60  89 120 159 202 263 317 373
#     4  10  19  33  61  89 118 157 207 259 310 384
#
# _framework density 22.159846999999999
#
# number of rings (size 3 to 8) (size 9 to 14) (size 15 to 20)
#    0.000    1.667    1.667    3.500    0.000    4.667 
#    0.000    0.833    3.667    0.000    0.000    0.000 
#    0.000    0.000    0.000    0.000    0.000    0.000 
#
# Total GULP energy -267318.251500 kJ/mol
# GULP energy per Si atom -5569.130240 kJ/mol
# Density = 2.210941 g / cm^3
# Si number density = 22.159847 Si / 1000 Ang^3
#
#
#
# Elastic Constant Matrix: (Units=GPa)
#
#
# Indices 1 2 3 4 5 6 
#
# 1 33.3026 9.8903 20.2276 0.0000 0.0000 0.0000
# 2 9.8903 68.2073 8.0354 0.0000 0.0000 0.0000
# 3 20.2276 8.0354 92.0904 0.0000 0.0000 0.0000
# 4 0.0000 0.0000 0.0000 31.5897 0.0000 0.0000
# 5 0.0000 0.0000 0.0000 0.0000 12.3354 0.0000
# 6 0.0000 0.0000 0.0000 0.0000 0.0000 17.8294
#
#
#
# Elastic Compliance Matrix: (Units=1/GPa)
#
#
# Indices 1 2 3 4 5 6 
#
# 1 0.035866 -0.004317 -0.007501 0.000000 0.000000 0.000000
# 2 -0.004317 0.015333 -0.000390 0.000000 0.000000 0.000000
# 3 -0.007501 -0.000390 0.012541 0.000000 0.000000 0.000000
# 4 0.000000 0.000000 0.000000 0.031656 0.000000 0.000000
# 5 0.000000 0.000000 0.000000 0.000000 0.081067 0.000000
# 6 0.000000 0.000000 0.000000 0.000000 0.000000 0.056087
#
#
# Mechanical properties :
#
#
# Convention : Reuss Voigt Hill
#
# Bulk Modulus (GPa) = 25.42995 29.98966 27.70980
# Shear Modulus (GPa) = 18.51347 22.71403 20.61375
#
# Velocity S-wave (km/s) = 2.89355 3.20505 3.05328
# Velocity P-wave (km/s) = 4.76069 5.22103 4.99616
#
# Compressibility (1/GPa) = 0.03932371
#
# Stress axis : x y z
#
# Youngs Moduli (GPa) = 27.88162 65.21846 79.74132
#
# Poissons Ratio (x) = 0.28155 0.59816
# Poissons Ratio (y) = 0.12036 0.03107
# Poissons Ratio (z) = 0.20915 0.02541
#
# Static dielectric constant tensor:
#      x y z
#    x 1.899880 0.000000 0.000000 
#    y 0.000000 1.885190 0.000000 
#    z 0.000000 0.000000 1.826970 
# 
# From -- ./inp_files/15595.got.cif
#   From: 2010.05.17/outbox.cif.g08.bks.cpg/sg56_8_cif.got.tgz:15595.got - 2010.06.03 13:42:01.
