data_PCOD9430715
_publ_section_title
;
Structure prediction by ZEFSAII (Michael W. Deem and Ramdas Pophale) SiO2 
 PCOD9430715
Probable space group: P C C N
;
_chemical_formula_sum "Si O2"
_cell_formula_units_Z 52
_cell_length_a 8.530866
_cell_length_b 15.255575
_cell_length_c 20.567822
_cell_angle_alpha 90.000000
_cell_angle_beta 90.000000
_cell_angle_gamma 90.000000
_cell_volume 2676.763531
_symmetry_space_group_name_H-M "P C C N"
_symmetry_group_IT_number 56
_symmetry_cell_setting 'orthorhombic'
loop_
_space_group_symop_operation_xyz
x,y,z
1/2-x,1/2-y,z
1/2+x,-y,1/2-z
-x,1/2+y,1/2-z
-x,-y,-z
1/2+x,1/2+y,-z
1/2-x,y,1/2+z
x,1/2-y,1/2+z
loop_
_atom_site_type_symbol
_atom_site_label
_atom_site_fract_x
_atom_site_fract_y
_atom_site_fract_z
Si Si1 0.024730 0.983178 0.843942
Si Si2 0.025096 0.307386 0.588947
Si Si3 0.795865 0.916344 0.729580
Si Si4 0.750000 0.750000 0.519268
Si Si5 0.499978 0.816718 0.123814
Si Si6 0.250000 0.250000 0.700657
Si Si7 0.161183 0.861806 0.094928
Si Si8 0.250000 0.750000 0.474405
O O1 0.052253 0.898556 0.889301
O O2 0.898977 0.961492 0.786302
O O3 0.944546 0.055717 0.890026
O O4 0.181540 0.019400 0.809702
O O5 0.150213 0.311462 0.529804
O O6 0.112056 0.278236 0.653541
O O7 0.899532 0.233509 0.569460
O O8 0.909929 0.862743 0.681726
O O9 0.698460 0.835490 0.759910
O O10 0.874274 0.801445 0.565211
O O11 0.343020 0.873949 0.113439
O O12 0.424203 0.719620 0.131831
O O13 0.184285 0.825670 0.021621
#
# Coordination Sequence:
#
# PCOD9430715 Si02
#       8
#     8   8   8   4   8   4   8   4
#     4  11  24  39  60  91 127 155 200 265 306 354
#     4  10  22  38  60  88 119 156 199 252 305 348
#     4  11  22  40  60  90 124 162 203 248 309 360
#     4  11  17  38  62  86 115 161 208 240 288 379
#     4  10  20  36  65  87 114 167 205 238 293 375
#     4   9  21  38  62  80 117 161 204 238 292 377
#     4  10  20  39  61  91 119 153 206 249 295 365
#     4  10  20  40  58  84 120 154 200 240 294 376
#
# _framework density 19.426445000000001
#
# number of rings (size 3 to 8) (size 9 to 14) (size 15 to 20)
#    0.000    1.846    3.077    3.231    0.000    1.846 
#    0.000    8.462    0.000    0.000    0.000    0.000 
#    0.000    0.000    0.000    0.000    0.000    0.000 
#
# Total GULP energy -289504.050035 kJ/mol
# GULP energy per Si atom -5567.385578 kJ/mol
# Density = 1.938223 g / cm^3
# Si number density = 19.426445 Si / 1000 Ang^3
#
#
#
# Elastic Constant Matrix: (Units=GPa)
#
#
# Indices 1 2 3 4 5 6 
#
# 1 93.2775 25.3647 31.0234 0.0000 0.0000 0.0000
# 2 25.3647 59.8341 26.6076 0.0000 0.0000 0.0000
# 3 31.0234 26.6076 70.4451 0.0000 0.0000 0.0000
# 4 0.0000 0.0000 0.0000 15.0814 0.0000 0.0000
# 5 0.0000 0.0000 0.0000 0.0000 5.8972 0.0000
# 6 0.0000 0.0000 0.0000 0.0000 0.0000 23.3536
#
#
#
# Elastic Compliance Matrix: (Units=1/GPa)
#
#
# Indices 1 2 3 4 5 6 
#
# 1 0.013180 -0.003613 -0.004440 0.000000 0.000000 0.000000
# 2 -0.003613 0.021077 -0.006370 0.000000 0.000000 0.000000
# 3 -0.004440 -0.006370 0.018557 0.000000 0.000000 0.000000
# 4 0.000000 0.000000 0.000000 0.066307 0.000000 0.000000
# 5 0.000000 0.000000 0.000000 0.000000 0.169571 0.000000
# 6 0.000000 0.000000 0.000000 0.000000 0.000000 0.042820
#
#
# Mechanical properties :
#
#
# Convention : Reuss Voigt Hill
#
# Bulk Modulus (GPa) = 41.72121 43.28310 42.50216
# Shear Modulus (GPa) = 13.57420 18.23717 15.90569
#
# Velocity S-wave (km/s) = 2.64625 3.06728 2.86451
# Velocity P-wave (km/s) = 5.55518 5.90535 5.73294
#
# Compressibility (1/GPa) = 0.02396863
#
# Stress axis : x y z
#
# Youngs Moduli (GPa) = 75.87410 47.44504 53.88929
#
# Poissons Ratio (x) = 0.17141 0.23925
# Poissons Ratio (y) = 0.27412 0.34327
# Poissons Ratio (z) = 0.33685 0.30222
#
# Static dielectric constant tensor:
#      x y z
#    x 1.757440 0.000000 0.000000 
#    y 0.000000 1.719800 0.000000 
#    z 0.000000 0.000000 1.720970 
# 
# From -- ./inp_files/18189.got.cif
#   From: 2010.05.17/outbox.cif.g08.bks.cpg/sg56_10_cif.got.tgz:18189.got - 2010.06.03 13:42:01.
