data_PCOD9430942
_publ_section_title
;
Structure prediction by ZEFSAII (Michael W. Deem and Ramdas Pophale) SiO2 
 PCOD9430942
Probable space group: P C C N
;
_chemical_formula_sum "Si O2"
_cell_formula_units_Z 40
_cell_length_a 6.195159
_cell_length_b 12.535296
_cell_length_c 22.890200
_cell_angle_alpha 90.000000
_cell_angle_beta 90.000000
_cell_angle_gamma 90.000000
_cell_volume 1777.610627
_symmetry_space_group_name_H-M "P C C N"
_symmetry_group_IT_number 56
_symmetry_cell_setting 'orthorhombic'
loop_
_space_group_symop_operation_xyz
x,y,z
1/2-x,1/2-y,z
1/2+x,-y,1/2-z
-x,1/2+y,1/2-z
-x,-y,-z
1/2+x,1/2+y,-z
1/2-x,y,1/2+z
x,1/2-y,1/2+z
loop_
_atom_site_type_symbol
_atom_site_label
_atom_site_fract_x
_atom_site_fract_y
_atom_site_fract_z
Si Si1 0.864531 0.524314 0.643250
Si Si2 0.250000 0.250000 0.118562
Si Si3 0.077492 0.620235 0.945019
Si Si4 0.945212 0.169016 0.209039
Si Si5 0.250000 0.250000 0.808309
Si Si6 0.815217 0.040992 0.956736
O O1 0.723240 0.446399 0.600985
O O2 0.874192 0.454482 0.703197
O O3 0.773932 0.641498 0.655434
O O4 0.081732 0.551399 0.606740
O O5 0.461666 0.223092 0.081276
O O6 0.352621 0.334100 0.163504
O O7 0.866851 0.548235 0.954325
O O8 0.199469 0.633503 0.006184
O O9 0.750000 0.250000 0.192113
O O10 0.045723 0.221576 0.266805
O O11 0.000000 0.000000 0.000000
#
# Coordination Sequence:
#
# PCOD9430942 Si02
#       6
#     8   4   8   8   4   8
#     4  11  23  45  69  96 143 172 222 292 342 410
#     4  11  20  38  67 106 130 177 230 273 330 406
#     4  10  20  38  68 102 138 175 225 272 333 421
#     4  11  24  42  67 100 128 179 230 283 344 400
#     4  11  30  42  69 102 128 181 236 279 354 408
#     4   9  20  40  66  97 134 179 218 272 340 400
#
# _framework density 22.502116999999998
#
# number of rings (size 3 to 8) (size 9 to 14) (size 15 to 20)
#    0.000    1.600    4.000    0.000    2.800    1.600 
#    0.000   11.000    0.000    0.000    0.000    0.000 
#    0.000    0.000    0.000    0.000    0.000    0.000 
#
# Total GULP energy -222685.762907 kJ/mol
# GULP energy per Si atom -5567.144073 kJ/mol
# Density = 2.245090 g / cm^3
# Si number density = 22.502117 Si / 1000 Ang^3
#
#
#
# Elastic Constant Matrix: (Units=GPa)
#
#
# Indices 1 2 3 4 5 6 
#
# 1 86.7760 15.0727 24.6885 0.0000 0.0000 0.0000
# 2 15.0727 116.3022 23.6088 0.0000 0.0000 0.0000
# 3 24.6885 23.6088 51.4176 0.0000 0.0000 0.0000
# 4 0.0000 0.0000 0.0000 14.5071 0.0000 0.0000
# 5 0.0000 0.0000 0.0000 0.0000 37.7613 0.0000
# 6 0.0000 0.0000 0.0000 0.0000 0.0000 31.4189
#
#
#
# Elastic Compliance Matrix: (Units=1/GPa)
#
#
# Indices 1 2 3 4 5 6 
#
# 1 0.013371 -0.000474 -0.006203 0.000000 0.000000 0.000000
# 2 -0.000474 0.009499 -0.004134 0.000000 0.000000 0.000000
# 3 -0.006203 -0.004134 0.024325 0.000000 0.000000 0.000000
# 4 0.000000 0.000000 0.000000 0.068932 0.000000 0.000000
# 5 0.000000 0.000000 0.000000 0.000000 0.026482 0.000000
# 6 0.000000 0.000000 0.000000 0.000000 0.000000 0.031828
#
#
# Mechanical properties :
#
#
# Convention : Reuss Voigt Hill
#
# Bulk Modulus (GPa) = 39.10215 42.35951 40.73083
# Shear Modulus (GPa) = 24.44007 29.47918 26.95962
#
# Velocity S-wave (km/s) = 3.29921 3.62341 3.46510
# Velocity P-wave (km/s) = 5.65048 6.03083 5.84375
#
# Compressibility (1/GPa) = 0.02557404
#
# Stress axis : x y z
#
# Youngs Moduli (GPa) = 74.78921 105.27569 41.11000
#
# Poissons Ratio (x) = 0.04988 0.25499
# Poissons Ratio (y) = 0.03543 0.16995
# Poissons Ratio (z) = 0.46389 0.43521
#
# Static dielectric constant tensor:
#      x y z
#    x 1.889910 0.000000 0.000000 
#    y 0.000000 2.007780 0.000000 
#    z 0.000000 0.000000 1.922050 
# 
# From -- ./inp_files/21554.got.cif
#   From: 2010.05.17/outbox.cif.g08.bks.cpg/sg56_11_cif.got.tgz:21554.got - 2010.06.03 13:42:01.
