data_PCOD9430562
_publ_section_title
;
Structure prediction by ZEFSAII (Michael W. Deem and Ramdas Pophale) SiO2 
 PCOD9430562
Probable space group: P C C N
;
_chemical_formula_sum "Si O2"
_cell_formula_units_Z 32
_cell_length_a 7.794918
_cell_length_b 7.826087
_cell_length_c 21.125647
_cell_angle_alpha 90.000000
_cell_angle_beta 90.000000
_cell_angle_gamma 90.000000
_cell_volume 1288.742768
_symmetry_space_group_name_H-M "P C C N"
_symmetry_group_IT_number 56
_symmetry_cell_setting 'orthorhombic'
loop_
_space_group_symop_operation_xyz
x,y,z
1/2-x,1/2-y,z
1/2+x,-y,1/2-z
-x,1/2+y,1/2-z
-x,-y,-z
1/2+x,1/2+y,-z
1/2-x,y,1/2+z
x,1/2-y,1/2+z
loop_
_atom_site_type_symbol
_atom_site_label
_atom_site_fract_x
_atom_site_fract_y
_atom_site_fract_z
Si Si1 0.429347 0.350778 0.211451
Si Si2 0.712216 0.048070 0.397515
Si Si3 0.927059 0.462980 0.157345
Si Si4 0.693709 0.450586 0.526642
O O1 0.250000 0.250000 0.212513
O O2 0.416615 0.497341 0.158032
O O3 0.576463 0.224035 0.188477
O O4 0.445442 0.416058 0.282446
O O5 0.750000 0.250000 0.398872
O O6 0.683321 0.984763 0.469533
O O7 0.889582 0.962609 0.377041
O O8 0.801696 0.512024 0.099546
O O9 0.750000 0.250000 0.532027
O O10 0.500000 0.500000 0.500000
#
# Coordination Sequence:
#
# PCOD9430562 Si02
#       4
#     8   8   8   8
#     4  10  21  35  55  83 115 153 193 246 307 361
#     4   9  18  36  56  77 110 149 190 244 303 359
#     4  10  20  35  55  84 115 151 198 243 300 373
#     4   9  19  36  57  82 115 155 201 251 306 371
#
# _framework density 24.830400000000001
#
# number of rings (size 3 to 8) (size 9 to 14) (size 15 to 20)
#    0.000    2.500    0.000    1.500    0.000    5.000 
#    0.000   13.750    0.000    0.000    0.000    0.000 
#    0.000    0.000    0.000    0.000    0.000    0.000 
#
# Total GULP energy -178214.821525 kJ/mol
# GULP energy per Si atom -5569.213173 kJ/mol
# Density = 2.477388 g / cm^3
# Si number density = 24.830400 Si / 1000 Ang^3
#
#
#
# Elastic Constant Matrix: (Units=GPa)
#
#
# Indices 1 2 3 4 5 6 
#
# 1 77.8379 8.6368 23.6590 0.0000 0.0000 0.0000
# 2 8.6368 58.7012 44.5810 0.0000 0.0000 0.0000
# 3 23.6590 44.5810 284.9257 0.0000 0.0000 0.0000
# 4 0.0000 0.0000 0.0000 14.4889 0.0000 0.0000
# 5 0.0000 0.0000 0.0000 0.0000 27.8873 0.0000
# 6 0.0000 0.0000 0.0000 0.0000 0.0000 18.2375
#
#
#
# Elastic Compliance Matrix: (Units=1/GPa)
#
#
# Indices 1 2 3 4 5 6 
#
# 1 0.013262 -0.001265 -0.000903 0.000000 0.000000 0.000000
# 2 -0.001265 0.019453 -0.002939 0.000000 0.000000 0.000000
# 3 -0.000903 -0.002939 0.004044 0.000000 0.000000 0.000000
# 4 0.000000 0.000000 0.000000 0.069018 0.000000 0.000000
# 5 0.000000 0.000000 0.000000 0.000000 0.035859 0.000000
# 6 0.000000 0.000000 0.000000 0.000000 0.000000 0.054832
#
#
# Mechanical properties :
#
#
# Convention : Reuss Voigt Hill
#
# Bulk Modulus (GPa) = 37.67113 63.91314 50.79213
# Shear Modulus (GPa) = 23.19843 35.09529 29.14686
#
# Velocity S-wave (km/s) = 3.05991 3.76360 3.42985
# Velocity P-wave (km/s) = 5.26197 6.68446 6.01541
#
# Compressibility (1/GPa) = 0.02654553
#
# Stress axis : x y z
#
# Youngs Moduli (GPa) = 75.40249 51.40483 247.24953
#
# Poissons Ratio (x) = 0.06504 0.22333
# Poissons Ratio (y) = 0.09541 0.72660
# Poissons Ratio (z) = 0.06811 0.15106
#
# Static dielectric constant tensor:
#      x y z
#    x 2.015900 0.000000 0.000000 
#    y 0.000000 2.051340 0.000000 
#    z 0.000000 0.000000 2.064730 
# 
# From -- ./inp_files/14350.got.cif
#   From: 2010.05.17/outbox.cif.g08.bks.cpg/sg56_8_cif.got.tgz:14350.got - 2010.06.03 13:42:01.
