data_PCOD9430957
_publ_section_title
;
Structure prediction by ZEFSAII (Michael W. Deem and Ramdas Pophale) SiO2 
 PCOD9430957
Probable space group: P C C N
;
_chemical_formula_sum "Si O2"
_cell_formula_units_Z 28
_cell_length_a 7.555984
_cell_length_b 16.732634
_cell_length_c 8.637371
_cell_angle_alpha 90.000000
_cell_angle_beta 90.000000
_cell_angle_gamma 90.000000
_cell_volume 1092.035899
_symmetry_space_group_name_H-M "P C C N"
_symmetry_group_IT_number 56
_symmetry_cell_setting 'orthorhombic'
loop_
_space_group_symop_operation_xyz
x,y,z
1/2-x,1/2-y,z
1/2+x,-y,1/2-z
-x,1/2+y,1/2-z
-x,-y,-z
1/2+x,1/2+y,-z
1/2-x,y,1/2+z
x,1/2-y,1/2+z
loop_
_atom_site_type_symbol
_atom_site_label
_atom_site_fract_x
_atom_site_fract_y
_atom_site_fract_z
Si Si1 0.805758 0.655187 0.233453
Si Si2 0.250000 0.750000 0.677011
Si Si3 0.116181 0.858028 0.915500
Si Si4 0.988260 0.913129 0.425000
O O1 0.750000 0.750000 0.249817
O O2 0.625572 0.605295 0.271793
O O3 0.929119 0.608676 0.365844
O O4 0.898567 0.639922 0.064993
O O5 0.107855 0.787051 0.789565
O O6 0.349883 0.813878 0.574157
O O7 0.304464 0.898112 0.887460
O O8 0.000000 0.000000 0.500000
#
# Coordination Sequence:
#
# PCOD9430957 Si02
#       4
#     8   4   8   8
#     4  12  28  50  82 112 153 204 273 320 389 481
#     4  10  20  38  74 106 136 188 240 318 364 434
#     4  11  24  44  73 108 154 193 256 313 393 443
#     4  12  31  49  76 116 158 208 257 327 401 471
#
# _framework density 25.640184000000001
#
# number of rings (size 3 to 8) (size 9 to 14) (size 15 to 20)
#    0.000    0.571    2.857    4.286   12.000    1.143 
#    0.000    0.000    0.000    0.000    0.000    0.000 
#    0.000    0.000    0.000    0.000    0.000    0.000 
#
# Total GULP energy -155983.510876 kJ/mol
# GULP energy per Si atom -5570.839674 kJ/mol
# Density = 2.558183 g / cm^3
# Si number density = 25.640184 Si / 1000 Ang^3
#
#
#
# Elastic Constant Matrix: (Units=GPa)
#
#
# Indices 1 2 3 4 5 6 
#
# 1 192.0619 22.8986 11.7191 0.0000 0.0000 0.0000
# 2 22.8986 35.0704 -9.1441 0.0000 0.0000 0.0000
# 3 11.7191 -9.1441 72.0915 0.0000 0.0000 0.0000
# 4 0.0000 0.0000 0.0000 18.7279 0.0000 0.0000
# 5 0.0000 0.0000 0.0000 0.0000 54.2369 0.0000
# 6 0.0000 0.0000 0.0000 0.0000 0.0000 28.3012
#
#
#
# Elastic Compliance Matrix: (Units=1/GPa)
#
#
# Indices 1 2 3 4 5 6 
#
# 1 0.005793 -0.004166 -0.001470 0.000000 0.000000 0.000000
# 2 -0.004166 0.032485 0.004798 0.000000 0.000000 0.000000
# 3 -0.001470 0.004798 0.014719 0.000000 0.000000 0.000000
# 4 0.000000 0.000000 0.000000 0.053396 0.000000 0.000000
# 5 0.000000 0.000000 0.000000 0.000000 0.018438 0.000000
# 6 0.000000 0.000000 0.000000 0.000000 0.000000 0.035334
#
#
# Mechanical properties :
#
#
# Convention : Reuss Voigt Hill
#
# Bulk Modulus (GPa) = 19.48552 38.90790 29.19671
# Shear Modulus (GPa) = 27.94106 38.50322 33.22214
#
# Velocity S-wave (km/s) = 3.30470 3.87935 3.60350
# Velocity P-wave (km/s) = 4.70930 5.93913 5.35961
#
# Compressibility (1/GPa) = 0.05132017
#
# Stress axis : x y z
#
# Youngs Moduli (GPa) = 172.62160 30.78349 67.94049
#
# Poissons Ratio (x) = 0.12824 0.09988
# Poissons Ratio (y) = 0.71910 -0.32595
# Poissons Ratio (z) = 0.25377 -0.14769
#
# Static dielectric constant tensor:
#      x y z
#    x 6.180530 0.000000 0.000000 
#    y 0.000000 2.186120 0.000000 
#    z 0.000000 0.000000 2.115130 
# 
# From -- ./inp_files/1871.got.cif
#   From: 2010.05.17/outbox.cif.g08.bks.cpg/sg56_1_cif.got.tgz:1871.got - 2010.06.03 13:42:01.
