data_PCOD9430963
_publ_section_title
;
Structure prediction by ZEFSAII (Michael W. Deem and Ramdas Pophale) SiO2 
 PCOD9430963
Probable space group: P C C N
;
_chemical_formula_sum "Si O2"
_cell_formula_units_Z 64
_cell_length_a 13.119414
_cell_length_b 10.631624
_cell_length_c 19.842756
_cell_angle_alpha 90.000000
_cell_angle_beta 90.000000
_cell_angle_gamma 90.000000
_cell_volume 2767.681035
_symmetry_space_group_name_H-M "P C C N"
_symmetry_group_IT_number 56
_symmetry_cell_setting 'orthorhombic'
loop_
_space_group_symop_operation_xyz
x,y,z
1/2-x,1/2-y,z
1/2+x,-y,1/2-z
-x,1/2+y,1/2-z
-x,-y,-z
1/2+x,1/2+y,-z
1/2-x,y,1/2+z
x,1/2-y,1/2+z
loop_
_atom_site_type_symbol
_atom_site_label
_atom_site_fract_x
_atom_site_fract_y
_atom_site_fract_z
Si Si1 0.139946 0.897031 0.553113
Si Si2 0.500163 0.256430 0.274899
Si Si3 0.571558 0.996149 0.078402
Si Si4 0.809880 0.123815 0.218627
Si Si5 0.873186 0.392475 0.443900
Si Si6 0.926325 0.476185 0.586010
Si Si7 0.608806 0.498844 0.735328
Si Si8 0.636524 0.738560 0.094469
O O1 0.125177 0.753785 0.577678
O O2 0.256583 0.934487 0.564188
O O3 0.050636 0.986204 0.581472
O O4 0.117012 0.903940 0.472557
O O5 0.607006 0.330591 0.272575
O O6 0.428327 0.364028 0.240105
O O7 0.531335 0.116833 0.250314
O O8 0.441016 0.235630 0.343744
O O9 0.607956 0.859399 0.051146
O O10 0.612858 0.001880 0.153560
O O11 0.750000 0.250000 0.196007
O O12 0.724832 0.036130 0.252897
O O13 0.869947 0.067079 0.154157
O O14 0.907459 0.387740 0.522394
O O15 0.954982 0.483477 0.407730
O O16 0.874013 0.605331 0.559946
O O17 0.750000 0.750000 0.121211
#
# Coordination Sequence:
#
# PCOD9430963 Si02
#       8
#     8   8   8   8   8   8   8   8
#     4  10  20  39  59  89 124 163 194 246 295 358
#     4  10  22  39  60  90 120 150 200 256 301 354
#     4  10  21  37  62  88 120 162 200 235 298 359
#     4  10  22  39  63  89 118 156 208 249 305 360
#     4  10  22  35  60  91 125 155 202 245 299 344
#     4  11  21  37  59  92 117 154 202 253 284 358
#     4  10  21  39  62  91 117 159 200 254 297 369
#     4  11  21  38  59  86 119 157 198 245 296 356
#
# _framework density 23.124051999999999
#
# number of rings (size 3 to 8) (size 9 to 14) (size 15 to 20)
#    0.000    1.750    1.250    3.750    5.250    0.000 
#    0.000   11.250    0.000    0.000    0.000    0.000 
#    0.000    0.000    0.000    0.000    0.000    0.000 
#
# Total GULP energy -357142.040804 kJ/mol
# GULP energy per Si atom -5580.344388 kJ/mol
# Density = 2.307142 g / cm^3
# Si number density = 23.124052 Si / 1000 Ang^3
#
#
#
# Elastic Constant Matrix: (Units=GPa)
#
#
# Indices 1 2 3 4 5 6 
#
# 1 178.0726 32.8182 21.5866 0.0000 0.0000 0.0000
# 2 32.8182 88.9400 17.1497 0.0000 0.0000 0.0000
# 3 21.5866 17.1497 41.4903 0.0000 0.0000 0.0000
# 4 0.0000 0.0000 0.0000 22.1983 0.0000 0.0000
# 5 0.0000 0.0000 0.0000 0.0000 27.0951 0.0000
# 6 0.0000 0.0000 0.0000 0.0000 0.0000 35.7414
#
#
#
# Elastic Compliance Matrix: (Units=1/GPa)
#
#
# Indices 1 2 3 4 5 6 
#
# 1 0.006255 -0.001826 -0.002500 0.000000 0.000000 0.000000
# 2 -0.001826 0.012750 -0.004320 0.000000 0.000000 0.000000
# 3 -0.002500 -0.004320 0.027188 0.000000 0.000000 0.000000
# 4 0.000000 0.000000 0.000000 0.045049 0.000000 0.000000
# 5 0.000000 0.000000 0.000000 0.000000 0.036907 0.000000
# 6 0.000000 0.000000 0.000000 0.000000 0.000000 0.027979
#
#
# Mechanical properties :
#
#
# Convention : Reuss Voigt Hill
#
# Bulk Modulus (GPa) = 34.59976 50.17910 42.38943
# Shear Modulus (GPa) = 27.31434 32.80354 30.05894
#
# Velocity S-wave (km/s) = 3.44060 3.77050 3.60932
# Velocity P-wave (km/s) = 5.54786 6.37986 5.97836
#
# Compressibility (1/GPa) = 0.02890193
#
# Stress axis : x y z
#
# Youngs Moduli (GPa) = 159.86555 78.42897 36.78064
#
# Poissons Ratio (x) = 0.14322 0.09194
# Poissons Ratio (y) = 0.29194 0.15890
# Poissons Ratio (z) = 0.39961 0.33883
#
# Static dielectric constant tensor:
#      x y z
#    x 1.913760 0.000000 0.000000 
#    y 0.000000 1.959560 0.000000 
#    z 0.000000 0.000000 1.881730 
# 
# From -- ./inp_files/21025.got.cif
#   From: 2010.05.17/outbox.cif.g08.bks.cpg/sg56_11_cif.got.tgz:21025.got - 2010.06.03 13:42:01.
