data_PCOD9430054
_publ_section_title
;
Structure prediction by ZEFSAII (Michael W. Deem and Ramdas Pophale) SiO2 
 PCOD9430054
Probable space group: P C C N
;
_chemical_formula_sum "Si O2"
_cell_formula_units_Z 52
_cell_length_a 9.620971
_cell_length_b 31.395938
_cell_length_c 8.477105
_cell_angle_alpha 90.000000
_cell_angle_beta 90.000000
_cell_angle_gamma 90.000000
_cell_volume 2560.589326
_symmetry_space_group_name_H-M "P C C N"
_symmetry_group_IT_number 56
_symmetry_cell_setting 'orthorhombic'
loop_
_space_group_symop_operation_xyz
x,y,z
1/2-x,1/2-y,z
1/2+x,-y,1/2-z
-x,1/2+y,1/2-z
-x,-y,-z
1/2+x,1/2+y,-z
1/2-x,y,1/2+z
x,1/2-y,1/2+z
loop_
_atom_site_type_symbol
_atom_site_label
_atom_site_fract_x
_atom_site_fract_y
_atom_site_fract_z
Si Si1 0.886983 0.497527 0.139104
Si Si2 0.250000 0.750000 0.038051
Si Si3 0.959142 0.918322 0.242058
Si Si4 0.446959 0.728884 0.790181
Si Si5 0.704160 0.701860 0.964157
Si Si6 0.689247 0.951017 0.436379
Si Si7 0.954347 0.824565 0.273624
O O1 0.893145 0.531223 0.284101
O O2 0.921269 0.452495 0.219199
O O3 0.746158 0.509612 0.045007
O O4 0.000000 0.500000 0.000000
O O5 0.143111 0.721371 0.136917
O O6 0.346998 0.719616 0.935551
O O7 0.825662 0.927771 0.359204
O O8 0.017465 0.871098 0.270518
O O9 0.899378 0.924134 0.063432
O O10 0.594730 0.708031 0.820153
O O11 0.462358 0.780539 0.791299
O O12 0.750000 0.750000 0.006903
O O13 0.838257 0.677041 0.909358
O O14 0.626927 0.681398 0.109396
#
# Coordination Sequence:
#
# PCOD9430054 Si02
#       7
#     8   4   8   8   8   8   8
#     4   9  18  33  57  78 106 141 184 216 256 327
#     4  10  20  36  58  72  98 140 198 220 250 332
#     4  10  19  33  52  83 112 137 175 221 276 311
#     4  10  20  36  56  77 101 144 189 222 266 323
#     4  10  20  34  54  78 108 143 183 224 277 328
#     4   9  18  34  55  79 107 147 180 209 260 331
#     4  11  21  33  53  83 114 136 175 237 279 313
#
# _framework density 20.307824
#
# number of rings (size 3 to 8) (size 9 to 14) (size 15 to 20)
#    0.000    2.154    1.538    2.769    2.154    0.000 
#    0.000    1.538    0.000    0.000    0.000    0.000 
#    0.000    0.000    0.000    0.000    0.000    0.000 
#
# Total GULP energy -289652.501196 kJ/mol
# GULP energy per Si atom -5570.240408 kJ/mol
# Density = 2.026160 g / cm^3
# Si number density = 20.307824 Si / 1000 Ang^3
#
#
#
# Elastic Constant Matrix: (Units=GPa)
#
#
# Indices 1 2 3 4 5 6 
#
# 1 25.5364 -2.5228 -0.1329 0.0000 0.0000 0.0000
# 2 -2.5228 65.5756 -0.6881 0.0000 0.0000 0.0000
# 3 -0.1329 -0.6881 97.8754 0.0000 0.0000 0.0000
# 4 0.0000 0.0000 0.0000 8.1708 0.0000 0.0000
# 5 0.0000 0.0000 0.0000 0.0000 34.3204 0.0000
# 6 0.0000 0.0000 0.0000 0.0000 0.0000 11.8019
#
#
#
# Elastic Compliance Matrix: (Units=1/GPa)
#
#
# Indices 1 2 3 4 5 6 
#
# 1 0.039310 0.001513 0.000064 0.000000 0.000000 0.000000
# 2 0.001513 0.015309 0.000110 0.000000 0.000000 0.000000
# 3 0.000064 0.000110 0.010218 0.000000 0.000000 0.000000
# 4 0.000000 0.000000 0.000000 0.122387 0.000000 0.000000
# 5 0.000000 0.000000 0.000000 0.000000 0.029137 0.000000
# 6 0.000000 0.000000 0.000000 0.000000 0.000000 0.084732
#
#
# Mechanical properties :
#
#
# Convention : Reuss Voigt Hill
#
# Bulk Modulus (GPa) = 14.66065 20.25553 17.45809
# Shear Modulus (GPa) = 15.60277 23.68071 19.64174
#
# Velocity S-wave (km/s) = 2.77485 3.41851 3.11336
# Velocity P-wave (km/s) = 4.18346 5.05742 4.64106
#
# Compressibility (1/GPa) = 0.06820978
#
# Stress axis : x y z
#
# Youngs Moduli (GPa) = 25.43909 65.32138 97.86713
#
# Poissons Ratio (x) = -0.09883 -0.00626
# Poissons Ratio (y) = -0.03849 -0.01073
# Poissons Ratio (z) = -0.00163 -0.00716
#
# Static dielectric constant tensor:
#      x y z
#    x 1.776530 0.000000 0.000000 
#    y 0.000000 1.758920 0.000000 
#    z 0.000000 0.000000 1.796570 
# 
# From -- ./inp_files/2930.got.cif
#   From: 2010.05.17/outbox.cif.g08.bks.cpg/sg56_2_cif.got.tgz:2930.got - 2010.06.03 13:42:01.
