data_PCOD9430543
_publ_section_title
;
Structure prediction by ZEFSAII (Michael W. Deem and Ramdas Pophale) SiO2 
 PCOD9430543
Probable space group: P C C N
;
_chemical_formula_sum "Si O2"
_cell_formula_units_Z 60
_cell_length_a 11.951607
_cell_length_b 11.549311
_cell_length_c 19.485248
_cell_angle_alpha 90.000000
_cell_angle_beta 90.000000
_cell_angle_gamma 90.000000
_cell_volume 2689.603851
_symmetry_space_group_name_H-M "P C C N"
_symmetry_group_IT_number 56
_symmetry_cell_setting 'orthorhombic'
loop_
_space_group_symop_operation_xyz
x,y,z
1/2-x,1/2-y,z
1/2+x,-y,1/2-z
-x,1/2+y,1/2-z
-x,-y,-z
1/2+x,1/2+y,-z
1/2-x,y,1/2+z
x,1/2-y,1/2+z
loop_
_atom_site_type_symbol
_atom_site_label
_atom_site_fract_x
_atom_site_fract_y
_atom_site_fract_z
Si Si1 0.109175 0.727592 0.645066
Si Si2 0.734740 0.007539 0.657667
Si Si3 0.276858 0.121413 0.595232
Si Si4 0.502630 0.508364 0.082625
Si Si5 0.651261 0.589056 0.537418
Si Si6 0.691260 0.438281 0.306965
Si Si7 0.250000 0.750000 0.895127
Si Si8 0.413209 0.673074 0.502477
O O1 0.022301 0.635750 0.614340
O O2 0.200421 0.643483 0.679663
O O3 0.092504 0.841185 0.693171
O O4 0.141015 0.794989 0.574903
O O5 0.706150 0.991701 0.736785
O O6 0.778421 0.139412 0.650916
O O7 0.622518 0.016650 0.613418
O O8 0.812667 0.916334 0.617046
O O9 0.250000 0.250000 0.619631
O O10 0.251863 0.117240 0.513918
O O11 0.402125 0.075814 0.607431
O O12 0.192216 0.032028 0.632305
O O13 0.500000 0.500000 0.000000
O O14 0.546228 0.667880 0.515632
O O15 0.619407 0.455845 0.520968
O O16 0.142873 0.756994 0.946639
#
# Coordination Sequence:
#
# PCOD9430543 Si02
#       8
#     8   8   8   8   8   8   4   8
#     4  10  20  39  69  92 129 176 223 273 338 420
#     4  11  23  43  64  97 139 172 234 287 336 423
#     4  11  24  43  66  94 136 176 220 283 353 419
#     4  11  23  41  67 102 131 174 229 284 351 407
#     4  10  22  39  63  99 133 170 221 291 339 397
#     4  10  22  44  66  92 132 184 228 270 341 417
#     4  10  20  34  68  94 126 172 220 294 328 402
#     4  10  20  36  65 103 123 165 228 279 342 400
#
# _framework density 22.308118
#
# number of rings (size 3 to 8) (size 9 to 14) (size 15 to 20)
#    0.000    1.600    2.667    2.400    7.467    0.000 
#    7.200    0.667    0.000    0.000    0.000    0.000 
#    0.000    0.000    0.000    0.000    0.000    0.000 
#
# Total GULP energy -334363.149162 kJ/mol
# GULP energy per Si atom -5572.719153 kJ/mol
# Density = 2.225734 g / cm^3
# Si number density = 22.308118 Si / 1000 Ang^3
#
#
#
# Elastic Constant Matrix: (Units=GPa)
#
#
# Indices 1 2 3 4 5 6 
#
# 1 60.6079 11.6358 -2.7778 0.0000 0.0000 0.0000
# 2 11.6358 100.6809 7.6277 0.0000 0.0000 0.0000
# 3 -2.7778 7.6277 88.4227 0.0000 0.0000 0.0000
# 4 0.0000 0.0000 0.0000 22.7224 0.0000 0.0000
# 5 0.0000 0.0000 0.0000 0.0000 14.6002 0.0000
# 6 0.0000 0.0000 0.0000 0.0000 0.0000 25.5932
#
#
#
# Elastic Compliance Matrix: (Units=1/GPa)
#
#
# Indices 1 2 3 4 5 6 
#
# 1 0.016917 -0.002009 0.000705 0.000000 0.000000 0.000000
# 2 -0.002009 0.010236 -0.000946 0.000000 0.000000 0.000000
# 3 0.000705 -0.000946 0.011413 0.000000 0.000000 0.000000
# 4 0.000000 0.000000 0.000000 0.044009 0.000000 0.000000
# 5 0.000000 0.000000 0.000000 0.000000 0.068492 0.000000
# 6 0.000000 0.000000 0.000000 0.000000 0.000000 0.039073
#
#
# Mechanical properties :
#
#
# Convention : Reuss Voigt Hill
#
# Bulk Modulus (GPa) = 29.35412 31.40921 30.38167
# Shear Modulus (GPa) = 24.27221 28.13154 26.20188
#
# Velocity S-wave (km/s) = 3.30213 3.55497 3.43088
# Velocity P-wave (km/s) = 5.26553 5.56424 5.41694
#
# Compressibility (1/GPa) = 0.03406677
#
# Stress axis : x y z
#
# Youngs Moduli (GPa) = 59.11076 97.69272 87.61883
#
# Poissons Ratio (x) = 0.19622 -0.06175
# Poissons Ratio (y) = 0.11873 0.08290
# Poissons Ratio (z) = -0.04166 0.09243
#
# Static dielectric constant tensor:
#      x y z
#    x 1.929750 0.000000 0.000000 
#    y 0.000000 1.937200 0.000000 
#    z 0.000000 0.000000 1.855620 
# 
# From -- ./inp_files/18807.got.cif
#   From: 2010.05.17/outbox.cif.g08.bks.cpg/sg56_10_cif.got.tgz:18807.got - 2010.06.03 13:42:01.
