data_PCOD9430896
_publ_section_title
;
Structure prediction by ZEFSAII (Michael W. Deem and Ramdas Pophale) SiO2 
 PCOD9430896
Probable space group: P C C N
;
_chemical_formula_sum "Si O2"
_cell_formula_units_Z 48
_cell_length_a 15.087373
_cell_length_b 9.529683
_cell_length_c 17.709957
_cell_angle_alpha 90.000000
_cell_angle_beta 90.000000
_cell_angle_gamma 90.000000
_cell_volume 2546.300108
_symmetry_space_group_name_H-M "P C C N"
_symmetry_group_IT_number 56
_symmetry_cell_setting 'orthorhombic'
loop_
_space_group_symop_operation_xyz
x,y,z
1/2-x,1/2-y,z
1/2+x,-y,1/2-z
-x,1/2+y,1/2-z
-x,-y,-z
1/2+x,1/2+y,-z
1/2-x,y,1/2+z
x,1/2-y,1/2+z
loop_
_atom_site_type_symbol
_atom_site_label
_atom_site_fract_x
_atom_site_fract_y
_atom_site_fract_z
Si Si1 0.679012 0.123430 0.414117
Si Si2 0.479344 0.364693 0.945774
Si Si3 0.254369 0.582908 0.430175
Si Si4 0.090802 0.078961 0.509606
Si Si5 0.291487 0.102358 0.152515
Si Si6 0.322054 0.373841 0.825416
O O1 0.750000 0.250000 0.411011
O O2 0.577621 0.172478 0.413540
O O3 0.693349 0.051417 0.496493
O O4 0.712350 0.011688 0.352552
O O5 0.412435 0.372603 0.874125
O O6 0.500000 0.500000 0.000000
O O7 0.432804 0.240969 0.993728
O O8 0.250000 0.750000 0.424587
O O9 0.343634 0.501250 0.452037
O O10 0.221531 0.517395 0.353294
O O11 0.135029 0.061634 0.591353
O O12 0.000000 0.000000 0.500000
O O13 0.250000 0.250000 0.127884
O O14 0.331249 0.122812 0.235555
O O15 0.250000 0.250000 0.843915
#
# Coordination Sequence:
#
# PCOD9430896 Si02
#       6
#     8   8   8   8   8   8
#     4  10  21  40  62  90 122 167 213 260 320 385
#     4  12  22  37  68  97 122 168 222 265 316 397
#     4  10  20  38  63  87 127 170 212 267 324 389
#     4  11  23  40  64  94 124 167 223 270 322 391
#     4  10  23  42  63  89 132 170 204 267 333 383
#     4  11  23  42  62  94 132 168 213 271 329 381
#
# _framework density 18.850881000000001
#
# number of rings (size 3 to 8) (size 9 to 14) (size 15 to 20)
#    0.000    1.333    3.333    4.000    2.333    0.667 
#    3.000    5.000    0.000    0.000    0.000    0.000 
#    0.000    0.000    0.000    0.000    0.000    0.000 
#
# Total GULP energy -267366.305696 kJ/mol
# GULP energy per Si atom -5570.131369 kJ/mol
# Density = 1.880798 g / cm^3
# Si number density = 18.850881 Si / 1000 Ang^3
#
#
#
# Elastic Constant Matrix: (Units=GPa)
#
#
# Indices 1 2 3 4 5 6 
#
# 1 149.8718 37.5645 42.6414 0.0000 0.0000 0.0000
# 2 37.5645 108.7819 22.9322 0.0000 0.0000 0.0000
# 3 42.6414 22.9322 62.6331 0.0000 0.0000 0.0000
# 4 0.0000 0.0000 0.0000 18.7905 0.0000 0.0000
# 5 0.0000 0.0000 0.0000 0.0000 22.4328 0.0000
# 6 0.0000 0.0000 0.0000 0.0000 0.0000 33.6745
#
#
#
# Elastic Compliance Matrix: (Units=1/GPa)
#
#
# Indices 1 2 3 4 5 6 
#
# 1 0.008618 -0.001884 -0.005177 0.000000 0.000000 0.000000
# 2 -0.001884 0.010374 -0.002515 0.000000 0.000000 0.000000
# 3 -0.005177 -0.002515 0.020412 0.000000 0.000000 0.000000
# 4 0.000000 0.000000 0.000000 0.053218 0.000000 0.000000
# 5 0.000000 0.000000 0.000000 0.000000 0.044578 0.000000
# 6 0.000000 0.000000 0.000000 0.000000 0.000000 0.029696
#
#
# Mechanical properties :
#
#
# Convention : Reuss Voigt Hill
#
# Bulk Modulus (GPa) = 49.38414 58.61810 54.00112
# Shear Modulus (GPa) = 25.93385 29.52280 27.72833
#
# Velocity S-wave (km/s) = 3.71312 3.96172 3.83943
# Velocity P-wave (km/s) = 6.68110 7.21735 6.95440
#
# Compressibility (1/GPa) = 0.02024941
#
# Stress axis : x y z
#
# Youngs Moduli (GPa) = 116.04060 96.39786 48.99199
#
# Poissons Ratio (x) = 0.18166 0.25363
# Poissons Ratio (y) = 0.21868 0.12322
# Poissons Ratio (z) = 0.60075 0.24246
#
# Static dielectric constant tensor:
#      x y z
#    x 1.677650 0.000000 0.000000 
#    y 0.000000 1.676780 0.000000 
#    z 0.000000 0.000000 1.644950 
# 
# From -- ./inp_files/16168.got.cif
#   From: 2010.05.17/outbox.cif.g08.bks.cpg/sg56_9_cif.got.tgz:16168.got - 2010.06.03 13:42:01.
