data_PCOD9430678
_publ_section_title
;
Structure prediction by ZEFSAII (Michael W. Deem and Ramdas Pophale) SiO2 
 PCOD9430678
Probable space group: P C C N
;
_chemical_formula_sum "Si O2"
_cell_formula_units_Z 48
_cell_length_a 12.307367
_cell_length_b 9.887411
_cell_length_c 18.563108
_cell_angle_alpha 90.000000
_cell_angle_beta 90.000000
_cell_angle_gamma 90.000000
_cell_volume 2258.907409
_symmetry_space_group_name_H-M "P C C N"
_symmetry_group_IT_number 56
_symmetry_cell_setting 'orthorhombic'
loop_
_space_group_symop_operation_xyz
x,y,z
1/2-x,1/2-y,z
1/2+x,-y,1/2-z
-x,1/2+y,1/2-z
-x,-y,-z
1/2+x,1/2+y,-z
1/2-x,y,1/2+z
x,1/2-y,1/2+z
loop_
_atom_site_type_symbol
_atom_site_label
_atom_site_fract_x
_atom_site_fract_y
_atom_site_fract_z
Si Si1 0.896338 0.368242 0.353317
Si Si2 0.654420 0.070850 0.900156
Si Si3 0.804722 0.397236 0.056063
Si Si4 0.910269 0.219007 0.695015
Si Si5 0.367265 0.485530 0.849531
Si Si6 0.646411 0.830213 0.793919
O O1 0.901075 0.211751 0.377660
O O2 0.785679 0.420820 0.388913
O O3 0.879579 0.361793 0.266903
O O4 0.008145 0.447370 0.368909
O O5 0.619783 0.955486 0.845475
O O6 0.637132 0.050331 0.984744
O O7 0.750000 0.250000 0.038057
O O8 0.882085 0.365353 0.123739
O O9 0.712264 0.501327 0.082678
O O10 0.855503 0.364662 0.685397
O O11 0.036774 0.254869 0.704542
O O12 0.333588 0.382465 0.786970
O O13 0.750000 0.750000 0.820636
#
# Coordination Sequence:
#
# PCOD9430678 Si02
#       6
#     8   8   8   8   8   8
#     4  10  20  36  61  90 116 165 209 261 309 369
#     4  11  21  39  59  89 126 162 204 255 316 377
#     4  10  21  38  61  91 124 168 206 251 317 379
#     4  10  21  38  62  88 120 164 209 256 317 370
#     4  10  21  39  62  90 119 159 214 263 305 372
#     4  11  23  40  63  91 120 159 209 262 309 370
#
# _framework density 21.249212
#
# number of rings (size 3 to 8) (size 9 to 14) (size 15 to 20)
#    0.000    1.667    3.333    2.000    4.667    2.667 
#    3.000    0.833    0.000    0.000    0.000    0.000 
#    0.000    0.000    0.000    0.000    0.000    0.000 
#
# Total GULP energy -268093.362052 kJ/mol
# GULP energy per Si atom -5585.278376 kJ/mol
# Density = 2.120085 g / cm^3
# Si number density = 21.249212 Si / 1000 Ang^3
#
#
#
# Elastic Constant Matrix: (Units=GPa)
#
#
# Indices 1 2 3 4 5 6 
#
# 1 71.9672 9.6943 13.7778 0.0000 0.0000 0.0000
# 2 9.6943 30.2203 -2.9913 0.0000 0.0000 0.0000
# 3 13.7778 -2.9913 106.7401 0.0000 0.0000 0.0000
# 4 0.0000 0.0000 0.0000 0.5024 0.0000 0.0000
# 5 0.0000 0.0000 0.0000 0.0000 12.1177 0.0000
# 6 0.0000 0.0000 0.0000 0.0000 0.0000 32.0182
#
#
#
# Elastic Compliance Matrix: (Units=1/GPa)
#
#
# Indices 1 2 3 4 5 6 
#
# 1 0.014966 -0.005006 -0.002072 0.000000 0.000000 0.000000
# 2 -0.005006 0.034857 0.001623 0.000000 0.000000 0.000000
# 3 -0.002072 0.001623 0.009681 0.000000 0.000000 0.000000
# 4 0.000000 0.000000 0.000000 1.990475 0.000000 0.000000
# 5 0.000000 0.000000 0.000000 0.000000 0.082524 0.000000
# 6 0.000000 0.000000 0.000000 0.000000 0.000000 0.031232
#
#
# Mechanical properties :
#
#
# Convention : Reuss Voigt Hill
#
# Bulk Modulus (GPa) = 20.57856 27.76546 24.17201
# Shear Modulus (GPa) = 2.28223 21.49078 11.88650
#
# Velocity S-wave (km/s) = 1.03748 3.18365 2.36770
# Velocity P-wave (km/s) = 3.33775 5.15840 4.34452
#
# Compressibility (1/GPa) = 0.04859426
#
# Stress axis : x y z
#
# Youngs Moduli (GPa) = 66.81694 28.68876 103.28978
#
# Poissons Ratio (x) = 0.14362 0.21403
# Poissons Ratio (y) = 0.33449 -0.16764
# Poissons Ratio (z) = 0.13845 -0.04656
#
# Static dielectric constant tensor:
#      x y z
#    x 1.781570 0.000000 0.000000 
#    y 0.000000 1.766240 0.000000 
#    z 0.000000 0.000000 1.752870 
# 
# From -- ./inp_files/15570.got.cif
#   From: 2010.05.17/outbox.cif.g08.bks.cpg/sg56_8_cif.got.tgz:15570.got - 2010.06.03 13:42:01.
