data_PCOD9430619
_publ_section_title
;
Structure prediction by ZEFSAII (Michael W. Deem and Ramdas Pophale) SiO2 
 PCOD9430619
Probable space group: P C C N
;
_chemical_formula_sum "Si O2"
_cell_formula_units_Z 60
_cell_length_a 13.574600
_cell_length_b 22.943775
_cell_length_c 8.096300
_cell_angle_alpha 90.000000
_cell_angle_beta 90.000000
_cell_angle_gamma 90.000000
_cell_volume 2521.613427
_symmetry_space_group_name_H-M "P C C N"
_symmetry_group_IT_number 56
_symmetry_cell_setting 'orthorhombic'
loop_
_space_group_symop_operation_xyz
x,y,z
1/2-x,1/2-y,z
1/2+x,-y,1/2-z
-x,1/2+y,1/2-z
-x,-y,-z
1/2+x,1/2+y,-z
1/2-x,y,1/2+z
x,1/2-y,1/2+z
loop_
_atom_site_type_symbol
_atom_site_label
_atom_site_fract_x
_atom_site_fract_y
_atom_site_fract_z
Si Si1 0.875607 0.894580 0.843530
Si Si2 0.060243 0.327535 0.194846
Si Si3 0.750000 0.250000 0.638889
Si Si4 0.376146 0.899931 0.813164
Si Si5 0.172974 0.431180 0.278675
Si Si6 0.638423 0.727730 0.975816
Si Si7 0.505460 0.491220 0.197592
Si Si8 0.688647 0.155357 0.872705
O O1 0.787734 0.924782 0.744066
O O2 0.874889 0.825152 0.846323
O O3 0.974453 0.924613 0.779945
O O4 0.855776 0.912235 0.035213
O O5 0.125077 0.384181 0.153888
O O6 0.116893 0.297163 0.344637
O O7 0.062705 0.280013 0.054039
O O8 0.955825 0.352077 0.248376
O O9 0.828205 0.291429 0.739274
O O10 0.791969 0.200394 0.522545
O O11 0.426412 0.962328 0.771081
O O12 0.276168 0.883284 0.713407
O O13 0.369235 0.891120 0.011519
O O14 0.114848 0.490681 0.248567
O O15 0.750000 0.750000 0.964585
O O16 0.500000 0.500000 0.000000
#
# Coordination Sequence:
#
# PCOD9430619 Si02
#       8
#     8   8   4   8   8   8   8   8
#     4  10  20  35  62  86 113 159 190 245 308 351
#     4  10  22  35  55  88 121 152 188 254 302 366
#     4   8  16  32  54  82 114 142 186 246 292 338
#     4  10  21  38  59  85 119 162 209 249 303 358
#     4   9  19  37  58  83 117 151 194 243 298 359
#     4  11  21  36  61  88 119 148 195 240 313 377
#     4   9  20  39  58  83 118 157 206 248 299 367
#     4   9  18  33  57  83 115 156 201 241 294 367
#
# _framework density 23.794288000000002
#
# number of rings (size 3 to 8) (size 9 to 14) (size 15 to 20)
#    0.000    2.400    1.333    1.200    1.867    6.400 
#    0.000    2.000    0.000   16.000    0.000    0.000 
#    0.000    0.000    0.000    0.000    0.000    0.000 
#
# Total GULP energy -334123.176633 kJ/mol
# GULP energy per Si atom -5568.719611 kJ/mol
# Density = 2.374013 g / cm^3
# Si number density = 23.794288 Si / 1000 Ang^3
#
#
#
# Elastic Constant Matrix: (Units=GPa)
#
#
# Indices 1 2 3 4 5 6 
#
# 1 24.7810 13.2875 15.3452 0.0000 0.0000 0.0000
# 2 13.2875 63.7408 27.2367 0.0000 0.0000 0.0000
# 3 15.3452 27.2367 52.5577 0.0000 0.0000 0.0000
# 4 0.0000 0.0000 0.0000 11.5800 0.0000 0.0000
# 5 0.0000 0.0000 0.0000 0.0000 24.4163 0.0000
# 6 0.0000 0.0000 0.0000 0.0000 0.0000 34.2066
#
#
#
# Elastic Compliance Matrix: (Units=1/GPa)
#
#
# Indices 1 2 3 4 5 6 
#
# 1 0.050692 -0.005450 -0.011976 0.000000 0.000000 0.000000
# 2 -0.005450 0.020737 -0.009155 0.000000 0.000000 0.000000
# 3 -0.011976 -0.009155 0.027268 0.000000 0.000000 0.000000
# 4 0.000000 0.000000 0.000000 0.086356 0.000000 0.000000
# 5 0.000000 0.000000 0.000000 0.000000 0.040956 0.000000
# 6 0.000000 0.000000 0.000000 0.000000 0.000000 0.029234
#
#
# Mechanical properties :
#
#
# Convention : Reuss Voigt Hill
#
# Bulk Modulus (GPa) = 21.96158 28.09091 25.02625
# Shear Modulus (GPa) = 15.45199 19.72123 17.58661
#
# Velocity S-wave (km/s) = 2.55110 2.88205 2.72161
# Velocity P-wave (km/s) = 4.23406 4.78605 4.51849
#
# Compressibility (1/GPa) = 0.04553406
#
# Stress axis : x y z
#
# Youngs Moduli (GPa) = 19.72705 48.22388 36.67329
#
# Poissons Ratio (x) = 0.26281 0.43921
# Poissons Ratio (y) = 0.10751 0.33575
# Poissons Ratio (z) = 0.23626 0.44149
#
# Static dielectric constant tensor:
#      x y z
#    x 1.991080 0.000000 0.000000 
#    y 0.000000 2.226960 0.000000 
#    z 0.000000 0.000000 1.990870 
# 
# From -- ./inp_files/3684.got.cif
#   From: 2010.05.17/outbox.cif.g08.bks.cpg/sg56_2_cif.got.tgz:3684.got - 2010.06.03 13:42:01.
