data_PCOD9430012
_publ_section_title
;
Structure prediction by ZEFSAII (Michael W. Deem and Ramdas Pophale) SiO2 
 PCOD9430012
Probable space group: P C C N
;
_chemical_formula_sum "Si O2"
_cell_formula_units_Z 36
_cell_length_a 16.850507
_cell_length_b 8.932368
_cell_length_c 8.598597
_cell_angle_alpha 90.000000
_cell_angle_beta 90.000000
_cell_angle_gamma 90.000000
_cell_volume 1294.217221
_symmetry_space_group_name_H-M "P C C N"
_symmetry_group_IT_number 56
_symmetry_cell_setting 'orthorhombic'
loop_
_space_group_symop_operation_xyz
x,y,z
1/2-x,1/2-y,z
1/2+x,-y,1/2-z
-x,1/2+y,1/2-z
-x,-y,-z
1/2+x,1/2+y,-z
1/2-x,y,1/2+z
x,1/2-y,1/2+z
loop_
_atom_site_type_symbol
_atom_site_label
_atom_site_fract_x
_atom_site_fract_y
_atom_site_fract_z
Si Si1 0.967682 0.828701 0.659286
Si Si2 0.108170 0.115204 0.033874
Si Si3 0.720254 0.428531 0.790632
Si Si4 0.872443 0.392918 0.002472
Si Si5 0.250000 0.250000 0.200826
O O1 0.924330 0.669545 0.629170
O O2 0.962325 0.869988 0.839814
O O3 0.916519 0.956517 0.570191
O O4 0.053427 0.819092 0.584335
O O5 0.156137 0.965721 0.072725
O O6 0.173345 0.237392 0.091591
O O7 0.801023 0.392417 0.878171
O O8 0.673956 0.339691 0.657735
O O9 0.742501 0.592089 0.712807
#
# Coordination Sequence:
#
# PCOD9430012 Si02
#       5
#     8   8   8   8   4
#     4  10  19  32  50  78 106 130 165 214 254 290
#     4   9  18  29  51  75 105 132 164 200 252 303
#     4   9  18  29  51  75 105 132 164 200 252 303
#     4  10  19  32  50  78 106 130 165 214 254 290
#     4   8  16  26  48  82 100 134 160 202 240 322
#
# _framework density 27.816040999999998
#
# number of rings (size 3 to 8) (size 9 to 14) (size 15 to 20)
#    1.333    1.333    2.222    0.000    3.111    1.778 
#    0.000    2.222    0.000   12.000    0.000    0.000 
#    0.000    0.000    0.000    0.000    0.000    0.000 
#
# Total GULP energy -200949.425338 kJ/mol
# GULP energy per Si atom -5581.928482 kJ/mol
# Density = 2.775273 g / cm^3
# Si number density = 27.816041 Si / 1000 Ang^3
#
#
#
# Elastic Constant Matrix: (Units=GPa)
#
#
# Indices 1 2 3 4 5 6 
#
# 1 140.3236 15.4687 39.9889 0.0000 0.0000 0.0000
# 2 15.4687 47.7970 22.3331 0.0000 0.0000 0.0000
# 3 39.9889 22.3331 82.9785 0.0000 0.0000 0.0000
# 4 0.0000 0.0000 0.0000 27.9604 0.0000 0.0000
# 5 0.0000 0.0000 0.0000 0.0000 42.2363 0.0000
# 6 0.0000 0.0000 0.0000 0.0000 0.0000 45.0300
#
#
#
# Elastic Compliance Matrix: (Units=1/GPa)
#
#
# Indices 1 2 3 4 5 6 
#
# 1 0.008297 -0.000934 -0.003747 0.000000 0.000000 0.000000
# 2 -0.000934 0.024037 -0.006019 0.000000 0.000000 0.000000
# 3 -0.003747 -0.006019 0.015477 0.000000 0.000000 0.000000
# 4 0.000000 0.000000 0.000000 0.035765 0.000000 0.000000
# 5 0.000000 0.000000 0.000000 0.000000 0.023676 0.000000
# 6 0.000000 0.000000 0.000000 0.000000 0.000000 0.022207
#
#
# Mechanical properties :
#
#
# Convention : Reuss Voigt Hill
#
# Bulk Modulus (GPa) = 37.86458 47.40896 42.63677
# Shear Modulus (GPa) = 31.31581 35.93256 33.62418
#
# Velocity S-wave (km/s) = 3.35896 3.59805 3.48056
# Velocity P-wave (km/s) = 5.35589 5.86021 5.61371
#
# Compressibility (1/GPa) = 0.02640991
#
# Stress axis : x y z
#
# Youngs Moduli (GPa) = 120.52218 41.60323 64.61174
#
# Poissons Ratio (x) = 0.03888 0.24211
# Poissons Ratio (y) = 0.11262 0.38890
# Poissons Ratio (z) = 0.45161 0.25041
#
# Static dielectric constant tensor:
#      x y z
#    x 2.120710 0.000000 0.000000 
#    y 0.000000 2.413930 0.000000 
#    z 0.000000 0.000000 2.117650 
# 
# From -- ./inp_files/3181.got.cif
#   From: 2010.05.17/outbox.cif.g08.bks.cpg/sg56_2_cif.got.tgz:3181.got - 2010.06.03 13:42:01.
