data_PCOD9430434
_publ_section_title
;
Structure prediction by ZEFSAII (Michael W. Deem and Ramdas Pophale) SiO2 
 PCOD9430434
Probable space group: P C C N
;
_chemical_formula_sum "Si O2"
_cell_formula_units_Z 64
_cell_length_a 13.829250
_cell_length_b 25.323176
_cell_length_c 8.403088
_cell_angle_alpha 90.000000
_cell_angle_beta 90.000000
_cell_angle_gamma 90.000000
_cell_volume 2942.765886
_symmetry_space_group_name_H-M "P C C N"
_symmetry_group_IT_number 56
_symmetry_cell_setting 'orthorhombic'
loop_
_space_group_symop_operation_xyz
x,y,z
1/2-x,1/2-y,z
1/2+x,-y,1/2-z
-x,1/2+y,1/2-z
-x,-y,-z
1/2+x,1/2+y,-z
1/2-x,y,1/2+z
x,1/2-y,1/2+z
loop_
_atom_site_type_symbol
_atom_site_label
_atom_site_fract_x
_atom_site_fract_y
_atom_site_fract_z
Si Si1 0.430359 0.863126 0.440804
Si Si2 0.899687 0.605773 0.264031
Si Si3 0.205855 0.960421 0.856534
Si Si4 0.531345 0.010661 0.821434
Si Si5 0.041401 0.394477 0.252395
Si Si6 0.274792 0.689476 0.113944
Si Si7 0.140782 0.626956 0.908372
Si Si8 0.722921 0.585002 0.078465
O O1 0.508820 0.856545 0.300872
O O2 0.368277 0.918334 0.439772
O O3 0.494381 0.864983 0.599403
O O4 0.350245 0.818887 0.467938
O O5 0.956135 0.550745 0.252309
O O6 0.829444 0.607609 0.112453
O O7 0.830605 0.602420 0.418193
O O8 0.305200 0.927534 0.856932
O O9 0.142438 0.969473 0.695336
O O10 0.223294 0.020397 0.916914
O O11 0.524538 0.956767 0.725448
O O12 0.500000 0.000000 0.000000
O O13 0.974863 0.379472 0.101610
O O14 0.155786 0.392534 0.276939
O O15 0.250000 0.750000 0.128705
O O16 0.184803 0.651076 0.069467
O O17 0.325742 0.667436 0.271173
#
# Coordination Sequence:
#
# PCOD9430434 Si02
#       8
#     8   8   8   8   8   8   8   8
#     4   8  17  35  50  66  98 137 171 217 271 322
#     4  10  20  33  48  70 100 141 181 223 262 296
#     4   9  18  30  46  70  98 140 180 211 266 302
#     4  10  20  29  45  68 104 136 184 228 250 304
#     4   9  18  32  45  68  97 138 175 212 263 299
#     4  10  20  35  55  79 100 129 167 212 271 332
#     4  10  20  33  53  72 106 134 166 215 264 324
#     4  10  20  31  50  69 101 141 186 216 244 308
#
# _framework density 21.748246999999999
#
# number of rings (size 3 to 8) (size 9 to 14) (size 15 to 20)
#    0.000    2.500    0.000    1.875    5.250    5.000 
#    0.000    0.000    0.000    0.000    0.000    0.875 
#    0.000    6.000    0.000    0.125    0.000    0.625 
#
# Total GULP energy -356775.309461 kJ/mol
# GULP energy per Si atom -5574.614210 kJ/mol
# Density = 2.169875 g / cm^3
# Si number density = 21.748247 Si / 1000 Ang^3
#
#
#
# Elastic Constant Matrix: (Units=GPa)
#
#
# Indices 1 2 3 4 5 6 
#
# 1 119.9971 21.0147 20.0107 0.0000 0.0000 0.0000
# 2 21.0147 62.4289 4.8576 0.0000 0.0000 0.0000
# 3 20.0107 4.8576 44.3321 0.0000 0.0000 0.0000
# 4 0.0000 0.0000 0.0000 16.8770 0.0000 0.0000
# 5 0.0000 0.0000 0.0000 0.0000 36.3984 0.0000
# 6 0.0000 0.0000 0.0000 0.0000 0.0000 9.5790
#
#
#
# Elastic Compliance Matrix: (Units=1/GPa)
#
#
# Indices 1 2 3 4 5 6 
#
# 1 0.009502 -0.002889 -0.003972 0.000000 0.000000 0.000000
# 2 -0.002889 0.017035 -0.000562 0.000000 0.000000 0.000000
# 3 -0.003972 -0.000562 0.024412 0.000000 0.000000 0.000000
# 4 0.000000 0.000000 0.000000 0.059252 0.000000 0.000000
# 5 0.000000 0.000000 0.000000 0.000000 0.027474 0.000000
# 6 0.000000 0.000000 0.000000 0.000000 0.000000 0.104395
#
#
# Mechanical properties :
#
#
# Convention : Reuss Voigt Hill
#
# Bulk Modulus (GPa) = 27.70082 35.39155 31.54618
# Shear Modulus (GPa) = 18.59077 24.62922 21.60999
#
# Velocity S-wave (km/s) = 2.92690 3.36887 3.15563
# Velocity P-wave (km/s) = 4.91803 5.60723 5.27390
#
# Compressibility (1/GPa) = 0.03610002
#
# Stress axis : x y z
#
# Youngs Moduli (GPa) = 105.24108 58.70402 40.96393
#
# Poissons Ratio (x) = 0.16962 0.16273
# Poissons Ratio (y) = 0.30409 0.02303
# Poissons Ratio (z) = 0.41806 0.03301
#
# Static dielectric constant tensor:
#      x y z
#    x 1.865430 0.000000 0.000000 
#    y 0.000000 1.763370 0.000000 
#    z 0.000000 0.000000 1.897690 
# 
# From -- ./inp_files/3716.got.cif
#   From: 2010.05.17/outbox.cif.g08.bks.cpg/sg56_2_cif.got.tgz:3716.got - 2010.06.03 13:42:01.
