data_PCOD9430071
_publ_section_title
;
Structure prediction by ZEFSAII (Michael W. Deem and Ramdas Pophale) SiO2 
 PCOD9430071
Probable space group: P C C N
;
_chemical_formula_sum "Si O2"
_cell_formula_units_Z 40
_cell_length_a 17.907535
_cell_length_b 7.381362
_cell_length_c 10.216073
_cell_angle_alpha 90.000000
_cell_angle_beta 90.000000
_cell_angle_gamma 90.000000
_cell_volume 1350.380945
_symmetry_space_group_name_H-M "P C C N"
_symmetry_group_IT_number 56
_symmetry_cell_setting 'orthorhombic'
loop_
_space_group_symop_operation_xyz
x,y,z
1/2-x,1/2-y,z
1/2+x,-y,1/2-z
-x,1/2+y,1/2-z
-x,-y,-z
1/2+x,1/2+y,-z
1/2-x,y,1/2+z
x,1/2-y,1/2+z
loop_
_atom_site_type_symbol
_atom_site_label
_atom_site_fract_x
_atom_site_fract_y
_atom_site_fract_z
Si Si1 0.472829 0.622028 0.158246
Si Si2 0.250000 0.750000 0.370506
Si Si3 0.814299 0.547281 0.331202
Si Si4 0.158586 0.448162 0.121057
Si Si5 0.500000 0.000000 0.000000
Si Si6 0.903549 0.327948 0.643859
O O1 0.395255 0.524665 0.130203
O O2 0.484285 0.808532 0.084078
O O3 0.540405 0.491978 0.124810
O O4 0.461004 0.661828 0.317155
O O5 0.280795 0.577232 0.284426
O O6 0.169620 0.714696 0.439822
O O7 0.743617 0.536924 0.430785
O O8 0.832786 0.757078 0.300712
O O9 0.089966 0.437559 0.023662
O O10 0.138013 0.606322 0.223177
#
# Coordination Sequence:
#
# PCOD9430071 Si02
#       6
#     8   4   8   8   4   8
#     4  10  19  33  55  87 116 153 196 241 287 345
#     4   8  16  30  52  86 112 148 192 234 280 344
#     4   9  17  32  57  79 108 150 196 225 278 355
#     4   9  18  34  56  84 110 150 194 236 280 340
#     4  10  22  34  52  84 116 146 200 246 284 334
#     4   9  17  31  54  82 116 148 190 237 287 341
#
# _framework density 29.621272000000001
#
# number of rings (size 3 to 8) (size 9 to 14) (size 15 to 20)
#    0.000    2.800    0.000    2.400    0.000    0.800 
#    0.000    0.000    0.000   44.400    0.000   64.400 
#    0.000    0.000    0.000    0.000    0.000    0.000 
#
# Total GULP energy -222917.411772 kJ/mol
# GULP energy per Si atom -5572.935294 kJ/mol
# Density = 2.955385 g / cm^3
# Si number density = 29.621272 Si / 1000 Ang^3
#
#
#
# Elastic Constant Matrix: (Units=GPa)
#
#
# Indices 1 2 3 4 5 6 
#
# 1 274.9067 59.5220 14.1932 0.0000 0.0000 0.0000
# 2 59.5220 174.7344 -4.6219 0.0000 0.0000 0.0000
# 3 14.1932 -4.6219 54.4882 0.0000 0.0000 0.0000
# 4 0.0000 0.0000 0.0000 26.7977 0.0000 0.0000
# 5 0.0000 0.0000 0.0000 0.0000 48.2296 0.0000
# 6 0.0000 0.0000 0.0000 0.0000 0.0000 74.6980
#
#
#
# Elastic Compliance Matrix: (Units=1/GPa)
#
#
# Indices 1 2 3 4 5 6 
#
# 1 0.003999 -0.001393 -0.001160 0.000000 0.000000 0.000000
# 2 -0.001393 0.006221 0.000891 0.000000 0.000000 0.000000
# 3 -0.001160 0.000891 0.018730 0.000000 0.000000 0.000000
# 4 0.000000 0.000000 0.000000 0.037317 0.000000 0.000000
# 5 0.000000 0.000000 0.000000 0.000000 0.020734 0.000000
# 6 0.000000 0.000000 0.000000 0.000000 0.000000 0.013387
#
#
# Mechanical properties :
#
#
# Convention : Reuss Voigt Hill
#
# Bulk Modulus (GPa) = 39.02309 71.36841 55.19575
# Shear Modulus (GPa) = 44.54150 58.94745 51.74448
#
# Velocity S-wave (km/s) = 3.88196 4.46582 4.18409
# Velocity P-wave (km/s) = 5.77022 7.12302 6.48201
#
# Compressibility (1/GPa) = 0.02562585
#
# Stress axis : x y z
#
# Youngs Moduli (GPa) = 250.05794 160.74537 53.38957
#
# Poissons Ratio (x) = 0.22391 0.06192
# Poissons Ratio (y) = 0.34831 -0.04754
# Poissons Ratio (z) = 0.29003 -0.14315
#
# Static dielectric constant tensor:
#      x y z
#    x 2.214510 0.000000 0.000000 
#    y 0.000000 2.311420 0.000000 
#    z 0.000000 0.000000 2.582180 
# 
# From -- ./inp_files/12604.got.cif
#   From: 2010.05.17/outbox.cif.g08.bks.cpg/sg56_7_cif.got.tgz:12604.got - 2010.06.03 13:42:01.
