data_PCOD9430093
_publ_section_title
;
Structure prediction by ZEFSAII (Michael W. Deem and Ramdas Pophale) SiO2 
 PCOD9430093
Probable space group: P C C N
;
_chemical_formula_sum "Si O2"
_cell_formula_units_Z 52
_cell_length_a 15.970442
_cell_length_b 8.002200
_cell_length_c 18.196378
_cell_angle_alpha 90.000000
_cell_angle_beta 90.000000
_cell_angle_gamma 90.000000
_cell_volume 2325.472925
_symmetry_space_group_name_H-M "P C C N"
_symmetry_group_IT_number 56
_symmetry_cell_setting 'orthorhombic'
loop_
_space_group_symop_operation_xyz
x,y,z
1/2-x,1/2-y,z
1/2+x,-y,1/2-z
-x,1/2+y,1/2-z
-x,-y,-z
1/2+x,1/2+y,-z
1/2-x,y,1/2+z
x,1/2-y,1/2+z
loop_
_atom_site_type_symbol
_atom_site_label
_atom_site_fract_x
_atom_site_fract_y
_atom_site_fract_z
Si Si1 0.655465 0.447631 0.622669
Si Si2 0.285250 0.427585 0.991841
Si Si3 0.938170 0.468089 0.431231
Si Si4 0.090483 0.568011 0.228388
Si Si5 0.504031 0.777212 0.844125
Si Si6 0.088137 0.311473 0.362529
Si Si7 0.750000 0.250000 0.247569
O O1 0.711341 0.477814 0.551023
O O2 0.580580 0.316211 0.610736
O O3 0.615133 0.621792 0.648307
O O4 0.708562 0.381063 0.691107
O O5 0.250000 0.250000 0.023084
O O6 0.350973 0.371777 0.928378
O O7 0.342060 0.542914 0.044328
O O8 0.942737 0.635998 0.382768
O O9 0.000000 0.500000 0.500000
O O10 0.990754 0.330179 0.386446
O O11 0.052554 0.448838 0.167109
O O12 0.106184 0.436721 0.295612
O O13 0.175838 0.661422 0.208825
O O14 0.028005 0.701796 0.266387
#
# Coordination Sequence:
#
# PCOD9430093 Si02
#       7
#     8   8   8   8   8   8   4
#     4  10  19  33  59  91 117 155 210 262 299 367
#     4   9  17  33  59  82 115 155 208 263 306 366
#     4   9  19  36  58  85 120 157 202 265 309 371
#     4  10  19  35  57  89 128 162 201 259 312 383
#     4  10  21  35  60  88 128 160 206 253 323 380
#     4   9  17  33  57  87 117 156 207 248 313 374
#     4  10  20  32  58  92 130 156 218 262 300 366
#
# _framework density 22.361045000000001
#
# number of rings (size 3 to 8) (size 9 to 14) (size 15 to 20)
#    0.000    2.462    1.538    0.923    2.154    0.000 
#    0.000    6.923   20.308    0.000    0.000    0.000 
#    0.000    0.000    0.000    0.000    0.000    0.000 
#
# Total GULP energy -290373.080038 kJ/mol
# GULP energy per Si atom -5584.097693 kJ/mol
# Density = 2.231015 g / cm^3
# Si number density = 22.361045 Si / 1000 Ang^3
#
#
#
# Elastic Constant Matrix: (Units=GPa)
#
#
# Indices 1 2 3 4 5 6 
#
# 1 128.1117 52.8865 30.3260 0.0000 0.0000 0.0000
# 2 52.8865 103.2469 15.6660 0.0000 0.0000 0.0000
# 3 30.3260 15.6660 30.4390 0.0000 0.0000 0.0000
# 4 0.0000 0.0000 0.0000 21.4402 0.0000 0.0000
# 5 0.0000 0.0000 0.0000 0.0000 27.4084 0.0000
# 6 0.0000 0.0000 0.0000 0.0000 0.0000 31.0448
#
#
#
# Elastic Compliance Matrix: (Units=1/GPa)
#
#
# Indices 1 2 3 4 5 6 
#
# 1 0.012005 -0.004702 -0.009541 0.000000 0.000000 0.000000
# 2 -0.004702 0.012347 -0.001670 0.000000 0.000000 0.000000
# 3 -0.009541 -0.001670 0.043218 0.000000 0.000000 0.000000
# 4 0.000000 0.000000 0.000000 0.046641 0.000000 0.000000
# 5 0.000000 0.000000 0.000000 0.000000 0.036485 0.000000
# 6 0.000000 0.000000 0.000000 0.000000 0.000000 0.032212
#
#
# Mechanical properties :
#
#
# Convention : Reuss Voigt Hill
#
# Bulk Modulus (GPa) = 27.97656 51.06160 39.51908
# Shear Modulus (GPa) = 22.06059 26.83997 24.45028
#
# Velocity S-wave (km/s) = 3.14437 3.46829 3.31030
# Velocity P-wave (km/s) = 5.07161 6.23886 5.68527
#
# Compressibility (1/GPa) = 0.03574421
#
# Stress axis : x y z
#
# Youngs Moduli (GPa) = 83.29816 80.98885 23.13873
#
# Poissons Ratio (x) = 0.38079 0.22076
# Poissons Ratio (y) = 0.39165 0.03865
# Poissons Ratio (z) = 0.79472 0.13529
#
# Static dielectric constant tensor:
#      x y z
#    x 1.852710 0.000000 0.000000 
#    y 0.000000 1.815150 0.000000 
#    z 0.000000 0.000000 1.848230 
# 
# From -- ./inp_files/19052.got.cif
#   From: 2010.05.17/outbox.cif.g08.bks.cpg/sg56_10_cif.got.tgz:19052.got - 2010.06.03 13:42:01.
