data_PCOD9430965
_publ_section_title
;
Structure prediction by ZEFSAII (Michael W. Deem and Ramdas Pophale) SiO2 
 PCOD9430965
Probable space group: P C C N
;
_chemical_formula_sum "Si O2"
_cell_formula_units_Z 40
_cell_length_a 5.595385
_cell_length_b 9.913842
_cell_length_c 27.151927
_cell_angle_alpha 90.000000
_cell_angle_beta 90.000000
_cell_angle_gamma 90.000000
_cell_volume 1506.165255
_symmetry_space_group_name_H-M "P C C N"
_symmetry_group_IT_number 56
_symmetry_cell_setting 'orthorhombic'
loop_
_space_group_symop_operation_xyz
x,y,z
1/2-x,1/2-y,z
1/2+x,-y,1/2-z
-x,1/2+y,1/2-z
-x,-y,-z
1/2+x,1/2+y,-z
1/2-x,y,1/2+z
x,1/2-y,1/2+z
loop_
_atom_site_type_symbol
_atom_site_label
_atom_site_fract_x
_atom_site_fract_y
_atom_site_fract_z
Si Si1 0.750000 0.250000 0.147369
Si Si2 0.669656 0.959436 0.203816
Si Si3 0.988345 0.378565 0.057248
Si Si4 0.250000 0.750000 0.035115
Si Si5 0.523782 0.498725 0.920305
Si Si6 0.845718 0.044710 0.814213
O O1 0.793065 0.383216 0.183116
O O2 0.955885 0.279624 0.104840
O O3 0.422870 0.905268 0.182318
O O4 0.906548 0.876611 0.191256
O O5 0.655664 0.962154 0.263040
O O6 0.754850 0.474212 0.069039
O O7 0.259815 0.427474 0.051242
O O8 0.921581 0.322413 0.004029
O O9 0.410698 0.655181 0.068612
O O10 0.599391 0.529371 0.864557
#
# Coordination Sequence:
#
# PCOD9430965 Si02
#       6
#     4   8   8   4   8   8
#     4  11  20  39  64  96 124 179 208 261 310 390
#     4  10  21  35  61  92 131 157 216 249 315 368
#     4  11  26  42  66  97 130 167 224 271 322 381
#     4  11  28  43  70  96 126 175 216 273 342 384
#     4  12  23  46  67  93 134 170 217 273 323 391
#     4  10  20  39  59  91 126 171 195 269 308 372
#
# _framework density 26.557509
#
# number of rings (size 3 to 8) (size 9 to 14) (size 15 to 20)
#    0.000    1.200    4.000    1.200    0.000    8.800 
#    0.000    0.000    0.000    7.200    0.000    0.000 
#    0.000    0.000    0.000    0.000    0.000    0.000 
#
# Total GULP energy -222722.265418 kJ/mol
# GULP energy per Si atom -5568.056635 kJ/mol
# Density = 2.649706 g / cm^3
# Si number density = 26.557509 Si / 1000 Ang^3
#
#
#
# Elastic Constant Matrix: (Units=GPa)
#
#
# Indices 1 2 3 4 5 6 
#
# 1 212.4757 51.0644 29.2087 0.0000 0.0000 0.0000
# 2 51.0644 87.3905 43.5982 0.0000 0.0000 0.0000
# 3 29.2087 43.5982 109.2392 0.0000 0.0000 0.0000
# 4 0.0000 0.0000 0.0000 -22.9740 0.0000 0.0000
# 5 0.0000 0.0000 0.0000 0.0000 28.5376 0.0000
# 6 0.0000 0.0000 0.0000 0.0000 0.0000 28.9253
#
#
#
# Elastic Compliance Matrix: (Units=1/GPa)
#
#
# Indices 1 2 3 4 5 6 
#
# 1 0.005480 -0.003085 -0.000234 0.000000 0.000000 0.000000
# 2 -0.003085 0.016025 -0.005571 0.000000 0.000000 0.000000
# 3 -0.000234 -0.005571 0.011440 0.000000 0.000000 0.000000
# 4 0.000000 0.000000 0.000000 -0.043527 0.000000 0.000000
# 5 0.000000 0.000000 0.000000 0.000000 0.035041 0.000000
# 6 0.000000 0.000000 0.000000 0.000000 0.000000 0.034572
#
#
# Mechanical properties :
#
#
# Convention : Reuss Voigt Hill
#
# Bulk Modulus (GPa) = 65.94094 72.98314 69.46204
# Shear Modulus (GPa) = 61.07537 25.91338 43.49437
#
# Velocity S-wave (km/s) = 4.80076 3.12708 4.05129
# Velocity P-wave (km/s) = 7.45742 6.37017 6.93513
#
# Compressibility (1/GPa) = 0.01516508
#
# Stress axis : x y z
#
# Youngs Moduli (GPa) = 182.47821 62.40260 87.41221
#
# Poissons Ratio (x) = 0.19254 0.02044
# Poissons Ratio (y) = 0.56304 0.48695
# Poissons Ratio (z) = 0.04267 0.34763
#
# Static dielectric constant tensor:
#      x y z
#    x 2.209660 0.000000 0.000000 
#    y 0.000000 2.918280 0.000000 
#    z 0.000000 0.000000 2.063460 
# 
# From -- ./inp_files/21556.got.cif
#   From: 2010.05.17/outbox.cif.g08.bks.cpg/sg56_11_cif.got.tgz:21556.got - 2010.06.03 13:42:01.
