data_PCOD9430511
_publ_section_title
;
Structure prediction by ZEFSAII (Michael W. Deem and Ramdas Pophale) SiO2 
 PCOD9430511
Probable space group: P C C N
;
_chemical_formula_sum "Si O2"
_cell_formula_units_Z 40
_cell_length_a 8.485209
_cell_length_b 7.490746
_cell_length_c 25.502763
_cell_angle_alpha 90.000000
_cell_angle_beta 90.000000
_cell_angle_gamma 90.000000
_cell_volume 1620.969525
_symmetry_space_group_name_H-M "P C C N"
_symmetry_group_IT_number 56
_symmetry_cell_setting 'orthorhombic'
loop_
_space_group_symop_operation_xyz
x,y,z
1/2-x,1/2-y,z
1/2+x,-y,1/2-z
-x,1/2+y,1/2-z
-x,-y,-z
1/2+x,1/2+y,-z
1/2-x,y,1/2+z
x,1/2-y,1/2+z
loop_
_atom_site_type_symbol
_atom_site_label
_atom_site_fract_x
_atom_site_fract_y
_atom_site_fract_z
Si Si1 0.432611 0.194614 0.857317
Si Si2 0.353430 0.929306 0.228428
Si Si3 0.931418 0.938848 0.828334
Si Si4 0.575307 0.734673 0.030960
Si Si5 0.580528 0.322201 0.071914
O O1 0.250000 0.250000 0.849335
O O2 0.498145 0.070744 0.811572
O O3 0.550674 0.362461 0.852265
O O4 0.444651 0.139835 0.918102
O O5 0.250000 0.750000 0.230147
O O6 0.428344 0.941988 0.285639
O O7 0.229985 0.067788 0.203939
O O8 0.965316 0.811454 0.877751
O O9 0.750000 0.750000 0.008458
O O10 0.574210 0.531444 0.053812
O O11 0.460480 0.770643 0.983162
O O12 0.750000 0.250000 0.089473
#
# Coordination Sequence:
#
# PCOD9430511 Si02
#       5
#     8   8   8   8   8
#     4   9  18  34  56  79 106 146 195 238 286 355
#     4  10  20  34  56  79 109 149 190 237 290 358
#     4  10  20  35  53  80 113 147 189 240 299 345
#     4   9  20  38  58  83 114 152 196 237 292 358
#     4  10  21  37  59  85 118 152 193 250 295 343
#
# _framework density 24.676590000000001
#
# number of rings (size 3 to 8) (size 9 to 14) (size 15 to 20)
#    0.000    2.400    0.000    1.800    0.000    6.400 
#    0.000   11.000    0.000    0.000    0.000    0.000 
#    0.000    0.000    0.000    0.000    0.000    0.000 
#
# Total GULP energy -223210.360650 kJ/mol
# GULP energy per Si atom -5580.259016 kJ/mol
# Density = 2.462043 g / cm^3
# Si number density = 24.676590 Si / 1000 Ang^3
#
#
#
# Elastic Constant Matrix: (Units=GPa)
#
#
# Indices 1 2 3 4 5 6 
#
# 1 87.5568 -5.4288 62.7944 0.0000 0.0000 0.0000
# 2 -5.4288 45.6998 11.7850 0.0000 0.0000 0.0000
# 3 62.7944 11.7850 157.4913 0.0000 0.0000 0.0000
# 4 0.0000 0.0000 0.0000 1.8552 0.0000 0.0000
# 5 0.0000 0.0000 0.0000 0.0000 40.8884 0.0000
# 6 0.0000 0.0000 0.0000 0.0000 0.0000 19.0170
#
#
#
# Elastic Compliance Matrix: (Units=1/GPa)
#
#
# Indices 1 2 3 4 5 6 
#
# 1 0.016603 0.003752 -0.006901 0.000000 0.000000 0.000000
# 2 0.003752 0.023160 -0.003229 0.000000 0.000000 0.000000
# 3 -0.006901 -0.003229 0.009343 0.000000 0.000000 0.000000
# 4 0.000000 0.000000 0.000000 0.539034 0.000000 0.000000
# 5 0.000000 0.000000 0.000000 0.000000 0.024457 0.000000
# 6 0.000000 0.000000 0.000000 0.000000 0.000000 0.052585
#
#
# Mechanical properties :
#
#
# Convention : Reuss Voigt Hill
#
# Bulk Modulus (GPa) = 27.51022 47.67212 37.59117
# Shear Modulus (GPa) = 7.24582 27.12526 17.18554
#
# Velocity S-wave (km/s) = 1.71543 3.31906 2.64186
# Velocity P-wave (km/s) = 3.88537 5.83515 4.95707
#
# Compressibility (1/GPa) = 0.03635013
#
# Stress axis : x y z
#
# Youngs Moduli (GPa) = 60.23108 43.17731 107.03732
#
# Poissons Ratio (x) = -0.16199 0.73861
# Poissons Ratio (y) = -0.22597 0.34562
# Poissons Ratio (z) = 0.41563 0.13942
#
# Static dielectric constant tensor:
#      x y z
#    x 1.949730 0.000000 0.000000 
#    y 0.000000 2.172140 0.000000 
#    z 0.000000 0.000000 1.953460 
# 
# From -- ./inp_files/20339.got.cif
#   From: 2010.05.17/outbox.cif.g08.bks.cpg/sg56_11_cif.got.tgz:20339.got - 2010.06.03 13:42:01.
