data_PCOD9430946
_publ_section_title
;
Structure prediction by ZEFSAII (Michael W. Deem and Ramdas Pophale) SiO2 
 PCOD9430946
Probable space group: P C C N
;
_chemical_formula_sum "Si O2"
_cell_formula_units_Z 32
_cell_length_a 7.283615
_cell_length_b 14.501022
_cell_length_c 12.826409
_cell_angle_alpha 90.000000
_cell_angle_beta 90.000000
_cell_angle_gamma 90.000000
_cell_volume 1354.723540
_symmetry_space_group_name_H-M "P C C N"
_symmetry_group_IT_number 56
_symmetry_cell_setting 'orthorhombic'
loop_
_space_group_symop_operation_xyz
x,y,z
1/2-x,1/2-y,z
1/2+x,-y,1/2-z
-x,1/2+y,1/2-z
-x,-y,-z
1/2+x,1/2+y,-z
1/2-x,y,1/2+z
x,1/2-y,1/2+z
loop_
_atom_site_type_symbol
_atom_site_label
_atom_site_fract_x
_atom_site_fract_y
_atom_site_fract_z
Si Si1 0.415607 0.817558 0.322941
Si Si2 0.746599 0.624162 0.708960
Si Si3 0.387790 0.533918 0.666822
Si Si4 0.552470 0.397884 0.959522
O O1 0.250000 0.750000 0.300134
O O2 0.600102 0.802010 0.255681
O O3 0.359587 0.917905 0.279729
O O4 0.450221 0.827326 0.444793
O O5 0.599333 0.557128 0.647365
O O6 0.827677 0.570296 0.810472
O O7 0.911385 0.636055 0.628684
O O8 0.253786 0.586666 0.589053
O O9 0.500000 0.500000 0.000000
#
# Coordination Sequence:
#
# PCOD9430946 Si02
#       4
#     8   8   8   8
#     4  10  24  44  66  98 149 183 228 296 352 412
#     4  10  20  39  68 101 136 182 229 293 349 423
#     4  10  20  38  68  98 141 176 231 285 351 418
#     4  12  20  39  72 105 132 183 243 279 352 430
#
# _framework density 23.621054000000001
#
# number of rings (size 3 to 8) (size 9 to 14) (size 15 to 20)
#    1.500    0.000    7.500    0.000    0.000    2.000 
#    4.500    1.250    0.000    0.000    0.000    0.000 
#    0.000    0.000    0.000    0.000    0.000    0.000 
#
# Total GULP energy -178434.852962 kJ/mol
# GULP energy per Si atom -5576.089155 kJ/mol
# Density = 2.356729 g / cm^3
# Si number density = 23.621054 Si / 1000 Ang^3
#
#
#
# Elastic Constant Matrix: (Units=GPa)
#
#
# Indices 1 2 3 4 5 6 
#
# 1 56.3263 8.3434 -0.8549 0.0000 0.0000 0.0000
# 2 8.3434 35.7244 12.0874 0.0000 0.0000 0.0000
# 3 -0.8549 12.0874 66.9410 0.0000 0.0000 0.0000
# 4 0.0000 0.0000 0.0000 26.7313 0.0000 0.0000
# 5 0.0000 0.0000 0.0000 0.0000 35.2934 0.0000
# 6 0.0000 0.0000 0.0000 0.0000 0.0000 41.7667
#
#
#
# Elastic Compliance Matrix: (Units=1/GPa)
#
#
# Indices 1 2 3 4 5 6 
#
# 1 0.018463 -0.004678 0.001080 0.000000 0.000000 0.000000
# 2 -0.004678 0.030999 -0.005657 0.000000 0.000000 0.000000
# 3 0.001080 -0.005657 0.015974 0.000000 0.000000 0.000000
# 4 0.000000 0.000000 0.000000 0.037409 0.000000 0.000000
# 5 0.000000 0.000000 0.000000 0.000000 0.028334 0.000000
# 6 0.000000 0.000000 0.000000 0.000000 0.000000 0.023942
#
#
# Mechanical properties :
#
#
# Convention : Reuss Voigt Hill
#
# Bulk Modulus (GPa) = 21.30976 22.01596 21.66286
# Shear Modulus (GPa) = 26.41702 30.05267 28.23484
#
# Velocity S-wave (km/s) = 3.34783 3.57078 3.46110
# Velocity P-wave (km/s) = 4.89745 5.13238 5.01629
#
# Compressibility (1/GPa) = 0.04692686
#
# Stress axis : x y z
#
# Youngs Moduli (GPa) = 54.16250 32.25952 62.60248
#
# Poissons Ratio (x) = 0.15090 -0.06764
# Poissons Ratio (y) = 0.25335 0.35415
# Poissons Ratio (z) = -0.05852 0.18249
#
# Static dielectric constant tensor:
#      x y z
#    x 1.935830 0.000000 0.000000 
#    y 0.000000 2.220090 0.000000 
#    z 0.000000 0.000000 1.863240 
# 
# From -- ./inp_files/6063.got.cif
#   From: 2010.05.17/outbox.cif.g08.bks.cpg/sg56_4_cif.got.tgz:6063.got - 2010.06.03 13:42:01.
