data_PCOD9430140
_publ_section_title
;
Structure prediction by ZEFSAII (Michael W. Deem and Ramdas Pophale) SiO2 
 PCOD9430140
Probable space group: P C C N
;
_chemical_formula_sum "Si O2"
_cell_formula_units_Z 48
_cell_length_a 7.530817
_cell_length_b 13.637468
_cell_length_c 19.387126
_cell_angle_alpha 90.000000
_cell_angle_beta 90.000000
_cell_angle_gamma 90.000000
_cell_volume 1991.082575
_symmetry_space_group_name_H-M "P C C N"
_symmetry_group_IT_number 56
_symmetry_cell_setting 'orthorhombic'
loop_
_space_group_symop_operation_xyz
x,y,z
1/2-x,1/2-y,z
1/2+x,-y,1/2-z
-x,1/2+y,1/2-z
-x,-y,-z
1/2+x,1/2+y,-z
1/2-x,y,1/2+z
x,1/2-y,1/2+z
loop_
_atom_site_type_symbol
_atom_site_label
_atom_site_fract_x
_atom_site_fract_y
_atom_site_fract_z
Si Si1 0.567954 0.141211 0.664414
Si Si2 0.956141 0.039827 0.666139
Si Si3 0.461964 0.109485 0.022860
Si Si4 0.443973 0.558624 0.180000
Si Si5 0.750000 0.250000 0.777933
Si Si6 0.232322 0.359192 0.892686
Si Si7 0.250000 0.750000 0.955259
O O1 0.757048 0.084032 0.670458
O O2 0.585902 0.217874 0.727414
O O3 0.601264 0.197966 0.593117
O O4 0.416101 0.058295 0.666796
O O5 0.051487 0.099343 0.605242
O O6 0.029024 0.052408 0.742801
O O7 0.918359 0.927405 0.643019
O O8 0.637249 0.171387 0.004166
O O9 0.305993 0.144864 0.974061
O O10 0.500000 0.000000 0.000000
O O11 0.305514 0.649409 0.183194
O O12 0.582209 0.589542 0.122099
O O13 0.250000 0.250000 0.864120
#
# Coordination Sequence:
#
# PCOD9430140 Si02
#       7
#     8   8   8   8   4   8   4
#     4   8  16  31  57  94 126 161 213 269 331 394
#     4   8  17  35  60  88 121 173 208 266 332 402
#     4   9  18  37  65  91 131 173 224 269 335 401
#     4  10  19  34  61  93 134 167 221 269 338 405
#     4   9  18  32  55  90 132 174 204 264 342 397
#     4  10  21  36  59  88 130 168 206 280 334 381
#     4   9  16  34  67  96 126 182 218 270 342 407
#
# _framework density 24.107486999999999
#
# number of rings (size 3 to 8) (size 9 to 14) (size 15 to 20)
#    0.000    3.000    0.000    2.000    2.333    0.000 
#    0.000    1.667   14.667   14.000    0.000    0.000 
#    0.000    0.000    0.000    0.000    0.000    0.000 
#
# Total GULP energy -267469.094638 kJ/mol
# GULP energy per Si atom -5572.272805 kJ/mol
# Density = 2.405262 g / cm^3
# Si number density = 24.107487 Si / 1000 Ang^3
#
#
#
# Elastic Constant Matrix: (Units=GPa)
#
#
# Indices 1 2 3 4 5 6 
#
# 1 62.7203 32.0501 42.6579 0.0000 0.0000 0.0000
# 2 32.0501 168.1172 15.2090 0.0000 0.0000 0.0000
# 3 42.6579 15.2090 82.4331 0.0000 0.0000 0.0000
# 4 0.0000 0.0000 0.0000 8.3847 0.0000 0.0000
# 5 0.0000 0.0000 0.0000 0.0000 51.6072 0.0000
# 6 0.0000 0.0000 0.0000 0.0000 0.0000 30.3430
#
#
#
# Elastic Compliance Matrix: (Units=1/GPa)
#
#
# Indices 1 2 3 4 5 6 
#
# 1 0.026948 -0.003942 -0.013218 0.000000 0.000000 0.000000
# 2 -0.003942 0.006626 0.000817 0.000000 0.000000 0.000000
# 3 -0.013218 0.000817 0.018820 0.000000 0.000000 0.000000
# 4 0.000000 0.000000 0.000000 0.119265 0.000000 0.000000
# 5 0.000000 0.000000 0.000000 0.000000 0.019377 0.000000
# 6 0.000000 0.000000 0.000000 0.000000 0.000000 0.032957
#
#
# Mechanical properties :
#
#
# Convention : Reuss Voigt Hill
#
# Bulk Modulus (GPa) = 50.73705 54.78940 52.76323
# Shear Modulus (GPa) = 18.99357 32.95721 25.97539
#
# Velocity S-wave (km/s) = 2.80995 3.70144 3.28606
# Velocity P-wave (km/s) = 5.62313 6.40656 6.02759
#
# Compressibility (1/GPa) = 0.01970946
#
# Stress axis : x y z
#
# Youngs Moduli (GPa) = 37.10883 150.92679 53.13417
#
# Poissons Ratio (x) = 0.59489 0.70232
# Poissons Ratio (y) = 0.14627 -0.04342
# Poissons Ratio (z) = 0.49050 -0.12335
#
# Static dielectric constant tensor:
#      x y z
#    x 1.948750 0.000000 0.000000 
#    y 0.000000 2.015260 0.000000 
#    z 0.000000 0.000000 2.012570 
# 
# From -- ./inp_files/14869.got.cif
#   From: 2010.05.17/outbox.cif.g08.bks.cpg/sg56_8_cif.got.tgz:14869.got - 2010.06.03 13:42:01.
