data_PCOD9430378
_publ_section_title
;
Structure prediction by ZEFSAII (Michael W. Deem and Ramdas Pophale) SiO2 
 PCOD9430378
Probable space group: P C C N
;
_chemical_formula_sum "Si O2"
_cell_formula_units_Z 56
_cell_length_a 9.106923
_cell_length_b 17.034647
_cell_length_c 15.439309
_cell_angle_alpha 90.000000
_cell_angle_beta 90.000000
_cell_angle_gamma 90.000000
_cell_volume 2395.149698
_symmetry_space_group_name_H-M "P C C N"
_symmetry_group_IT_number 56
_symmetry_cell_setting 'orthorhombic'
loop_
_space_group_symop_operation_xyz
x,y,z
1/2-x,1/2-y,z
1/2+x,-y,1/2-z
-x,1/2+y,1/2-z
-x,-y,-z
1/2+x,1/2+y,-z
1/2-x,y,1/2+z
x,1/2-y,1/2+z
loop_
_atom_site_type_symbol
_atom_site_label
_atom_site_fract_x
_atom_site_fract_y
_atom_site_fract_z
Si Si1 0.444621 0.677292 0.856563
Si Si2 0.811891 0.561779 0.631466
Si Si3 0.348959 0.588055 0.397782
Si Si4 0.046235 0.306913 0.008807
Si Si5 0.679291 0.583554 0.948554
Si Si6 0.602719 0.503032 0.317855
Si Si7 0.553222 0.666349 0.675654
O O1 0.279115 0.645785 0.865477
O O2 0.488337 0.742855 0.925386
O O3 0.551854 0.606175 0.881927
O O4 0.495759 0.705756 0.762417
O O5 0.706296 0.499170 0.582515
O O6 0.902529 0.578184 0.543660
O O7 0.852816 0.515310 0.718000
O O8 0.721247 0.635644 0.668455
O O9 0.429014 0.623348 0.480204
O O10 0.477614 0.569870 0.329920
O O11 0.203571 0.345029 0.033433
O O12 0.037677 0.281872 0.909742
O O13 0.774464 0.521577 0.890855
O O14 0.538364 0.415692 0.327407
#
# Coordination Sequence:
#
# PCOD9430378 Si02
#       7
#     8   8   8   8   8   8   8
#     4  12  22  41  62  93 131 166 217 261 301 389
#     4  10  19  39  67  99 125 157 213 267 324 375
#     4  10  22  39  62  92 131 165 202 264 320 379
#     4  10  23  44  60  86 127 178 215 249 316 383
#     4  10  22  39  66  96 123 163 214 271 314 371
#     4  10  19  40  67  97 128 160 206 268 332 381
#     4  10  21  40  68  91 125 170 209 262 325 376
#
# _framework density 23.380586000000001
#
# number of rings (size 3 to 8) (size 9 to 14) (size 15 to 20)
#    0.000    1.714    2.857    1.714    0.000    4.000 
#    7.714    2.857    0.000    0.000    0.000    0.000 
#    0.000    0.000    0.000    0.000    0.000    0.000 
#
# Total GULP energy -312125.309232 kJ/mol
# GULP energy per Si atom -5573.666236 kJ/mol
# Density = 2.332737 g / cm^3
# Si number density = 23.380586 Si / 1000 Ang^3
#
#
#
# Elastic Constant Matrix: (Units=GPa)
#
#
# Indices 1 2 3 4 5 6 
#
# 1 45.5065 -9.2292 28.5589 0.0000 0.0000 0.0000
# 2 -9.2292 36.5522 20.5919 0.0000 0.0000 0.0000
# 3 28.5589 20.5919 169.3116 0.0000 0.0000 0.0000
# 4 0.0000 0.0000 0.0000 31.4698 0.0000 0.0000
# 5 0.0000 0.0000 0.0000 0.0000 5.1539 0.0000
# 6 0.0000 0.0000 0.0000 0.0000 0.0000 18.3561
#
#
#
# Elastic Compliance Matrix: (Units=1/GPa)
#
#
# Indices 1 2 3 4 5 6 
#
# 1 0.027816 0.010378 -0.005954 0.000000 0.000000 0.000000
# 2 0.010378 0.033242 -0.005793 0.000000 0.000000 0.000000
# 3 -0.005954 -0.005793 0.007615 0.000000 0.000000 0.000000
# 4 0.000000 0.000000 0.000000 0.031777 0.000000 0.000000
# 5 0.000000 0.000000 0.000000 0.000000 0.194026 0.000000
# 6 0.000000 0.000000 0.000000 0.000000 0.000000 0.054478
#
#
# Mechanical properties :
#
#
# Convention : Reuss Voigt Hill
#
# Bulk Modulus (GPa) = 15.16669 36.80151 25.98410
# Shear Modulus (GPa) = 13.38073 25.09255 19.23664
#
# Velocity S-wave (km/s) = 2.39488 3.27956 2.87149
# Velocity P-wave (km/s) = 3.76141 5.48772 4.70443
#
# Compressibility (1/GPa) = 0.06593396
#
# Stress axis : x y z
#
# Youngs Moduli (GPa) = 35.95022 30.08222 131.31647
#
# Poissons Ratio (x) = -0.31218 0.78187
# Poissons Ratio (y) = -0.37308 0.76077
# Poissons Ratio (z) = 0.21405 0.17428
#
# Static dielectric constant tensor:
#      x y z
#    x 1.954530 0.000000 0.000000 
#    y 0.000000 1.976840 0.000000 
#    z 0.000000 0.000000 1.979230 
# 
# From -- ./inp_files/10873.got.cif
#   From: 2010.05.17/outbox.cif.g08.bks.cpg/sg56_6_cif.got.tgz:10873.got - 2010.06.03 13:42:01.
