data_PCOD9430628
_publ_section_title
;
Structure prediction by ZEFSAII (Michael W. Deem and Ramdas Pophale) SiO2 
 PCOD9430628
Probable space group: P C C N
;
_chemical_formula_sum "Si O2"
_cell_formula_units_Z 56
_cell_length_a 19.486012
_cell_length_b 15.678756
_cell_length_c 8.927791
_cell_angle_alpha 90.000000
_cell_angle_beta 90.000000
_cell_angle_gamma 90.000000
_cell_volume 2727.586812
_symmetry_space_group_name_H-M "P C C N"
_symmetry_group_IT_number 56
_symmetry_cell_setting 'orthorhombic'
loop_
_space_group_symop_operation_xyz
x,y,z
1/2-x,1/2-y,z
1/2+x,-y,1/2-z
-x,1/2+y,1/2-z
-x,-y,-z
1/2+x,1/2+y,-z
1/2-x,y,1/2+z
x,1/2-y,1/2+z
loop_
_atom_site_type_symbol
_atom_site_label
_atom_site_fract_x
_atom_site_fract_y
_atom_site_fract_z
Si Si1 0.952389 0.563235 0.912605
Si Si2 0.575157 0.500342 0.079764
Si Si3 0.441568 0.176541 0.507506
Si Si4 0.155352 0.823441 0.887536
Si Si5 0.750000 0.250000 0.852553
Si Si6 0.161280 0.172055 0.474219
Si Si7 0.478500 0.772964 0.776751
Si Si8 0.250000 0.250000 0.731885
O O1 0.933867 0.522395 0.753819
O O2 0.995437 0.649305 0.879891
O O3 0.884189 0.588858 0.002436
O O4 0.000000 0.500000 0.000000
O O5 0.600268 0.588872 0.006435
O O6 0.619830 0.414592 0.075076
O O7 0.500000 0.500000 0.000000
O O8 0.390142 0.249106 0.457126
O O9 0.471834 0.194884 0.671653
O O10 0.504821 0.191536 0.389302
O O11 0.213805 0.819348 0.757424
O O12 0.096473 0.760064 0.820890
O O13 0.192249 0.788755 0.037002
O O14 0.200333 0.195736 0.626486
O O15 0.211943 0.181657 0.336547
#
# Coordination Sequence:
#
# PCOD9430628 Si02
#       8
#     8   8   8   8   4   8   8   4
#     4  10  24  39  61  99 125 158 208 276 332 365
#     4  11  23  38  62 100 129 155 210 281 330 367
#     4  10  20  37  59 101 124 160 205 268 334 371
#     4  11  23  44  68  90 130 171 225 260 316 393
#     4  10  26  44  68  90 124 194 218 246 312 404
#     4  10  21  39  63  89 130 168 218 242 317 394
#     4  10  20  35  67  89 127 160 205 270 328 375
#     4  10  20  38  66  88 122 182 208 246 292 400
#
# _framework density 20.53097
#
# number of rings (size 3 to 8) (size 9 to 14) (size 15 to 20)
#    0.000    1.714    1.429    3.429    8.000    1.143 
#    0.000    5.714    0.000    0.000    0.000    0.000 
#    0.000    0.000    0.000    0.000    0.000    0.000 
#
# Total GULP energy -312276.947552 kJ/mol
# GULP energy per Si atom -5576.374063 kJ/mol
# Density = 2.048424 g / cm^3
# Si number density = 20.530970 Si / 1000 Ang^3
#
#
#
# Elastic Constant Matrix: (Units=GPa)
#
#
# Indices 1 2 3 4 5 6 
#
# 1 93.2617 47.5127 56.6205 0.0000 0.0000 0.0000
# 2 47.5127 104.7675 47.1683 0.0000 0.0000 0.0000
# 3 56.6205 47.1683 74.0850 0.0000 0.0000 0.0000
# 4 0.0000 0.0000 0.0000 20.2999 0.0000 0.0000
# 5 0.0000 0.0000 0.0000 0.0000 48.7573 0.0000
# 6 0.0000 0.0000 0.0000 0.0000 0.0000 38.6575
#
#
#
# Elastic Compliance Matrix: (Units=1/GPa)
#
#
# Indices 1 2 3 4 5 6 
#
# 1 0.020734 -0.003180 -0.013821 0.000000 0.000000 0.000000
# 2 -0.003180 0.013868 -0.006399 0.000000 0.000000 0.000000
# 3 -0.013821 -0.006399 0.028135 0.000000 0.000000 0.000000
# 4 0.000000 0.000000 0.000000 0.049261 0.000000 0.000000
# 5 0.000000 0.000000 0.000000 0.000000 0.020510 0.000000
# 6 0.000000 0.000000 0.000000 0.000000 0.000000 0.025868
#
#
# Mechanical properties :
#
#
# Convention : Reuss Voigt Hill
#
# Bulk Modulus (GPa) = 62.75072 63.85749 63.30410
# Shear Modulus (GPa) = 23.75413 29.59712 26.67563
#
# Velocity S-wave (km/s) = 3.40515 3.80094 3.60847
# Velocity P-wave (km/s) = 6.78898 7.10165 6.94707
#
# Compressibility (1/GPa) = 0.01593607
#
# Stress axis : x y z
#
# Youngs Moduli (GPa) = 48.23029 72.10761 35.54262
#
# Poissons Ratio (x) = 0.22932 0.49125
# Poissons Ratio (y) = 0.15339 0.22744
# Poissons Ratio (z) = 0.66661 0.46141
#
# Static dielectric constant tensor:
#      x y z
#    x 1.789860 0.000000 0.000000 
#    y 0.000000 1.777440 0.000000 
#    z 0.000000 0.000000 1.710860 
# 
# From -- ./inp_files/4506.got.cif
#   From: 2010.05.17/outbox.cif.g08.bks.cpg/sg56_3_cif.got.tgz:4506.got - 2010.06.03 13:42:01.
