data_PCOD9430981
_publ_section_title
;
Structure prediction by ZEFSAII (Michael W. Deem and Ramdas Pophale) SiO2 
 PCOD9430981
Probable space group: P C C N
;
_chemical_formula_sum "Si O2"
_cell_formula_units_Z 40
_cell_length_a 8.196026
_cell_length_b 8.790110
_cell_length_c 23.300409
_cell_angle_alpha 90.000000
_cell_angle_beta 90.000000
_cell_angle_gamma 90.000000
_cell_volume 1678.653969
_symmetry_space_group_name_H-M "P C C N"
_symmetry_group_IT_number 56
_symmetry_cell_setting 'orthorhombic'
loop_
_space_group_symop_operation_xyz
x,y,z
1/2-x,1/2-y,z
1/2+x,-y,1/2-z
-x,1/2+y,1/2-z
-x,-y,-z
1/2+x,1/2+y,-z
1/2-x,y,1/2+z
x,1/2-y,1/2+z
loop_
_atom_site_type_symbol
_atom_site_label
_atom_site_fract_x
_atom_site_fract_y
_atom_site_fract_z
Si Si1 0.651842 0.043500 0.620503
Si Si2 0.067730 0.728000 0.619355
Si Si3 0.431553 0.445515 0.290292
Si Si4 0.075782 0.258369 0.676741
Si Si5 0.147301 0.105594 0.474721
O O1 0.577797 0.206936 0.635791
O O2 0.486608 0.944196 0.623307
O O3 0.770212 0.978493 0.670966
O O4 0.731289 0.010551 0.558750
O O5 0.250000 0.750000 0.599305
O O6 0.038576 0.816969 0.678208
O O7 0.943541 0.803665 0.575529
O O8 0.531987 0.600368 0.292844
O O9 0.403700 0.382486 0.227106
O O10 0.250000 0.250000 0.646081
O O11 0.250000 0.250000 0.503644
O O12 0.000000 0.000000 0.500000
#
# Coordination Sequence:
#
# PCOD9430981 Si02
#       5
#     8   8   8   8   8
#     4  10  22  41  62  89 127 168 216 269 319 383
#     4  10  20  39  63  89 122 164 211 262 317 377
#     4  11  22  37  58  86 127 173 215 258 307 369
#     4  12  23  36  58  91 127 172 218 259 310 371
#     4   9  20  43  71  97 127 165 212 270 339 402
#
# _framework density 23.828614000000002
#
# number of rings (size 3 to 8) (size 9 to 14) (size 15 to 20)
#    0.000    1.600    0.000    7.200    0.000    1.600 
#    0.000   18.000    0.000    0.000    0.000    4.200 
#    0.000    0.000    0.000    0.000    0.000    0.000 
#
# Total GULP energy -223347.736710 kJ/mol
# GULP energy per Si atom -5583.693418 kJ/mol
# Density = 2.377438 g / cm^3
# Si number density = 23.828614 Si / 1000 Ang^3
#
#
#
# Elastic Constant Matrix: (Units=GPa)
#
#
# Indices 1 2 3 4 5 6 
#
# 1 135.0637 29.8889 9.9607 0.0000 0.0000 0.0000
# 2 29.8889 67.0895 28.0986 0.0000 0.0000 0.0000
# 3 9.9607 28.0986 54.6132 0.0000 0.0000 0.0000
# 4 0.0000 0.0000 0.0000 0.7320 0.0000 0.0000
# 5 0.0000 0.0000 0.0000 0.0000 5.2751 0.0000
# 6 0.0000 0.0000 0.0000 0.0000 0.0000 36.1851
#
#
#
# Elastic Compliance Matrix: (Units=1/GPa)
#
#
# Indices 1 2 3 4 5 6 
#
# 1 0.008224 -0.003869 0.000491 0.000000 0.000000 0.000000
# 2 -0.003869 0.020820 -0.010006 0.000000 0.000000 0.000000
# 3 0.000491 -0.010006 0.023369 0.000000 0.000000 0.000000
# 4 0.000000 0.000000 0.000000 1.366203 0.000000 0.000000
# 5 0.000000 0.000000 0.000000 0.000000 0.189569 0.000000
# 6 0.000000 0.000000 0.000000 0.000000 0.000000 0.027636
#
#
# Mechanical properties :
#
#
# Convention : Reuss Voigt Hill
#
# Bulk Modulus (GPa) = 38.99577 43.62919 41.31248
# Shear Modulus (GPa) = 2.99197 21.02632 12.00915
#
# Velocity S-wave (km/s) = 1.12176 2.97374 2.24739
# Velocity P-wave (km/s) = 4.25187 5.49001 4.91012
#
# Compressibility (1/GPa) = 0.02564380
#
# Stress axis : x y z
#
# Youngs Moduli (GPa) = 121.59534 48.03027 42.79119
#
# Poissons Ratio (x) = 0.18585 -0.02101
# Poissons Ratio (y) = 0.47051 0.42818
# Poissons Ratio (z) = -0.05969 0.48061
#
# Static dielectric constant tensor:
#      x y z
#    x 2.069290 0.000000 0.000000 
#    y 0.000000 2.034920 0.000000 
#    z 0.000000 0.000000 1.866410 
# 
# From -- ./inp_files/20300.got.cif
#   From: 2010.05.17/outbox.cif.g08.bks.cpg/sg56_11_cif.got.tgz:20300.got - 2010.06.03 13:42:01.
