data_PCOD9430237
_publ_section_title
;
Structure prediction by ZEFSAII (Michael W. Deem and Ramdas Pophale) SiO2 
 PCOD9430237
Probable space group: P C C N
;
_chemical_formula_sum "Si O2"
_cell_formula_units_Z 60
_cell_length_a 18.304687
_cell_length_b 19.086597
_cell_length_c 8.991813
_cell_angle_alpha 90.000000
_cell_angle_beta 90.000000
_cell_angle_gamma 90.000000
_cell_volume 3141.507329
_symmetry_space_group_name_H-M "P C C N"
_symmetry_group_IT_number 56
_symmetry_cell_setting 'orthorhombic'
loop_
_space_group_symop_operation_xyz
x,y,z
1/2-x,1/2-y,z
1/2+x,-y,1/2-z
-x,1/2+y,1/2-z
-x,-y,-z
1/2+x,1/2+y,-z
1/2-x,y,1/2+z
x,1/2-y,1/2+z
loop_
_atom_site_type_symbol
_atom_site_label
_atom_site_fract_x
_atom_site_fract_y
_atom_site_fract_z
Si Si1 0.750000 0.250000 0.873739
Si Si2 0.158020 0.826354 0.878572
Si Si3 0.047502 0.462184 0.676965
Si Si4 0.094443 0.236573 0.786083
Si Si5 0.112823 0.514109 0.381579
Si Si6 0.848044 0.886533 0.620750
Si Si7 0.697685 0.609150 0.280024
Si Si8 0.492526 0.188678 0.542899
O O1 0.693082 0.209948 0.766200
O O2 0.791466 0.195566 0.982086
O O3 0.148485 0.909797 0.857567
O O4 0.076176 0.799623 0.914192
O O5 0.094419 0.505702 0.557313
O O6 0.091571 0.442331 0.824422
O O7 0.966671 0.492943 0.697675
O O8 0.030210 0.388714 0.594213
O O9 0.119659 0.308437 0.864019
O O10 0.159923 0.181776 0.770546
O O11 0.061175 0.259999 0.630519
O O12 0.028022 0.200091 0.873274
O O13 0.162569 0.453105 0.316450
O O14 0.818739 0.899687 0.455031
O O15 0.782649 0.889489 0.740248
#
# Coordination Sequence:
#
# PCOD9430237 Si02
#       8
#     4   8   8   8   8   8   8   8
#     4  10  22  42  62  92 120 148 198 254 314 362
#     4  10  22  40  65  90 119 153 196 254 308 369
#     4   9  20  40  61  88 119 160 204 249 297 366
#     4  11  21  36  59  88 120 161 209 254 295 354
#     4  10  21  40  66  88 123 161 202 249 308 365
#     4  11  25  38  58  87 128 166 210 254 299 360
#     4  12  24  38  59  88 124 167 206 250 308 366
#     4  10  19  36  61  87 117 157 206 248 300 351
#
# _framework density 19.099111000000001
#
# number of rings (size 3 to 8) (size 9 to 14) (size 15 to 20)
#    0.000    1.600    2.667    2.000    1.867    3.733 
#    0.000    1.333    0.000    0.000    0.000    0.000 
#    0.000    0.000    0.000    0.000    0.000    0.000 
#
# Total GULP energy -334912.339579 kJ/mol
# GULP energy per Si atom -5581.872326 kJ/mol
# Density = 1.905564 g / cm^3
# Si number density = 19.099111 Si / 1000 Ang^3
#
#
#
# Elastic Constant Matrix: (Units=GPa)
#
#
# Indices 1 2 3 4 5 6 
#
# 1 62.4925 12.6189 1.6852 0.0000 0.0000 0.0000
# 2 12.6189 36.9829 -1.8557 0.0000 0.0000 0.0000
# 3 1.6852 -1.8557 54.1992 0.0000 0.0000 0.0000
# 4 0.0000 0.0000 0.0000 3.3267 0.0000 0.0000
# 5 0.0000 0.0000 0.0000 0.0000 27.8712 0.0000
# 6 0.0000 0.0000 0.0000 0.0000 0.0000 26.8494
#
#
#
# Elastic Compliance Matrix: (Units=1/GPa)
#
#
# Indices 1 2 3 4 5 6 
#
# 1 0.017215 -0.005911 -0.000738 0.000000 0.000000 0.000000
# 2 -0.005911 0.029116 0.001181 0.000000 0.000000 0.000000
# 3 -0.000738 0.001181 0.018514 0.000000 0.000000 0.000000
# 4 0.000000 0.000000 0.000000 0.300595 0.000000 0.000000
# 5 0.000000 0.000000 0.000000 0.000000 0.035879 0.000000
# 6 0.000000 0.000000 0.000000 0.000000 0.000000 0.037245
#
#
# Mechanical properties :
#
#
# Convention : Reuss Voigt Hill
#
# Bulk Modulus (GPa) = 18.54983 19.84125 19.19554
# Shear Modulus (GPa) = 10.69587 21.02456 15.86022
#
# Velocity S-wave (km/s) = 2.36904 3.32145 2.88482
# Velocity P-wave (km/s) = 4.14929 5.01204 4.60093
#
# Compressibility (1/GPa) = 0.05390884
#
# Stress axis : x y z
#
# Youngs Moduli (GPa) = 58.08754 34.34575 54.01368
#
# Poissons Ratio (x) = 0.20302 0.03984
# Poissons Ratio (y) = 0.34336 -0.06377
# Poissons Ratio (z) = 0.04285 -0.04055
#
# Static dielectric constant tensor:
#      x y z
#    x 1.653090 0.000000 0.000000 
#    y 0.000000 1.653450 0.000000 
#    z 0.000000 0.000000 1.648370 
# 
# From -- ./inp_files/4121.got.cif
#   From: 2010.05.17/outbox.cif.g08.bks.cpg/sg56_3_cif.got.tgz:4121.got - 2010.06.03 13:42:01.
