data_PCOD9430127
_publ_section_title
;
Structure prediction by ZEFSAII (Michael W. Deem and Ramdas Pophale) SiO2 
 PCOD9430127
Probable space group: P C C N
;
_chemical_formula_sum "Si O2"
_cell_formula_units_Z 44
_cell_length_a 20.157367
_cell_length_b 9.744898
_cell_length_c 9.701399
_cell_angle_alpha 90.000000
_cell_angle_beta 90.000000
_cell_angle_gamma 90.000000
_cell_volume 1905.660216
_symmetry_space_group_name_H-M "P C C N"
_symmetry_group_IT_number 56
_symmetry_cell_setting 'orthorhombic'
loop_
_space_group_symop_operation_xyz
x,y,z
1/2-x,1/2-y,z
1/2+x,-y,1/2-z
-x,1/2+y,1/2-z
-x,-y,-z
1/2+x,1/2+y,-z
1/2-x,y,1/2+z
x,1/2-y,1/2+z
loop_
_atom_site_type_symbol
_atom_site_label
_atom_site_fract_x
_atom_site_fract_y
_atom_site_fract_z
Si Si1 0.250000 0.750000 0.779475
Si Si2 0.097142 0.366701 0.470772
Si Si3 0.326479 0.959039 0.644269
Si Si4 0.481891 0.568905 0.809558
Si Si5 0.592141 0.556856 0.595970
Si Si6 0.882357 0.261847 0.040239
O O1 0.258377 0.884214 0.683500
O O2 0.186277 0.751346 0.876645
O O3 0.166013 0.437348 0.516806
O O4 0.064303 0.435260 0.335540
O O5 0.103002 0.204703 0.468964
O O6 0.043880 0.417215 0.584554
O O7 0.373545 0.832505 0.594001
O O8 0.355172 0.032476 0.779385
O O9 0.519305 0.562942 0.665112
O O10 0.437348 0.696825 0.858591
O O11 0.601988 0.419096 0.508766
#
# Coordination Sequence:
#
# PCOD9430127 Si02
#       6
#     4   8   8   8   8   8
#     4  10  20  38  64  82 108 156 210 250 284 342
#     4   9  18  34  56  85 122 154 188 242 297 353
#     4   9  20  38  59  84 115 154 202 246 289 351
#     4   9  18  33  54  85 122 155 190 236 295 361
#     4  10  19  34  58  88 122 155 190 241 303 352
#     4  10  20  35  61  88 115 159 206 244 292 357
#
# _framework density 23.089112
#
# number of rings (size 3 to 8) (size 9 to 14) (size 15 to 20)
#    0.000    2.545    0.000    2.727    0.000    3.636 
#    0.000   14.545    0.000   44.727    0.000    0.000 
#    0.000    0.000    0.000    0.000    0.000    0.000 
#
# Total GULP energy -245595.882114 kJ/mol
# GULP energy per Si atom -5581.724593 kJ/mol
# Density = 2.303656 g / cm^3
# Si number density = 23.089112 Si / 1000 Ang^3
#
#
#
# Elastic Constant Matrix: (Units=GPa)
#
#
# Indices 1 2 3 4 5 6 
#
# 1 51.1466 21.5517 16.1760 0.0000 0.0000 0.0000
# 2 21.5517 185.1060 22.5944 0.0000 0.0000 0.0000
# 3 16.1760 22.5944 38.5203 0.0000 0.0000 0.0000
# 4 0.0000 0.0000 0.0000 10.0156 0.0000 0.0000
# 5 0.0000 0.0000 0.0000 0.0000 -77.3668 0.0000
# 6 0.0000 0.0000 0.0000 0.0000 0.0000 21.9999
#
#
#
# Elastic Compliance Matrix: (Units=1/GPa)
#
#
# Indices 1 2 3 4 5 6 
#
# 1 0.022985 -0.001613 -0.008706 0.000000 0.000000 0.000000
# 2 -0.001613 0.005932 -0.002802 0.000000 0.000000 0.000000
# 3 -0.008706 -0.002802 0.031260 0.000000 0.000000 0.000000
# 4 0.000000 0.000000 0.000000 0.099844 0.000000 0.000000
# 5 0.000000 0.000000 0.000000 0.000000 -0.012925 0.000000
# 6 0.000000 0.000000 0.000000 0.000000 0.000000 0.045455
#
#
# Mechanical properties :
#
#
# Convention : Reuss Voigt Hill
#
# Bulk Modulus (GPa) = 29.46873 43.93524 36.70198
# Shear Modulus (GPa) = 21.72926 5.22646 13.47786
#
# Velocity S-wave (km/s) = 3.07107 1.50616 2.41868
# Velocity P-wave (km/s) = 5.03647 4.70048 4.87138
#
# Compressibility (1/GPa) = 0.03393428
#
# Stress axis : x y z
#
# Youngs Moduli (GPa) = 43.50689 168.57197 31.99003
#
# Poissons Ratio (x) = 0.27198 0.27850
# Poissons Ratio (y) = 0.07020 0.08964
# Poissons Ratio (z) = 0.37876 0.47234
#
# Static dielectric constant tensor:
#      x y z
#    x 1.892130 0.000000 0.000000 
#    y 0.000000 1.873040 0.000000 
#    z 0.000000 0.000000 1.962830 
# 
# From -- ./inp_files/8831.got.cif
#   From: 2010.05.17/outbox.cif.g08.bks.cpg/sg56_5_cif.got.tgz:8831.got - 2010.06.03 13:42:01.
