data_PCOD9430209
_publ_section_title
;
Structure prediction by ZEFSAII (Michael W. Deem and Ramdas Pophale) SiO2 
 PCOD9430209
Probable space group: P C C N
;
_chemical_formula_sum "Si O2"
_cell_formula_units_Z 40
_cell_length_a 10.932068
_cell_length_b 14.536370
_cell_length_c 9.383428
_cell_angle_alpha 90.000000
_cell_angle_beta 90.000000
_cell_angle_gamma 90.000000
_cell_volume 1491.144803
_symmetry_space_group_name_H-M "P C C N"
_symmetry_group_IT_number 56
_symmetry_cell_setting 'orthorhombic'
loop_
_space_group_symop_operation_xyz
x,y,z
1/2-x,1/2-y,z
1/2+x,-y,1/2-z
-x,1/2+y,1/2-z
-x,-y,-z
1/2+x,1/2+y,-z
1/2-x,y,1/2+z
x,1/2-y,1/2+z
loop_
_atom_site_type_symbol
_atom_site_label
_atom_site_fract_x
_atom_site_fract_y
_atom_site_fract_z
Si Si1 0.893610 0.197521 0.035074
Si Si2 0.401361 0.356610 0.211620
Si Si3 0.009673 0.438475 0.307285
Si Si4 0.350388 0.609959 0.454115
Si Si5 0.236688 0.089474 0.469667
O O1 0.876139 0.296730 0.959686
O O2 0.776731 0.149922 0.112217
O O3 0.998848 0.211643 0.151583
O O4 0.935463 0.124721 0.917827
O O5 0.462888 0.456848 0.186208
O O6 0.357319 0.353825 0.372899
O O7 0.286905 0.356997 0.104602
O O8 0.148620 0.430717 0.362316
O O9 0.961548 0.408282 0.152784
O O10 0.317153 0.510130 0.515759
#
# Coordination Sequence:
#
# PCOD9430209 Si02
#       5
#     8   8   8   8   8
#     4  10  19  36  55  85 122 156 195 251 307 341
#     4  10  19  37  62  84 119 160 203 242 300 354
#     4  10  19  37  56  81 123 161 194 244 307 353
#     4  10  20  32  56  89 112 150 206 246 291 351
#     4  10  19  38  60  87 115 164 199 243 292 366
#
# _framework density 26.825026000000001
#
# number of rings (size 3 to 8) (size 9 to 14) (size 15 to 20)
#    0.000    2.000    4.000    1.200    0.000    3.200 
#    0.000    9.000    0.000    4.800    0.000    0.000 
#    0.000    0.000    0.000    0.000    0.000    0.000 
#
# Total GULP energy -223741.456621 kJ/mol
# GULP energy per Si atom -5593.536416 kJ/mol
# Density = 2.676397 g / cm^3
# Si number density = 26.825026 Si / 1000 Ang^3
#
#
#
# Elastic Constant Matrix: (Units=GPa)
#
#
# Indices 1 2 3 4 5 6 
#
# 1 84.1359 37.4097 28.0615 0.0000 0.0000 0.0000
# 2 37.4097 95.5843 3.0193 0.0000 0.0000 0.0000
# 3 28.0615 3.0193 69.3297 0.0000 0.0000 0.0000
# 4 0.0000 0.0000 0.0000 1.4904 0.0000 0.0000
# 5 0.0000 0.0000 0.0000 0.0000 32.4259 0.0000
# 6 0.0000 0.0000 0.0000 0.0000 0.0000 25.3405
#
#
#
# Elastic Compliance Matrix: (Units=1/GPa)
#
#
# Indices 1 2 3 4 5 6 
#
# 1 0.016932 -0.006419 -0.006574 0.000000 0.000000 0.000000
# 2 -0.006419 0.012910 0.002036 0.000000 0.000000 0.000000
# 3 -0.006574 0.002036 0.016996 0.000000 0.000000 0.000000
# 4 0.000000 0.000000 0.000000 0.670979 0.000000 0.000000
# 5 0.000000 0.000000 0.000000 0.000000 0.030840 0.000000
# 6 0.000000 0.000000 0.000000 0.000000 0.000000 0.039463
#
#
# Mechanical properties :
#
#
# Convention : Reuss Voigt Hill
#
# Bulk Modulus (GPa) = 40.12198 42.89232 41.50715
# Shear Modulus (GPa) = 6.10992 23.88866 14.99929
#
# Velocity S-wave (km/s) = 1.51084 2.98742 2.36721
# Velocity P-wave (km/s) = 4.24652 5.28431 4.79358
#
# Compressibility (1/GPa) = 0.02492400
#
# Stress axis : x y z
#
# Youngs Moduli (GPa) = 59.05864 77.45916 58.83750
#
# Poissons Ratio (x) = 0.49723 0.38679
# Poissons Ratio (y) = 0.37911 -0.11979
# Poissons Ratio (z) = 0.38824 -0.15771
#
# Static dielectric constant tensor:
#      x y z
#    x 2.221060 0.000000 0.000000 
#    y 0.000000 2.078180 0.000000 
#    z 0.000000 0.000000 2.077600 
# 
# From -- ./inp_files/6996.got.cif
#   From: 2010.05.17/outbox.cif.g08.bks.cpg/sg56_4_cif.got.tgz:6996.got - 2010.06.03 13:42:01.
