data_PCOD9430462
_publ_section_title
;
Structure prediction by ZEFSAII (Michael W. Deem and Ramdas Pophale) SiO2 
 PCOD9430462
Probable space group: P C C N
;
_chemical_formula_sum "Si O2"
_cell_formula_units_Z 52
_cell_length_a 18.340891
_cell_length_b 10.189483
_cell_length_c 13.677342
_cell_angle_alpha 90.000000
_cell_angle_beta 90.000000
_cell_angle_gamma 90.000000
_cell_volume 2556.079077
_symmetry_space_group_name_H-M "P C C N"
_symmetry_group_IT_number 56
_symmetry_cell_setting 'orthorhombic'
loop_
_space_group_symop_operation_xyz
x,y,z
1/2-x,1/2-y,z
1/2+x,-y,1/2-z
-x,1/2+y,1/2-z
-x,-y,-z
1/2+x,1/2+y,-z
1/2-x,y,1/2+z
x,1/2-y,1/2+z
loop_
_atom_site_type_symbol
_atom_site_label
_atom_site_fract_x
_atom_site_fract_y
_atom_site_fract_z
Si Si1 0.586147 0.587620 0.349621
Si Si2 0.093701 0.685896 0.040353
Si Si3 0.312260 0.139693 0.329522
Si Si4 0.934723 0.732195 0.057137
Si Si5 0.572053 0.041280 0.165411
Si Si6 0.728403 0.391118 0.723575
Si Si7 0.750000 0.250000 0.410413
O O1 0.595183 0.436193 0.383593
O O2 0.646638 0.637671 0.275049
O O3 0.582437 0.673061 0.449311
O O4 0.506812 0.586028 0.297164
O O5 0.172144 0.753336 0.038448
O O6 0.020382 0.769332 0.059469
O O7 0.081092 0.617174 0.936751
O O8 0.250000 0.250000 0.335618
O O9 0.374580 0.163583 0.410105
O O10 0.270098 0.002466 0.334806
O O11 0.927043 0.611525 0.134774
O O12 0.642640 0.080226 0.225882
O O13 0.750000 0.250000 0.680189
O O14 0.752366 0.373982 0.836014
#
# Coordination Sequence:
#
# PCOD9430462 Si02
#       7
#     8   8   8   8   8   8   4
#     4   9  19  38  58  85 115 156 197 242 298 356
#     4   9  18  36  59  85 108 156 201 243 293 354
#     4  12  22  37  59  91 121 153 197 251 299 343
#     4   9  20  36  61  85 115 153 202 241 291 360
#     4   9  18  37  61  79 112 155 198 239 298 361
#     4  10  22  36  53  87 117 152 190 233 305 350
#     4  10  20  32  56  84 116 144 204 238 282 366
#
# _framework density 20.343658000000001
#
# number of rings (size 3 to 8) (size 9 to 14) (size 15 to 20)
#    0.462    1.846    3.077    1.846    3.231    0.615 
#    0.000    0.000    0.000    1.846    0.000    0.000 
#    0.000    0.000    0.000    0.000    0.000    0.000 
#
# Total GULP energy -289753.608960 kJ/mol
# GULP energy per Si atom -5572.184788 kJ/mol
# Density = 2.029735 g / cm^3
# Si number density = 20.343658 Si / 1000 Ang^3
#
#
#
# Elastic Constant Matrix: (Units=GPa)
#
#
# Indices 1 2 3 4 5 6 
#
# 1 167.9706 35.4782 17.2101 0.0000 0.0000 0.0000
# 2 35.4782 68.4304 -6.5736 0.0000 0.0000 0.0000
# 3 17.2101 -6.5736 18.4924 0.0000 0.0000 0.0000
# 4 0.0000 0.0000 0.0000 3.8639 0.0000 0.0000
# 5 0.0000 0.0000 0.0000 0.0000 27.8999 0.0000
# 6 0.0000 0.0000 0.0000 0.0000 0.0000 27.1672
#
#
#
# Elastic Compliance Matrix: (Units=1/GPa)
#
#
# Indices 1 2 3 4 5 6 
#
# 1 0.007951 -0.005004 -0.009178 0.000000 0.000000 0.000000
# 2 -0.005004 0.018279 0.011155 0.000000 0.000000 0.000000
# 3 -0.009178 0.011155 0.066583 0.000000 0.000000 0.000000
# 4 0.000000 0.000000 0.000000 0.258803 0.000000 0.000000
# 5 0.000000 0.000000 0.000000 0.000000 0.035842 0.000000
# 6 0.000000 0.000000 0.000000 0.000000 0.000000 0.036809
#
#
# Mechanical properties :
#
#
# Convention : Reuss Voigt Hill
#
# Bulk Modulus (GPa) = 11.52626 38.56920 25.04773
# Shear Modulus (GPa) = 10.88752 25.70478 18.29615
#
# Velocity S-wave (km/s) = 2.31591 3.55847 3.00218
# Velocity P-wave (km/s) = 3.58180 5.99029 4.93523
#
# Compressibility (1/GPa) = 0.08675838
#
# Stress axis : x y z
#
# Youngs Moduli (GPa) = 125.77555 54.70712 15.01885
#
# Poissons Ratio (x) = 0.27374 0.13784
# Poissons Ratio (y) = 0.62935 -0.16753
# Poissons Ratio (z) = 1.15437 -0.61023
#
# Static dielectric constant tensor:
#      x y z
#    x 1.777440 0.000000 0.000000 
#    y 0.000000 1.748010 0.000000 
#    z 0.000000 0.000000 1.725340 
# 
# From -- ./inp_files/12790.got.cif
#   From: 2010.05.17/outbox.cif.g08.bks.cpg/sg56_7_cif.got.tgz:12790.got - 2010.06.03 13:42:01.
