data_PCOD9430086
_publ_section_title
;
Structure prediction by ZEFSAII (Michael W. Deem and Ramdas Pophale) SiO2 
 PCOD9430086
Probable space group: P C C N
;
_chemical_formula_sum "Si O2"
_cell_formula_units_Z 40
_cell_length_a 4.992501
_cell_length_b 17.955682
_cell_length_c 23.135493
_cell_angle_alpha 90.000000
_cell_angle_beta 90.000000
_cell_angle_gamma 90.000000
_cell_volume 2073.952590
_symmetry_space_group_name_H-M "P C C N"
_symmetry_group_IT_number 56
_symmetry_cell_setting 'orthorhombic'
loop_
_space_group_symop_operation_xyz
x,y,z
1/2-x,1/2-y,z
1/2+x,-y,1/2-z
-x,1/2+y,1/2-z
-x,-y,-z
1/2+x,1/2+y,-z
1/2-x,y,1/2+z
x,1/2-y,1/2+z
loop_
_atom_site_type_symbol
_atom_site_label
_atom_site_fract_x
_atom_site_fract_y
_atom_site_fract_z
Si Si1 0.759116 0.570424 0.556825
Si Si2 0.507127 0.298682 0.109894
Si Si3 0.936562 0.964800 0.677683
Si Si4 0.937147 0.566527 0.307256
Si Si5 0.239497 0.599353 0.987945
O O1 0.652374 0.580245 0.621414
O O2 0.744745 0.481670 0.543012
O O3 0.558767 0.609658 0.511581
O O4 0.058974 0.594296 0.542232
O O5 0.250000 0.250000 0.093091
O O6 0.404065 0.360598 0.154743
O O7 0.646331 0.340666 0.056169
O O8 0.750000 0.250000 0.136070
O O9 0.906958 0.922283 0.738507
O O10 0.732063 0.034002 0.682501
O O11 0.228944 0.002022 0.673715
#
# Coordination Sequence:
#
# PCOD9430086 Si02
#       5
#     8   8   8   8   8
#     4  10  19  33  58  83 114 138 175 249 285 329
#     4  12  24  38  57  78 119 156 189 226 264 353
#     4  10  19  35  59  84 116 136 178 252 286 329
#     4  10  21  35  55  85 112 147 187 225 293 328
#     4  10  21  33  54  84 111 146 186 221 290 331
#
# _framework density 19.286846000000001
#
# number of rings (size 3 to 8) (size 9 to 14) (size 15 to 20)
#    0.000    1.600    2.000    3.600    5.600    0.000 
#    0.000    0.000    0.000    7.200    0.000    0.000 
#    0.000    0.000    0.000    0.000    0.000    0.000 
#
# Total GULP energy -223378.991047 kJ/mol
# GULP energy per Si atom -5584.474776 kJ/mol
# Density = 1.924295 g / cm^3
# Si number density = 19.286846 Si / 1000 Ang^3
#
#
#
# Elastic Constant Matrix: (Units=GPa)
#
#
# Indices 1 2 3 4 5 6 
#
# 1 67.1052 10.3549 -3.1726 0.0000 0.0000 0.0000
# 2 10.3549 51.1822 31.1393 0.0000 0.0000 0.0000
# 3 -3.1726 31.1393 99.5254 0.0000 0.0000 0.0000
# 4 0.0000 0.0000 0.0000 13.5365 0.0000 0.0000
# 5 0.0000 0.0000 0.0000 0.0000 24.7597 0.0000
# 6 0.0000 0.0000 0.0000 0.0000 0.0000 28.7763
#
#
#
# Elastic Compliance Matrix: (Units=1/GPa)
#
#
# Indices 1 2 3 4 5 6 
#
# 1 0.015650 -0.004286 0.001840 0.000000 0.000000 0.000000
# 2 -0.004286 0.025305 -0.008054 0.000000 0.000000 0.000000
# 3 0.001840 -0.008054 0.012626 0.000000 0.000000 0.000000
# 4 0.000000 0.000000 0.000000 0.073874 0.000000 0.000000
# 5 0.000000 0.000000 0.000000 0.000000 0.040388 0.000000
# 6 0.000000 0.000000 0.000000 0.000000 0.000000 0.034751
#
#
# Mechanical properties :
#
#
# Convention : Reuss Voigt Hill
#
# Bulk Modulus (GPa) = 30.69183 32.71733 31.70458
# Shear Modulus (GPa) = 21.32600 25.38058 23.35329
#
# Velocity S-wave (km/s) = 3.32886 3.63154 3.48349
# Velocity P-wave (km/s) = 5.54283 5.88086 5.71434
#
# Compressibility (1/GPa) = 0.03258196
#
# Stress axis : x y z
#
# Youngs Moduli (GPa) = 63.89669 39.51756 79.19992
#
# Poissons Ratio (x) = 0.16936 -0.14571
# Poissons Ratio (y) = 0.27383 0.63788
# Poissons Ratio (z) = -0.11755 0.31828
#
# Static dielectric constant tensor:
#      x y z
#    x 1.663630 0.000000 0.000000 
#    y 0.000000 1.659190 0.000000 
#    z 0.000000 0.000000 1.698010 
# 
# From -- ./inp_files/17459.got.cif
#   From: 2010.05.17/outbox.cif.g08.bks.cpg/sg56_9_cif.got.tgz:17459.got - 2010.06.03 13:42:01.
