data_PCOD9430401
_publ_section_title
;
Structure prediction by ZEFSAII (Michael W. Deem and Ramdas Pophale) SiO2 
 PCOD9430401
Probable space group: P C C N
;
_chemical_formula_sum "Si O2"
_cell_formula_units_Z 52
_cell_length_a 9.227280
_cell_length_b 10.783719
_cell_length_c 28.028801
_cell_angle_alpha 90.000000
_cell_angle_beta 90.000000
_cell_angle_gamma 90.000000
_cell_volume 2788.988876
_symmetry_space_group_name_H-M "P C C N"
_symmetry_group_IT_number 56
_symmetry_cell_setting 'orthorhombic'
loop_
_space_group_symop_operation_xyz
x,y,z
1/2-x,1/2-y,z
1/2+x,-y,1/2-z
-x,1/2+y,1/2-z
-x,-y,-z
1/2+x,1/2+y,-z
1/2-x,y,1/2+z
x,1/2-y,1/2+z
loop_
_atom_site_type_symbol
_atom_site_label
_atom_site_fract_x
_atom_site_fract_y
_atom_site_fract_z
Si Si1 0.250000 0.750000 0.553676
Si Si2 0.230062 0.396119 0.788359
Si Si3 0.975762 0.630821 0.024632
Si Si4 0.491676 0.583131 0.634843
Si Si5 0.208702 0.015689 0.108034
Si Si6 0.562853 0.477257 0.792711
Si Si7 0.250000 0.750000 0.189402
Si Si8 0.250000 0.250000 0.545203
O O1 0.383485 0.714538 0.521799
O O2 0.211317 0.619910 0.581487
O O3 0.250000 0.250000 0.796178
O O4 0.391784 0.454188 0.785419
O O5 0.133658 0.420385 0.741387
O O6 0.127016 0.443227 0.831353
O O7 0.952989 0.620385 0.082002
O O8 0.860531 0.691784 0.991419
O O9 0.000000 0.500000 0.000000
O O10 0.374910 0.473592 0.627393
O O11 0.382761 0.686105 0.659147
O O12 0.185606 0.136507 0.076200
O O13 0.099501 0.006281 0.152180
O O14 0.662927 0.355388 0.782310
#
# Coordination Sequence:
#
# PCOD9430401 Si02
#       8
#     4   8   8   8   8   8   4   4
#     4  10  21  42  66  93 130 177 224 264 336 383
#     4  12  26  41  68 102 123 175 220 267 322 405
#     4  11  22  41  65  96 134 173 217 281 320 391
#     4  10  20  41  64  92 128 168 224 265 320 386
#     4  10  22  42  68  92 130 176 216 277 327 398
#     4  11  23  42  65  95 135 164 214 266 333 386
#     4  10  19  40  72  91 124 177 214 270 316 405
#     4  12  24  40  66 100 130 176 224 262 352 376
#
# _framework density 18.644749999999998
#
# number of rings (size 3 to 8) (size 9 to 14) (size 15 to 20)
#    0.000    1.231    4.615    6.000    2.154    0.615 
#    2.769    0.000    0.000    0.000    0.000    0.000 
#    0.000    0.000    0.000    0.000    0.000    0.000 
#
# Total GULP energy -289483.445349 kJ/mol
# GULP energy per Si atom -5566.989334 kJ/mol
# Density = 1.860231 g / cm^3
# Si number density = 18.644750 Si / 1000 Ang^3
#
#
#
# Elastic Constant Matrix: (Units=GPa)
#
#
# Indices 1 2 3 4 5 6 
#
# 1 128.0917 34.4006 45.5305 0.0000 0.0000 0.0000
# 2 34.4006 61.8099 19.7099 0.0000 0.0000 0.0000
# 3 45.5305 19.7099 52.0800 0.0000 0.0000 0.0000
# 4 0.0000 0.0000 0.0000 19.7127 0.0000 0.0000
# 5 0.0000 0.0000 0.0000 0.0000 49.7692 0.0000
# 6 0.0000 0.0000 0.0000 0.0000 0.0000 25.9665
#
#
#
# Elastic Compliance Matrix: (Units=1/GPa)
#
#
# Indices 1 2 3 4 5 6 
#
# 1 0.012068 -0.003812 -0.009108 0.000000 0.000000 0.000000
# 2 -0.003812 0.019603 -0.004086 0.000000 0.000000 0.000000
# 3 -0.009108 -0.004086 0.028710 0.000000 0.000000 0.000000
# 4 0.000000 0.000000 0.000000 0.050729 0.000000 0.000000
# 5 0.000000 0.000000 0.000000 0.000000 0.020093 0.000000
# 6 0.000000 0.000000 0.000000 0.000000 0.000000 0.038511
#
#
# Mechanical properties :
#
#
# Convention : Reuss Voigt Hill
#
# Bulk Modulus (GPa) = 37.92295 49.02929 43.47612
# Shear Modulus (GPa) = 23.52767 28.57905 26.05336
#
# Velocity S-wave (km/s) = 3.55617 3.91937 3.74218
# Velocity P-wave (km/s) = 6.10292 6.84366 6.48388
#
# Compressibility (1/GPa) = 0.02636926
#
# Stress axis : x y z
#
# Youngs Moduli (GPa) = 82.86324 51.01164 34.83120
#
# Poissons Ratio (x) = 0.19447 0.31723
# Poissons Ratio (y) = 0.31590 0.14232
# Poissons Ratio (z) = 0.75469 0.20844
#
# Static dielectric constant tensor:
#      x y z
#    x 1.635540 0.000000 0.000000 
#    y 0.000000 1.631650 0.000000 
#    z 0.000000 0.000000 1.670240 
# 
# From -- ./inp_files/22070.got.cif
#   From: 2010.05.17/outbox.cif.g08.bks.cpg/sg56_12_cif.got.tgz:22070.got - 2010.06.03 13:42:01.
