data_PCOD9430672
_publ_section_title
;
Structure prediction by ZEFSAII (Michael W. Deem and Ramdas Pophale) SiO2 
 PCOD9430672
Probable space group: P C C N
;
_chemical_formula_sum "Si O2"
_cell_formula_units_Z 40
_cell_length_a 7.270461
_cell_length_b 7.867626
_cell_length_c 27.613922
_cell_angle_alpha 90.000000
_cell_angle_beta 90.000000
_cell_angle_gamma 90.000000
_cell_volume 1579.551353
_symmetry_space_group_name_H-M "P C C N"
_symmetry_group_IT_number 56
_symmetry_cell_setting 'orthorhombic'
loop_
_space_group_symop_operation_xyz
x,y,z
1/2-x,1/2-y,z
1/2+x,-y,1/2-z
-x,1/2+y,1/2-z
-x,-y,-z
1/2+x,1/2+y,-z
1/2-x,y,1/2+z
x,1/2-y,1/2+z
loop_
_atom_site_type_symbol
_atom_site_label
_atom_site_fract_x
_atom_site_fract_y
_atom_site_fract_z
Si Si1 0.254179 0.958304 0.091225
Si Si2 0.787519 0.448031 0.511199
Si Si3 0.673197 0.941600 0.615361
Si Si4 0.388059 0.994859 0.189676
Si Si5 0.978419 0.622124 0.710590
O O1 0.250000 0.750000 0.095335
O O2 0.383635 0.036753 0.132869
O O3 0.039409 0.988944 0.102760
O O4 0.308314 0.020429 0.037613
O O5 0.750000 0.250000 0.506441
O O6 0.733579 0.490547 0.566017
O O7 0.000000 0.500000 0.500000
O O8 0.750000 0.750000 0.613588
O O9 0.663564 0.973406 0.673972
O O10 0.494856 0.817294 0.195510
O O11 0.176044 0.958649 0.201643
O O12 0.445082 0.118735 0.232300
#
# Coordination Sequence:
#
# PCOD9430672 Si02
#       5
#     8   8   8   8   8
#     4   9  16  37  62  78 116 164 198 248 317 375
#     4   9  19  37  65  88 123 168 213 265 325 390
#     4  10  20  36  60  89 120 159 210 260 318 379
#     4  10  20  38  61  86 117 160 207 256 313 379
#     4  10  22  37  60  87 121 161 208 257 315 375
#
# _framework density 25.323644999999999
#
# number of rings (size 3 to 8) (size 9 to 14) (size 15 to 20)
#    0.000    2.400    4.000    0.000    2.800    0.000 
#    3.600    9.000   17.600    9.600    0.000    0.000 
#    0.000    0.000    0.000    0.000    0.000    0.000 
#
# Total GULP energy -222736.358622 kJ/mol
# GULP energy per Si atom -5568.408966 kJ/mol
# Density = 2.526601 g / cm^3
# Si number density = 25.323645 Si / 1000 Ang^3
#
#
#
# Elastic Constant Matrix: (Units=GPa)
#
#
# Indices 1 2 3 4 5 6 
#
# 1 61.1592 12.7037 67.7493 0.0000 0.0000 0.0000
# 2 12.7037 26.3718 27.9086 0.0000 0.0000 0.0000
# 3 67.7493 27.9086 272.4804 0.0000 0.0000 0.0000
# 4 0.0000 0.0000 0.0000 26.9984 0.0000 0.0000
# 5 0.0000 0.0000 0.0000 0.0000 46.0755 0.0000
# 6 0.0000 0.0000 0.0000 0.0000 0.0000 19.5552
#
#
#
# Elastic Compliance Matrix: (Units=1/GPa)
#
#
# Indices 1 2 3 4 5 6 
#
# 1 0.023310 -0.005715 -0.005210 0.000000 0.000000 0.000000
# 2 -0.005715 0.043930 -0.003079 0.000000 0.000000 0.000000
# 3 -0.005210 -0.003079 0.005281 0.000000 0.000000 0.000000
# 4 0.000000 0.000000 0.000000 0.037039 0.000000 0.000000
# 5 0.000000 0.000000 0.000000 0.000000 0.021703 0.000000
# 6 0.000000 0.000000 0.000000 0.000000 0.000000 0.051137
#
#
# Mechanical properties :
#
#
# Convention : Reuss Voigt Hill
#
# Bulk Modulus (GPa) = 22.46519 64.08162 43.27341
# Shear Modulus (GPa) = 22.19802 35.30249 28.75025
#
# Velocity S-wave (km/s) = 2.96391 3.73775 3.37310
# Velocity P-wave (km/s) = 4.53911 6.63232 5.68292
#
# Compressibility (1/GPa) = 0.04451331
#
# Stress axis : x y z
#
# Youngs Moduli (GPa) = 42.90083 22.76345 189.36463
#
# Poissons Ratio (x) = 0.13008 0.98666
# Poissons Ratio (y) = 0.24516 0.58299
# Poissons Ratio (z) = 0.22353 0.07008
#
# Static dielectric constant tensor:
#      x y z
#    x 1.973100 0.000000 0.000000 
#    y 0.000000 1.847100 0.000000 
#    z 0.000000 0.000000 2.177240 
# 
# From -- ./inp_files/21977.got.cif
#   From: 2010.05.17/outbox.cif.g08.bks.cpg/sg56_11_cif.got.tgz:21977.got - 2010.06.03 13:42:01.
