data_PCOD9430076
_publ_section_title
;
Structure prediction by ZEFSAII (Michael W. Deem and Ramdas Pophale) SiO2 
 PCOD9430076
Probable space group: P C C N
;
_chemical_formula_sum "Si O2"
_cell_formula_units_Z 48
_cell_length_a 9.007559
_cell_length_b 18.399474
_cell_length_c 11.965647
_cell_angle_alpha 90.000000
_cell_angle_beta 90.000000
_cell_angle_gamma 90.000000
_cell_volume 1983.118699
_symmetry_space_group_name_H-M "P C C N"
_symmetry_group_IT_number 56
_symmetry_cell_setting 'orthorhombic'
loop_
_space_group_symop_operation_xyz
x,y,z
1/2-x,1/2-y,z
1/2+x,-y,1/2-z
-x,1/2+y,1/2-z
-x,-y,-z
1/2+x,1/2+y,-z
1/2-x,y,1/2+z
x,1/2-y,1/2+z
loop_
_atom_site_type_symbol
_atom_site_label
_atom_site_fract_x
_atom_site_fract_y
_atom_site_fract_z
Si Si1 0.948130 0.838085 0.153022
Si Si2 0.387125 0.701521 0.608012
Si Si3 0.686742 0.670785 0.500000
Si Si4 0.322235 0.040934 0.630822
Si Si5 0.614077 0.085284 0.545910
Si Si6 0.798058 0.407953 0.236537
O O1 0.011588 0.758280 0.180710
O O2 0.030092 0.891337 0.237573
O O3 0.777139 0.842859 0.117784
O O4 0.026449 0.861287 0.035510
O O5 0.250000 0.750000 0.062815
O O6 0.512693 0.673393 0.524419
O O7 0.304178 0.639992 0.679845
O O8 0.750000 0.750000 0.464155
O O9 0.729280 0.609158 0.411447
O O10 0.493253 0.065069 0.639960
O O11 0.334472 0.983394 0.527340
O O12 0.273291 0.992750 0.735212
O O13 0.753160 0.113620 0.612884
#
# Coordination Sequence:
#
# PCOD9430076 Si02
#       6
#     8   8   8   8   8   8
#     4   8  17  36  58  81 111 153 198 234 286 355
#     4   9  18  33  54  82 115 146 188 240 289 343
#     4   9  17  34  61  79 108 157 193 237 297 353
#     4   9  19  35  56  83 113 150 198 237 290 365
#     4   9  18  35  58  80 114 158 191 240 300 353
#     4  10  19  33  56  85 116 147 190 245 296 349
#
# _framework density 24.204301999999998
#
# number of rings (size 3 to 8) (size 9 to 14) (size 15 to 20)
#    0.000    3.000    0.000    1.000    0.000    2.000 
#    0.000   15.833    0.000   67.000    0.000    0.000 
#    0.000    0.000    0.000    0.000    0.000    0.000 
#
# Total GULP energy -267835.794068 kJ/mol
# GULP energy per Si atom -5579.912376 kJ/mol
# Density = 2.414921 g / cm^3
# Si number density = 24.204302 Si / 1000 Ang^3
#
#
#
# Elastic Constant Matrix: (Units=GPa)
#
#
# Indices 1 2 3 4 5 6 
#
# 1 156.6219 32.4941 47.3678 0.0000 0.0000 0.0000
# 2 32.4941 91.5877 0.3848 0.0000 0.0000 0.0000
# 3 47.3678 0.3848 30.0921 0.0000 0.0000 0.0000
# 4 0.0000 0.0000 0.0000 6.9421 0.0000 0.0000
# 5 0.0000 0.0000 0.0000 0.0000 33.4091 0.0000
# 6 0.0000 0.0000 0.0000 0.0000 0.0000 38.1281
#
#
#
# Elastic Compliance Matrix: (Units=1/GPa)
#
#
# Indices 1 2 3 4 5 6 
#
# 1 0.014093 -0.004907 -0.022121 0.000000 0.000000 0.000000
# 2 -0.004907 0.012628 0.007563 0.000000 0.000000 0.000000
# 3 -0.022121 0.007563 0.067955 0.000000 0.000000 0.000000
# 4 0.000000 0.000000 0.000000 0.144049 0.000000 0.000000
# 5 0.000000 0.000000 0.000000 0.000000 0.029932 0.000000
# 6 0.000000 0.000000 0.000000 0.000000 0.000000 0.026227
#
#
# Mechanical properties :
#
#
# Convention : Reuss Voigt Hill
#
# Bulk Modulus (GPa) = 17.93887 48.75502 33.34694
# Shear Modulus (GPa) = 14.18861 28.89953 21.54407
#
# Velocity S-wave (km/s) = 2.42379 3.45915 2.98668
# Velocity P-wave (km/s) = 3.90647 6.01175 5.06960
#
# Compressibility (1/GPa) = 0.05574489
#
# Stress axis : x y z
#
# Youngs Moduli (GPa) = 70.95752 79.19117 14.71568
#
# Poissons Ratio (x) = 0.38859 0.32552
# Poissons Ratio (y) = 0.34819 -0.11129
# Poissons Ratio (z) = 1.56964 -0.59889
#
# Static dielectric constant tensor:
#      x y z
#    x 1.953110 0.000000 0.000000 
#    y 0.000000 1.986410 0.000000 
#    z 0.000000 0.000000 1.958120 
# 
# From -- ./inp_files/10777.got.cif
#   From: 2010.05.17/outbox.cif.g08.bks.cpg/sg56_6_cif.got.tgz:10777.got - 2010.06.03 13:42:01.
