data_PCOD9430786
_publ_section_title
;
Structure prediction by ZEFSAII (Michael W. Deem and Ramdas Pophale) SiO2 
 PCOD9430786
Probable space group: P C C N
;
_chemical_formula_sum "Si O2"
_cell_formula_units_Z 52
_cell_length_a 25.377478
_cell_length_b 4.911699
_cell_length_c 19.052690
_cell_angle_alpha 90.000000
_cell_angle_beta 90.000000
_cell_angle_gamma 90.000000
_cell_volume 2374.851759
_symmetry_space_group_name_H-M "P C C N"
_symmetry_group_IT_number 56
_symmetry_cell_setting 'orthorhombic'
loop_
_space_group_symop_operation_xyz
x,y,z
1/2-x,1/2-y,z
1/2+x,-y,1/2-z
-x,1/2+y,1/2-z
-x,-y,-z
1/2+x,1/2+y,-z
1/2-x,y,1/2+z
x,1/2-y,1/2+z
loop_
_atom_site_type_symbol
_atom_site_label
_atom_site_fract_x
_atom_site_fract_y
_atom_site_fract_z
Si Si1 0.639488 0.657850 0.260892
Si Si2 0.399813 0.488422 0.000685
Si Si3 0.018754 0.660696 0.929645
Si Si4 0.611901 0.377456 0.674914
Si Si5 0.801350 0.181700 0.089058
Si Si6 0.250000 0.250000 0.302721
Si Si7 0.592368 0.500724 0.403968
O O1 0.619726 0.425887 0.205861
O O2 0.699338 0.758452 0.248868
O O3 0.629420 0.547634 0.338066
O O4 0.606675 0.924150 0.240387
O O5 0.393029 0.187156 0.029336
O O6 0.405569 0.694179 0.066895
O O7 0.452944 0.558941 0.956180
O O8 0.348517 0.554604 0.955363
O O9 0.065356 0.560673 0.879155
O O10 0.965277 0.625705 0.885523
O O11 0.000000 0.500000 0.000000
O O12 0.666439 0.415865 0.631222
O O13 0.750000 0.250000 0.042690
O O14 0.772687 0.985689 0.145625
#
# Coordination Sequence:
#
# PCOD9430786 Si02
#       7
#     8   8   8   8   8   4   8
#     4  11  23  40  60  85 125 157 208 242 296 368
#     4  10  23  39  61  89 118 155 204 246 304 360
#     4   9  21  39  65  89 125 158 197 251 310 352
#     4  10  22  38  62  93 114 159 205 244 292 364
#     4  10  20  37  63  86 117 148 204 257 298 342
#     4  10  22  38  62  84 118 162 194 250 308 342
#     4  11  23  41  59  88 126 163 191 247 303 363
#
# _framework density 21.896101999999999
#
# number of rings (size 3 to 8) (size 9 to 14) (size 15 to 20)
#    0.000    1.846    1.538    1.385    2.154   11.077 
#    2.769    0.000    0.000    0.000    0.000    0.000 
#    0.000    0.000    0.000    0.000    0.000    0.000 
#
# Total GULP energy -289483.410540 kJ/mol
# GULP energy per Si atom -5566.988664 kJ/mol
# Density = 2.184627 g / cm^3
# Si number density = 21.896102 Si / 1000 Ang^3
#
#
#
# Elastic Constant Matrix: (Units=GPa)
#
#
# Indices 1 2 3 4 5 6 
#
# 1 137.6885 -0.7202 34.6793 0.0000 0.0000 0.0000
# 2 -0.7202 59.4247 -0.7832 0.0000 0.0000 0.0000
# 3 34.6793 -0.7832 61.0551 0.0000 0.0000 0.0000
# 4 0.0000 0.0000 0.0000 29.7056 0.0000 0.0000
# 5 0.0000 0.0000 0.0000 0.0000 34.5488 0.0000
# 6 0.0000 0.0000 0.0000 0.0000 0.0000 18.5155
#
#
#
# Elastic Compliance Matrix: (Units=1/GPa)
#
#
# Indices 1 2 3 4 5 6 
#
# 1 0.008475 0.000039 -0.004813 0.000000 0.000000 0.000000
# 2 0.000039 0.016831 0.000194 0.000000 0.000000 0.000000
# 3 -0.004813 0.000194 0.019115 0.000000 0.000000 0.000000
# 4 0.000000 0.000000 0.000000 0.033664 0.000000 0.000000
# 5 0.000000 0.000000 0.000000 0.000000 0.028945 0.000000
# 6 0.000000 0.000000 0.000000 0.000000 0.000000 0.054009
#
#
# Mechanical properties :
#
#
# Convention : Reuss Voigt Hill
#
# Bulk Modulus (GPa) = 28.36046 36.05778 32.20912
# Shear Modulus (GPa) = 27.47957 31.55347 29.51652
#
# Velocity S-wave (km/s) = 3.54644 3.80024 3.67553
# Velocity P-wave (km/s) = 5.45436 5.97990 5.72317
#
# Compressibility (1/GPa) = 0.03526035
#
# Stress axis : x y z
#
# Youngs Moduli (GPa) = 117.98937 59.41402 52.31440
#
# Poissons Ratio (x) = -0.00233 0.25181
# Poissons Ratio (y) = -0.00463 -0.01013
# Poissons Ratio (z) = 0.56794 -0.01150
#
# Static dielectric constant tensor:
#      x y z
#    x 1.900590 0.000000 0.000000 
#    y 0.000000 1.898360 0.000000 
#    z 0.000000 0.000000 1.812360 
# 
# From -- ./inp_files/17010.got.cif
#   From: 2010.05.17/outbox.cif.g08.bks.cpg/sg56_9_cif.got.tgz:17010.got - 2010.06.03 13:42:01.
