data_PCOD9430136
_publ_section_title
;
Structure prediction by ZEFSAII (Michael W. Deem and Ramdas Pophale) SiO2 
 PCOD9430136
Probable space group: P C C N
;
_chemical_formula_sum "Si O2"
_cell_formula_units_Z 48
_cell_length_a 22.642365
_cell_length_b 5.146440
_cell_length_c 21.170577
_cell_angle_alpha 90.000000
_cell_angle_beta 90.000000
_cell_angle_gamma 90.000000
_cell_volume 2466.955955
_symmetry_space_group_name_H-M "P C C N"
_symmetry_group_IT_number 56
_symmetry_cell_setting 'orthorhombic'
loop_
_space_group_symop_operation_xyz
x,y,z
1/2-x,1/2-y,z
1/2+x,-y,1/2-z
-x,1/2+y,1/2-z
-x,-y,-z
1/2+x,1/2+y,-z
1/2-x,y,1/2+z
x,1/2-y,1/2+z
loop_
_atom_site_type_symbol
_atom_site_label
_atom_site_fract_x
_atom_site_fract_y
_atom_site_fract_z
Si Si1 0.081685 0.407160 0.985851
Si Si2 0.186455 0.625014 0.598918
Si Si3 0.564455 0.095574 0.586159
Si Si4 0.682561 0.255952 0.547183
Si Si5 0.117783 0.369848 0.125930
Si Si6 0.988998 0.783062 0.790524
O O1 0.083291 0.339254 0.059170
O O2 0.947294 0.318667 0.033532
O O3 0.150879 0.465685 0.966451
O O4 0.054363 0.184596 0.943170
O O5 0.250000 0.750000 0.612928
O O6 0.180606 0.624530 0.522460
O O7 0.171019 0.338798 0.623098
O O8 0.139863 0.834300 0.625539
O O9 0.635661 0.122492 0.593579
O O10 0.529853 0.149452 0.649523
O O11 0.750000 0.250000 0.567982
O O12 0.074260 0.301326 0.182193
O O13 0.014478 0.538053 0.752547
#
# Coordination Sequence:
#
# PCOD9430136 Si02
#       6
#     8   8   8   8   8   8
#     4   9  18  33  56  92 117 145 180 234 311 343
#     4  10  19  34  59  95 128 148 180 231 309 378
#     4  10  20  37  56  86 120 149 194 240 288 356
#     4   8  17  31  55  89 125 149 174 226 299 372
#     4  11  20  38  59  90 122 156 191 244 297 359
#     4  12  27  43  61  80 112 170 212 251 287 340
#
# _framework density 19.457176
#
# number of rings (size 3 to 8) (size 9 to 14) (size 15 to 20)
#    1.000    1.000    1.667    2.500    0.000    2.000 
#    0.000    0.000    0.000    6.000    0.000    0.000 
#    0.000    0.000    0.000    0.000    0.000    0.000 
#
# Total GULP energy -267681.792884 kJ/mol
# GULP energy per Si atom -5576.704018 kJ/mol
# Density = 1.941289 g / cm^3
# Si number density = 19.457176 Si / 1000 Ang^3
#
#
#
# Elastic Constant Matrix: (Units=GPa)
#
#
# Indices 1 2 3 4 5 6 
#
# 1 73.4918 -3.8116 14.8248 0.0000 0.0000 0.0000
# 2 -3.8116 64.9542 2.9749 0.0000 0.0000 0.0000
# 3 14.8248 2.9749 46.0279 0.0000 0.0000 0.0000
# 4 0.0000 0.0000 0.0000 26.4272 0.0000 0.0000
# 5 0.0000 0.0000 0.0000 0.0000 8.7041 0.0000
# 6 0.0000 0.0000 0.0000 0.0000 0.0000 20.3424
#
#
#
# Elastic Compliance Matrix: (Units=1/GPa)
#
#
# Indices 1 2 3 4 5 6 
#
# 1 0.014627 0.001077 -0.004781 0.000000 0.000000 0.000000
# 2 0.001077 0.015521 -0.001350 0.000000 0.000000 0.000000
# 3 -0.004781 -0.001350 0.023353 0.000000 0.000000 0.000000
# 4 0.000000 0.000000 0.000000 0.037840 0.000000 0.000000
# 5 0.000000 0.000000 0.000000 0.000000 0.114889 0.000000
# 6 0.000000 0.000000 0.000000 0.000000 0.000000 0.049158
#
#
# Mechanical properties :
#
#
# Convention : Reuss Voigt Hill
#
# Bulk Modulus (GPa) = 23.04490 23.60557 23.32523
# Shear Modulus (GPa) = 17.85973 22.46046 20.16009
#
# Velocity S-wave (km/s) = 3.03297 3.40126 3.22238
# Velocity P-wave (km/s) = 4.91272 5.25197 5.08518
#
# Compressibility (1/GPa) = 0.04339354
#
# Stress axis : x y z
#
# Youngs Moduli (GPa) = 68.36572 64.43082 42.82100
#
# Poissons Ratio (x) = -0.06941 0.20472
# Poissons Ratio (y) = -0.07365 0.05781
# Poissons Ratio (z) = 0.32684 0.08699
#
# Static dielectric constant tensor:
#      x y z
#    x 1.765060 0.000000 0.000000 
#    y 0.000000 1.693680 0.000000 
#    z 0.000000 0.000000 1.634140 
# 
# From -- ./inp_files/19431.got.cif
#   From: 2010.05.17/outbox.cif.g08.bks.cpg/sg56_10_cif.got.tgz:19431.got - 2010.06.03 13:42:01.
