data_PCOD9430970
_publ_section_title
;
Structure prediction by ZEFSAII (Michael W. Deem and Ramdas Pophale) SiO2 
 PCOD9430970
Probable space group: P C C N
;
_chemical_formula_sum "Si O2"
_cell_formula_units_Z 64
_cell_length_a 25.480629
_cell_length_b 8.826616
_cell_length_c 14.251692
_cell_angle_alpha 90.000000
_cell_angle_beta 90.000000
_cell_angle_gamma 90.000000
_cell_volume 3205.315662
_symmetry_space_group_name_H-M "P C C N"
_symmetry_group_IT_number 56
_symmetry_cell_setting 'orthorhombic'
loop_
_space_group_symop_operation_xyz
x,y,z
1/2-x,1/2-y,z
1/2+x,-y,1/2-z
-x,1/2+y,1/2-z
-x,-y,-z
1/2+x,1/2+y,-z
1/2-x,y,1/2+z
x,1/2-y,1/2+z
loop_
_atom_site_type_symbol
_atom_site_label
_atom_site_fract_x
_atom_site_fract_y
_atom_site_fract_z
Si Si1 0.186842 0.542439 0.090086
Si Si2 0.564453 0.005429 0.714139
Si Si3 0.907167 0.671706 0.894568
Si Si4 0.769908 0.410322 0.248404
Si Si5 0.407110 0.201222 0.890273
Si Si6 0.877347 0.270821 0.299934
Si Si7 0.554318 0.956137 0.294095
Si Si8 0.213190 0.118949 0.412209
O O1 0.152068 0.393056 0.112197
O O2 0.235955 0.564117 0.158261
O O3 0.147364 0.681162 0.111788
O O4 0.205349 0.518161 0.984887
O O5 0.606739 0.139566 0.726108
O O6 0.507215 0.066392 0.689341
O O7 0.561444 0.928158 0.818096
O O8 0.579821 0.871401 0.643353
O O9 0.912900 0.842288 0.859160
O O10 0.923844 0.663723 0.003128
O O11 0.750000 0.250000 0.207894
O O12 0.831440 0.382782 0.265918
O O13 0.761230 0.549939 0.180335
O O14 0.432164 0.089968 0.812928
O O15 0.344306 0.181922 0.889182
O O16 0.928194 0.372982 0.315742
O O17 0.250000 0.250000 0.452757
#
# Coordination Sequence:
#
# PCOD9430970 Si02
#       8
#     8   8   8   8   8   8   8   8
#     4   9  22  42  58  91 127 162 203 254 310 372
#     4  10  22  40  64  90 130 158 210 264 315 371
#     4   9  21  40  63  88 124 163 208 256 309 370
#     4  10  22  37  62  88 122 163 198 251 315 366
#     4  10  22  42  61  92 125 160 213 257 306 381
#     4  10  20  39  61  87 126 163 196 260 315 363
#     4  11  21  39  65  94 118 168 214 255 319 369
#     4  11  24  39  63  93 121 166 210 251 308 374
#
# _framework density 19.966832
#
# number of rings (size 3 to 8) (size 9 to 14) (size 15 to 20)
#    0.000    2.000    1.250    1.500    7.000    5.000 
#    2.250    1.250    0.000    0.000    0.000    0.000 
#    0.000    0.000    0.000    0.000    0.000    0.000 
#
# Total GULP energy -356998.007646 kJ/mol
# GULP energy per Si atom -5578.093869 kJ/mol
# Density = 1.992139 g / cm^3
# Si number density = 19.966832 Si / 1000 Ang^3
#
#
#
# Elastic Constant Matrix: (Units=GPa)
#
#
# Indices 1 2 3 4 5 6 
#
# 1 57.9577 15.1281 14.3923 0.0000 0.0000 0.0000
# 2 15.1281 66.7265 23.2459 0.0000 0.0000 0.0000
# 3 14.3923 23.2459 68.0669 0.0000 0.0000 0.0000
# 4 0.0000 0.0000 0.0000 17.8838 0.0000 0.0000
# 5 0.0000 0.0000 0.0000 0.0000 17.8883 0.0000
# 6 0.0000 0.0000 0.0000 0.0000 0.0000 25.6668
#
#
#
# Elastic Compliance Matrix: (Units=1/GPa)
#
#
# Indices 1 2 3 4 5 6 
#
# 1 0.018818 -0.003269 -0.002862 0.000000 0.000000 0.000000
# 2 -0.003269 0.017578 -0.005312 0.000000 0.000000 0.000000
# 3 -0.002862 -0.005312 0.017111 0.000000 0.000000 0.000000
# 4 0.000000 0.000000 0.000000 0.055917 0.000000 0.000000
# 5 0.000000 0.000000 0.000000 0.000000 0.055902 0.000000
# 6 0.000000 0.000000 0.000000 0.000000 0.000000 0.038961
#
#
# Mechanical properties :
#
#
# Convention : Reuss Voigt Hill
#
# Bulk Modulus (GPa) = 32.65855 33.14264 32.90059
# Shear Modulus (GPa) = 21.06316 21.62008 21.34162
#
# Velocity S-wave (km/s) = 3.25146 3.29416 3.27288
# Velocity P-wave (km/s) = 5.52158 5.57706 5.54939
#
# Compressibility (1/GPa) = 0.03061986
#
# Stress axis : x y z
#
# Youngs Moduli (GPa) = 53.14032 56.88821 58.44250
#
# Poissons Ratio (x) = 0.18598 0.16729
# Poissons Ratio (y) = 0.17373 0.31045
# Poissons Ratio (z) = 0.15211 0.30219
#
# Static dielectric constant tensor:
#      x y z
#    x 1.700890 0.000000 0.000000 
#    y 0.000000 1.705760 0.000000 
#    z 0.000000 0.000000 1.698920 
# 
# From -- ./inp_files/13296.got.cif
#   From: 2010.05.17/outbox.cif.g08.bks.cpg/sg56_7_cif.got.tgz:13296.got - 2010.06.03 13:42:01.
