data_PCOD9430703
_publ_section_title
;
Structure prediction by ZEFSAII (Michael W. Deem and Ramdas Pophale) SiO2 
 PCOD9430703
Probable space group: P C C N
;
_chemical_formula_sum "Si O2"
_cell_formula_units_Z 52
_cell_length_a 18.480840
_cell_length_b 8.008231
_cell_length_c 14.574965
_cell_angle_alpha 90.000000
_cell_angle_beta 90.000000
_cell_angle_gamma 90.000000
_cell_volume 2157.077852
_symmetry_space_group_name_H-M "P C C N"
_symmetry_group_IT_number 56
_symmetry_cell_setting 'orthorhombic'
loop_
_space_group_symop_operation_xyz
x,y,z
1/2-x,1/2-y,z
1/2+x,-y,1/2-z
-x,1/2+y,1/2-z
-x,-y,-z
1/2+x,1/2+y,-z
1/2-x,y,1/2+z
x,1/2-y,1/2+z
loop_
_atom_site_type_symbol
_atom_site_label
_atom_site_fract_x
_atom_site_fract_y
_atom_site_fract_z
Si Si1 0.049341 0.468408 0.245630
Si Si2 0.333378 0.196830 0.765022
Si Si3 0.178278 0.843058 0.335087
Si Si4 0.888701 0.177709 0.409063
Si Si5 0.926166 0.949818 0.893323
Si Si6 0.750000 0.250000 0.347886
Si Si7 0.032820 0.699611 0.924281
O O1 0.113221 0.352584 0.285840
O O2 0.080584 0.624736 0.189099
O O3 0.988963 0.508270 0.319474
O O4 0.007894 0.378541 0.162098
O O5 0.250000 0.250000 0.760256
O O6 0.363880 0.142427 0.664717
O O7 0.337337 0.042728 0.837911
O O8 0.250000 0.750000 0.374117
O O9 0.196276 0.833852 0.225704
O O10 0.109417 0.748118 0.376173
O O11 0.897021 0.374930 0.429721
O O12 0.803475 0.137191 0.407191
O O13 0.935206 0.097067 0.489918
O O14 0.971559 0.829435 0.960297
#
# Coordination Sequence:
#
# PCOD9430703 Si02
#       7
#     8   8   8   8   8   4   8
#     4  11  23  41  65  95 130 175 221 272 326 406
#     4  11  22  37  65  97 121 168 232 275 316 393
#     4  10  21  42  62  92 128 168 226 267 324 397
#     4  12  23  40  64  97 132 169 214 278 344 377
#     4  11  22  42  65  95 127 175 225 267 328 410
#     4  10  20  36  64  84 120 170 216 258 312 400
#     4  11  24  39  65  98 132 167 216 281 335 389
#
# _framework density 24.106687999999998
#
# number of rings (size 3 to 8) (size 9 to 14) (size 15 to 20)
#    0.462    0.615    3.077    4.615    3.231    0.000 
#    0.000    0.000    0.000    2.769    0.000    0.000 
#    0.000    0.000    0.000    0.000    0.000    0.000 
#
# Total GULP energy -289737.659943 kJ/mol
# GULP energy per Si atom -5571.878076 kJ/mol
# Density = 2.405182 g / cm^3
# Si number density = 24.106688 Si / 1000 Ang^3
#
#
#
# Elastic Constant Matrix: (Units=GPa)
#
#
# Indices 1 2 3 4 5 6 
#
# 1 145.0458 29.8592 27.8818 0.0000 0.0000 0.0000
# 2 29.8592 65.4541 10.0348 0.0000 0.0000 0.0000
# 3 27.8818 10.0348 70.7170 0.0000 0.0000 0.0000
# 4 0.0000 0.0000 0.0000 24.7016 0.0000 0.0000
# 5 0.0000 0.0000 0.0000 0.0000 31.8700 0.0000
# 6 0.0000 0.0000 0.0000 0.0000 0.0000 38.6077
#
#
#
# Elastic Compliance Matrix: (Units=1/GPa)
#
#
# Indices 1 2 3 4 5 6 
#
# 1 0.008092 -0.003274 -0.002726 0.000000 0.000000 0.000000
# 2 -0.003274 0.016942 -0.001113 0.000000 0.000000 0.000000
# 3 -0.002726 -0.001113 0.015374 0.000000 0.000000 0.000000
# 4 0.000000 0.000000 0.000000 0.040483 0.000000 0.000000
# 5 0.000000 0.000000 0.000000 0.000000 0.031377 0.000000
# 6 0.000000 0.000000 0.000000 0.000000 0.000000 0.025902
#
#
# Mechanical properties :
#
#
# Convention : Reuss Voigt Hill
#
# Bulk Modulus (GPa) = 38.19447 46.30762 42.25104
# Shear Modulus (GPa) = 31.03207 33.26527 32.14867
#
# Velocity S-wave (km/s) = 3.59176 3.71876 3.65581
# Velocity P-wave (km/s) = 5.75146 6.13922 5.94850
#
# Compressibility (1/GPa) = 0.02618180
#
# Stress axis : x y z
#
# Youngs Moduli (GPa) = 123.57406 59.02499 65.04635
#
# Poissons Ratio (x) = 0.19323 0.17732
# Poissons Ratio (y) = 0.40454 0.07242
# Poissons Ratio (z) = 0.33687 0.06572
#
# Static dielectric constant tensor:
#      x y z
#    x 1.928790 0.000000 0.000000 
#    y 0.000000 2.167020 0.000000 
#    z 0.000000 0.000000 1.987480 
# 
# From -- ./inp_files/16588.got.cif
#   From: 2010.05.17/outbox.cif.g08.bks.cpg/sg56_9_cif.got.tgz:16588.got - 2010.06.03 13:42:01.
