data_PCOD9430358
_publ_section_title
;
Structure prediction by ZEFSAII (Michael W. Deem and Ramdas Pophale) SiO2 
 PCOD9430358
Probable space group: P C C N
;
_chemical_formula_sum "Si O2"
_cell_formula_units_Z 48
_cell_length_a 13.844279
_cell_length_b 13.935854
_cell_length_c 11.455287
_cell_angle_alpha 90.000000
_cell_angle_beta 90.000000
_cell_angle_gamma 90.000000
_cell_volume 2210.089723
_symmetry_space_group_name_H-M "P C C N"
_symmetry_group_IT_number 56
_symmetry_cell_setting 'orthorhombic'
loop_
_space_group_symop_operation_xyz
x,y,z
1/2-x,1/2-y,z
1/2+x,-y,1/2-z
-x,1/2+y,1/2-z
-x,-y,-z
1/2+x,1/2+y,-z
1/2-x,y,1/2+z
x,1/2-y,1/2+z
loop_
_atom_site_type_symbol
_atom_site_label
_atom_site_fract_x
_atom_site_fract_y
_atom_site_fract_z
Si Si1 0.094322 0.612805 0.471105
Si Si2 0.968104 0.825802 0.179317
Si Si3 0.423405 0.520686 0.722631
Si Si4 0.924057 0.871534 0.575409
Si Si5 0.214085 0.977484 0.514376
Si Si6 0.096201 0.819609 0.396788
O O1 0.069156 0.577019 0.342729
O O2 0.172904 0.539598 0.521501
O O3 0.133383 0.720545 0.451563
O O4 0.006775 0.626776 0.560112
O O5 0.915602 0.726240 0.149437
O O6 0.059941 0.806095 0.264361
O O7 0.910730 0.909329 0.244927
O O8 0.520114 0.547619 0.651313
O O9 0.337012 0.548967 0.636422
O O10 0.000139 0.846503 0.472359
O O11 0.827481 0.919369 0.524911
O O12 0.173611 0.902285 0.418589
#
# Coordination Sequence:
#
# PCOD9430358 Si02
#       6
#     8   8   8   8   8   8
#     4  11  25  36  59  99 128 157 212 273 322 356
#     4  11  21  39  66  91 122 167 218 264 299 395
#     4  11  21  40  63  87 123 169 218 252 316 388
#     4  10  20  38  66  85 120 175 212 243 316 395
#     4  11  22  39  61  91 131 168 201 267 329 374
#     4  10  19  39  60  92 125 165 205 251 316 390
#
# _framework density 21.718574
#
# number of rings (size 3 to 8) (size 9 to 14) (size 15 to 20)
#    0.000    1.333    5.000    2.000    2.333    0.000 
#    0.000    0.833    0.000    2.000    0.000    0.000 
#    0.000    0.000    0.000    0.000    0.000    0.000 
#
# Total GULP energy -268057.101983 kJ/mol
# GULP energy per Si atom -5584.522958 kJ/mol
# Density = 2.166914 g / cm^3
# Si number density = 21.718574 Si / 1000 Ang^3
#
#
#
# Elastic Constant Matrix: (Units=GPa)
#
#
# Indices 1 2 3 4 5 6 
#
# 1 29.5560 18.8111 1.5590 0.0000 0.0000 0.0000
# 2 18.8111 115.0401 18.2883 0.0000 0.0000 0.0000
# 3 1.5590 18.2883 97.7695 0.0000 0.0000 0.0000
# 4 0.0000 0.0000 0.0000 41.7959 0.0000 0.0000
# 5 0.0000 0.0000 0.0000 0.0000 8.7598 0.0000
# 6 0.0000 0.0000 0.0000 0.0000 0.0000 30.3991
#
#
#
# Elastic Compliance Matrix: (Units=1/GPa)
#
#
# Indices 1 2 3 4 5 6 
#
# 1 0.037795 -0.006271 0.000570 0.000000 0.000000 0.000000
# 2 -0.006271 0.009999 -0.001770 0.000000 0.000000 0.000000
# 3 0.000570 -0.001770 0.010550 0.000000 0.000000 0.000000
# 4 0.000000 0.000000 0.000000 0.023926 0.000000 0.000000
# 5 0.000000 0.000000 0.000000 0.000000 0.114157 0.000000
# 6 0.000000 0.000000 0.000000 0.000000 0.000000 0.032896
#
#
# Mechanical properties :
#
#
# Convention : Reuss Voigt Hill
#
# Bulk Modulus (GPa) = 23.03993 35.52026 29.28009
# Shear Modulus (GPa) = 19.32492 29.77145 24.54819
#
# Velocity S-wave (km/s) = 2.98617 3.70642 3.36562
# Velocity P-wave (km/s) = 4.74563 5.89127 5.34921
#
# Compressibility (1/GPa) = 0.04340292
#
# Stress axis : x y z
#
# Youngs Moduli (GPa) = 26.45841 100.00527 94.78472
#
# Poissons Ratio (x) = 0.62712 -0.05406
# Poissons Ratio (y) = 0.16592 0.16781
# Poissons Ratio (z) = -0.01509 0.17706
#
# Static dielectric constant tensor:
#      x y z
#    x 1.780830 0.000000 0.000000 
#    y 0.000000 1.841460 0.000000 
#    z 0.000000 0.000000 1.790640 
# 
# From -- ./inp_files/7807.got.cif
#   From: 2010.05.17/outbox.cif.g08.bks.cpg/sg56_4_cif.got.tgz:7807.got - 2010.06.03 13:42:01.
