data_PCOD9430989
_publ_section_title
;
Structure prediction by ZEFSAII (Michael W. Deem and Ramdas Pophale) SiO2 
 PCOD9430989
Probable space group: P C C N
;
_chemical_formula_sum "Si O2"
_cell_formula_units_Z 56
_cell_length_a 5.563117
_cell_length_b 14.051909
_cell_length_c 34.399272
_cell_angle_alpha 90.000000
_cell_angle_beta 90.000000
_cell_angle_gamma 90.000000
_cell_volume 2689.074127
_symmetry_space_group_name_H-M "P C C N"
_symmetry_group_IT_number 56
_symmetry_cell_setting 'orthorhombic'
loop_
_space_group_symop_operation_xyz
x,y,z
1/2-x,1/2-y,z
1/2+x,-y,1/2-z
-x,1/2+y,1/2-z
-x,-y,-z
1/2+x,1/2+y,-z
1/2-x,y,1/2+z
x,1/2-y,1/2+z
loop_
_atom_site_type_symbol
_atom_site_label
_atom_site_fract_x
_atom_site_fract_y
_atom_site_fract_z
Si Si1 0.432638 0.504904 0.955096
Si Si2 0.656561 0.156879 0.413040
Si Si3 0.558852 0.994313 0.108549
Si Si4 0.692298 0.644092 0.899310
Si Si5 0.025079 0.500787 0.726223
Si Si6 0.134216 0.148244 0.836816
Si Si7 0.505498 0.307577 0.177816
O O1 0.471967 0.398633 0.939355
O O2 0.188293 0.527688 0.931567
O O3 0.612175 0.578804 0.934602
O O4 0.500000 0.500000 0.000000
O O5 0.750000 0.250000 0.433297
O O6 0.536064 0.180964 0.372075
O O7 0.870107 0.085657 0.403996
O O8 0.407913 0.086478 0.122067
O O9 0.710796 0.937439 0.141685
O O10 0.750000 0.750000 0.912328
O O11 0.486821 0.656956 0.866963
O O12 0.785661 0.499449 0.753128
O O13 0.997613 0.592398 0.697844
O O14 0.011017 0.402189 0.702981
O O15 0.250000 0.250000 0.823858
O O16 0.750000 0.250000 0.186849
O O17 0.250000 0.250000 0.181456
#
# Coordination Sequence:
#
# PCOD9430989 Si02
#       7
#     8   8   8   8   8   8   8
#     4  10  23  41  59  97 141 183 220 286 359 417
#     4  10  20  39  65 101 123 176 231 287 340 410
#     4  10  21  41  70  92 139 165 240 281 341 403
#     4  10  24  40  69 100 129 182 238 291 338 410
#     4  12  29  46  70 105 151 186 232 292 362 439
#     4  11  24  42  73  99 132 183 233 292 352 418
#     4  11  25  46  76 102 138 189 243 296 354 416
#
# _framework density 20.825009999999999
#
# number of rings (size 3 to 8) (size 9 to 14) (size 15 to 20)
#    0.000    1.429    1.429    3.429   12.000    4.000 
#    5.143    0.000    0.000    0.000    0.000    0.000 
#    0.000    0.000    0.000    0.000    0.000    0.000 
#
# Total GULP energy -312033.267854 kJ/mol
# GULP energy per Si atom -5572.022640 kJ/mol
# Density = 2.077761 g / cm^3
# Si number density = 20.825010 Si / 1000 Ang^3
#
#
#
# Elastic Constant Matrix: (Units=GPa)
#
#
# Indices 1 2 3 4 5 6 
#
# 1 48.4688 11.9634 -20.5072 0.0000 0.0000 0.0000
# 2 11.9634 133.3411 15.3490 0.0000 0.0000 0.0000
# 3 -20.5072 15.3490 40.9897 0.0000 0.0000 0.0000
# 4 0.0000 0.0000 0.0000 -3.3393 0.0000 0.0000
# 5 0.0000 0.0000 0.0000 0.0000 -61.2480 0.0000
# 6 0.0000 0.0000 0.0000 0.0000 0.0000 24.6700
#
#
#
# Elastic Compliance Matrix: (Units=1/GPa)
#
#
# Indices 1 2 3 4 5 6 
#
# 1 0.028421 -0.004375 0.015857 0.000000 0.000000 0.000000
# 2 -0.004375 0.008511 -0.005376 0.000000 0.000000 0.000000
# 3 0.015857 -0.005376 0.034343 0.000000 0.000000 0.000000
# 4 0.000000 0.000000 0.000000 -0.299462 0.000000 0.000000
# 5 0.000000 0.000000 0.000000 0.000000 -0.016327 0.000000
# 6 0.000000 0.000000 0.000000 0.000000 0.000000 0.040535
#
#
# Mechanical properties :
#
#
# Convention : Reuss Voigt Hill
#
# Bulk Modulus (GPa) = 11.97786 26.26776 19.12281
# Shear Modulus (GPa) = -26.54453 6.41618 -10.06418
#
# Velocity S-wave (km/s) = -3.57409 1.75718 -2.20073
# Velocity P-wave (km/s) = 3.35679 4.09364 1.65678
#
# Compressibility (1/GPa) = 0.08348737
#
# Stress axis : x y z
#
# Youngs Moduli (GPa) = 35.18515 117.49572 29.11806
#
# Poissons Ratio (x) = 0.51408 -0.46174
# Poissons Ratio (y) = 0.15395 0.15654
# Poissons Ratio (z) = -0.55795 0.63165
#
# Static dielectric constant tensor:
#      x y z
#    x 1.885880 0.000000 0.000000 
#    y 0.000000 1.730580 0.000000 
#    z 0.000000 0.000000 1.747880 
# 
# From -- ./inp_files/22887.got.cif
#   From: 2010.05.17/outbox.cif.g08.bks.cpg/sg56_12_cif.got.tgz:22887.got - 2010.06.03 13:42:01.
