data_PCOD9430948
_publ_section_title
;
Structure prediction by ZEFSAII (Michael W. Deem and Ramdas Pophale) SiO2 
 PCOD9430948
Probable space group: P C C N
;
_chemical_formula_sum "Si O2"
_cell_formula_units_Z 24
_cell_length_a 10.330233
_cell_length_b 9.822314
_cell_length_c 9.455324
_cell_angle_alpha 90.000000
_cell_angle_beta 90.000000
_cell_angle_gamma 90.000000
_cell_volume 959.401396
_symmetry_space_group_name_H-M "P C C N"
_symmetry_group_IT_number 56
_symmetry_cell_setting 'orthorhombic'
loop_
_space_group_symop_operation_xyz
x,y,z
1/2-x,1/2-y,z
1/2+x,-y,1/2-z
-x,1/2+y,1/2-z
-x,-y,-z
1/2+x,1/2+y,-z
1/2-x,y,1/2+z
x,1/2-y,1/2+z
loop_
_atom_site_type_symbol
_atom_site_label
_atom_site_fract_x
_atom_site_fract_y
_atom_site_fract_z
Si Si1 0.343092 0.863920 0.381995
Si Si2 0.017374 0.692963 0.653230
Si Si3 0.596440 0.537755 0.631036
O O1 0.250000 0.750000 0.448711
O O2 0.458085 0.854708 0.493798
O O3 0.383406 0.798829 0.232496
O O4 0.246149 0.990253 0.378752
O O5 0.032066 0.556254 0.745530
O O6 0.901293 0.800437 0.652663
O O7 0.500000 0.500000 0.500000
#
# Coordination Sequence:
#
# PCOD9430948 Si02
#       3
#     8   8   8
#     4  10  20  38  69  95 134 177 226 278 342 405
#     4  11  22  43  70 101 134 185 231 284 345 415
#     4  11  23  39  71 101 134 181 237 277 349 410
#
# _framework density 25.015599999999999
#
# number of rings (size 3 to 8) (size 9 to 14) (size 15 to 20)
#    0.000    1.333    6.667    3.000    0.000    1.333 
#    0.000    1.667    0.000    0.000    0.000    0.000 
#    0.000    0.000    0.000    0.000    0.000    0.000 
#
# Total GULP energy -133672.422786 kJ/mol
# GULP energy per Si atom -5569.684283 kJ/mol
# Density = 2.495866 g / cm^3
# Si number density = 25.015600 Si / 1000 Ang^3
#
#
#
# Elastic Constant Matrix: (Units=GPa)
#
#
# Indices 1 2 3 4 5 6 
#
# 1 65.2213 58.7814 34.5642 0.0000 0.0000 0.0000
# 2 58.7814 188.7750 25.2494 0.0000 0.0000 0.0000
# 3 34.5642 25.2494 118.5889 0.0000 0.0000 0.0000
# 4 0.0000 0.0000 0.0000 18.9450 0.0000 0.0000
# 5 0.0000 0.0000 0.0000 0.0000 15.6110 0.0000
# 6 0.0000 0.0000 0.0000 0.0000 0.0000 47.6881
#
#
#
# Elastic Compliance Matrix: (Units=1/GPa)
#
#
# Indices 1 2 3 4 5 6 
#
# 1 0.024552 -0.006884 -0.005690 0.000000 0.000000 0.000000
# 2 -0.006884 0.007383 0.000435 0.000000 0.000000 0.000000
# 3 -0.005690 0.000435 0.009999 0.000000 0.000000 0.000000
# 4 0.000000 0.000000 0.000000 0.052784 0.000000 0.000000
# 5 0.000000 0.000000 0.000000 0.000000 0.064057 0.000000
# 6 0.000000 0.000000 0.000000 0.000000 0.000000 0.020970
#
#
# Mechanical properties :
#
#
# Convention : Reuss Voigt Hill
#
# Bulk Modulus (GPa) = 56.64489 67.75279 62.19884
# Shear Modulus (GPa) = 23.81978 33.38151 28.60065
#
# Velocity S-wave (km/s) = 3.08912 3.65694 3.38496
# Velocity P-wave (km/s) = 5.95118 6.70627 6.33997
#
# Compressibility (1/GPa) = 0.01765384
#
# Stress axis : x y z
#
# Youngs Moduli (GPa) = 40.72913 135.45019 100.01493
#
# Poissons Ratio (x) = 0.93245 0.56912
# Poissons Ratio (y) = 0.28038 -0.04346
# Poissons Ratio (z) = 0.23176 -0.05886
#
# Static dielectric constant tensor:
#      x y z
#    x 2.275700 0.000000 0.000000 
#    y 0.000000 2.076450 0.000000 
#    z 0.000000 0.000000 1.935800 
# 
# From -- ./inp_files/1770.got.cif
#   From: 2010.05.17/outbox.cif.g08.bks.cpg/sg56_1_cif.got.tgz:1770.got - 2010.06.03 13:42:01.
