data_PCOD9430727
_publ_section_title
;
Structure prediction by ZEFSAII (Michael W. Deem and Ramdas Pophale) SiO2 
 PCOD9430727
Probable space group: P C C N
;
_chemical_formula_sum "Si O2"
_cell_formula_units_Z 60
_cell_length_a 8.368611
_cell_length_b 12.907118
_cell_length_c 24.939964
_cell_angle_alpha 90.000000
_cell_angle_beta 90.000000
_cell_angle_gamma 90.000000
_cell_volume 2693.881474
_symmetry_space_group_name_H-M "P C C N"
_symmetry_group_IT_number 56
_symmetry_cell_setting 'orthorhombic'
loop_
_space_group_symop_operation_xyz
x,y,z
1/2-x,1/2-y,z
1/2+x,-y,1/2-z
-x,1/2+y,1/2-z
-x,-y,-z
1/2+x,1/2+y,-z
1/2-x,y,1/2+z
x,1/2-y,1/2+z
loop_
_atom_site_type_symbol
_atom_site_label
_atom_site_fract_x
_atom_site_fract_y
_atom_site_fract_z
Si Si1 0.841986 0.472119 0.532418
Si Si2 0.659263 0.585184 0.205896
Si Si3 0.796422 0.855687 0.814351
Si Si4 0.150780 0.851807 0.766028
Si Si5 0.807089 0.087611 0.842275
Si Si6 0.864410 0.388384 0.946846
Si Si7 0.250000 0.750000 0.970369
Si Si8 0.199221 0.363057 0.897111
O O1 0.701859 0.476334 0.487021
O O2 0.822283 0.354069 0.555156
O O3 0.820526 0.552627 0.579578
O O4 0.000000 0.500000 0.500000
O O5 0.672704 0.628985 0.265392
O O6 0.702540 0.463209 0.209717
O O7 0.483562 0.605547 0.181793
O O8 0.786411 0.636047 0.166584
O O9 0.750000 0.750000 0.843898
O O10 0.968979 0.844751 0.786004
O O11 0.790965 0.962743 0.846416
O O12 0.250000 0.750000 0.782666
O O13 0.184605 0.867891 0.702373
O O14 0.768178 0.130313 0.900852
O O15 0.027782 0.401272 0.916176
O O16 0.882361 0.293691 0.988381
O O17 0.250000 0.250000 0.916797
#
# Coordination Sequence:
#
# PCOD9430727 Si02
#       8
#     8   8   8   8   8   8   4   8
#     4  10  21  41  63  89 120 153 195 241 298 356
#     4  10  22  37  55  86 113 152 197 241 290 349
#     4  10  20  37  55  81 115 152 193 240 291 344
#     4  10  21  35  56  82 113 155 193 239 294 347
#     4  10  21  36  60  81 115 152 194 241 289 349
#     4  10  22  39  60  91 116 153 195 240 295 349
#     4   8  22  38  66  84 120 152 194 234 298 352
#     4  12  24  38  63  90 120 152 197 249 294 352
#
# _framework density 22.272697000000001
#
# number of rings (size 3 to 8) (size 9 to 14) (size 15 to 20)
#    0.800    1.067    0.000    4.000    2.800    3.200 
#    1.200    0.667    0.000    0.000    0.000    0.000 
#    0.000    0.000    0.000    0.000    0.000    0.000 
#
# Total GULP energy -334674.430952 kJ/mol
# GULP energy per Si atom -5577.907183 kJ/mol
# Density = 2.222200 g / cm^3
# Si number density = 22.272697 Si / 1000 Ang^3
#
#
#
# Elastic Constant Matrix: (Units=GPa)
#
#
# Indices 1 2 3 4 5 6 
#
# 1 48.0314 13.3055 -6.3115 0.0000 0.0000 0.0000
# 2 13.3055 146.3216 4.5790 0.0000 0.0000 0.0000
# 3 -6.3115 4.5790 32.6015 0.0000 0.0000 0.0000
# 4 0.0000 0.0000 0.0000 12.3232 0.0000 0.0000
# 5 0.0000 0.0000 0.0000 0.0000 15.0397 0.0000
# 6 0.0000 0.0000 0.0000 0.0000 0.0000 28.7782
#
#
#
# Elastic Compliance Matrix: (Units=1/GPa)
#
#
# Indices 1 2 3 4 5 6 
#
# 1 0.022013 -0.002145 0.004563 0.000000 0.000000 0.000000
# 2 -0.002145 0.007073 -0.001409 0.000000 0.000000 0.000000
# 3 0.004563 -0.001409 0.031755 0.000000 0.000000 0.000000
# 4 0.000000 0.000000 0.000000 0.081148 0.000000 0.000000
# 5 0.000000 0.000000 0.000000 0.000000 0.066490 0.000000
# 6 0.000000 0.000000 0.000000 0.000000 0.000000 0.034749
#
#
# Mechanical properties :
#
#
# Convention : Reuss Voigt Hill
#
# Bulk Modulus (GPa) = 15.90818 27.78894 21.84856
# Shear Modulus (GPa) = 19.07215 25.58699 22.32957
#
# Velocity S-wave (km/s) = 2.92944 3.39308 3.16975
# Velocity P-wave (km/s) = 4.31278 5.27773 4.81947
#
# Compressibility (1/GPa) = 0.06286073
#
# Stress axis : x y z
#
# Youngs Moduli (GPa) = 45.42691 141.37565 31.49151
#
# Poissons Ratio (x) = 0.30319 -0.14369
# Poissons Ratio (y) = 0.09742 0.04436
# Poissons Ratio (z) = -0.20728 0.19915
#
# Static dielectric constant tensor:
#      x y z
#    x 1.834430 0.000000 0.000000 
#    y 0.000000 2.255370 0.000000 
#    z 0.000000 0.000000 1.814070 
# 
# From -- ./inp_files/20641.got.cif
#   From: 2010.05.17/outbox.cif.g08.bks.cpg/sg56_11_cif.got.tgz:20641.got - 2010.06.03 13:42:01.
