data_PCOD9430029
_publ_section_title
;
Structure prediction by ZEFSAII (Michael W. Deem and Ramdas Pophale) SiO2 
 PCOD9430029
Probable space group: P C C N
;
_chemical_formula_sum "Si O2"
_cell_formula_units_Z 44
_cell_length_a 5.203783
_cell_length_b 18.314861
_cell_length_c 22.555637
_cell_angle_alpha 90.000000
_cell_angle_beta 90.000000
_cell_angle_gamma 90.000000
_cell_volume 2149.700223
_symmetry_space_group_name_H-M "P C C N"
_symmetry_group_IT_number 56
_symmetry_cell_setting 'orthorhombic'
loop_
_space_group_symop_operation_xyz
x,y,z
1/2-x,1/2-y,z
1/2+x,-y,1/2-z
-x,1/2+y,1/2-z
-x,-y,-z
1/2+x,1/2+y,-z
1/2-x,y,1/2+z
x,1/2-y,1/2+z
loop_
_atom_site_type_symbol
_atom_site_label
_atom_site_fract_x
_atom_site_fract_y
_atom_site_fract_z
Si Si1 0.975159 0.971660 0.906682
Si Si2 0.762967 0.476696 0.781654
Si Si3 0.750000 0.750000 0.081637
Si Si4 0.604395 0.368184 0.948778
Si Si5 0.478497 0.925417 0.962038
Si Si6 0.861933 0.323789 0.829679
O O1 0.762298 0.917931 0.935479
O O2 0.260032 0.938873 0.911836
O O3 0.858724 0.992929 0.842983
O O4 0.988982 0.048336 0.943393
O O5 0.513894 0.478173 0.738859
O O6 0.876349 0.394644 0.789232
O O7 0.589604 0.696744 0.039095
O O8 0.600521 0.802053 0.128688
O O9 0.668420 0.347921 0.881228
O O10 0.849101 0.369151 0.992094
O O11 0.500000 0.000000 0.000000
O O12 0.750000 0.250000 0.800847
#
# Coordination Sequence:
#
# PCOD9430029 Si02
#       6
#     8   8   4   8   8   8
#     4  10  21  34  55  81 120 147 189 240 295 348
#     4  11  24  39  62  89 119 152 207 267 311 344
#     4  10  20  32  56  80 120 152 192 240 306 366
#     4   9  19  30  52  82 116 145 186 225 289 363
#     4  10  19  32  54  83 114 154 179 219 283 361
#     4   9  21  36  56  87 119 153 191 249 312 370
#
# _framework density 20.467973000000001
#
# number of rings (size 3 to 8) (size 9 to 14) (size 15 to 20)
#    0.000    2.182    0.000    3.273   17.818    0.000 
#    0.000    0.000    0.000    0.000    9.455    0.000 
#    0.000    0.000    0.000    0.000    0.000    0.000 
#
# Total GULP energy -244989.936105 kJ/mol
# GULP energy per Si atom -5567.953093 kJ/mol
# Density = 2.042139 g / cm^3
# Si number density = 20.467973 Si / 1000 Ang^3
#
#
#
# Elastic Constant Matrix: (Units=GPa)
#
#
# Indices 1 2 3 4 5 6 
#
# 1 118.5880 43.2335 22.9899 0.0000 0.0000 0.0000
# 2 43.2335 83.3108 35.0948 0.0000 0.0000 0.0000
# 3 22.9899 35.0948 56.2689 0.0000 0.0000 0.0000
# 4 0.0000 0.0000 0.0000 20.0139 0.0000 0.0000
# 5 0.0000 0.0000 0.0000 0.0000 31.6386 0.0000
# 6 0.0000 0.0000 0.0000 0.0000 0.0000 32.6889
#
#
#
# Elastic Compliance Matrix: (Units=1/GPa)
#
#
# Indices 1 2 3 4 5 6 
#
# 1 0.010460 -0.004921 -0.001205 0.000000 0.000000 0.000000
# 2 -0.004921 0.018596 -0.009588 0.000000 0.000000 0.000000
# 3 -0.001205 -0.009588 0.024244 0.000000 0.000000 0.000000
# 4 0.000000 0.000000 0.000000 0.049965 0.000000 0.000000
# 5 0.000000 0.000000 0.000000 0.000000 0.031607 0.000000
# 6 0.000000 0.000000 0.000000 0.000000 0.000000 0.030591
#
#
# Mechanical properties :
#
#
# Convention : Reuss Voigt Hill
#
# Bulk Modulus (GPa) = 45.71735 51.20045 48.45890
# Shear Modulus (GPa) = 24.48820 27.32491 25.90655
#
# Velocity S-wave (km/s) = 3.46268 3.65774 3.56154
# Velocity P-wave (km/s) = 6.19446 6.55042 6.37492
#
# Compressibility (1/GPa) = 0.02187353
#
# Stress axis : x y z
#
# Youngs Moduli (GPa) = 95.60209 53.77629 41.24772
#
# Poissons Ratio (x) = 0.26462 0.04969
# Poissons Ratio (y) = 0.47043 0.39547
# Poissons Ratio (z) = 0.11517 0.51558
#
# Static dielectric constant tensor:
#      x y z
#    x 1.853420 0.000000 0.000000 
#    y 0.000000 1.823800 0.000000 
#    z 0.000000 0.000000 1.772220 
# 
# From -- ./inp_files/20033.got.cif
#   From: 2010.05.17/outbox.cif.g08.bks.cpg/sg56_11_cif.got.tgz:20033.got - 2010.06.03 13:42:01.
