data_PCOD9430627
_publ_section_title
;
Structure prediction by ZEFSAII (Michael W. Deem and Ramdas Pophale) SiO2 
 PCOD9430627
Probable space group: P C C N
;
_chemical_formula_sum "Si O2"
_cell_formula_units_Z 36
_cell_length_a 20.653056
_cell_length_b 5.562589
_cell_length_c 13.298622
_cell_angle_alpha 90.000000
_cell_angle_beta 90.000000
_cell_angle_gamma 90.000000
_cell_volume 1527.805035
_symmetry_space_group_name_H-M "P C C N"
_symmetry_group_IT_number 56
_symmetry_cell_setting 'orthorhombic'
loop_
_space_group_symop_operation_xyz
x,y,z
1/2-x,1/2-y,z
1/2+x,-y,1/2-z
-x,1/2+y,1/2-z
-x,-y,-z
1/2+x,1/2+y,-z
1/2-x,y,1/2+z
x,1/2-y,1/2+z
loop_
_atom_site_type_symbol
_atom_site_label
_atom_site_fract_x
_atom_site_fract_y
_atom_site_fract_z
Si Si1 0.133182 0.570808 0.087510
Si Si2 0.750000 0.250000 0.285822
Si Si3 0.286294 0.995837 0.905803
Si Si4 0.478874 0.623863 0.117863
Si Si5 0.498600 0.120839 0.145356
O O1 0.198593 0.600230 0.150248
O O2 0.151432 0.491468 0.975874
O O3 0.094259 0.823574 0.084242
O O4 0.080036 0.403015 0.142209
O O5 0.709315 0.073541 0.211614
O O6 0.250000 0.750000 0.943733
O O7 0.250000 0.250000 0.915770
O O8 0.512442 0.373366 0.092799
O O9 0.476470 0.623296 0.240843
O O10 0.517810 0.869009 0.095244
#
# Coordination Sequence:
#
# PCOD9430627 Si02
#       5
#     8   4   8   8   8
#     4  10  20  35  65  80 116 154 189 236 292 338
#     4  10  22  40  54  90 116 156 192 240 280 352
#     4  10  24  39  53  83 119 151 193 233 283 343
#     4   8  16  30  49  85 104 138 186 230 276 334
#     4   8  16  28  52  81 108 136 187 229 275 338
#
# _framework density 23.563215
#
# number of rings (size 3 to 8) (size 9 to 14) (size 15 to 20)
#    2.000    0.889    1.111    0.000    3.111    2.667 
#    0.000    0.000    0.000    2.667    0.000    0.000 
#    0.000    0.000    0.000    0.000    0.000    0.000 
#
# Total GULP energy -200420.660658 kJ/mol
# GULP energy per Si atom -5567.240574 kJ/mol
# Density = 2.350958 g / cm^3
# Si number density = 23.563215 Si / 1000 Ang^3
#
#
#
# Elastic Constant Matrix: (Units=GPa)
#
#
# Indices 1 2 3 4 5 6 
#
# 1 83.2923 -4.0832 50.6821 0.0000 0.0000 0.0000
# 2 -4.0832 169.9936 15.5193 0.0000 0.0000 0.0000
# 3 50.6821 15.5193 95.0079 0.0000 0.0000 0.0000
# 4 0.0000 0.0000 0.0000 22.8883 0.0000 0.0000
# 5 0.0000 0.0000 0.0000 0.0000 17.8967 0.0000
# 6 0.0000 0.0000 0.0000 0.0000 0.0000 31.1479
#
#
#
# Elastic Compliance Matrix: (Units=1/GPa)
#
#
# Indices 1 2 3 4 5 6 
#
# 1 0.018069 0.001334 -0.009857 0.000000 0.000000 0.000000
# 2 0.001334 0.006070 -0.001703 0.000000 0.000000 0.000000
# 3 -0.009857 -0.001703 0.016062 0.000000 0.000000 0.000000
# 4 0.000000 0.000000 0.000000 0.043690 0.000000 0.000000
# 5 0.000000 0.000000 0.000000 0.000000 0.055876 0.000000
# 6 0.000000 0.000000 0.000000 0.000000 0.000000 0.032105
#
#
# Mechanical properties :
#
#
# Convention : Reuss Voigt Hill
#
# Bulk Modulus (GPa) = 50.63596 52.50335 51.56965
# Shear Modulus (GPa) = 25.13727 33.46493 29.30110
#
# Velocity S-wave (km/s) = 3.26974 3.77267 3.53017
# Velocity P-wave (km/s) = 5.98255 6.42710 6.20881
#
# Compressibility (1/GPa) = 0.01974881
#
# Stress axis : x y z
#
# Youngs Moduli (GPa) = 55.34319 164.74207 62.25951
#
# Poissons Ratio (x) = -0.21975 0.61368
# Poissons Ratio (y) = -0.07382 0.10603
# Poissons Ratio (z) = 0.54551 0.28057
#
# Static dielectric constant tensor:
#      x y z
#    x 1.842830 0.000000 0.000000 
#    y 0.000000 2.002790 0.000000 
#    z 0.000000 0.000000 1.960470 
# 
# From -- ./inp_files/9591.got.cif
#   From: 2010.05.17/outbox.cif.g08.bks.cpg/sg56_5_cif.got.tgz:9591.got - 2010.06.03 13:42:01.
