data_PCOD9430998
_publ_section_title
;
Structure prediction by ZEFSAII (Michael W. Deem and Ramdas Pophale) SiO2 
 PCOD9430998
Probable space group: P C C N
;
_chemical_formula_sum "Si O2"
_cell_formula_units_Z 56
_cell_length_a 12.489489
_cell_length_b 14.386384
_cell_length_c 15.854817
_cell_angle_alpha 90.000000
_cell_angle_beta 90.000000
_cell_angle_gamma 90.000000
_cell_volume 2848.771080
_symmetry_space_group_name_H-M "P C C N"
_symmetry_group_IT_number 56
_symmetry_cell_setting 'orthorhombic'
loop_
_space_group_symop_operation_xyz
x,y,z
1/2-x,1/2-y,z
1/2+x,-y,1/2-z
-x,1/2+y,1/2-z
-x,-y,-z
1/2+x,1/2+y,-z
1/2-x,y,1/2+z
x,1/2-y,1/2+z
loop_
_atom_site_type_symbol
_atom_site_label
_atom_site_fract_x
_atom_site_fract_y
_atom_site_fract_z
Si Si1 0.487893 0.912822 0.252071
Si Si2 0.991672 0.846794 0.023027
Si Si3 0.975084 0.575438 0.873918
Si Si4 0.127836 0.511775 0.407955
Si Si5 0.854957 0.290112 0.875288
Si Si6 0.838021 0.046972 0.495042
Si Si7 0.123315 0.271025 0.639790
O O1 0.396484 0.946101 0.317121
O O2 0.433490 0.842544 0.187428
O O3 0.580961 0.857105 0.302341
O O4 0.516499 0.004340 0.197731
O O5 0.070680 0.780036 0.073031
O O6 0.921918 0.909591 0.085587
O O7 0.914582 0.796099 0.955522
O O8 0.063230 0.919238 0.970001
O O9 0.939985 0.675403 0.839365
O O10 0.064792 0.580293 0.946099
O O11 0.876574 0.528172 0.925672
O O12 0.246854 0.510073 0.443608
O O13 0.750000 0.250000 0.830128
O O14 0.805147 0.363477 0.941509
O O15 0.250000 0.250000 0.645826
#
# Coordination Sequence:
#
# PCOD9430998 Si02
#       7
#     8   8   8   8   8   8   8
#     4  10  26  41  57  98 133 165 214 267 337 386
#     4  10  21  39  66  90 119 163 223 266 308 393
#     4  10  22  40  62  92 132 166 212 272 316 396
#     4  10  21  40  62  92 122 163 216 269 320 386
#     4  11  21  41  65  94 126 167 215 271 326 390
#     4  10  20  39  66  88 123 168 214 262 328 384
#     4  11  23  43  67  93 131 175 218 272 328 391
#
# _framework density 19.657599999999999
#
# number of rings (size 3 to 8) (size 9 to 14) (size 15 to 20)
#    0.000    1.714    2.857    0.857    2.000    2.286 
#    0.000    0.000    0.000    0.000    0.000    0.000 
#    0.000    0.000    0.000    0.000    0.000    0.000 
#
# Total GULP energy -312397.732756 kJ/mol
# GULP energy per Si atom -5578.530942 kJ/mol
# Density = 1.961286 g / cm^3
# Si number density = 19.657600 Si / 1000 Ang^3
#
#
#
# Elastic Constant Matrix: (Units=GPa)
#
#
# Indices 1 2 3 4 5 6 
#
# 1 60.1805 13.5478 14.4791 0.0000 0.0000 0.0000
# 2 13.5478 80.4698 30.0592 0.0000 0.0000 0.0000
# 3 14.4791 30.0592 68.2273 0.0000 0.0000 0.0000
# 4 0.0000 0.0000 0.0000 24.2446 0.0000 0.0000
# 5 0.0000 0.0000 0.0000 0.0000 6.6591 0.0000
# 6 0.0000 0.0000 0.0000 0.0000 0.0000 7.8492
#
#
#
# Elastic Compliance Matrix: (Units=1/GPa)
#
#
# Indices 1 2 3 4 5 6 
#
# 1 0.017748 -0.001893 -0.002933 0.000000 0.000000 0.000000
# 2 -0.001893 0.015077 -0.006241 0.000000 0.000000 0.000000
# 3 -0.002933 -0.006241 0.018029 0.000000 0.000000 0.000000
# 4 0.000000 0.000000 0.000000 0.041246 0.000000 0.000000
# 5 0.000000 0.000000 0.000000 0.000000 0.150170 0.000000
# 6 0.000000 0.000000 0.000000 0.000000 0.000000 0.127402
#
#
# Mechanical properties :
#
#
# Convention : Reuss Voigt Hill
#
# Bulk Modulus (GPa) = 34.81680 36.11664 35.46672
# Shear Modulus (GPa) = 12.45709 17.80335 15.13022
#
# Velocity S-wave (km/s) = 2.52008 3.01270 2.77734
# Velocity P-wave (km/s) = 5.12033 5.52400 5.32599
#
# Compressibility (1/GPa) = 0.02872177
#
# Stress axis : x y z
#
# Youngs Moduli (GPa) = 56.34333 66.32661 55.46675
#
# Poissons Ratio (x) = 0.12553 0.16267
# Poissons Ratio (y) = 0.10663 0.34616
# Poissons Ratio (z) = 0.16524 0.41393
#
# Static dielectric constant tensor:
#      x y z
#    x 1.676460 0.000000 0.000000 
#    y 0.000000 1.708530 0.000000 
#    z 0.000000 0.000000 1.674610 
# 
# From -- ./inp_files/11670.got.cif
#   From: 2010.05.17/outbox.cif.g08.bks.cpg/sg56_6_cif.got.tgz:11670.got - 2010.06.03 13:42:01.
