data_PCOD9430018
_publ_section_title
;
Structure prediction by ZEFSAII (Michael W. Deem and Ramdas Pophale) SiO2 
 PCOD9430018
Probable space group: P C C N
;
_chemical_formula_sum "Si O2"
_cell_formula_units_Z 48
_cell_length_a 13.554295
_cell_length_b 5.225437
_cell_length_c 25.300869
_cell_angle_alpha 90.000000
_cell_angle_beta 90.000000
_cell_angle_gamma 90.000000
_cell_volume 1791.987548
_symmetry_space_group_name_H-M "P C C N"
_symmetry_group_IT_number 56
_symmetry_cell_setting 'orthorhombic'
loop_
_space_group_symop_operation_xyz
x,y,z
1/2-x,1/2-y,z
1/2+x,-y,1/2-z
-x,1/2+y,1/2-z
-x,-y,-z
1/2+x,1/2+y,-z
1/2-x,y,1/2+z
x,1/2-y,1/2+z
loop_
_atom_site_type_symbol
_atom_site_label
_atom_site_fract_x
_atom_site_fract_y
_atom_site_fract_z
Si Si1 0.632164 0.801969 0.967936
Si Si2 0.872321 0.586323 0.736371
Si Si3 0.133597 0.330366 0.912451
Si Si4 0.133304 0.695005 0.583544
Si Si5 0.851761 0.332746 0.628823
Si Si6 0.896284 0.091886 0.796329
O O1 0.750000 0.750000 0.961740
O O2 0.595680 0.515271 0.957870
O O3 0.593018 0.019944 0.928190
O O4 0.616552 0.902473 0.027226
O O5 0.823415 0.467468 0.683897
O O6 0.850604 0.863475 0.760875
O O7 0.987658 0.585839 0.718495
O O8 0.858697 0.371024 0.780338
O O9 0.250000 0.250000 0.906846
O O10 0.101688 0.549925 0.870883
O O11 0.087984 0.052909 0.900015
O O12 0.250000 0.750000 0.576487
O O13 0.120404 0.573661 0.641484
O O14 0.750000 0.250000 0.599760
#
# Coordination Sequence:
#
# PCOD9430018 Si02
#       6
#     8   8   8   8   8   8
#     4   9  17  30  50  76 105 135 167 206 257 316
#     4  10  21  37  55  74 101 141 181 215 262 322
#     4   9  17  30  50  76 105 135 167 206 257 316
#     4  10  19  32  52  78 103 131 171 217 261 302
#     4  10  19  32  52  78 103 131 171 217 261 302
#     4  10  21  37  55  74 101 141 181 215 262 322
#
# _framework density 26.785902
#
# number of rings (size 3 to 8) (size 9 to 14) (size 15 to 20)
#    0.000    2.333    0.000    3.000    0.000    4.667 
#    0.000    1.667    0.000    6.000    0.000    0.000 
#    0.000    0.000    0.000    0.000    0.000    0.000 
#
# Total GULP energy -268243.205359 kJ/mol
# GULP energy per Si atom -5588.400112 kJ/mol
# Density = 2.672494 g / cm^3
# Si number density = 26.785902 Si / 1000 Ang^3
#
#
#
# Elastic Constant Matrix: (Units=GPa)
#
#
# Indices 1 2 3 4 5 6 
#
# 1 74.8536 13.2863 -4.9676 0.0000 0.0000 0.0000
# 2 13.2863 234.7433 69.1444 0.0000 0.0000 0.0000
# 3 -4.9676 69.1444 128.2526 0.0000 0.0000 0.0000
# 4 0.0000 0.0000 0.0000 47.9971 0.0000 0.0000
# 5 0.0000 0.0000 0.0000 0.0000 31.4872 0.0000
# 6 0.0000 0.0000 0.0000 0.0000 0.0000 2.2736
#
#
#
# Elastic Compliance Matrix: (Units=1/GPa)
#
#
# Indices 1 2 3 4 5 6 
#
# 1 0.013629 -0.001102 0.001122 0.000000 0.000000 0.000000
# 2 -0.001102 0.005153 -0.002821 0.000000 0.000000 0.000000
# 3 0.001122 -0.002821 0.009361 0.000000 0.000000 0.000000
# 4 0.000000 0.000000 0.000000 0.020835 0.000000 0.000000
# 5 0.000000 0.000000 0.000000 0.000000 0.031759 0.000000
# 6 0.000000 0.000000 0.000000 0.000000 0.000000 0.439824
#
#
# Mechanical properties :
#
#
# Convention : Reuss Voigt Hill
#
# Bulk Modulus (GPa) = 44.36085 65.86395 55.11240
# Shear Modulus (GPa) = 9.36895 40.37735 24.87315
#
# Velocity S-wave (km/s) = 1.87225 3.88675 3.05059
# Velocity P-wave (km/s) = 4.61205 6.69215 5.74699
#
# Compressibility (1/GPa) = 0.02254240
#
# Stress axis : x y z
#
# Youngs Moduli (GPa) = 73.37051 194.05217 106.82149
#
# Poissons Ratio (x) = 0.21382 -0.11985
# Poissons Ratio (y) = 0.08085 0.30134
# Poissons Ratio (z) = -0.08232 0.54741
#
# Static dielectric constant tensor:
#      x y z
#    x 2.253870 0.000000 0.000000 
#    y 0.000000 2.182990 0.000000 
#    z 0.000000 0.000000 2.002220 
# 
# From -- ./inp_files/19437.got.cif
#   From: 2010.05.17/outbox.cif.g08.bks.cpg/sg56_10_cif.got.tgz:19437.got - 2010.06.03 13:42:01.
