data_PCOD9430182
_publ_section_title
;
Structure prediction by ZEFSAII (Michael W. Deem and Ramdas Pophale) SiO2 
 PCOD9430182
Probable space group: P C C N
;
_chemical_formula_sum "Si O2"
_cell_formula_units_Z 48
_cell_length_a 8.531753
_cell_length_b 13.125735
_cell_length_c 15.770212
_cell_angle_alpha 90.000000
_cell_angle_beta 90.000000
_cell_angle_gamma 90.000000
_cell_volume 1766.035533
_symmetry_space_group_name_H-M "P C C N"
_symmetry_group_IT_number 56
_symmetry_cell_setting 'orthorhombic'
loop_
_space_group_symop_operation_xyz
x,y,z
1/2-x,1/2-y,z
1/2+x,-y,1/2-z
-x,1/2+y,1/2-z
-x,-y,-z
1/2+x,1/2+y,-z
1/2-x,y,1/2+z
x,1/2-y,1/2+z
loop_
_atom_site_type_symbol
_atom_site_label
_atom_site_fract_x
_atom_site_fract_y
_atom_site_fract_z
Si Si1 0.118384 0.852823 0.079889
Si Si2 0.946427 0.849103 0.523003
Si Si3 0.679684 0.563158 0.103997
Si Si4 0.708741 0.638106 0.770247
Si Si5 0.611569 0.432315 0.320409
Si Si6 0.301311 0.647374 0.400014
O O1 0.239518 0.859138 0.157432
O O2 0.004473 0.755472 0.067994
O O3 0.002463 0.947392 0.088289
O O4 0.210054 0.856487 0.991014
O O5 0.769225 0.887644 0.524198
O O6 0.023416 0.930619 0.587967
O O7 0.021985 0.844731 0.431046
O O8 0.710375 0.642503 0.178068
O O9 0.752306 0.458195 0.139148
O O10 0.750000 0.750000 0.809011
O O11 0.524639 0.607348 0.746151
O O12 0.805960 0.541950 0.807799
O O13 0.250000 0.750000 0.354716
#
# Coordination Sequence:
#
# PCOD9430182 Si02
#       6
#     8   8   8   8   8   8
#     4  10  19  35  59  84 112 151 192 237 290 348
#     4   9  19  35  58  82 111 149 192 241 291 346
#     4  11  19  33  55  83 113 149 196 238 288 348
#     4  11  24  40  61  88 117 152 196 242 291 354
#     4  10  21  39  60  84 113 150 190 238 291 344
#     4   9  19  34  52  79 114 151 191 236 289 346
#
# _framework density 27.17952
#
# number of rings (size 3 to 8) (size 9 to 14) (size 15 to 20)
#    0.000    2.000    0.000    6.000    0.000    1.333 
#    0.000    8.333    0.000   12.000    0.000    0.000 
#    0.000    0.000    0.000    0.000    0.000    0.000 
#
# Total GULP energy -267790.936208 kJ/mol
# GULP energy per Si atom -5578.977838 kJ/mol
# Density = 2.711766 g / cm^3
# Si number density = 27.179520 Si / 1000 Ang^3
#
#
#
# Elastic Constant Matrix: (Units=GPa)
#
#
# Indices 1 2 3 4 5 6 
#
# 1 171.9424 52.6223 29.1055 0.0000 0.0000 0.0000
# 2 52.6223 172.4286 30.7373 0.0000 0.0000 0.0000
# 3 29.1055 30.7373 45.8989 0.0000 0.0000 0.0000
# 4 0.0000 0.0000 0.0000 36.3250 0.0000 0.0000
# 5 0.0000 0.0000 0.0000 0.0000 24.7968 0.0000
# 6 0.0000 0.0000 0.0000 0.0000 0.0000 41.4177
#
#
#
# Elastic Compliance Matrix: (Units=1/GPa)
#
#
# Indices 1 2 3 4 5 6 
#
# 1 0.006837 -0.001492 -0.003337 0.000000 0.000000 0.000000
# 2 -0.001492 0.006911 -0.003682 0.000000 0.000000 0.000000
# 3 -0.003337 -0.003682 0.026369 0.000000 0.000000 0.000000
# 4 0.000000 0.000000 0.000000 0.027529 0.000000 0.000000
# 5 0.000000 0.000000 0.000000 0.000000 0.040328 0.000000
# 6 0.000000 0.000000 0.000000 0.000000 0.000000 0.024144
#
#
# Mechanical properties :
#
#
# Convention : Reuss Voigt Hill
#
# Bulk Modulus (GPa) = 43.29792 68.35557 55.82674
# Shear Modulus (GPa) = 31.87993 39.02821 35.45407
#
# Velocity S-wave (km/s) = 3.42854 3.79349 3.61562
# Velocity P-wave (km/s) = 5.62477 6.66271 6.16562
#
# Compressibility (1/GPa) = 0.02309580
#
# Stress axis : x y z
#
# Youngs Moduli (GPa) = 146.25713 144.69295 37.92371
#
# Poissons Ratio (x) = 0.21586 0.12654
# Poissons Ratio (y) = 0.21819 0.13964
# Poissons Ratio (z) = 0.48800 0.53279
#
# Static dielectric constant tensor:
#      x y z
#    x 2.254540 0.000000 0.000000 
#    y 0.000000 2.277250 0.000000 
#    z 0.000000 0.000000 2.078520 
# 
# From -- ./inp_files/20489.got.cif
#   From: 2010.05.17/outbox.cif.g08.bks.cpg/sg56_11_cif.got.tgz:20489.got - 2010.06.03 13:42:01.
