data_PCOD9430490
_publ_section_title
;
Structure prediction by ZEFSAII (Michael W. Deem and Ramdas Pophale) SiO2 
 PCOD9430490
Probable space group: P C C N
;
_chemical_formula_sum "Si O2"
_cell_formula_units_Z 36
_cell_length_a 16.023044
_cell_length_b 5.676957
_cell_length_c 20.621819
_cell_angle_alpha 90.000000
_cell_angle_beta 90.000000
_cell_angle_gamma 90.000000
_cell_volume 1875.804618
_symmetry_space_group_name_H-M "P C C N"
_symmetry_group_IT_number 56
_symmetry_cell_setting 'orthorhombic'
loop_
_space_group_symop_operation_xyz
x,y,z
1/2-x,1/2-y,z
1/2+x,-y,1/2-z
-x,1/2+y,1/2-z
-x,-y,-z
1/2+x,1/2+y,-z
1/2-x,y,1/2+z
x,1/2-y,1/2+z
loop_
_atom_site_type_symbol
_atom_site_label
_atom_site_fract_x
_atom_site_fract_y
_atom_site_fract_z
Si Si1 0.598331 0.494944 0.777402
Si Si2 0.750000 0.750000 0.332795
Si Si3 0.470628 0.795543 0.849813
Si Si4 0.632543 0.109930 0.882346
Si Si5 0.050067 0.752122 0.991644
O O1 0.671505 0.682324 0.788483
O O2 0.511525 0.577387 0.810767
O O3 0.581637 0.436779 0.703148
O O4 0.628994 0.276797 0.820076
O O5 0.716327 0.541325 0.378184
O O6 0.422737 0.741542 0.916305
O O7 0.552642 0.939513 0.872113
O O8 0.617065 0.241189 0.950275
O O9 0.000000 0.500000 0.000000
O O10 0.000000 0.000000 0.000000
#
# Coordination Sequence:
#
# PCOD9430490 Si02
#       5
#     8   4   8   8   8
#     4  11  19  36  58  88 120 160 208 258 312 379
#     4  10  24  36  56  84 124 170 208 252 322 386
#     4  10  20  33  61  92 116 154 208 261 312 358
#     4  10  20  37  58  84 120 161 206 256 314 378
#     4  10  20  36  60  92 121 152 200 262 314 364
#
# _framework density 19.191766000000001
#
# number of rings (size 3 to 8) (size 9 to 14) (size 15 to 20)
#    0.000    1.778    4.444    0.667    0.000    0.000 
#    0.000    1.111    0.000    5.333    0.000    0.000 
#    0.000    0.000    0.000    0.000    0.000    0.000 
#
# Total GULP energy -200488.942955 kJ/mol
# GULP energy per Si atom -5569.137304 kJ/mol
# Density = 1.914808 g / cm^3
# Si number density = 19.191766 Si / 1000 Ang^3
#
#
#
# Elastic Constant Matrix: (Units=GPa)
#
#
# Indices 1 2 3 4 5 6 
#
# 1 60.4465 14.6053 39.6554 0.0000 0.0000 0.0000
# 2 14.6053 72.6762 29.2354 0.0000 0.0000 0.0000
# 3 39.6554 29.2354 189.1848 0.0000 0.0000 0.0000
# 4 0.0000 0.0000 0.0000 15.9165 0.0000 0.0000
# 5 0.0000 0.0000 0.0000 0.0000 17.5352 0.0000
# 6 0.0000 0.0000 0.0000 0.0000 0.0000 21.5384
#
#
#
# Elastic Compliance Matrix: (Units=1/GPa)
#
#
# Indices 1 2 3 4 5 6 
#
# 1 0.019577 -0.002435 -0.003727 0.000000 0.000000 0.000000
# 2 -0.002435 0.014975 -0.001804 0.000000 0.000000 0.000000
# 3 -0.003727 -0.001804 0.006346 0.000000 0.000000 0.000000
# 4 0.000000 0.000000 0.000000 0.062828 0.000000 0.000000
# 5 0.000000 0.000000 0.000000 0.000000 0.057028 0.000000
# 6 0.000000 0.000000 0.000000 0.000000 0.000000 0.046429
#
#
# Mechanical properties :
#
#
# Convention : Reuss Voigt Hill
#
# Bulk Modulus (GPa) = 40.05496 54.36665 47.21080
# Shear Modulus (GPa) = 21.60424 26.91878 24.26151
#
# Velocity S-wave (km/s) = 3.35879 3.74922 3.55936
# Velocity P-wave (km/s) = 5.99651 6.86526 6.44554
#
# Compressibility (1/GPa) = 0.02496570
#
# Stress axis : x y z
#
# Youngs Moduli (GPa) = 51.07991 66.77996 157.58300
#
# Poissons Ratio (x) = 0.16260 0.58736
# Poissons Ratio (y) = 0.12438 0.28423
# Poissons Ratio (z) = 0.19039 0.12045
#
# Static dielectric constant tensor:
#      x y z
#    x 1.675310 0.000000 0.000000 
#    y 0.000000 2.116120 0.000000 
#    z 0.000000 0.000000 1.677730 
# 
# From -- ./inp_files/16757.got.cif
#   From: 2010.05.17/outbox.cif.g08.bks.cpg/sg56_9_cif.got.tgz:16757.got - 2010.06.03 13:42:01.
