data_PCOD9430334
_publ_section_title
;
Structure prediction by ZEFSAII (Michael W. Deem and Ramdas Pophale) SiO2 
 PCOD9430334
Probable space group: P C C N
;
_chemical_formula_sum "Si O2"
_cell_formula_units_Z 64
_cell_length_a 8.482062
_cell_length_b 21.191273
_cell_length_c 18.352910
_cell_angle_alpha 90.000000
_cell_angle_beta 90.000000
_cell_angle_gamma 90.000000
_cell_volume 3298.856498
_symmetry_space_group_name_H-M "P C C N"
_symmetry_group_IT_number 56
_symmetry_cell_setting 'orthorhombic'
loop_
_space_group_symop_operation_xyz
x,y,z
1/2-x,1/2-y,z
1/2+x,-y,1/2-z
-x,1/2+y,1/2-z
-x,-y,-z
1/2+x,1/2+y,-z
1/2-x,y,1/2+z
x,1/2-y,1/2+z
loop_
_atom_site_type_symbol
_atom_site_label
_atom_site_fract_x
_atom_site_fract_y
_atom_site_fract_z
Si Si1 0.439543 0.625523 0.085398
Si Si2 0.439544 0.874477 0.085397
Si Si3 0.557936 0.124410 0.582890
Si Si4 0.439440 0.001628 0.832478
Si Si5 0.939440 0.998372 0.167522
Si Si6 0.057936 0.624410 0.917110
Si Si7 0.941208 0.250000 0.668678
Si Si8 0.437765 0.250000 0.833711
O O1 0.250000 0.625787 0.086568
O O2 0.499620 0.563614 0.126686
O O3 0.499424 0.687957 0.125589
O O4 0.492889 0.624878 0.001138
O O5 0.499424 0.812043 0.125589
O O6 0.499620 0.936386 0.126686
O O7 0.492889 0.875122 0.001137
O O8 0.750000 0.124606 0.582741
O O9 0.507697 0.187226 0.625596
O O10 0.507186 0.061205 0.624574
O O11 0.500000 0.000000 0.750000
O O12 0.492814 0.938795 0.875426
O O13 0.250000 0.002306 0.831908
O O14 0.007697 0.687226 0.874404
O O15 0.750000 0.250000 0.671110
O O16 0.003255 0.250000 0.750611
O O17 0.250000 0.250000 0.834851
#
# Coordination Sequence:
#
# PCOD9430334 Si02
#       8
#     8   8   8   8   8   8   8   8
#     4  11  22  40  63  87 115 155 198 243 296 352
#     4  11  22  40  63  87 115 155 198 243 296 352
#     4   9  20  37  61  88 117 153 198 243 290 346
#     4  11  22  38  59  89 123 158 198 244 292 348
#     4  11  22  38  59  89 123 158 198 244 292 348
#     4   9  20  37  61  88 117 153 198 243 290 346
#     4  10  19  38  64  88 114 154 201 244 290 352
#     4  12  25  40  58  88 122 154 193 244 296 352
#
# _framework density 19.400659999999998
#
# number of rings (size 3 to 8) (size 9 to 14) (size 15 to 20)
#    0.000    1.500    0.000    5.625    0.000    4.000 
#    0.000    8.750    0.000    0.000    0.000    0.000 
#    0.000    0.000    0.000    0.000    0.000    0.000 
#
# Total GULP energy -357945.228990 kJ/mol
# GULP energy per Si atom -5592.894203 kJ/mol
# Density = 1.935650 g / cm^3
# Si number density = 19.400660 Si / 1000 Ang^3
#
#
#
# Elastic Constant Matrix: (Units=GPa)
#
#
# Indices 1 2 3 4 5 6 
#
# 1 62.3649 47.6939 47.7285 0.0000 0.0000 0.0000
# 2 47.6939 248.1582 152.9325 0.0000 0.0000 0.0000
# 3 47.7285 152.9325 247.9979 0.0000 0.0000 0.0000
# 4 0.0000 0.0000 0.0000 47.4661 0.0000 0.0000
# 5 0.0000 0.0000 0.0000 0.0000 22.9027 0.0000
# 6 0.0000 0.0000 0.0000 0.0000 0.0000 14.4782
#
#
#
# Elastic Compliance Matrix: (Units=1/GPa)
#
#
# Indices 1 2 3 4 5 6 
#
# 1 0.019603 -0.002327 -0.002338 0.000000 0.000000 0.000000
# 2 -0.002327 0.006776 -0.003731 0.000000 0.000000 0.000000
# 3 -0.002338 -0.003731 0.006783 0.000000 0.000000 0.000000
# 4 0.000000 0.000000 0.000000 0.021068 0.000000 0.000000
# 5 0.000000 0.000000 0.000000 0.000000 0.043663 0.000000
# 6 0.000000 0.000000 0.000000 0.000000 0.000000 0.069069
#
#
# Mechanical properties :
#
#
# Convention : Reuss Voigt Hill
#
# Bulk Modulus (GPa) = 61.08253 117.24787 89.16520
# Shear Modulus (GPa) = 26.42564 37.64714 32.03639
#
# Velocity S-wave (km/s) = 3.69467 4.40990 4.06803
# Velocity P-wave (km/s) = 7.05364 9.30031 8.25378
#
# Compressibility (1/GPa) = 0.01637129
#
# Stress axis : x y z
#
# Youngs Moduli (GPa) = 51.01178 147.57878 147.43019
#
# Poissons Ratio (x) = 0.34339 0.34467
# Poissons Ratio (y) = 0.11870 0.55003
# Poissons Ratio (z) = 0.11926 0.55058
#
# Static dielectric constant tensor:
#      x y z
#    x 1.665830 0.000000 0.000000 
#    y 0.000000 1.640560 0.000000 
#    z 0.000000 0.000000 1.641080 
# 
# From -- ./inp_files/15224.got.cif
#   From: 2010.05.17/outbox.cif.g08.bks.cpg/sg56_8_cif.got.tgz:15224.got - 2010.06.03 13:42:01.
