data_PCOD9430159
_publ_section_title
;
Structure prediction by ZEFSAII (Michael W. Deem and Ramdas Pophale) SiO2 
 PCOD9430159
Probable space group: P C C N
;
_chemical_formula_sum "Si O2"
_cell_formula_units_Z 44
_cell_length_a 21.889880
_cell_length_b 8.439797
_cell_length_c 9.463652
_cell_angle_alpha 90.000000
_cell_angle_beta 90.000000
_cell_angle_gamma 90.000000
_cell_volume 1748.373211
_symmetry_space_group_name_H-M "P C C N"
_symmetry_group_IT_number 56
_symmetry_cell_setting 'orthorhombic'
loop_
_space_group_symop_operation_xyz
x,y,z
1/2-x,1/2-y,z
1/2+x,-y,1/2-z
-x,1/2+y,1/2-z
-x,-y,-z
1/2+x,1/2+y,-z
1/2-x,y,1/2+z
x,1/2-y,1/2+z
loop_
_atom_site_type_symbol
_atom_site_label
_atom_site_fract_x
_atom_site_fract_y
_atom_site_fract_z
Si Si1 0.636329 0.575334 0.313334
Si Si2 0.999627 0.528393 0.201928
Si Si3 0.660902 0.140043 0.550377
Si Si4 0.714310 0.051902 0.052317
Si Si5 0.750000 0.750000 0.237858
Si Si6 0.468208 0.744950 0.955116
O O1 0.563292 0.570304 0.321095
O O2 0.647974 0.495169 0.163489
O O3 0.661324 0.471298 0.439888
O O4 0.686542 0.715407 0.320766
O O5 0.000636 0.609208 0.356438
O O6 0.953309 0.392130 0.152376
O O7 0.997859 0.671986 0.087183
O O8 0.721953 0.087541 0.469280
O O9 0.688137 0.294107 0.631639
O O10 0.595335 0.175650 0.486071
O O11 0.729585 0.899937 0.144271
#
# Coordination Sequence:
#
# PCOD9430159 Si02
#       6
#     8   8   8   8   4   8
#     4  10  20  39  57  88 117 158 199 251 302 363
#     4  10  22  40  67  87 127 157 208 255 304 367
#     4   9  20  35  59  84 114 154 207 241 298 360
#     4  10  19  35  56  82 116 156 191 250 294 358
#     4  10  22  34  54  86 122 152 196 238 312 370
#     4  10  21  42  62  93 120 162 202 255 306 361
#
# _framework density 25.166253000000001
#
# number of rings (size 3 to 8) (size 9 to 14) (size 15 to 20)
#    0.000    2.182    1.818    0.545    0.000    8.000 
#    0.000    0.000    4.000    0.000    0.000    0.000 
#    0.000    0.000    0.000    0.000    0.000    0.000 
#
# Total GULP energy -245023.955423 kJ/mol
# GULP energy per Si atom -5568.726260 kJ/mol
# Density = 2.510897 g / cm^3
# Si number density = 25.166253 Si / 1000 Ang^3
#
#
#
# Elastic Constant Matrix: (Units=GPa)
#
#
# Indices 1 2 3 4 5 6 
#
# 1 82.0344 10.7721 8.8815 0.0000 0.0000 0.0000
# 2 10.7721 29.4265 -1.9335 0.0000 0.0000 0.0000
# 3 8.8815 -1.9335 53.1099 0.0000 0.0000 0.0000
# 4 0.0000 0.0000 0.0000 14.2573 0.0000 0.0000
# 5 0.0000 0.0000 0.0000 0.0000 9.9653 0.0000
# 6 0.0000 0.0000 0.0000 0.0000 0.0000 46.0474
#
#
#
# Elastic Compliance Matrix: (Units=1/GPa)
#
#
# Indices 1 2 3 4 5 6 
#
# 1 0.013097 -0.004950 -0.002370 0.000000 0.000000 0.000000
# 2 -0.004950 0.035935 0.002136 0.000000 0.000000 0.000000
# 3 -0.002370 0.002136 0.019303 0.000000 0.000000 0.000000
# 4 0.000000 0.000000 0.000000 0.070140 0.000000 0.000000
# 5 0.000000 0.000000 0.000000 0.000000 0.100349 0.000000
# 6 0.000000 0.000000 0.000000 0.000000 0.000000 0.021717
#
#
# Mechanical properties :
#
#
# Convention : Reuss Voigt Hill
#
# Bulk Modulus (GPa) = 17.25139 22.22345 19.73742
# Shear Modulus (GPa) = 17.22768 23.84403 20.53586
#
# Velocity S-wave (km/s) = 2.61924 3.08142 2.85968
# Velocity P-wave (km/s) = 4.00213 4.63789 4.33169
#
# Compressibility (1/GPa) = 0.05796633
#
# Stress axis : x y z
#
# Youngs Moduli (GPa) = 76.35562 27.82781 51.80533
#
# Poissons Ratio (x) = 0.13775 0.12280
# Poissons Ratio (y) = 0.37796 -0.11066
# Poissons Ratio (z) = 0.18099 -0.05944
#
# Static dielectric constant tensor:
#      x y z
#    x 2.112510 0.000000 0.000000 
#    y 0.000000 2.254490 0.000000 
#    z 0.000000 0.000000 1.994210 
# 
# From -- ./inp_files/6361.got.cif
#   From: 2010.05.17/outbox.cif.g08.bks.cpg/sg56_4_cif.got.tgz:6361.got - 2010.06.03 13:42:01.
