data_PCOD9430061
_publ_section_title
;
Structure prediction by ZEFSAII (Michael W. Deem and Ramdas Pophale) SiO2 
 PCOD9430061
Probable space group: P C C N
;
_chemical_formula_sum "Si O2"
_cell_formula_units_Z 48
_cell_length_a 20.012663
_cell_length_b 5.501964
_cell_length_c 20.147681
_cell_angle_alpha 90.000000
_cell_angle_beta 90.000000
_cell_angle_gamma 90.000000
_cell_volume 2218.440027
_symmetry_space_group_name_H-M "P C C N"
_symmetry_group_IT_number 56
_symmetry_cell_setting 'orthorhombic'
loop_
_space_group_symop_operation_xyz
x,y,z
1/2-x,1/2-y,z
1/2+x,-y,1/2-z
-x,1/2+y,1/2-z
-x,-y,-z
1/2+x,1/2+y,-z
1/2-x,y,1/2+z
x,1/2-y,1/2+z
loop_
_atom_site_type_symbol
_atom_site_label
_atom_site_fract_x
_atom_site_fract_y
_atom_site_fract_z
Si Si1 0.610540 0.799495 0.251027
Si Si2 0.378290 0.513683 0.619307
Si Si3 0.750000 0.750000 0.244549
Si Si4 0.023388 0.632992 0.681788
Si Si5 0.750000 0.250000 0.329648
Si Si6 0.922935 0.958317 0.523274
Si Si7 0.546259 0.457498 0.064960
O O1 0.628114 0.685579 0.323043
O O2 0.677563 0.753353 0.209615
O O3 0.543947 0.681007 0.221684
O O4 0.583081 0.066957 0.267883
O O5 0.446862 0.653213 0.637106
O O6 0.316381 0.699379 0.627520
O O7 0.382270 0.420195 0.544581
O O8 0.756020 0.495404 0.285647
O O9 0.001824 0.429343 0.628424
O O10 0.908595 0.219829 0.556338
O O11 0.917654 0.719831 0.568671
O O12 0.000000 0.000000 0.500000
O O13 0.500000 0.500000 0.000000
#
# Coordination Sequence:
#
# PCOD9430061 Si02
#       7
#     8   8   4   8   4   8   8
#     4  11  23  36  56  90 118 155 191 252 298 356
#     4  11  21  36  56  83 119 143 197 241 299 347
#     4  10  22  40  56  76 126 158 190 222 314 364
#     4  12  21  34  58  86 117 146 202 247 287 350
#     4  10  22  36  58  84 112 162 184 244 300 360
#     4  10  19  33  54  79 107 145 180 228 281 338
#     4  10  20  33  53  82 109 147 179 233 287 334
#
# _framework density 21.636827
#
# number of rings (size 3 to 8) (size 9 to 14) (size 15 to 20)
#    0.000    1.333    6.667    2.000    0.000    0.000 
#    0.000    0.000    0.000    2.000    0.000    0.000 
#    0.000    0.000    0.000    0.000    0.000    0.000 
#
# Total GULP energy -267450.132245 kJ/mol
# GULP energy per Si atom -5571.877755 kJ/mol
# Density = 2.158758 g / cm^3
# Si number density = 21.636827 Si / 1000 Ang^3
#
#
#
# Elastic Constant Matrix: (Units=GPa)
#
#
# Indices 1 2 3 4 5 6 
#
# 1 124.3220 20.2189 13.4693 0.0000 0.0000 0.0000
# 2 20.2189 118.5249 9.3403 0.0000 0.0000 0.0000
# 3 13.4693 9.3403 29.6241 0.0000 0.0000 0.0000
# 4 0.0000 0.0000 0.0000 23.2710 0.0000 0.0000
# 5 0.0000 0.0000 0.0000 0.0000 20.2292 0.0000
# 6 0.0000 0.0000 0.0000 0.0000 0.0000 28.4274
#
#
#
# Elastic Compliance Matrix: (Units=1/GPa)
#
#
# Indices 1 2 3 4 5 6 
#
# 1 0.008621 -0.001191 -0.003544 0.000000 0.000000 0.000000
# 2 -0.001191 0.008817 -0.002238 0.000000 0.000000 0.000000
# 3 -0.003544 -0.002238 0.036073 0.000000 0.000000 0.000000
# 4 0.000000 0.000000 0.000000 0.042972 0.000000 0.000000
# 5 0.000000 0.000000 0.000000 0.000000 0.049434 0.000000
# 6 0.000000 0.000000 0.000000 0.000000 0.000000 0.035177
#
#
# Mechanical properties :
#
#
# Convention : Reuss Voigt Hill
#
# Bulk Modulus (GPa) = 25.27562 39.83647 32.55604
# Shear Modulus (GPa) = 24.01193 29.68169 26.84681
#
# Velocity S-wave (km/s) = 3.33494 3.70782 3.52631
# Velocity P-wave (km/s) = 5.15133 6.06481 5.62664
#
# Compressibility (1/GPa) = 0.03956382
#
# Stress axis : x y z
#
# Youngs Moduli (GPa) = 115.99061 113.42165 27.72124
#
# Poissons Ratio (x) = 0.13513 0.09825
# Poissons Ratio (y) = 0.13819 0.06204
# Poissons Ratio (z) = 0.41110 0.25385
#
# Static dielectric constant tensor:
#      x y z
#    x 1.857760 0.000000 0.000000 
#    y 0.000000 1.993410 0.000000 
#    z 0.000000 0.000000 1.807340 
# 
# From -- ./inp_files/17539.got.cif
#   From: 2010.05.17/outbox.cif.g08.bks.cpg/sg56_9_cif.got.tgz:17539.got - 2010.06.03 13:42:01.
