data_PCOD9430694
_publ_section_title
;
Structure prediction by ZEFSAII (Michael W. Deem and Ramdas Pophale) SiO2 
 PCOD9430694
Probable space group: P C C N
;
_chemical_formula_sum "Si O2"
_cell_formula_units_Z 60
_cell_length_a 25.362240
_cell_length_b 7.521927
_cell_length_c 13.747118
_cell_angle_alpha 90.000000
_cell_angle_beta 90.000000
_cell_angle_gamma 90.000000
_cell_volume 2622.577813
_symmetry_space_group_name_H-M "P C C N"
_symmetry_group_IT_number 56
_symmetry_cell_setting 'orthorhombic'
loop_
_space_group_symop_operation_xyz
x,y,z
1/2-x,1/2-y,z
1/2+x,-y,1/2-z
-x,1/2+y,1/2-z
-x,-y,-z
1/2+x,1/2+y,-z
1/2-x,y,1/2+z
x,1/2-y,1/2+z
loop_
_atom_site_type_symbol
_atom_site_label
_atom_site_fract_x
_atom_site_fract_y
_atom_site_fract_z
Si Si1 0.704575 0.893116 0.245214
Si Si2 0.250000 0.750000 0.226998
Si Si3 0.362811 0.203520 0.938911
Si Si4 0.154936 0.916635 0.606756
Si Si5 0.014787 0.380526 0.619534
Si Si6 0.052331 0.010883 0.717425
Si Si7 0.627910 0.480746 0.918471
Si Si8 0.485362 0.167706 0.934367
O O1 0.750000 0.750000 0.270013
O O2 0.671561 0.811638 0.157005
O O3 0.668763 0.943933 0.337937
O O4 0.724782 0.089138 0.212607
O O5 0.291185 0.858180 0.159091
O O6 0.423398 0.159190 0.913251
O O7 0.363246 0.397833 0.987183
O O8 0.343842 0.064375 0.022398
O O9 0.113115 0.987201 0.687647
O O10 0.134845 0.728232 0.564521
O O11 0.069667 0.484847 0.622477
O O12 0.002973 0.324220 0.509263
O O13 0.966473 0.477798 0.672839
O O14 0.030563 0.196072 0.675089
O O15 0.021173 0.857830 0.658635
O O16 0.500000 0.000000 0.000000
#
# Coordination Sequence:
#
# PCOD9430694 Si02
#       8
#     8   4   8   8   8   8   8   8
#     4  11  25  42  68  92 129 169 214 275 325 381
#     4  10  26  44  62  94 126 166 228 266 318 382
#     4  11  22  41  67  93 128 168 213 265 326 384
#     4  11  22  42  66  86 129 174 210 275 320 376
#     4  10  20  36  62  94 125 165 212 248 316 393
#     4  11  20  37  64  90 130 173 206 256 329 376
#     4  10  22  43  63  95 129 168 216 261 325 386
#     4   9  18  37  60  86 129 163 198 259 312 378
#
# _framework density 22.878256
#
# number of rings (size 3 to 8) (size 9 to 14) (size 15 to 20)
#    0.000    1.600    4.000    2.400    0.000    7.467 
#    0.000    7.333    0.000    0.000    0.000    0.000 
#    0.000    0.000    0.000    0.000    0.000    0.000 
#
# Total GULP energy -335685.906328 kJ/mol
# GULP energy per Si atom -5594.765105 kJ/mol
# Density = 2.282618 g / cm^3
# Si number density = 22.878256 Si / 1000 Ang^3
#
#
#
# Elastic Constant Matrix: (Units=GPa)
#
#
# Indices 1 2 3 4 5 6 
#
# 1 81.5928 9.2602 20.7755 0.0000 0.0000 0.0000
# 2 9.2602 129.1589 3.9404 0.0000 0.0000 0.0000
# 3 20.7755 3.9404 60.5562 0.0000 0.0000 0.0000
# 4 0.0000 0.0000 0.0000 30.7366 0.0000 0.0000
# 5 0.0000 0.0000 0.0000 0.0000 16.1700 0.0000
# 6 0.0000 0.0000 0.0000 0.0000 0.0000 38.3324
#
#
#
# Elastic Compliance Matrix: (Units=1/GPa)
#
#
# Indices 1 2 3 4 5 6 
#
# 1 0.013517 -0.000829 -0.004583 0.000000 0.000000 0.000000
# 2 -0.000829 0.007809 -0.000224 0.000000 0.000000 0.000000
# 3 -0.004583 -0.000224 0.018101 0.000000 0.000000 0.000000
# 4 0.000000 0.000000 0.000000 0.032534 0.000000 0.000000
# 5 0.000000 0.000000 0.000000 0.000000 0.061843 0.000000
# 6 0.000000 0.000000 0.000000 0.000000 0.000000 0.026088
#
#
# Mechanical properties :
#
#
# Convention : Reuss Voigt Hill
#
# Bulk Modulus (GPa) = 35.51926 37.69555 36.60741
# Shear Modulus (GPa) = 27.69337 32.86994 30.28165
#
# Velocity S-wave (km/s) = 3.48295 3.79454 3.64208
# Velocity P-wave (km/s) = 5.63326 5.97582 5.80707
#
# Compressibility (1/GPa) = 0.02815374
#
# Stress axis : x y z
#
# Youngs Moduli (GPa) = 73.97996 128.06263 55.24667
#
# Poissons Ratio (x) = 0.10620 0.25322
# Poissons Ratio (y) = 0.06135 0.01235
# Poissons Ratio (z) = 0.33909 0.02863
#
# Static dielectric constant tensor:
#      x y z
#    x 1.858610 0.000000 0.000000 
#    y 0.000000 1.895780 0.000000 
#    z 0.000000 0.000000 1.861220 
# 
# From -- ./inp_files/11093.got.cif
#   From: 2010.05.17/outbox.cif.g08.bks.cpg/sg56_6_cif.got.tgz:11093.got - 2010.06.03 13:42:01.
