data_PCOD9430911
_publ_section_title
;
Structure prediction by ZEFSAII (Michael W. Deem and Ramdas Pophale) SiO2 
 PCOD9430911
Probable space group: P C C N
;
_chemical_formula_sum "Si O2"
_cell_formula_units_Z 56
_cell_length_a 12.559156
_cell_length_b 15.456979
_cell_length_c 12.973602
_cell_angle_alpha 90.000000
_cell_angle_beta 90.000000
_cell_angle_gamma 90.000000
_cell_volume 2518.521383
_symmetry_space_group_name_H-M "P C C N"
_symmetry_group_IT_number 56
_symmetry_cell_setting 'orthorhombic'
loop_
_space_group_symop_operation_xyz
x,y,z
1/2-x,1/2-y,z
1/2+x,-y,1/2-z
-x,1/2+y,1/2-z
-x,-y,-z
1/2+x,1/2+y,-z
1/2-x,y,1/2+z
x,1/2-y,1/2+z
loop_
_atom_site_type_symbol
_atom_site_label
_atom_site_fract_x
_atom_site_fract_y
_atom_site_fract_z
Si Si1 0.219593 0.552897 0.122694
Si Si2 0.464382 0.618110 0.752640
Si Si3 0.473540 0.230683 0.927537
Si Si4 0.294913 0.098104 0.985896
Si Si5 0.678185 0.329898 0.557221
Si Si6 0.544177 0.595736 0.979179
Si Si7 0.635453 0.486114 0.700323
O O1 0.159098 0.472688 0.067059
O O2 0.318758 0.518177 0.185581
O O3 0.153778 0.603745 0.210475
O O4 0.245589 0.615605 0.027567
O O5 0.513782 0.696906 0.688492
O O6 0.522897 0.532010 0.711115
O O7 0.488866 0.625788 0.872522
O O8 0.481207 0.333306 0.934109
O O9 0.367377 0.183670 0.973919
O O10 0.573047 0.196059 0.993898
O O11 0.172837 0.105405 0.021202
O O12 0.297798 0.050184 0.874739
O O13 0.750000 0.250000 0.592082
O O14 0.641209 0.393392 0.647214
O O15 0.500000 0.500000 0.000000
#
# Coordination Sequence:
#
# PCOD9430911 Si02
#       7
#     8   8   8   8   8   8   8
#     4  10  20  38  64  91 128 170 216 269 330 407
#     4  10  22  43  65  95 127 175 222 262 344 415
#     4  10  24  45  64  91 135 175 220 271 339 419
#     4  10  21  42  66  94 129 173 216 274 336 402
#     4  10  23  38  61  94 132 170 219 277 335 402
#     4  12  25  43  68 101 135 166 226 293 337 392
#     4  10  20  39  65  92 123 169 215 264 330 397
#
# _framework density 22.235268999999999
#
# number of rings (size 3 to 8) (size 9 to 14) (size 15 to 20)
#    0.000    1.714    1.429    2.143    6.000    4.000 
#   10.286    1.429    0.000    0.000    0.000    0.000 
#    0.000    0.000    0.000    0.000    0.000    0.000 
#
# Total GULP energy -312666.873425 kJ/mol
# GULP energy per Si atom -5583.337025 kJ/mol
# Density = 2.218466 g / cm^3
# Si number density = 22.235269 Si / 1000 Ang^3
#
#
#
# Elastic Constant Matrix: (Units=GPa)
#
#
# Indices 1 2 3 4 5 6 
#
# 1 49.1956 21.9994 9.0160 0.0000 0.0000 0.0000
# 2 21.9994 132.9284 34.7869 0.0000 0.0000 0.0000
# 3 9.0160 34.7869 71.9747 0.0000 0.0000 0.0000
# 4 0.0000 0.0000 0.0000 21.2521 0.0000 0.0000
# 5 0.0000 0.0000 0.0000 0.0000 22.2779 0.0000
# 6 0.0000 0.0000 0.0000 0.0000 0.0000 28.5168
#
#
#
# Elastic Compliance Matrix: (Units=1/GPa)
#
#
# Indices 1 2 3 4 5 6 
#
# 1 0.022033 -0.003348 -0.001142 0.000000 0.000000 0.000000
# 2 -0.003348 0.009121 -0.003989 0.000000 0.000000 0.000000
# 3 -0.001142 -0.003989 0.015965 0.000000 0.000000 0.000000
# 4 0.000000 0.000000 0.000000 0.047054 0.000000 0.000000
# 5 0.000000 0.000000 0.000000 0.000000 0.044887 0.000000
# 6 0.000000 0.000000 0.000000 0.000000 0.000000 0.035067
#
#
# Mechanical properties :
#
#
# Convention : Reuss Voigt Hill
#
# Bulk Modulus (GPa) = 33.15466 42.85593 38.00530
# Shear Modulus (GPa) = 24.85848 26.96246 25.91047
#
# Velocity S-wave (km/s) = 3.34724 3.48602 3.41733
# Velocity P-wave (km/s) = 5.46644 5.95976 5.71842
#
# Compressibility (1/GPa) = 0.03016167
#
# Stress axis : x y z
#
# Youngs Moduli (GPa) = 45.38587 109.64006 62.63796
#
# Poissons Ratio (x) = 0.36703 0.07154
# Poissons Ratio (y) = 0.15193 0.24986
# Poissons Ratio (z) = 0.05183 0.43735
#
# Static dielectric constant tensor:
#      x y z
#    x 1.876370 0.000000 0.000000 
#    y 0.000000 1.863380 0.000000 
#    z 0.000000 0.000000 1.786230 
# 
# From -- ./inp_files/7882.got.cif
#   From: 2010.05.17/outbox.cif.g08.bks.cpg/sg56_4_cif.got.tgz:7882.got - 2010.06.03 13:42:01.
