data_PCOD9430208
_publ_section_title
;
Structure prediction by ZEFSAII (Michael W. Deem and Ramdas Pophale) SiO2 
 PCOD9430208
Probable space group: P C C N
;
_chemical_formula_sum "Si O2"
_cell_formula_units_Z 60
_cell_length_a 14.767275
_cell_length_b 7.796625
_cell_length_c 22.386595
_cell_angle_alpha 90.000000
_cell_angle_beta 90.000000
_cell_angle_gamma 90.000000
_cell_volume 2577.478499
_symmetry_space_group_name_H-M "P C C N"
_symmetry_group_IT_number 56
_symmetry_cell_setting 'orthorhombic'
loop_
_space_group_symop_operation_xyz
x,y,z
1/2-x,1/2-y,z
1/2+x,-y,1/2-z
-x,1/2+y,1/2-z
-x,-y,-z
1/2+x,1/2+y,-z
1/2-x,y,1/2+z
x,1/2-y,1/2+z
loop_
_atom_site_type_symbol
_atom_site_label
_atom_site_fract_x
_atom_site_fract_y
_atom_site_fract_z
Si Si1 0.853535 0.688898 0.158855
Si Si2 0.871329 0.443423 0.372889
Si Si3 0.250000 0.750000 0.038393
Si Si4 0.002894 0.249400 0.164742
Si Si5 0.454077 0.183361 0.443900
Si Si6 0.084213 0.787016 0.956074
Si Si7 0.707392 0.084621 0.246889
Si Si8 0.405556 0.478717 0.752609
O O1 0.750000 0.750000 0.152895
O O2 0.894460 0.685258 0.093137
O O3 0.849654 0.525719 0.201404
O O4 0.907315 0.834114 0.195768
O O5 0.787666 0.401117 0.417612
O O6 0.912145 0.632472 0.358767
O O7 0.844734 0.372602 0.307647
O O8 0.955456 0.351544 0.405020
O O9 0.166861 0.710816 0.993614
O O10 0.041952 0.418308 0.194529
O O11 0.934155 0.273587 0.110460
O O12 0.950727 0.141953 0.216088
O O13 0.491643 0.243030 0.507139
O O14 0.406666 0.996589 0.451971
O O15 0.750000 0.250000 0.215819
O O16 0.799630 0.986556 0.264227
#
# Coordination Sequence:
#
# PCOD9430208 Si02
#       8
#     8   8   4   8   8   8   8   8
#     4  10  20  38  65  98 139 176 229 281 354 421
#     4  10  19  35  66  94 138 183 235 280 352 418
#     4  10  20  36  64 108 134 188 230 300 348 418
#     4  11  23  42  68 102 138 189 230 293 363 442
#     4   9  18  38  67  96 126 187 231 287 351 427
#     4   9  19  38  67  96 135 174 239 283 354 414
#     4  11  24  41  63 101 143 187 233 293 356 432
#     4  11  24  40  66 101 143 180 231 287 369 429
#
# _framework density 23.278565
#
# number of rings (size 3 to 8) (size 9 to 14) (size 15 to 20)
#    0.000    1.867    4.667    0.800    1.867    0.000 
#    1.200    2.667   11.733    0.800    0.000    0.000 
#    0.000    0.000    0.000    0.000    0.000    0.000 
#
# Total GULP energy -335346.794769 kJ/mol
# GULP energy per Si atom -5589.113246 kJ/mol
# Density = 2.322558 g / cm^3
# Si number density = 23.278565 Si / 1000 Ang^3
#
#
#
# Elastic Constant Matrix: (Units=GPa)
#
#
# Indices 1 2 3 4 5 6 
#
# 1 95.1752 23.8627 51.4933 0.0000 0.0000 0.0000
# 2 23.8627 36.5515 28.7028 0.0000 0.0000 0.0000
# 3 51.4933 28.7028 141.8896 0.0000 0.0000 0.0000
# 4 0.0000 0.0000 0.0000 30.5650 0.0000 0.0000
# 5 0.0000 0.0000 0.0000 0.0000 58.3821 0.0000
# 6 0.0000 0.0000 0.0000 0.0000 0.0000 33.4249
#
#
#
# Elastic Compliance Matrix: (Units=1/GPa)
#
#
# Indices 1 2 3 4 5 6 
#
# 1 0.014163 -0.006194 -0.003887 0.000000 0.000000 0.000000
# 2 -0.006194 0.035234 -0.004880 0.000000 0.000000 0.000000
# 3 -0.003887 -0.004880 0.009445 0.000000 0.000000 0.000000
# 4 0.000000 0.000000 0.000000 0.032717 0.000000 0.000000
# 5 0.000000 0.000000 0.000000 0.000000 0.017129 0.000000
# 6 0.000000 0.000000 0.000000 0.000000 0.000000 0.029918
#
#
# Mechanical properties :
#
#
# Convention : Reuss Voigt Hill
#
# Bulk Modulus (GPa) = 34.57637 53.52600 44.05118
# Shear Modulus (GPa) = 28.06346 35.77824 31.92085
#
# Velocity S-wave (km/s) = 3.47587 3.92466 3.70706
# Velocity P-wave (km/s) = 5.56726 6.60158 6.10636
#
# Compressibility (1/GPa) = 0.02892149
#
# Stress axis : x y z
#
# Youngs Moduli (GPa) = 70.60712 28.38146 105.87127
#
# Poissons Ratio (x) = 0.17579 0.41151
# Poissons Ratio (y) = 0.43734 0.51662
# Poissons Ratio (z) = 0.27444 0.13849
#
# Static dielectric constant tensor:
#      x y z
#    x 1.901550 0.000000 0.000000 
#    y 0.000000 1.948840 0.000000 
#    z 0.000000 0.000000 1.853110 
# 
# From -- ./inp_files/21143.got.cif
#   From: 2010.05.17/outbox.cif.g08.bks.cpg/sg56_11_cif.got.tgz:21143.got - 2010.06.03 13:42:01.
