data_PCOD9430235
_publ_section_title
;
Structure prediction by ZEFSAII (Michael W. Deem and Ramdas Pophale) SiO2 
 PCOD9430235
Probable space group: P C C N
;
_chemical_formula_sum "Si O2"
_cell_formula_units_Z 56
_cell_length_a 10.230639
_cell_length_b 11.486271
_cell_length_c 21.688485
_cell_angle_alpha 90.000000
_cell_angle_beta 90.000000
_cell_angle_gamma 90.000000
_cell_volume 2548.654908
_symmetry_space_group_name_H-M "P C C N"
_symmetry_group_IT_number 56
_symmetry_cell_setting 'orthorhombic'
loop_
_space_group_symop_operation_xyz
x,y,z
1/2-x,1/2-y,z
1/2+x,-y,1/2-z
-x,1/2+y,1/2-z
-x,-y,-z
1/2+x,1/2+y,-z
1/2-x,y,1/2+z
x,1/2-y,1/2+z
loop_
_atom_site_type_symbol
_atom_site_label
_atom_site_fract_x
_atom_site_fract_y
_atom_site_fract_z
Si Si1 0.677570 0.126338 0.442800
Si Si2 0.140911 0.851316 0.913929
Si Si3 0.990805 0.712394 0.821656
Si Si4 0.634010 0.469297 0.353900
Si Si5 0.935574 0.920738 0.148369
Si Si6 0.156187 0.555235 0.747583
Si Si7 0.893855 0.673601 0.195208
O O1 0.750000 0.250000 0.432028
O O2 0.636844 0.119623 0.513816
O O3 0.789517 0.038714 0.418290
O O4 0.549839 0.106228 0.401562
O O5 0.250000 0.750000 0.909433
O O6 0.016076 0.792554 0.880604
O O7 0.150451 0.974124 0.878383
O O8 0.125549 0.656380 0.795706
O O9 0.937362 0.781869 0.763260
O O10 0.902903 0.601893 0.839246
O O11 0.733190 0.420930 0.302034
O O12 0.506335 0.389661 0.345406
O O13 0.868619 0.796351 0.161461
O O14 0.019210 0.957427 0.209340
O O15 0.190761 0.437170 0.783005
#
# Coordination Sequence:
#
# PCOD9430235 Si02
#       7
#     8   8   8   8   8   8   8
#     4  10  20  40  65  91 111 168 220 256 300 374
#     4  11  24  39  60  91 123 167 216 253 309 366
#     4  10  22  35  58  95 125 160 196 263 317 373
#     4  10  21  39  63  91 123 159 211 255 315 386
#     4  10  19  37  63  90 125 161 211 257 304 381
#     4   9  20  34  62  93 124 164 196 260 321 386
#     4  10  19  36  60  94 128 156 203 250 334 376
#
# _framework density 21.972373000000001
#
# number of rings (size 3 to 8) (size 9 to 14) (size 15 to 20)
#    0.000    2.000    2.857    0.429    2.000    0.571 
#    0.000    4.286    0.000    0.000    7.429    0.000 
#    0.000    0.000    0.000    0.000    0.000    0.000 
#
# Total GULP energy -312515.688231 kJ/mol
# GULP energy per Si atom -5580.637290 kJ/mol
# Density = 2.192236 g / cm^3
# Si number density = 21.972373 Si / 1000 Ang^3
#
#
#
# Elastic Constant Matrix: (Units=GPa)
#
#
# Indices 1 2 3 4 5 6 
#
# 1 15.9881 11.6393 25.9125 0.0000 0.0000 0.0000
# 2 11.6393 111.8532 49.3907 0.0000 0.0000 0.0000
# 3 25.9125 49.3907 146.7427 0.0000 0.0000 0.0000
# 4 0.0000 0.0000 0.0000 35.8692 0.0000 0.0000
# 5 0.0000 0.0000 0.0000 0.0000 13.7775 0.0000
# 6 0.0000 0.0000 0.0000 0.0000 0.0000 30.5797
#
#
#
# Elastic Compliance Matrix: (Units=1/GPa)
#
#
# Indices 1 2 3 4 5 6 
#
# 1 0.088316 -0.002706 -0.014684 0.000000 0.000000 0.000000
# 2 -0.002706 0.010584 -0.003085 0.000000 0.000000 0.000000
# 3 -0.014684 -0.003085 0.010446 0.000000 0.000000 0.000000
# 4 0.000000 0.000000 0.000000 0.027879 0.000000 0.000000
# 5 0.000000 0.000000 0.000000 0.000000 0.072582 0.000000
# 6 0.000000 0.000000 0.000000 0.000000 0.000000 0.032701
#
#
# Mechanical properties :
#
#
# Convention : Reuss Voigt Hill
#
# Bulk Modulus (GPa) = 14.62076 49.82989 32.22532
# Shear Modulus (GPa) = 16.32619 28.55472 22.44046
#
# Velocity S-wave (km/s) = 2.72882 3.60887 3.19925
# Velocity P-wave (km/s) = 4.07397 6.33190 5.32401
#
# Compressibility (1/GPa) = 0.06839592
#
# Stress axis : x y z
#
# Youngs Moduli (GPa) = 11.32300 94.48336 95.73147
#
# Poissons Ratio (x) = 0.25566 1.40577
# Poissons Ratio (y) = 0.03064 0.29528
# Poissons Ratio (z) = 0.16627 0.29143
#
# Static dielectric constant tensor:
#      x y z
#    x 1.968570 0.000000 0.000000 
#    y 0.000000 1.809960 0.000000 
#    z 0.000000 0.000000 1.795660 
# 
# From -- ./inp_files/18749.got.cif
#   From: 2010.05.17/outbox.cif.g08.bks.cpg/sg56_10_cif.got.tgz:18749.got - 2010.06.03 13:42:01.
