data_PCOD9430298
_publ_section_title
;
Structure prediction by ZEFSAII (Michael W. Deem and Ramdas Pophale) SiO2 
 PCOD9430298
Probable space group: P C C N
;
_chemical_formula_sum "Si O2"
_cell_formula_units_Z 40
_cell_length_a 7.421107
_cell_length_b 15.430476
_cell_length_c 13.431560
_cell_angle_alpha 90.000000
_cell_angle_beta 90.000000
_cell_angle_gamma 90.000000
_cell_volume 1538.064234
_symmetry_space_group_name_H-M "P C C N"
_symmetry_group_IT_number 56
_symmetry_cell_setting 'orthorhombic'
loop_
_space_group_symop_operation_xyz
x,y,z
1/2-x,1/2-y,z
1/2+x,-y,1/2-z
-x,1/2+y,1/2-z
-x,-y,-z
1/2+x,1/2+y,-z
1/2-x,y,1/2+z
x,1/2-y,1/2+z
loop_
_atom_site_type_symbol
_atom_site_label
_atom_site_fract_x
_atom_site_fract_y
_atom_site_fract_z
Si Si1 0.159245 0.002485 0.602356
Si Si2 0.258904 0.098952 0.424213
Si Si3 0.935303 0.780648 0.739849
Si Si4 0.124527 0.826059 0.077119
Si Si5 0.528899 0.048620 0.695449
O O1 0.248351 0.909493 0.578942
O O2 0.024723 0.992460 0.693786
O O3 0.124807 0.061868 0.507036
O O4 0.329205 0.048252 0.654429
O O5 0.154623 0.163408 0.351150
O O6 0.433007 0.148292 0.470634
O O7 0.351260 0.015055 0.371485
O O8 0.750000 0.750000 0.793941
O O9 0.051301 0.705489 0.686529
O O10 0.066966 0.849093 0.793809
O O11 0.250000 0.750000 0.036177
#
# Coordination Sequence:
#
# PCOD9430298 Si02
#       5
#     8   8   8   8   8
#     4  11  23  41  67  91 124 168 212 258 311 377
#     4  10  23  42  66  90 129 167 212 258 308 381
#     4  10  21  39  64  89 128 168 198 262 325 358
#     4  10  19  37  64  89 125 168 195 261 322 350
#     4  11  20  40  66  92 121 162 214 247 313 376
#
# _framework density 26.006716000000001
#
# number of rings (size 3 to 8) (size 9 to 14) (size 15 to 20)
#    0.000    1.600    4.000    2.400    0.000    0.800 
#    0.000    5.000   17.600    0.000    0.000    0.000 
#    0.000    0.000    0.000    0.000    0.000    0.000 
#
# Total GULP energy -223489.185869 kJ/mol
# GULP energy per Si atom -5587.229647 kJ/mol
# Density = 2.594752 g / cm^3
# Si number density = 26.006716 Si / 1000 Ang^3
#
#
#
# Elastic Constant Matrix: (Units=GPa)
#
#
# Indices 1 2 3 4 5 6 
#
# 1 105.7970 16.8007 -12.1120 0.0000 0.0000 0.0000
# 2 16.8007 106.2400 25.6590 0.0000 0.0000 0.0000
# 3 -12.1120 25.6590 49.7663 0.0000 0.0000 0.0000
# 4 0.0000 0.0000 0.0000 28.9494 0.0000 0.0000
# 5 0.0000 0.0000 0.0000 0.0000 6.9054 0.0000
# 6 0.0000 0.0000 0.0000 0.0000 0.0000 55.8053
#
#
#
# Elastic Compliance Matrix: (Units=1/GPa)
#
#
# Indices 1 2 3 4 5 6 
#
# 1 0.010295 -0.002551 0.003821 0.000000 0.000000 0.000000
# 2 -0.002551 0.011383 -0.006490 0.000000 0.000000 0.000000
# 3 0.003821 -0.006490 0.024370 0.000000 0.000000 0.000000
# 4 0.000000 0.000000 0.000000 0.034543 0.000000 0.000000
# 5 0.000000 0.000000 0.000000 0.000000 0.144815 0.000000
# 6 0.000000 0.000000 0.000000 0.000000 0.000000 0.017919
#
#
# Mechanical properties :
#
#
# Convention : Reuss Voigt Hill
#
# Bulk Modulus (GPa) = 28.08384 35.83320 31.95852
# Shear Modulus (GPa) = 18.82285 33.76238 26.29262
#
# Velocity S-wave (km/s) = 2.69321 3.60699 3.18306
# Velocity P-wave (km/s) = 4.52696 5.58171 5.08177
#
# Compressibility (1/GPa) = 0.03560767
#
# Stress axis : x y z
#
# Youngs Moduli (GPa) = 97.13914 87.84660 41.03412
#
# Poissons Ratio (x) = 0.22407 -0.15677
# Poissons Ratio (y) = 0.24777 0.26631
# Poissons Ratio (z) = -0.37113 0.57012
#
# Static dielectric constant tensor:
#      x y z
#    x 2.081470 0.000000 0.000000 
#    y 0.000000 2.089970 0.000000 
#    z 0.000000 0.000000 2.120820 
# 
# From -- ./inp_files/10351.got.cif
#   From: 2010.05.17/outbox.cif.g08.bks.cpg/sg56_6_cif.got.tgz:10351.got - 2010.06.03 13:42:01.
