data_PCOD9430474
_publ_section_title
;
Structure prediction by ZEFSAII (Michael W. Deem and Ramdas Pophale) SiO2 
 PCOD9430474
Probable space group: P C C N
;
_chemical_formula_sum "Si O2"
_cell_formula_units_Z 64
_cell_length_a 23.003398
_cell_length_b 17.060162
_cell_length_c 9.182308
_cell_angle_alpha 90.000000
_cell_angle_beta 90.000000
_cell_angle_gamma 90.000000
_cell_volume 3603.520529
_symmetry_space_group_name_H-M "P C C N"
_symmetry_group_IT_number 56
_symmetry_cell_setting 'orthorhombic'
loop_
_space_group_symop_operation_xyz
x,y,z
1/2-x,1/2-y,z
1/2+x,-y,1/2-z
-x,1/2+y,1/2-z
-x,-y,-z
1/2+x,1/2+y,-z
1/2-x,y,1/2+z
x,1/2-y,1/2+z
loop_
_atom_site_type_symbol
_atom_site_label
_atom_site_fract_x
_atom_site_fract_y
_atom_site_fract_z
Si Si1 0.950577 0.567885 0.162879
Si Si2 0.508784 0.921663 0.692470
Si Si3 0.215406 0.350311 0.150314
Si Si4 0.543153 0.270911 0.652940
Si Si5 0.055555 0.160168 0.061098
Si Si6 0.880909 0.974542 0.377952
Si Si7 0.575693 0.141810 0.884281
Si Si8 0.318210 0.198100 0.474669
O O1 0.929101 0.632499 0.276718
O O2 0.966706 0.489916 0.252543
O O3 0.011852 0.600491 0.100168
O O4 0.906582 0.547574 0.035874
O O5 0.481904 0.840063 0.747624
O O6 0.520457 0.908025 0.522431
O O7 0.570925 0.940512 0.766417
O O8 0.179729 0.430555 0.142915
O O9 0.207060 0.317211 0.313709
O O10 0.188681 0.286025 0.037894
O O11 0.281340 0.353613 0.091372
O O12 0.487488 0.233273 0.572237
O O13 0.570880 0.201699 0.749548
O O14 0.584357 0.308776 0.531069
O O15 0.114072 0.178576 0.976321
O O16 0.881455 0.068657 0.363031
#
# Coordination Sequence:
#
# PCOD9430474 Si02
#       8
#     8   8   8   8   8   8   8   8
#     4  10  21  31  52  73 110 147 182 215 268 332
#     4  11  18  35  47  76 109 144 180 219 262 325
#     4  11  24  39  58  76 110 142 185 238 271 319
#     4  11  19  31  50  76 109 144 183 214 262 328
#     4  11  23  31  52  76 107 145 180 221 268 321
#     4  11  20  36  55  73 109 152 188 222 279 321
#     4  10  20  33  49  78 109 150 180 222 259 334
#     4  11  24  39  55  79 105 140 192 228 270 318
#
# _framework density 17.760408999999999
#
# number of rings (size 3 to 8) (size 9 to 14) (size 15 to 20)
#    0.000    1.250    5.000    3.375    3.500    0.000 
#    0.000    0.000    0.000    0.000    0.000    0.000 
#    0.000    8.000    0.000    0.000    0.000    0.000 
#
# Total GULP energy -357194.345264 kJ/mol
# GULP energy per Si atom -5581.161645 kJ/mol
# Density = 1.771999 g / cm^3
# Si number density = 17.760409 Si / 1000 Ang^3
#
#
#
# Elastic Constant Matrix: (Units=GPa)
#
#
# Indices 1 2 3 4 5 6 
#
# 1 28.2808 27.5818 5.1361 0.0000 0.0000 0.0000
# 2 27.5818 106.3783 27.5905 0.0000 0.0000 0.0000
# 3 5.1361 27.5905 86.5413 0.0000 0.0000 0.0000
# 4 0.0000 0.0000 0.0000 28.9246 0.0000 0.0000
# 5 0.0000 0.0000 0.0000 0.0000 14.4732 0.0000
# 6 0.0000 0.0000 0.0000 0.0000 0.0000 27.8843
#
#
#
# Elastic Compliance Matrix: (Units=1/GPa)
#
#
# Indices 1 2 3 4 5 6 
#
# 1 0.047443 -0.012614 0.001206 0.000000 0.000000 0.000000
# 2 -0.012614 0.013601 -0.003588 0.000000 0.000000 0.000000
# 3 0.001206 -0.003588 0.012627 0.000000 0.000000 0.000000
# 4 0.000000 0.000000 0.000000 0.034573 0.000000 0.000000
# 5 0.000000 0.000000 0.000000 0.000000 0.069093 0.000000
# 6 0.000000 0.000000 0.000000 0.000000 0.000000 0.035862
#
#
# Mechanical properties :
#
#
# Convention : Reuss Voigt Hill
#
# Bulk Modulus (GPa) = 22.89366 37.97969 30.43667
# Shear Modulus (GPa) = 19.39858 24.98256 22.19057
#
# Velocity S-wave (km/s) = 3.30849 3.75459 3.53858
# Velocity P-wave (km/s) = 5.24529 6.34246 5.81979
#
# Compressibility (1/GPa) = 0.04368022
#
# Stress axis : x y z
#
# Youngs Moduli (GPa) = 21.07810 73.52187 79.19270
#
# Poissons Ratio (x) = 0.92738 -0.09549
# Poissons Ratio (y) = 0.26587 0.28412
# Poissons Ratio (z) = -0.02541 0.26377
#
# Static dielectric constant tensor:
#      x y z
#    x 1.594550 0.000000 0.000000 
#    y 0.000000 1.626940 0.000000 
#    z 0.000000 0.000000 1.643930 
# 
# From -- ./inp_files/5030.got.cif
#   From: 2010.05.17/outbox.cif.g08.bks.cpg/sg56_3_cif.got.tgz:5030.got - 2010.06.03 13:42:01.
