data_PCOD9430194
_publ_section_title
;
Structure prediction by ZEFSAII (Michael W. Deem and Ramdas Pophale) SiO2 
 PCOD9430194
Probable space group: P C C N
;
_chemical_formula_sum "Si O2"
_cell_formula_units_Z 44
_cell_length_a 18.162233
_cell_length_b 5.307944
_cell_length_c 19.379317
_cell_angle_alpha 90.000000
_cell_angle_beta 90.000000
_cell_angle_gamma 90.000000
_cell_volume 1868.245918
_symmetry_space_group_name_H-M "P C C N"
_symmetry_group_IT_number 56
_symmetry_cell_setting 'orthorhombic'
loop_
_space_group_symop_operation_xyz
x,y,z
1/2-x,1/2-y,z
1/2+x,-y,1/2-z
-x,1/2+y,1/2-z
-x,-y,-z
1/2+x,1/2+y,-z
1/2-x,y,1/2+z
x,1/2-y,1/2+z
loop_
_atom_site_type_symbol
_atom_site_label
_atom_site_fract_x
_atom_site_fract_y
_atom_site_fract_z
Si Si1 0.250000 0.250000 0.150282
Si Si2 0.341797 0.598115 0.225996
Si Si3 0.120056 0.284315 0.041110
Si Si4 0.055194 0.783027 0.095516
Si Si5 0.750000 0.250000 0.658582
Si Si6 0.536712 0.764271 0.218272
Si Si7 0.750000 0.750000 0.068839
O O1 0.266223 0.490933 0.195651
O O2 0.178636 0.287578 0.103893
O O3 0.388927 0.703061 0.162043
O O4 0.322820 0.755525 0.293394
O O5 0.384177 0.351408 0.255675
O O6 0.075436 0.543884 0.048838
O O7 0.175376 0.255340 0.977141
O O8 0.068760 0.041847 0.054533
O O9 0.978049 0.758275 0.136316
O O10 0.748990 0.498780 0.613376
O O11 0.511307 0.504031 0.253522
#
# Coordination Sequence:
#
# PCOD9430194 Si02
#       7
#     4   8   8   8   4   8   4
#     4   9  17  32  54  84 109 139 176 230 286 325
#     4  10  21  35  57  89 123 148 180 225 293 362
#     4  10  20  36  58  79 107 140 196 245 272 320
#     4  10  19  35  60  86 109 142 182 237 287 324
#     4  12  24  38  56  80 120 156 184 226 284 354
#     4  10  20  34  55  87 123 151 179 223 289 358
#     4  11  25  40  56  80 109 157 198 236 284 325
#
# _framework density 23.551501999999999
#
# number of rings (size 3 to 8) (size 9 to 14) (size 15 to 20)
#    0.000    1.818    0.000    6.000    0.000   10.909 
#    0.000    0.000    0.000    6.545    0.000    0.000 
#    0.000    0.000    0.000    0.000    0.000    0.000 
#
# Total GULP energy -245969.378761 kJ/mol
# GULP energy per Si atom -5590.213154 kJ/mol
# Density = 2.349790 g / cm^3
# Si number density = 23.551502 Si / 1000 Ang^3
#
#
#
# Elastic Constant Matrix: (Units=GPa)
#
#
# Indices 1 2 3 4 5 6 
#
# 1 43.0407 26.8893 35.2236 0.0000 0.0000 0.0000
# 2 26.8893 172.1434 46.3019 0.0000 0.0000 0.0000
# 3 35.2236 46.3019 86.7038 0.0000 0.0000 0.0000
# 4 0.0000 0.0000 0.0000 27.7275 0.0000 0.0000
# 5 0.0000 0.0000 0.0000 0.0000 43.0860 0.0000
# 6 0.0000 0.0000 0.0000 0.0000 0.0000 33.9143
#
#
#
# Elastic Compliance Matrix: (Units=1/GPa)
#
#
# Indices 1 2 3 4 5 6 
#
# 1 0.035350 -0.001937 -0.013327 0.000000 0.000000 0.000000
# 2 -0.001937 0.006890 -0.002892 0.000000 0.000000 0.000000
# 3 -0.013327 -0.002892 0.018492 0.000000 0.000000 0.000000
# 4 0.000000 0.000000 0.000000 0.036065 0.000000 0.000000
# 5 0.000000 0.000000 0.000000 0.000000 0.023209 0.000000
# 6 0.000000 0.000000 0.000000 0.000000 0.000000 0.029486
#
#
# Mechanical properties :
#
#
# Convention : Reuss Voigt Hill
#
# Bulk Modulus (GPa) = 40.95045 57.63528 49.29287
# Shear Modulus (GPa) = 25.78054 33.84378 29.81216
#
# Velocity S-wave (km/s) = 3.31213 3.79491 3.56171
# Velocity P-wave (km/s) = 5.66148 6.61263 6.15545
#
# Compressibility (1/GPa) = 0.02441976
#
# Stress axis : x y z
#
# Youngs Moduli (GPa) = 28.28828 145.14527 54.07757
#
# Poissons Ratio (x) = 0.28120 0.72067
# Poissons Ratio (y) = 0.05480 0.15640
# Poissons Ratio (z) = 0.37699 0.41979
#
# Static dielectric constant tensor:
#      x y z
#    x 1.958400 0.000000 0.000000 
#    y 0.000000 1.882010 0.000000 
#    z 0.000000 0.000000 1.879930 
# 
# From -- ./inp_files/17592.got.cif
#   From: 2010.05.17/outbox.cif.g08.bks.cpg/sg56_9_cif.got.tgz:17592.got - 2010.06.03 13:42:01.
