data_PCOD9430383
_publ_section_title
;
Structure prediction by ZEFSAII (Michael W. Deem and Ramdas Pophale) SiO2 
 PCOD9430383
Probable space group: P C C N
;
_chemical_formula_sum "Si O2"
_cell_formula_units_Z 60
_cell_length_a 7.597507
_cell_length_b 13.839744
_cell_length_c 24.817772
_cell_angle_alpha 90.000000
_cell_angle_beta 90.000000
_cell_angle_gamma 90.000000
_cell_volume 2609.527970
_symmetry_space_group_name_H-M "P C C N"
_symmetry_group_IT_number 56
_symmetry_cell_setting 'orthorhombic'
loop_
_space_group_symop_operation_xyz
x,y,z
1/2-x,1/2-y,z
1/2+x,-y,1/2-z
-x,1/2+y,1/2-z
-x,-y,-z
1/2+x,1/2+y,-z
1/2-x,y,1/2+z
x,1/2-y,1/2+z
loop_
_atom_site_type_symbol
_atom_site_label
_atom_site_fract_x
_atom_site_fract_y
_atom_site_fract_z
Si Si1 0.730386 0.359600 0.747691
Si Si2 0.911756 0.688864 0.964553
Si Si3 0.867244 0.536033 0.121904
Si Si4 0.610559 0.322997 0.435991
Si Si5 0.563274 0.334490 0.642133
Si Si6 0.158665 0.433906 0.270028
Si Si7 0.787304 0.496304 0.504169
Si Si8 0.250000 0.250000 0.207599
O O1 0.750000 0.250000 0.769115
O O2 0.727514 0.345542 0.682043
O O3 0.840132 0.458102 0.755860
O O4 0.537595 0.393461 0.766334
O O5 0.750000 0.750000 0.943194
O O6 0.063927 0.694469 0.919901
O O7 0.824223 0.584878 0.977591
O O8 0.984073 0.729344 0.020729
O O9 0.993367 0.446989 0.138387
O O10 0.733487 0.557610 0.169798
O O11 0.766983 0.502976 0.067208
O O12 0.988651 0.625814 0.107199
O O13 0.750000 0.250000 0.412246
O O14 0.710670 0.403101 0.472828
O O15 0.420765 0.270050 0.672025
O O16 0.271674 0.349047 0.241180
O O17 0.000000 0.500000 0.500000
#
# Coordination Sequence:
#
# PCOD9430383 Si02
#       8
#     8   8   8   8   8   8   8   4
#     4  10  24  45  74 108 140 184 246 302 372 439
#     4  11  20  38  65  99 134 180 226 285 348 414
#     4  10  21  47  70  95 140 193 234 291 363 433
#     4  11  22  40  68  99 142 182 230 291 348 429
#     4  10  19  39  71  97 129 176 227 297 354 416
#     4  10  24  46  75 101 147 188 235 310 373 441
#     4  11  22  41  63  99 143 180 235 285 343 419
#     4  10  22  42  72 100 134 180 238 296 366 420
#
# _framework density 22.992664999999999
#
# number of rings (size 3 to 8) (size 9 to 14) (size 15 to 20)
#    0.000    1.600    3.333    1.600    3.733    0.533 
#   16.800    0.000   17.600    0.000    0.000    0.000 
#    0.000    0.000    0.000    0.000    0.000    0.000 
#
# Total GULP energy -334740.296065 kJ/mol
# GULP energy per Si atom -5579.004934 kJ/mol
# Density = 2.294033 g / cm^3
# Si number density = 22.992665 Si / 1000 Ang^3
#
#
#
# Elastic Constant Matrix: (Units=GPa)
#
#
# Indices 1 2 3 4 5 6 
#
# 1 111.4398 54.9855 26.1311 0.0000 0.0000 0.0000
# 2 54.9855 149.8754 45.1806 0.0000 0.0000 0.0000
# 3 26.1311 45.1806 73.0450 0.0000 0.0000 0.0000
# 4 0.0000 0.0000 0.0000 11.2218 0.0000 0.0000
# 5 0.0000 0.0000 0.0000 0.0000 -1.0067 0.0000
# 6 0.0000 0.0000 0.0000 0.0000 0.0000 47.5009
#
#
#
# Elastic Compliance Matrix: (Units=1/GPa)
#
#
# Indices 1 2 3 4 5 6 
#
# 1 0.011144 -0.003548 -0.001792 0.000000 0.000000 0.000000
# 2 -0.003548 0.009331 -0.004502 0.000000 0.000000 0.000000
# 3 -0.001792 -0.004502 0.017116 0.000000 0.000000 0.000000
# 4 0.000000 0.000000 0.000000 0.089113 0.000000 0.000000
# 5 0.000000 0.000000 0.000000 0.000000 -0.993373 0.000000
# 6 0.000000 0.000000 0.000000 0.000000 0.000000 0.021052
#
#
# Mechanical properties :
#
#
# Convention : Reuss Voigt Hill
#
# Bulk Modulus (GPa) = 55.84594 65.21716 60.53155
# Shear Modulus (GPa) = -6.09785 25.41407 9.65811
#
# Velocity S-wave (km/s) = -1.63029 3.32823 2.05174
# Velocity P-wave (km/s) = 4.56043 6.57232 5.65654
#
# Compressibility (1/GPa) = 0.01790640
#
# Stress axis : x y z
#
# Youngs Moduli (GPa) = 89.73053 107.16669 58.42469
#
# Poissons Ratio (x) = 0.38027 0.10470
# Poissons Ratio (y) = 0.31840 0.26304
# Poissons Ratio (z) = 0.16080 0.48249
#
# Static dielectric constant tensor:
#      x y z
#    x 1.885580 0.000000 0.000000 
#    y 0.000000 1.904900 0.000000 
#    z 0.000000 0.000000 1.891250 
# 
# From -- ./inp_files/22138.got.cif
#   From: 2010.05.17/outbox.cif.g08.bks.cpg/sg56_12_cif.got.tgz:22138.got - 2010.06.03 13:42:01.
