data_PCOD9430489
_publ_section_title
;
Structure prediction by ZEFSAII (Michael W. Deem and Ramdas Pophale) SiO2 
 PCOD9430489
Probable space group: P C C N
;
_chemical_formula_sum "Si O2"
_cell_formula_units_Z 32
_cell_length_a 14.792194
_cell_length_b 6.805812
_cell_length_c 12.724884
_cell_angle_alpha 90.000000
_cell_angle_beta 90.000000
_cell_angle_gamma 90.000000
_cell_volume 1281.050865
_symmetry_space_group_name_H-M "P C C N"
_symmetry_group_IT_number 56
_symmetry_cell_setting 'orthorhombic'
loop_
_space_group_symop_operation_xyz
x,y,z
1/2-x,1/2-y,z
1/2+x,-y,1/2-z
-x,1/2+y,1/2-z
-x,-y,-z
1/2+x,1/2+y,-z
1/2-x,y,1/2+z
x,1/2-y,1/2+z
loop_
_atom_site_type_symbol
_atom_site_label
_atom_site_fract_x
_atom_site_fract_y
_atom_site_fract_z
Si Si1 0.731150 0.015949 0.200026
Si Si2 0.115491 0.922833 0.105396
Si Si3 0.907962 0.403080 0.039470
Si Si4 0.917663 0.518762 0.622548
O O1 0.750000 0.250000 0.187326
O O2 0.681821 0.992234 0.309760
O O3 0.663223 0.968912 0.104064
O O4 0.830870 0.927623 0.190347
O O5 0.014251 0.895435 0.150965
O O6 0.140182 0.708840 0.058080
O O7 0.104657 0.055952 0.000961
O O8 0.931416 0.218796 0.116536
O O9 0.000000 0.500000 0.000000
#
# Coordination Sequence:
#
# PCOD9430489 Si02
#       4
#     8   8   8   8
#     4  10  20  33  59  86 105 150 196 218 281 339
#     4   9  19  37  59  79 117 146 185 241 264 338
#     4   9  19  35  55  85 111 141 188 232 276 327
#     4   8  19  39  55  84 109 148 191 227 278 328
#
# _framework density 24.979490999999999
#
# number of rings (size 3 to 8) (size 9 to 14) (size 15 to 20)
#    1.500    1.500    0.000    0.000    3.500    4.000 
#    0.000    1.250    0.000    6.000    0.000    0.000 
#    0.000    0.000    0.000    0.000    0.000    0.000 
#
# Total GULP energy -178651.783264 kJ/mol
# GULP energy per Si atom -5582.868227 kJ/mol
# Density = 2.492264 g / cm^3
# Si number density = 24.979491 Si / 1000 Ang^3
#
#
#
# Elastic Constant Matrix: (Units=GPa)
#
#
# Indices 1 2 3 4 5 6 
#
# 1 130.1703 12.3457 99.0912 0.0000 0.0000 0.0000
# 2 12.3457 77.8132 20.5415 0.0000 0.0000 0.0000
# 3 99.0912 20.5415 113.7756 0.0000 0.0000 0.0000
# 4 0.0000 0.0000 0.0000 20.9536 0.0000 0.0000
# 5 0.0000 0.0000 0.0000 0.0000 51.8496 0.0000
# 6 0.0000 0.0000 0.0000 0.0000 0.0000 23.7568
#
#
#
# Elastic Compliance Matrix: (Units=1/GPa)
#
#
# Indices 1 2 3 4 5 6 
#
# 1 0.023013 0.001722 -0.020354 0.000000 0.000000 0.000000
# 2 0.001722 0.013623 -0.003959 0.000000 0.000000 0.000000
# 3 -0.020354 -0.003959 0.027231 0.000000 0.000000 0.000000
# 4 0.000000 0.000000 0.000000 0.047724 0.000000 0.000000
# 5 0.000000 0.000000 0.000000 0.000000 0.019287 0.000000
# 6 0.000000 0.000000 0.000000 0.000000 0.000000 0.042093
#
#
# Mechanical properties :
#
#
# Convention : Reuss Voigt Hill
#
# Bulk Modulus (GPa) = 53.51901 65.07953 59.29927
# Shear Modulus (GPa) = 22.28342 31.96406 27.12374
#
# Velocity S-wave (km/s) = 2.98999 3.58105 3.29878
# Velocity P-wave (km/s) = 5.77856 6.57330 6.18870
#
# Compressibility (1/GPa) = 0.01868495
#
# Stress axis : x y z
#
# Youngs Moduli (GPa) = 43.45347 73.40373 36.72301
#
# Poissons Ratio (x) = -0.12639 0.74745
# Poissons Ratio (y) = -0.07482 0.14539
# Poissons Ratio (z) = 0.88444 0.29062
#
# Static dielectric constant tensor:
#      x y z
#    x 1.989190 0.000000 0.000000 
#    y 0.000000 2.115490 0.000000 
#    z 0.000000 0.000000 1.965510 
# 
# From -- ./inp_files/7560.got.cif
#   From: 2010.05.17/outbox.cif.g08.bks.cpg/sg56_4_cif.got.tgz:7560.got - 2010.06.03 13:42:01.
