data_PCOD9430476
_publ_section_title
;
Structure prediction by ZEFSAII (Michael W. Deem and Ramdas Pophale) SiO2 
 PCOD9430476
Probable space group: P C C N
;
_chemical_formula_sum "Si O2"
_cell_formula_units_Z 40
_cell_length_a 6.878833
_cell_length_b 7.456345
_cell_length_c 26.800857
_cell_angle_alpha 90.000000
_cell_angle_beta 90.000000
_cell_angle_gamma 90.000000
_cell_volume 1374.641471
_symmetry_space_group_name_H-M "P C C N"
_symmetry_group_IT_number 56
_symmetry_cell_setting 'orthorhombic'
loop_
_space_group_symop_operation_xyz
x,y,z
1/2-x,1/2-y,z
1/2+x,-y,1/2-z
-x,1/2+y,1/2-z
-x,-y,-z
1/2+x,1/2+y,-z
1/2-x,y,1/2+z
x,1/2-y,1/2+z
loop_
_atom_site_type_symbol
_atom_site_label
_atom_site_fract_x
_atom_site_fract_y
_atom_site_fract_z
Si Si1 0.687065 0.956363 0.930805
Si Si2 0.524825 0.190075 0.727808
Si Si3 0.661585 0.543987 0.141458
Si Si4 0.058530 0.988257 0.672295
Si Si5 0.744135 0.533972 0.036326
O O1 0.750000 0.750000 0.921700
O O2 0.687305 0.052169 0.876091
O O3 0.460309 0.966973 0.948558
O O4 0.793696 0.035100 0.980264
O O5 0.750000 0.250000 0.731935
O O6 0.391170 0.352789 0.709516
O O7 0.526806 0.030156 0.686220
O O8 0.489404 0.150682 0.785905
O O9 0.750000 0.750000 0.138979
O O10 0.606116 0.499353 0.084390
O O11 0.860979 0.436007 0.148924
O O12 0.750000 0.750000 0.030603
#
# Coordination Sequence:
#
# PCOD9430476 Si02
#       5
#     8   8   8   8   8
#     4   9  17  29  50  77 105 139 179 232 288 333
#     4  10  21  34  51  76 105 143 184 222 275 339
#     4   9  17  32  54  74  98 135 178 223 273 336
#     4  10  20  33  50  75 108 141 181 229 276 334
#     4   8  15  30  52  75 101 138 182 227 282 347
#
# _framework density 29.098495
#
# number of rings (size 3 to 8) (size 9 to 14) (size 15 to 20)
#    0.000    2.800    0.000    1.200    0.000    4.000 
#    0.000    0.000    0.000   21.600    0.000    0.000 
#    0.000    0.000    0.000    0.000    0.000    0.000 
#
# Total GULP energy -222968.014112 kJ/mol
# GULP energy per Si atom -5574.200353 kJ/mol
# Density = 2.903227 g / cm^3
# Si number density = 29.098495 Si / 1000 Ang^3
#
#
#
# Elastic Constant Matrix: (Units=GPa)
#
#
# Indices 1 2 3 4 5 6 
#
# 1 44.1219 3.6621 27.1892 0.0000 0.0000 0.0000
# 2 3.6621 110.3308 30.4495 0.0000 0.0000 0.0000
# 3 27.1892 30.4495 369.1475 0.0000 0.0000 0.0000
# 4 0.0000 0.0000 0.0000 8.8670 0.0000 0.0000
# 5 0.0000 0.0000 0.0000 0.0000 59.0091 0.0000
# 6 0.0000 0.0000 0.0000 0.0000 0.0000 44.4029
#
#
#
# Elastic Compliance Matrix: (Units=1/GPa)
#
#
# Indices 1 2 3 4 5 6 
#
# 1 0.023753 -0.000313 -0.001724 0.000000 0.000000 0.000000
# 2 -0.000313 0.009279 -0.000742 0.000000 0.000000 0.000000
# 3 -0.001724 -0.000742 0.002897 0.000000 0.000000 0.000000
# 4 0.000000 0.000000 0.000000 0.112777 0.000000 0.000000
# 5 0.000000 0.000000 0.000000 0.000000 0.016947 0.000000
# 6 0.000000 0.000000 0.000000 0.000000 0.000000 0.022521
#
#
# Mechanical properties :
#
#
# Convention : Reuss Voigt Hill
#
# Bulk Modulus (GPa) = 32.92590 71.80020 52.36305
# Shear Modulus (GPa) = 24.52726 53.27577 38.90151
#
# Velocity S-wave (km/s) = 2.90643 4.28352 3.66032
# Velocity P-wave (km/s) = 4.75426 7.01378 5.99150
#
# Compressibility (1/GPa) = 0.03037123
#
# Stress axis : x y z
#
# Youngs Moduli (GPa) = 42.10060 107.77134 345.16872
#
# Poissons Ratio (x) = 0.03370 0.59496
# Poissons Ratio (y) = 0.01316 0.25624
# Poissons Ratio (z) = 0.07257 0.08000
#
# Static dielectric constant tensor:
#      x y z
#    x 2.388080 0.000000 0.000000 
#    y 0.000000 2.176830 0.000000 
#    z 0.000000 0.000000 2.357470 
# 
# From -- ./inp_files/21970.got.cif
#   From: 2010.05.17/outbox.cif.g08.bks.cpg/sg56_11_cif.got.tgz:21970.got - 2010.06.03 13:42:01.
