data_PCOD9430073
_publ_section_title
;
Structure prediction by ZEFSAII (Michael W. Deem and Ramdas Pophale) SiO2 
 PCOD9430073
Probable space group: P C C N
;
_chemical_formula_sum "Si O2"
_cell_formula_units_Z 40
_cell_length_a 5.440134
_cell_length_b 18.388117
_cell_length_c 16.150221
_cell_angle_alpha 90.000000
_cell_angle_beta 90.000000
_cell_angle_gamma 90.000000
_cell_volume 1615.568308
_symmetry_space_group_name_H-M "P C C N"
_symmetry_group_IT_number 56
_symmetry_cell_setting 'orthorhombic'
loop_
_space_group_symop_operation_xyz
x,y,z
1/2-x,1/2-y,z
1/2+x,-y,1/2-z
-x,1/2+y,1/2-z
-x,-y,-z
1/2+x,1/2+y,-z
1/2-x,y,1/2+z
x,1/2-y,1/2+z
loop_
_atom_site_type_symbol
_atom_site_label
_atom_site_fract_x
_atom_site_fract_y
_atom_site_fract_z
Si Si1 0.608722 0.883110 0.187801
Si Si2 0.611988 0.403029 0.757190
Si Si3 0.251772 0.928836 0.928998
Si Si4 0.500192 0.251914 0.186048
Si Si5 0.248719 0.097933 0.986650
O O1 0.332909 0.917233 0.177566
O O2 0.546650 0.819745 0.253147
O O3 0.714622 0.859339 0.099234
O O4 0.835228 0.930644 0.224756
O O5 0.720701 0.425491 0.669198
O O6 0.547498 0.317134 0.745924
O O7 0.245649 0.012825 0.957821
O O8 0.503405 0.893515 0.961485
O O9 0.002677 0.892070 0.962880
O O10 0.250000 0.250000 0.135391
O O11 0.750000 0.250000 0.134859
#
# Coordination Sequence:
#
# PCOD9430073 Si02
#       5
#     8   8   8   8   8
#     4  10  19  33  56  80 106 141 186 231 277 331
#     4  10  19  33  56  80 106 141 186 231 277 331
#     4  10  21  36  53  78 114 150 184 227 280 337
#     4   8  16  30  50  74 100 130 170 218 268 312
#     4  10  21  36  53  78 114 150 184 227 280 337
#
# _framework density 24.759088999999999
#
# number of rings (size 3 to 8) (size 9 to 14) (size 15 to 20)
#    0.000    2.400    0.000    2.400    0.000    1.600 
#    0.000    0.000    0.000   43.200    0.000    0.000 
#    0.000    0.000    0.000    0.000    0.000    0.000 
#
# Total GULP energy -223085.580424 kJ/mol
# GULP energy per Si atom -5577.139511 kJ/mol
# Density = 2.470274 g / cm^3
# Si number density = 24.759089 Si / 1000 Ang^3
#
#
#
# Elastic Constant Matrix: (Units=GPa)
#
#
# Indices 1 2 3 4 5 6 
#
# 1 311.4882 30.5384 60.2405 0.0000 0.0000 0.0000
# 2 30.5384 63.3196 19.6995 0.0000 0.0000 0.0000
# 3 60.2405 19.6995 83.8851 0.0000 0.0000 0.0000
# 4 0.0000 0.0000 0.0000 20.8978 0.0000 0.0000
# 5 0.0000 0.0000 0.0000 0.0000 61.8907 0.0000
# 6 0.0000 0.0000 0.0000 0.0000 0.0000 -9.6866
#
#
#
# Elastic Compliance Matrix: (Units=1/GPa)
#
#
# Indices 1 2 3 4 5 6 
#
# 1 0.003793 -0.001059 -0.002475 0.000000 0.000000 0.000000
# 2 -0.001059 0.017334 -0.003310 0.000000 0.000000 0.000000
# 3 -0.002475 -0.003310 0.014476 0.000000 0.000000 0.000000
# 4 0.000000 0.000000 0.000000 0.047852 0.000000 0.000000
# 5 0.000000 0.000000 0.000000 0.000000 0.016158 0.000000
# 6 0.000000 0.000000 0.000000 0.000000 0.000000 -0.103235
#
#
# Mechanical properties :
#
#
# Convention : Reuss Voigt Hill
#
# Bulk Modulus (GPa) = 45.63341 75.51666 60.57504
# Shear Modulus (GPa) = 287.86295 37.83468 162.84881
#
# Velocity S-wave (km/s) = 10.79435 3.91335 8.11888
# Velocity P-wave (km/s) = 13.18440 7.14044 10.60222
#
# Compressibility (1/GPa) = 0.02191377
#
# Stress axis : x y z
#
# Youngs Moduli (GPa) = 263.64984 57.69166 69.08094
#
# Poissons Ratio (x) = 0.06111 0.17098
# Poissons Ratio (y) = 0.27927 0.22865
# Poissons Ratio (z) = 0.65255 0.19095
#
# Static dielectric constant tensor:
#      x y z
#    x 2.201920 0.000000 0.000000 
#    y 0.000000 2.106050 0.000000 
#    z 0.000000 0.000000 1.931740 
# 
# From -- ./inp_files/5628.got.cif
#   From: 2010.05.17/outbox.cif.g08.bks.cpg/sg56_3_cif.got.tgz:5628.got - 2010.06.03 13:42:01.
