data_PCOD9430102
_publ_section_title
;
Structure prediction by ZEFSAII (Michael W. Deem and Ramdas Pophale) SiO2 
 PCOD9430102
Probable space group: P C C N
;
_chemical_formula_sum "Si O2"
_cell_formula_units_Z 32
_cell_length_a 7.099807
_cell_length_b 9.071507
_cell_length_c 22.847591
_cell_angle_alpha 90.000000
_cell_angle_beta 90.000000
_cell_angle_gamma 90.000000
_cell_volume 1471.520778
_symmetry_space_group_name_H-M "P C C N"
_symmetry_group_IT_number 56
_symmetry_cell_setting 'orthorhombic'
loop_
_space_group_symop_operation_xyz
x,y,z
1/2-x,1/2-y,z
1/2+x,-y,1/2-z
-x,1/2+y,1/2-z
-x,-y,-z
1/2+x,1/2+y,-z
1/2-x,y,1/2+z
x,1/2-y,1/2+z
loop_
_atom_site_type_symbol
_atom_site_label
_atom_site_fract_x
_atom_site_fract_y
_atom_site_fract_z
Si Si1 0.912827 0.844829 0.383348
Si Si2 0.503250 0.393615 0.819798
Si Si3 0.444060 0.570332 0.706115
Si Si4 0.546974 0.950521 0.435422
O O1 0.750000 0.750000 0.348441
O O2 0.775495 0.938153 0.426212
O O3 0.015902 0.716671 0.418990
O O4 0.022049 0.945456 0.338053
O O5 0.433611 0.508713 0.771404
O O6 0.729640 0.407452 0.814145
O O7 0.456533 0.226318 0.802529
O O8 0.462954 0.441676 0.886030
O O9 0.500000 0.000000 0.500000
#
# Coordination Sequence:
#
# PCOD9430102 Si02
#       4
#     8   8   8   8
#     4   7  16  30  52  68 100 131 168 206 259 294
#     4  10  20  31  55  77 106 134 172 214 260 308
#     4  10  19  34  51  80 102 137 171 211 264 307
#     4   8  15  31  50  71  96 137 168 204 250 303
#
# _framework density 21.746210000000001
#
# number of rings (size 3 to 8) (size 9 to 14) (size 15 to 20)
#    1.500    1.500    0.000    1.500    0.000    0.000 
#    0.000    6.250    0.000   21.000    0.000    0.000 
#    0.000    0.000    0.000    0.000    0.000    0.000 
#
# Total GULP energy -178166.855829 kJ/mol
# GULP energy per Si atom -5567.714245 kJ/mol
# Density = 2.169671 g / cm^3
# Si number density = 21.746210 Si / 1000 Ang^3
#
#
#
# Elastic Constant Matrix: (Units=GPa)
#
#
# Indices 1 2 3 4 5 6 
#
# 1 41.1738 5.8446 14.2643 0.0000 0.0000 0.0000
# 2 5.8446 165.4467 112.7661 0.0000 0.0000 0.0000
# 3 14.2643 112.7661 216.1414 0.0000 0.0000 0.0000
# 4 0.0000 0.0000 0.0000 23.4461 0.0000 0.0000
# 5 0.0000 0.0000 0.0000 0.0000 3.3204 0.0000
# 6 0.0000 0.0000 0.0000 0.0000 0.0000 4.8696
#
#
#
# Elastic Compliance Matrix: (Units=1/GPa)
#
#
# Indices 1 2 3 4 5 6 
#
# 1 0.024870 0.000373 -0.001836 0.000000 0.000000 0.000000
# 2 0.000373 0.009385 -0.004921 0.000000 0.000000 0.000000
# 3 -0.001836 -0.004921 0.007315 0.000000 0.000000 0.000000
# 4 0.000000 0.000000 0.000000 0.042651 0.000000 0.000000
# 5 0.000000 0.000000 0.000000 0.000000 0.301165 0.000000
# 6 0.000000 0.000000 0.000000 0.000000 0.000000 0.205355
#
#
# Mechanical properties :
#
#
# Convention : Reuss Voigt Hill
#
# Bulk Modulus (GPa) = 34.71931 76.50134 55.61032
# Shear Modulus (GPa) = 8.15513 25.65302 16.90407
#
# Velocity S-wave (km/s) = 1.93863 3.43834 2.79110
# Velocity P-wave (km/s) = 4.58382 7.14272 6.00124
#
# Compressibility (1/GPa) = 0.02880242
#
# Stress axis : x y z
#
# Youngs Moduli (GPa) = 40.20847 106.55056 136.70172
#
# Poissons Ratio (x) = -0.03970 0.25095
# Poissons Ratio (y) = -0.01498 0.67272
# Poissons Ratio (z) = 0.07381 0.52434
#
# Static dielectric constant tensor:
#      x y z
#    x 1.892420 0.000000 0.000000 
#    y 0.000000 1.883670 0.000000 
#    z 0.000000 0.000000 1.743290 
# 
# From -- ./inp_files/15344.got.cif
#   From: 2010.05.17/outbox.cif.g08.bks.cpg/sg56_8_cif.got.tgz:15344.got - 2010.06.03 13:42:01.
