data_PCOD9430352
_publ_section_title
;
Structure prediction by ZEFSAII (Michael W. Deem and Ramdas Pophale) SiO2 
 PCOD9430352
Probable space group: P C C N
;
_chemical_formula_sum "Si O2"
_cell_formula_units_Z 40
_cell_length_a 14.277119
_cell_length_b 12.193914
_cell_length_c 8.378457
_cell_angle_alpha 90.000000
_cell_angle_beta 90.000000
_cell_angle_gamma 90.000000
_cell_volume 1458.638768
_symmetry_space_group_name_H-M "P C C N"
_symmetry_group_IT_number 56
_symmetry_cell_setting 'orthorhombic'
loop_
_space_group_symop_operation_xyz
x,y,z
1/2-x,1/2-y,z
1/2+x,-y,1/2-z
-x,1/2+y,1/2-z
-x,-y,-z
1/2+x,1/2+y,-z
1/2-x,y,1/2+z
x,1/2-y,1/2+z
loop_
_atom_site_type_symbol
_atom_site_label
_atom_site_fract_x
_atom_site_fract_y
_atom_site_fract_z
Si Si1 0.883904 0.668623 0.948675
Si Si2 0.914515 0.283875 0.974316
Si Si3 0.639646 0.079014 0.290370
Si Si4 0.942868 0.475431 0.745558
Si Si5 0.721143 0.902156 0.681665
O O1 0.798370 0.643582 0.064532
O O2 0.974397 0.739737 0.989348
O O3 0.926908 0.550894 0.903350
O O4 0.832810 0.692032 0.781990
O O5 0.861889 0.173348 0.924485
O O6 0.921480 0.355785 0.811215
O O7 0.870253 0.352896 0.120802
O O8 0.547378 0.003322 0.302006
O O9 0.726021 0.995561 0.285440
O O10 0.868048 0.526966 0.622646
#
# Coordination Sequence:
#
# PCOD9430352 Si02
#       5
#     8   8   8   8   8
#     4   9  19  39  66  87 125 177 214 272 322 401
#     4  11  21  42  67  93 138 173 223 280 341 386
#     4  11  21  41  67  98 128 177 220 278 336 395
#     4   9  20  40  69  84 135 174 216 274 329 399
#     4  10  19  38  69  89 121 175 225 255 340 389
#
# _framework density 27.422827000000002
#
# number of rings (size 3 to 8) (size 9 to 14) (size 15 to 20)
#    1.200    0.800    4.000    1.200    0.000    2.400 
#    3.600    5.000    4.400    0.000    0.000    0.000 
#    0.000    0.000    0.000    0.000    0.000    0.000 
#
# Total GULP energy -223515.716930 kJ/mol
# GULP energy per Si atom -5587.892923 kJ/mol
# Density = 2.736041 g / cm^3
# Si number density = 27.422827 Si / 1000 Ang^3
#
#
#
# Elastic Constant Matrix: (Units=GPa)
#
#
# Indices 1 2 3 4 5 6 
#
# 1 113.5805 -0.9613 34.8381 0.0000 0.0000 0.0000
# 2 -0.9613 89.4466 27.1478 0.0000 0.0000 0.0000
# 3 34.8381 27.1478 104.1286 0.0000 0.0000 0.0000
# 4 0.0000 0.0000 0.0000 37.0516 0.0000 0.0000
# 5 0.0000 0.0000 0.0000 0.0000 61.4978 0.0000
# 6 0.0000 0.0000 0.0000 0.0000 0.0000 34.8331
#
#
#
# Elastic Compliance Matrix: (Units=1/GPa)
#
#
# Indices 1 2 3 4 5 6 
#
# 1 0.009930 0.001211 -0.003638 0.000000 0.000000 0.000000
# 2 0.001211 0.012288 -0.003609 0.000000 0.000000 0.000000
# 3 -0.003638 -0.003609 0.011762 0.000000 0.000000 0.000000
# 4 0.000000 0.000000 0.000000 0.026989 0.000000 0.000000
# 5 0.000000 0.000000 0.000000 0.000000 0.016261 0.000000
# 6 0.000000 0.000000 0.000000 0.000000 0.000000 0.028708
#
#
# Mechanical properties :
#
#
# Convention : Reuss Voigt Hill
#
# Bulk Modulus (GPa) = 45.64509 47.68945 46.66727
# Shear Modulus (GPa) = 39.89993 43.08525 41.49259
#
# Velocity S-wave (km/s) = 3.81857 3.96807 3.89404
# Velocity P-wave (km/s) = 6.01024 6.19857 6.10513
#
# Compressibility (1/GPa) = 0.02190816
#
# Stress axis : x y z
#
# Youngs Moduli (GPa) = 100.70002 81.37898 85.02251
#
# Poissons Ratio (x) = -0.09854 0.30932
# Poissons Ratio (y) = -0.12194 0.30683
# Poissons Ratio (z) = 0.36636 0.29368
#
# Static dielectric constant tensor:
#      x y z
#    x 2.065880 0.000000 0.000000 
#    y 0.000000 2.138240 0.000000 
#    z 0.000000 0.000000 2.287800 
# 
# From -- ./inp_files/3224.got.cif
#   From: 2010.05.17/outbox.cif.g08.bks.cpg/sg56_2_cif.got.tgz:3224.got - 2010.06.03 13:42:01.
