data_PCOD9430523
_publ_section_title
;
Structure prediction by ZEFSAII (Michael W. Deem and Ramdas Pophale) SiO2 
 PCOD9430523
Probable space group: P C C N
;
_chemical_formula_sum "Si O2"
_cell_formula_units_Z 60
_cell_length_a 17.795657
_cell_length_b 5.953664
_cell_length_c 30.380263
_cell_angle_alpha 90.000000
_cell_angle_beta 90.000000
_cell_angle_gamma 90.000000
_cell_volume 3218.769496
_symmetry_space_group_name_H-M "P C C N"
_symmetry_group_IT_number 56
_symmetry_cell_setting 'orthorhombic'
loop_
_space_group_symop_operation_xyz
x,y,z
1/2-x,1/2-y,z
1/2+x,-y,1/2-z
-x,1/2+y,1/2-z
-x,-y,-z
1/2+x,1/2+y,-z
1/2-x,y,1/2+z
x,1/2-y,1/2+z
loop_
_atom_site_type_symbol
_atom_site_label
_atom_site_fract_x
_atom_site_fract_y
_atom_site_fract_z
Si Si1 0.497930 0.201556 0.357713
Si Si2 0.336469 0.317075 0.518297
Si Si3 0.750000 0.250000 0.864027
Si Si4 0.443999 0.090667 0.446339
Si Si5 0.436323 0.808908 0.998516
Si Si6 0.637185 0.901079 0.389734
Si Si7 0.121007 0.479089 0.177816
Si Si8 0.964005 0.931111 0.238767
O O1 0.441193 0.203217 0.398660
O O2 0.542489 0.428182 0.343582
O O3 0.461146 0.101907 0.313626
O O4 0.563395 0.039364 0.376364
O O5 0.250000 0.250000 0.515681
O O6 0.382012 0.194093 0.479137
O O7 0.358605 0.578302 0.512157
O O8 0.367744 0.241513 0.565791
O O9 0.709783 0.438864 0.893189
O O10 0.816154 0.339643 0.833231
O O11 0.527440 0.142249 0.465807
O O12 0.433679 0.823551 0.452587
O O13 0.500000 0.000000 0.000000
O O14 0.647234 0.738264 0.348259
O O15 0.107612 0.441744 0.229191
O O16 0.001014 0.686114 0.253800
#
# Coordination Sequence:
#
# PCOD9430523 Si02
#       8
#     8   8   4   8   8   8   8   8
#     4  10  20  34  58  84 109 148 194 249 303 357
#     4  11  23  35  53  79 117 157 200 241 301 361
#     4  10  22  34  54  84 116 156 190 232 302 370
#     4  10  20  35  54  80 112 148 196 244 292 350
#     4   9  18  34  53  77 107 142 191 239 290 344
#     4  11  20  35  54  82 115 149 191 242 300 368
#     4  10  20  35  57  82 121 147 192 242 306 368
#     4  10  20  38  59  91 120 150 192 249 307 356
#
# _framework density 18.640661999999999
#
# number of rings (size 3 to 8) (size 9 to 14) (size 15 to 20)
#    0.000    1.867    1.333    4.400    0.000    4.800 
#    0.000    0.000    0.000    3.200    0.000    0.000 
#    0.000    0.000    0.000    0.000    0.000    0.000 
#
# Total GULP energy -334044.367624 kJ/mol
# GULP energy per Si atom -5567.406127 kJ/mol
# Density = 1.859824 g / cm^3
# Si number density = 18.640662 Si / 1000 Ang^3
#
#
#
# Elastic Constant Matrix: (Units=GPa)
#
#
# Indices 1 2 3 4 5 6 
#
# 1 52.7383 12.9059 22.5693 0.0000 0.0000 0.0000
# 2 12.9059 69.8687 8.3681 0.0000 0.0000 0.0000
# 3 22.5693 8.3681 108.8210 0.0000 0.0000 0.0000
# 4 0.0000 0.0000 0.0000 22.3124 0.0000 0.0000
# 5 0.0000 0.0000 0.0000 0.0000 20.4509 0.0000
# 6 0.0000 0.0000 0.0000 0.0000 0.0000 28.8952
#
#
#
# Elastic Compliance Matrix: (Units=1/GPa)
#
#
# Indices 1 2 3 4 5 6 
#
# 1 0.021619 -0.003489 -0.004216 0.000000 0.000000 0.000000
# 2 -0.003489 0.015009 -0.000431 0.000000 0.000000 0.000000
# 3 -0.004216 -0.000431 0.010097 0.000000 0.000000 0.000000
# 4 0.000000 0.000000 0.000000 0.044818 0.000000 0.000000
# 5 0.000000 0.000000 0.000000 0.000000 0.048898 0.000000
# 6 0.000000 0.000000 0.000000 0.000000 0.000000 0.034608
#
#
# Mechanical properties :
#
#
# Convention : Reuss Voigt Hill
#
# Bulk Modulus (GPa) = 32.83506 35.45717 34.14612
# Shear Modulus (GPa) = 24.81770 26.83737 25.82753
#
# Velocity S-wave (km/s) = 3.65276 3.79848 3.72633
# Velocity P-wave (km/s) = 5.95342 6.18875 6.07223
#
# Compressibility (1/GPa) = 0.03045525
#
# Stress axis : x y z
#
# Youngs Moduli (GPa) = 46.25500 66.62881 99.04119
#
# Poissons Ratio (x) = 0.23244 0.41751
# Poissons Ratio (y) = 0.16136 0.04265
# Poissons Ratio (z) = 0.19499 0.02869
#
# Static dielectric constant tensor:
#      x y z
#    x 1.653680 0.000000 0.000000 
#    y 0.000000 1.783780 0.000000 
#    z 0.000000 0.000000 1.659800 
# 
# From -- ./inp_files/22531.got.cif
#   From: 2010.05.17/outbox.cif.g08.bks.cpg/sg56_12_cif.got.tgz:22531.got - 2010.06.03 13:42:01.
