data_PCOD9430197
_publ_section_title
;
Structure prediction by ZEFSAII (Michael W. Deem and Ramdas Pophale) SiO2 
 PCOD9430197
Probable space group: P C C N
;
_chemical_formula_sum "Si O2"
_cell_formula_units_Z 60
_cell_length_a 15.189851
_cell_length_b 13.004015
_cell_length_c 15.231052
_cell_angle_alpha 90.000000
_cell_angle_beta 90.000000
_cell_angle_gamma 90.000000
_cell_volume 3008.575236
_symmetry_space_group_name_H-M "P C C N"
_symmetry_group_IT_number 56
_symmetry_cell_setting 'orthorhombic'
loop_
_space_group_symop_operation_xyz
x,y,z
1/2-x,1/2-y,z
1/2+x,-y,1/2-z
-x,1/2+y,1/2-z
-x,-y,-z
1/2+x,1/2+y,-z
1/2-x,y,1/2+z
x,1/2-y,1/2+z
loop_
_atom_site_type_symbol
_atom_site_label
_atom_site_fract_x
_atom_site_fract_y
_atom_site_fract_z
Si Si1 0.136790 0.563420 0.704601
Si Si2 0.451977 0.731104 0.688859
Si Si3 0.773678 0.526292 0.659783
Si Si4 0.422698 0.216187 0.154967
Si Si5 0.858301 0.474106 0.494226
Si Si6 0.250000 0.250000 0.766975
Si Si7 0.981530 0.670703 0.515455
Si Si8 0.555358 0.002458 0.774232
O O1 0.126676 0.686617 0.695298
O O2 0.203352 0.531151 0.779744
O O3 0.163762 0.521785 0.608932
O O4 0.040344 0.517379 0.730058
O O5 0.501945 0.741022 0.780891
O O6 0.511542 0.774341 0.609432
O O7 0.434862 0.611222 0.677964
O O8 0.777405 0.484576 0.560775
O O9 0.756143 0.647755 0.673634
O O10 0.869919 0.503425 0.700103
O O11 0.333456 0.252947 0.201841
O O12 0.442250 0.256567 0.058795
O O13 0.427101 0.093264 0.161902
O O14 0.919002 0.571858 0.517426
O O15 0.920888 0.374028 0.506403
#
# Coordination Sequence:
#
# PCOD9430197 Si02
#       8
#     8   8   8   8   8   4   8   8
#     4  10  22  39  61  87 117 152 194 242 286 344
#     4  10  20  37  59  83 114 152 195 240 286 340
#     4  11  21  37  61  87 116 151 191 239 292 344
#     4  10  20  36  57  84 116 153 192 238 294 344
#     4  10  19  35  60  87 112 149 200 240 280 343
#     4  10  20  34  52  82 120 146 182 240 294 346
#     4  10  19  35  61  85 111 154 200 238 283 341
#     4  10  21  38  60  86 120 155 191 238 291 342
#
# _framework density 19.942995
#
# number of rings (size 3 to 8) (size 9 to 14) (size 15 to 20)
#    0.000    1.867    0.000    7.200    0.000    1.067 
#    0.000   15.333    0.000    4.800    0.000    0.000 
#    0.000    0.000    0.000    0.000    0.000    0.000 
#
# Total GULP energy -335104.266033 kJ/mol
# GULP energy per Si atom -5585.071101 kJ/mol
# Density = 1.989760 g / cm^3
# Si number density = 19.942995 Si / 1000 Ang^3
#
#
#
# Elastic Constant Matrix: (Units=GPa)
#
#
# Indices 1 2 3 4 5 6 
#
# 1 70.5321 14.2000 41.1463 0.0000 0.0000 0.0000
# 2 14.2000 85.2160 13.7580 0.0000 0.0000 0.0000
# 3 41.1463 13.7580 68.4837 0.0000 0.0000 0.0000
# 4 0.0000 0.0000 0.0000 13.0899 0.0000 0.0000
# 5 0.0000 0.0000 0.0000 0.0000 24.6472 0.0000
# 6 0.0000 0.0000 0.0000 0.0000 0.0000 12.2384
#
#
#
# Elastic Compliance Matrix: (Units=1/GPa)
#
#
# Indices 1 2 3 4 5 6 
#
# 1 0.022034 -0.001586 -0.012920 0.000000 0.000000 0.000000
# 2 -0.001586 0.012242 -0.001507 0.000000 0.000000 0.000000
# 3 -0.012920 -0.001507 0.022667 0.000000 0.000000 0.000000
# 4 0.000000 0.000000 0.000000 0.076395 0.000000 0.000000
# 5 0.000000 0.000000 0.000000 0.000000 0.040573 0.000000
# 6 0.000000 0.000000 0.000000 0.000000 0.000000 0.081710
#
#
# Mechanical properties :
#
#
# Convention : Reuss Voigt Hill
#
# Bulk Modulus (GPa) = 40.13000 40.27117 40.20059
# Shear Modulus (GPa) = 16.89459 20.33693 18.61576
#
# Velocity S-wave (km/s) = 2.91373 3.19682 3.05855
# Velocity P-wave (km/s) = 5.61122 5.81921 5.71616
#
# Compressibility (1/GPa) = 0.02491901
#
# Stress axis : x y z
#
# Youngs Moduli (GPa) = 45.38352 81.68340 44.11634
#
# Poissons Ratio (x) = 0.12953 0.56999
# Poissons Ratio (y) = 0.07197 0.06647
# Poissons Ratio (z) = 0.58636 0.12307
#
# Static dielectric constant tensor:
#      x y z
#    x 1.724570 0.000000 0.000000 
#    y 0.000000 1.728180 0.000000 
#    z 0.000000 0.000000 1.692310 
# 
# From -- ./inp_files/12405.got.cif
#   From: 2010.05.17/outbox.cif.g08.bks.cpg/sg56_7_cif.got.tgz:12405.got - 2010.06.03 13:42:01.
