data_PCOD9430974
_publ_section_title
;
Structure prediction by ZEFSAII (Michael W. Deem and Ramdas Pophale) SiO2 
 PCOD9430974
Probable space group: P C C N
;
_chemical_formula_sum "Si O2"
_cell_formula_units_Z 48
_cell_length_a 12.211292
_cell_length_b 15.426933
_cell_length_c 11.544217
_cell_angle_alpha 90.000000
_cell_angle_beta 90.000000
_cell_angle_gamma 90.000000
_cell_volume 2174.731732
_symmetry_space_group_name_H-M "P C C N"
_symmetry_group_IT_number 56
_symmetry_cell_setting 'orthorhombic'
loop_
_space_group_symop_operation_xyz
x,y,z
1/2-x,1/2-y,z
1/2+x,-y,1/2-z
-x,1/2+y,1/2-z
-x,-y,-z
1/2+x,1/2+y,-z
1/2-x,y,1/2+z
x,1/2-y,1/2+z
loop_
_atom_site_type_symbol
_atom_site_label
_atom_site_fract_x
_atom_site_fract_y
_atom_site_fract_z
Si Si1 0.825247 0.663942 0.963350
Si Si2 0.963852 0.171851 0.377214
Si Si3 0.470882 0.352267 0.758829
Si Si4 0.861781 0.296604 0.097217
Si Si5 0.452011 0.887416 0.371700
Si Si6 0.636671 0.958311 0.531660
O O1 0.750000 0.750000 0.980761
O O2 0.929477 0.654403 0.046430
O O3 0.749580 0.584367 0.999069
O O4 0.872539 0.662520 0.832948
O O5 0.990298 0.266391 0.325805
O O6 0.862090 0.171781 0.465175
O O7 0.947882 0.110486 0.266734
O O8 0.580549 0.367303 0.680422
O O9 0.423577 0.416177 0.855925
O O10 0.750000 0.250000 0.136967
O O11 0.944885 0.213339 0.094533
O O12 0.559197 0.932424 0.423996
O O13 0.357217 0.940840 0.436242
#
# Coordination Sequence:
#
# PCOD9430974 Si02
#       6
#     8   8   8   8   8   8
#     4  11  21  34  63  95 120 159 203 254 311 374
#     4  10  20  39  62  90 120 157 213 251 299 373
#     4  10  21  38  60  93 120 156 207 253 306 373
#     4  10  21  42  65  86 118 167 219 257 296 367
#     4  10  23  42  59  88 124 164 204 252 317 378
#     4  11  22  41  60  90 131 161 192 263 327 370
#
# _framework density 22.071688999999999
#
# number of rings (size 3 to 8) (size 9 to 14) (size 15 to 20)
#    0.000    1.667    3.333    2.000    4.667    2.667 
#    6.000    1.667    0.000    0.000    0.000    0.000 
#    0.000    0.000    0.000    0.000    0.000    0.000 
#
# Total GULP energy -267691.677393 kJ/mol
# GULP energy per Si atom -5576.909946 kJ/mol
# Density = 2.202145 g / cm^3
# Si number density = 22.071689 Si / 1000 Ang^3
#
#
#
# Elastic Constant Matrix: (Units=GPa)
#
#
# Indices 1 2 3 4 5 6 
#
# 1 71.6577 0.9359 25.0584 0.0000 0.0000 0.0000
# 2 0.9359 25.5214 -1.8898 0.0000 0.0000 0.0000
# 3 25.0584 -1.8898 105.9151 0.0000 0.0000 0.0000
# 4 0.0000 0.0000 0.0000 22.9063 0.0000 0.0000
# 5 0.0000 0.0000 0.0000 0.0000 19.9662 0.0000
# 6 0.0000 0.0000 0.0000 0.0000 0.0000 -6.5934
#
#
#
# Elastic Compliance Matrix: (Units=1/GPa)
#
#
# Indices 1 2 3 4 5 6 
#
# 1 0.015231 -0.000826 -0.003618 0.000000 0.000000 0.000000
# 2 -0.000826 0.039280 0.000896 0.000000 0.000000 0.000000
# 3 -0.003618 0.000896 0.010314 0.000000 0.000000 0.000000
# 4 0.000000 0.000000 0.000000 0.043656 0.000000 0.000000
# 5 0.000000 0.000000 0.000000 0.000000 0.050085 0.000000
# 6 0.000000 0.000000 0.000000 0.000000 0.000000 -0.151666
#
#
# Mechanical properties :
#
#
# Convention : Reuss Voigt Hill
#
# Bulk Modulus (GPa) = 17.32274 27.92257 22.62266
# Shear Modulus (GPa) = 150.42899 19.18845 84.80872
#
# Velocity S-wave (km/s) = 8.26454 2.95171 6.20545
# Velocity P-wave (km/s) = 9.94664 4.92900 7.84955
#
# Compressibility (1/GPa) = 0.05772760
#
# Stress axis : x y z
#
# Youngs Moduli (GPa) = 65.65406 25.45855 96.95959
#
# Poissons Ratio (x) = 0.02104 0.35083
# Poissons Ratio (y) = 0.05426 -0.08691
# Poissons Ratio (z) = 0.23756 -0.02282
#
# Static dielectric constant tensor:
#      x y z
#    x 1.869440 0.000000 0.000000 
#    y 0.000000 1.831280 0.000000 
#    z 0.000000 0.000000 1.880250 
# 
# From -- ./inp_files/7134.got.cif
#   From: 2010.05.17/outbox.cif.g08.bks.cpg/sg56_4_cif.got.tgz:7134.got - 2010.06.03 13:42:01.
