data_PCOD9430606
_publ_section_title
;
Structure prediction by ZEFSAII (Michael W. Deem and Ramdas Pophale) SiO2 
 PCOD9430606
Probable space group: P C C N
;
_chemical_formula_sum "Si O2"
_cell_formula_units_Z 40
_cell_length_a 9.816527
_cell_length_b 13.314365
_cell_length_c 13.096083
_cell_angle_alpha 90.000000
_cell_angle_beta 90.000000
_cell_angle_gamma 90.000000
_cell_volume 1711.668833
_symmetry_space_group_name_H-M "P C C N"
_symmetry_group_IT_number 56
_symmetry_cell_setting 'orthorhombic'
loop_
_space_group_symop_operation_xyz
x,y,z
1/2-x,1/2-y,z
1/2+x,-y,1/2-z
-x,1/2+y,1/2-z
-x,-y,-z
1/2+x,1/2+y,-z
1/2-x,y,1/2+z
x,1/2-y,1/2+z
loop_
_atom_site_type_symbol
_atom_site_label
_atom_site_fract_x
_atom_site_fract_y
_atom_site_fract_z
Si Si1 0.501728 0.378352 0.066138
Si Si2 0.390885 0.311784 0.643697
Si Si3 0.704628 0.951573 0.014031
Si Si4 0.184597 0.009035 0.784651
Si Si5 0.777898 0.132869 0.896085
O O1 0.499912 0.275182 0.130282
O O2 0.351181 0.416239 0.035078
O O3 0.578528 0.453751 0.141374
O O4 0.581184 0.367236 0.959675
O O5 0.250000 0.250000 0.658708
O O6 0.391918 0.370916 0.536827
O O7 0.388781 0.399910 0.726261
O O8 0.685370 0.065053 0.973891
O O9 0.706421 0.947224 0.135194
O O10 0.256638 0.931757 0.706997
O O11 0.750000 0.250000 0.878965
#
# Coordination Sequence:
#
# PCOD9430606 Si02
#       5
#     8   8   8   8   8
#     4  10  21  40  63  87 123 161 196 251 307 352
#     4   9  20  39  63  92 118 154 202 246 300 356
#     4   9  20  41  62  85 120 155 200 257 299 350
#     4  10  20  35  59  89 120 160 205 244 292 365
#     4  10  21  37  55  85 124 160 195 240 303 361
#
# _framework density 23.369007
#
# number of rings (size 3 to 8) (size 9 to 14) (size 15 to 20)
#    0.000    2.400    0.000    2.400    0.000    8.800 
#    0.000   18.000    0.000    0.000    0.000    0.000 
#    0.000    0.000    0.000    0.000    0.000    0.000 
#
# Total GULP energy -223252.144656 kJ/mol
# GULP energy per Si atom -5581.303616 kJ/mol
# Density = 2.331582 g / cm^3
# Si number density = 23.369007 Si / 1000 Ang^3
#
#
#
# Elastic Constant Matrix: (Units=GPa)
#
#
# Indices 1 2 3 4 5 6 
#
# 1 34.5707 11.3408 36.6672 0.0000 0.0000 0.0000
# 2 11.3408 170.4827 82.8113 0.0000 0.0000 0.0000
# 3 36.6672 82.8113 158.3468 0.0000 0.0000 0.0000
# 4 0.0000 0.0000 0.0000 19.5037 0.0000 0.0000
# 5 0.0000 0.0000 0.0000 0.0000 18.9826 0.0000
# 6 0.0000 0.0000 0.0000 0.0000 0.0000 4.0341
#
#
#
# Elastic Compliance Matrix: (Units=1/GPa)
#
#
# Indices 1 2 3 4 5 6 
#
# 1 0.039067 0.002407 -0.010305 0.000000 0.000000 0.000000
# 2 0.002407 0.008011 -0.004747 0.000000 0.000000 0.000000
# 3 -0.010305 -0.004747 0.011184 0.000000 0.000000 0.000000
# 4 0.000000 0.000000 0.000000 0.051272 0.000000 0.000000
# 5 0.000000 0.000000 0.000000 0.000000 0.052680 0.000000
# 6 0.000000 0.000000 0.000000 0.000000 0.000000 0.247888
#
#
# Mechanical properties :
#
#
# Convention : Reuss Voigt Hill
#
# Bulk Modulus (GPa) = 30.32916 69.44876 49.88896
# Shear Modulus (GPa) = 11.20114 24.00948 17.60531
#
# Velocity S-wave (km/s) = 2.19170 3.20880 2.74772
# Velocity P-wave (km/s) = 4.40583 6.59631 5.60904
#
# Compressibility (1/GPa) = 0.03297157
#
# Stress axis : x y z
#
# Youngs Moduli (GPa) = 25.59727 124.82062 89.41207
#
# Poissons Ratio (x) = -0.30043 0.92140
# Poissons Ratio (y) = -0.06161 0.42445
# Poissons Ratio (z) = 0.26378 0.59254
#
# Static dielectric constant tensor:
#      x y z
#    x 1.967770 0.000000 0.000000 
#    y 0.000000 1.902250 0.000000 
#    z 0.000000 0.000000 1.876870 
# 
# From -- ./inp_files/6989.got.cif
#   From: 2010.05.17/outbox.cif.g08.bks.cpg/sg56_4_cif.got.tgz:6989.got - 2010.06.03 13:42:01.
