data_PCOD9430657
_publ_section_title
;
Structure prediction by ZEFSAII (Michael W. Deem and Ramdas Pophale) SiO2 
 PCOD9430657
Probable space group: P C C N
;
_chemical_formula_sum "Si O2"
_cell_formula_units_Z 48
_cell_length_a 6.046718
_cell_length_b 14.821939
_cell_length_c 25.529810
_cell_angle_alpha 90.000000
_cell_angle_beta 90.000000
_cell_angle_gamma 90.000000
_cell_volume 2288.085870
_symmetry_space_group_name_H-M "P C C N"
_symmetry_group_IT_number 56
_symmetry_cell_setting 'orthorhombic'
loop_
_space_group_symop_operation_xyz
x,y,z
1/2-x,1/2-y,z
1/2+x,-y,1/2-z
-x,1/2+y,1/2-z
-x,-y,-z
1/2+x,1/2+y,-z
1/2-x,y,1/2+z
x,1/2-y,1/2+z
loop_
_atom_site_type_symbol
_atom_site_label
_atom_site_fract_x
_atom_site_fract_y
_atom_site_fract_z
Si Si1 0.950951 0.505710 0.110204
Si Si2 0.250000 0.750000 0.533346
Si Si3 0.558684 0.671727 0.446703
Si Si4 0.316968 0.928665 0.685408
Si Si5 0.389775 0.340624 0.894845
Si Si6 0.250000 0.750000 0.858702
Si Si7 0.857443 0.413013 0.698949
O O1 0.764796 0.574715 0.087463
O O2 0.823819 0.455860 0.158909
O O3 0.070666 0.435574 0.069510
O O4 0.133649 0.564018 0.140482
O O5 0.405394 0.687169 0.497204
O O6 0.410946 0.814349 0.566486
O O7 0.750000 0.750000 0.451946
O O8 0.418989 0.703055 0.397126
O O9 0.506819 0.865635 0.661502
O O10 0.222930 0.904575 0.741785
O O11 0.427491 0.026158 0.693846
O O12 0.250000 0.250000 0.890901
O O13 0.394019 0.685277 0.823217
#
# Coordination Sequence:
#
# PCOD9430657 Si02
#       7
#     8   4   8   8   8   4   8
#     4  10  22  40  65  96 130 170 215 265 324 388
#     4  11  24  45  66  88 130 165 218 279 332 398
#     4  10  21  41  67  94 124 163 213 275 331 395
#     4  11  21  39  63  89 134 169 210 261 313 385
#     4  11  25  44  63  92 129 172 221 272 329 396
#     4   9  20  35  56  90 124 161 210 261 314 374
#     4  10  20  36  58  91 128 171 210 252 313 377
#
# _framework density 20.978232999999999
#
# number of rings (size 3 to 8) (size 9 to 14) (size 15 to 20)
#    0.000    1.667    1.667    2.500    0.000    4.000 
#    0.000    6.667    0.000    0.000    0.000    0.000 
#    0.000    0.000    0.000    0.000    0.000    0.000 
#
# Total GULP energy -267488.136430 kJ/mol
# GULP energy per Si atom -5572.669509 kJ/mol
# Density = 2.093049 g / cm^3
# Si number density = 20.978233 Si / 1000 Ang^3
#
#
#
# Elastic Constant Matrix: (Units=GPa)
#
#
# Indices 1 2 3 4 5 6 
#
# 1 78.3338 27.9632 41.2721 0.0000 0.0000 0.0000
# 2 27.9632 80.1088 56.6233 0.0000 0.0000 0.0000
# 3 41.2721 56.6233 100.4385 0.0000 0.0000 0.0000
# 4 0.0000 0.0000 0.0000 42.5348 0.0000 0.0000
# 5 0.0000 0.0000 0.0000 0.0000 22.1673 0.0000
# 6 0.0000 0.0000 0.0000 0.0000 0.0000 20.6609
#
#
#
# Elastic Compliance Matrix: (Units=1/GPa)
#
#
# Indices 1 2 3 4 5 6 
#
# 1 0.016416 -0.001600 -0.005844 0.000000 0.000000 0.000000
# 2 -0.001600 0.020908 -0.011130 0.000000 0.000000 0.000000
# 3 -0.005844 -0.011130 0.018632 0.000000 0.000000 0.000000
# 4 0.000000 0.000000 0.000000 0.023510 0.000000 0.000000
# 5 0.000000 0.000000 0.000000 0.000000 0.045112 0.000000
# 6 0.000000 0.000000 0.000000 0.000000 0.000000 0.048400
#
#
# Mechanical properties :
#
#
# Convention : Reuss Voigt Hill
#
# Bulk Modulus (GPa) = 53.16399 56.73314 54.94857
# Shear Modulus (GPa) = 23.10582 25.94076 24.52329
#
# Velocity S-wave (km/s) = 3.32236 3.52028 3.42276
# Velocity P-wave (km/s) = 6.33364 6.60498 6.47073
#
# Compressibility (1/GPa) = 0.01880972
#
# Stress axis : x y z
#
# Youngs Moduli (GPa) = 60.91677 47.82754 53.67015
#
# Poissons Ratio (x) = 0.07651 0.31364
# Poissons Ratio (y) = 0.09745 0.59735
# Poissons Ratio (z) = 0.35598 0.53232
#
# Static dielectric constant tensor:
#      x y z
#    x 1.714530 0.000000 0.000000 
#    y 0.000000 1.833420 0.000000 
#    z 0.000000 0.000000 1.712930 
# 
# From -- ./inp_files/21705.got.cif
#   From: 2010.05.17/outbox.cif.g08.bks.cpg/sg56_11_cif.got.tgz:21705.got - 2010.06.03 13:42:01.
