data_PCOD9430869
_publ_section_title
;
Structure prediction by ZEFSAII (Michael W. Deem and Ramdas Pophale) SiO2 
 PCOD9430869
Probable space group: P C C N
;
_chemical_formula_sum "Si O2"
_cell_formula_units_Z 64
_cell_length_a 27.079977
_cell_length_b 7.398889
_cell_length_c 13.484411
_cell_angle_alpha 90.000000
_cell_angle_beta 90.000000
_cell_angle_gamma 90.000000
_cell_volume 2701.760104
_symmetry_space_group_name_H-M "P C C N"
_symmetry_group_IT_number 56
_symmetry_cell_setting 'orthorhombic'
loop_
_space_group_symop_operation_xyz
x,y,z
1/2-x,1/2-y,z
1/2+x,-y,1/2-z
-x,1/2+y,1/2-z
-x,-y,-z
1/2+x,1/2+y,-z
1/2-x,y,1/2+z
x,1/2-y,1/2+z
loop_
_atom_site_type_symbol
_atom_site_label
_atom_site_fract_x
_atom_site_fract_y
_atom_site_fract_z
Si Si1 0.162846 0.984263 0.118930
Si Si2 0.058458 0.476012 0.553490
Si Si3 0.508922 0.718210 0.303447
Si Si4 0.796829 0.864282 0.078066
Si Si5 0.457352 0.863413 0.123243
Si Si6 0.399629 0.141993 0.344832
Si Si7 0.857312 0.070325 0.330849
Si Si8 0.243179 0.532018 0.222678
O O1 0.109016 0.068251 0.113942
O O2 0.184627 0.002922 0.008577
O O3 0.151563 0.780732 0.151522
O O4 0.205568 0.055658 0.190112
O O5 0.017857 0.372225 0.616545
O O6 0.045248 0.688883 0.554108
O O7 0.071336 0.409837 0.444066
O O8 0.463758 0.765594 0.231142
O O9 0.504555 0.528541 0.363133
O O10 0.556959 0.711762 0.229088
O O11 0.750000 0.750000 0.040034
O O12 0.847768 0.765424 0.116884
O O13 0.772588 0.971146 0.169246
O O14 0.405757 0.969157 0.105125
O O15 0.375165 0.980981 0.279628
O O16 0.803896 0.983412 0.346658
O O17 0.250000 0.750000 0.218841
#
# Coordination Sequence:
#
# PCOD9430869 Si02
#       8
#     8   8   8   8   8   8   8   8
#     4   9  19  36  60  85 116 161 200 245 311 370
#     4  10  21  40  64  89 128 163 209 268 317 384
#     4  11  21  39  64  89 125 167 214 262 327 382
#     4  10  21  36  54  87 125 153 199 249 302 374
#     4  10  20  38  61  91 119 167 209 262 320 380
#     4   9  21  40  61  89 125 164 208 263 322 377
#     4   8  17  37  59  82 117 155 204 249 311 369
#     4   9  18  34  58  84 110 156 199 249 301 363
#
# _framework density 23.688261000000001
#
# number of rings (size 3 to 8) (size 9 to 14) (size 15 to 20)
#    0.000    2.500    1.250    0.000    1.750    2.500 
#   11.250    5.625    0.000    0.000    0.000    0.000 
#    0.000    0.000    0.000    0.000    0.000    0.000 
#
# Total GULP energy -356392.463632 kJ/mol
# GULP energy per Si atom -5568.632244 kJ/mol
# Density = 2.363435 g / cm^3
# Si number density = 23.688261 Si / 1000 Ang^3
#
#
#
# Elastic Constant Matrix: (Units=GPa)
#
#
# Indices 1 2 3 4 5 6 
#
# 1 142.8775 14.2424 35.8356 0.0000 0.0000 0.0000
# 2 14.2424 65.3915 2.6359 0.0000 0.0000 0.0000
# 3 35.8356 2.6359 58.2436 0.0000 0.0000 0.0000
# 4 0.0000 0.0000 0.0000 -3.2028 0.0000 0.0000
# 5 0.0000 0.0000 0.0000 0.0000 40.1565 0.0000
# 6 0.0000 0.0000 0.0000 0.0000 0.0000 24.8773
#
#
#
# Elastic Compliance Matrix: (Units=1/GPa)
#
#
# Indices 1 2 3 4 5 6 
#
# 1 0.008447 -0.001633 -0.005123 0.000000 0.000000 0.000000
# 2 -0.001633 0.015636 0.000297 0.000000 0.000000 0.000000
# 3 -0.005123 0.000297 0.020308 0.000000 0.000000 0.000000
# 4 0.000000 0.000000 0.000000 -0.312229 0.000000 0.000000
# 5 0.000000 0.000000 0.000000 0.000000 0.024903 0.000000
# 6 0.000000 0.000000 0.000000 0.000000 0.000000 0.040197
#
#
# Mechanical properties :
#
#
# Convention : Reuss Voigt Hill
#
# Bulk Modulus (GPa) = 31.77355 41.32671 36.55013
# Shear Modulus (GPa) = -27.88166 26.61945 -0.63111
#
# Velocity S-wave (km/s) = -3.43450 3.35586 -0.51672
# Velocity P-wave (km/s) = 1.51175 5.70085 3.88679
#
# Compressibility (1/GPa) = 0.03147272
#
# Stress axis : x y z
#
# Youngs Moduli (GPa) = 118.38854 63.95402 49.24179
#
# Poissons Ratio (x) = 0.10445 0.25227
# Poissons Ratio (y) = 0.19335 -0.01464
# Poissons Ratio (z) = 0.60652 -0.01901
#
# Static dielectric constant tensor:
#      x y z
#    x 2.003380 0.000000 0.000000 
#    y 0.000000 1.930600 0.000000 
#    z 0.000000 0.000000 1.883320 
# 
# From -- ./inp_files/9181.got.cif
#   From: 2010.05.17/outbox.cif.g08.bks.cpg/sg56_5_cif.got.tgz:9181.got - 2010.06.03 13:42:01.
