data_PCOD9430117
_publ_section_title
;
Structure prediction by ZEFSAII (Michael W. Deem and Ramdas Pophale) SiO2 
 PCOD9430117
Probable space group: P C C N
;
_chemical_formula_sum "Si O2"
_cell_formula_units_Z 64
_cell_length_a 12.516220
_cell_length_b 8.918660
_cell_length_c 29.460498
_cell_angle_alpha 90.000000
_cell_angle_beta 90.000000
_cell_angle_gamma 90.000000
_cell_volume 3288.613839
_symmetry_space_group_name_H-M "P C C N"
_symmetry_group_IT_number 56
_symmetry_cell_setting 'orthorhombic'
loop_
_space_group_symop_operation_xyz
x,y,z
1/2-x,1/2-y,z
1/2+x,-y,1/2-z
-x,1/2+y,1/2-z
-x,-y,-z
1/2+x,1/2+y,-z
1/2-x,y,1/2+z
x,1/2-y,1/2+z
loop_
_atom_site_type_symbol
_atom_site_label
_atom_site_fract_x
_atom_site_fract_y
_atom_site_fract_z
Si Si1 0.982185 0.980479 0.147598
Si Si2 0.816515 0.906806 0.065528
Si Si3 0.999249 0.509001 0.146638
Si Si4 0.374282 0.754684 0.597010
Si Si5 0.376869 0.255215 0.186670
Si Si6 0.625447 0.750350 0.206600
Si Si7 0.606228 0.068137 0.058104
Si Si8 0.013918 0.241009 0.486226
O O1 0.078008 0.872926 0.131876
O O2 0.893872 0.959512 0.106976
O O3 0.926361 0.907978 0.191854
O O4 0.044267 0.132804 0.159348
O O5 0.750000 0.750000 0.077526
O O6 0.890434 0.858457 0.022598
O O7 0.732749 0.038056 0.054126
O O8 0.933077 0.625841 0.176285
O O9 0.920399 0.427989 0.111363
O O10 0.079043 0.597224 0.113487
O O11 0.070376 0.404763 0.177666
O O12 0.250000 0.750000 0.596638
O O13 0.421095 0.789975 0.547885
O O14 0.250000 0.250000 0.173965
O O15 0.383634 0.287174 0.240326
O O16 0.750000 0.750000 0.194906
O O17 0.560562 0.915636 0.034240
O O18 0.542525 0.202162 0.033496
#
# Coordination Sequence:
#
# PCOD9430117 Si02
#       8
#     8   8   8   8   8   8   8   8
#     4  10  19  34  56  80 107 143 187 227 272 335
#     4   9  16  31  56  82 110 145 184 223 270 331
#     4  10  20  35  56  81 110 145 187 231 280 331
#     4   9  17  32  54  75 102 144 190 224 264 328
#     4  11  23  37  53  80 116 145 179 234 291 331
#     4  10  20  37  60  81 106 145 187 229 280 340
#     4   9  16  31  53  78 109 141 179 225 271 321
#     4   8  16  29  50  80 105 137 181 223 266 322
#
# _framework density 19.461086999999999
#
# number of rings (size 3 to 8) (size 9 to 14) (size 15 to 20)
#    0.000    2.500    0.000    4.875    0.000    0.000 
#    0.000    9.375    0.000   10.500    0.000    0.000 
#    0.000    0.000    0.000    0.000    0.000    0.000 
#
# Total GULP energy -356544.167296 kJ/mol
# GULP energy per Si atom -5571.002614 kJ/mol
# Density = 1.941679 g / cm^3
# Si number density = 19.461087 Si / 1000 Ang^3
#
#
#
# Elastic Constant Matrix: (Units=GPa)
#
#
# Indices 1 2 3 4 5 6 
#
# 1 156.8888 39.6959 39.2065 0.0000 0.0000 0.0000
# 2 39.6959 39.1385 20.9174 0.0000 0.0000 0.0000
# 3 39.2065 20.9174 59.2307 0.0000 0.0000 0.0000
# 4 0.0000 0.0000 0.0000 8.8345 0.0000 0.0000
# 5 0.0000 0.0000 0.0000 0.0000 103.9259 0.0000
# 6 0.0000 0.0000 0.0000 0.0000 0.0000 24.5316
#
#
#
# Elastic Compliance Matrix: (Units=1/GPa)
#
#
# Indices 1 2 3 4 5 6 
#
# 1 0.009100 -0.007409 -0.003407 0.000000 0.000000 0.000000
# 2 -0.007409 0.037526 -0.008349 0.000000 0.000000 0.000000
# 3 -0.003407 -0.008349 0.022087 0.000000 0.000000 0.000000
# 4 0.000000 0.000000 0.000000 0.113193 0.000000 0.000000
# 5 0.000000 0.000000 0.000000 0.000000 0.009622 0.000000
# 6 0.000000 0.000000 0.000000 0.000000 0.000000 0.040764
#
#
# Mechanical properties :
#
#
# Convention : Reuss Voigt Hill
#
# Bulk Modulus (GPa) = 32.91164 50.54419 41.72792
# Shear Modulus (GPa) = 17.80958 37.82095 27.81526
#
# Velocity S-wave (km/s) = 3.02841 4.41320 3.78468
# Velocity P-wave (km/s) = 5.40153 7.21088 6.37077
#
# Compressibility (1/GPa) = 0.03038439
#
# Stress axis : x y z
#
# Youngs Moduli (GPa) = 109.89147 26.64805 45.27608
#
# Poissons Ratio (x) = 0.19742 0.15426
# Poissons Ratio (y) = 0.81414 0.37799
# Poissons Ratio (z) = 0.37442 0.22247
#
# Static dielectric constant tensor:
#      x y z
#    x 1.680230 0.000000 0.000000 
#    y 0.000000 1.709760 0.000000 
#    z 0.000000 0.000000 1.684060 
# 
# From -- ./inp_files/23544.got.cif
#   From: 2010.05.17/outbox.cif.g08.bks.cpg/sg56_12_cif.got.tgz:23544.got - 2010.06.03 13:42:01.
