data_PCOD9430924
_publ_section_title
;
Structure prediction by ZEFSAII (Michael W. Deem and Ramdas Pophale) SiO2 
 PCOD9430924
Probable space group: P C C N
;
_chemical_formula_sum "Si O2"
_cell_formula_units_Z 48
_cell_length_a 11.764999
_cell_length_b 8.545286
_cell_length_c 20.964142
_cell_angle_alpha 90.000000
_cell_angle_beta 90.000000
_cell_angle_gamma 90.000000
_cell_volume 2107.635912
_symmetry_space_group_name_H-M "P C C N"
_symmetry_group_IT_number 56
_symmetry_cell_setting 'orthorhombic'
loop_
_space_group_symop_operation_xyz
x,y,z
1/2-x,1/2-y,z
1/2+x,-y,1/2-z
-x,1/2+y,1/2-z
-x,-y,-z
1/2+x,1/2+y,-z
1/2-x,y,1/2+z
x,1/2-y,1/2+z
loop_
_atom_site_type_symbol
_atom_site_label
_atom_site_fract_x
_atom_site_fract_y
_atom_site_fract_z
Si Si1 0.705395 0.492463 0.100250
Si Si2 0.250000 0.250000 0.820720
Si Si3 0.412211 0.721262 0.794610
Si Si4 0.110299 0.414936 0.216277
Si Si5 0.182934 0.595689 0.675697
Si Si6 0.475387 0.610319 0.061040
Si Si7 0.750000 0.250000 0.494977
O O1 0.790316 0.598386 0.140265
O O2 0.654742 0.359741 0.147617
O O3 0.606739 0.620037 0.083449
O O4 0.753538 0.404750 0.039242
O O5 0.350701 0.311075 0.775943
O O6 0.520070 0.813186 0.821153
O O7 0.435872 0.577413 0.745951
O O8 0.354848 0.849354 0.746684
O O9 0.275374 0.039684 0.179948
O O10 0.250000 0.750000 0.651855
O O11 0.084938 0.551546 0.626481
O O12 0.500000 0.500000 0.000000
O O13 0.376361 0.730972 0.037487
#
# Coordination Sequence:
#
# PCOD9430924 Si02
#       7
#     8   4   8   8   8   8   4
#     4  10  23  40  68  93 130 170 217 276 332 394
#     4  10  22  38  60  98 136 158 204 268 342 386
#     4  10  22  40  60 102 133 166 210 268 341 399
#     4  10  23  35  62  95 138 169 205 257 333 408
#     4  10  20  38  65  94 130 170 216 266 330 400
#     4  10  21  43  66  88 126 177 222 269 326 385
#     4  10  22  42  72  86 120 180 232 264 320 388
#
# _framework density 22.774332999999999
#
# number of rings (size 3 to 8) (size 9 to 14) (size 15 to 20)
#    0.000    2.000    0.833    2.000   10.500    0.000 
#    0.000    0.833   22.000    0.000    0.000    0.000 
#    0.000    0.000    0.000    0.000    0.000    0.000 
#
# Total GULP energy -267272.740181 kJ/mol
# GULP energy per Si atom -5568.182087 kJ/mol
# Density = 2.272250 g / cm^3
# Si number density = 22.774333 Si / 1000 Ang^3
#
#
#
# Elastic Constant Matrix: (Units=GPa)
#
#
# Indices 1 2 3 4 5 6 
#
# 1 88.7938 67.7407 28.6952 0.0000 0.0000 0.0000
# 2 67.7407 84.0132 24.2155 0.0000 0.0000 0.0000
# 3 28.6952 24.2155 68.6781 0.0000 0.0000 0.0000
# 4 0.0000 0.0000 0.0000 13.5775 0.0000 0.0000
# 5 0.0000 0.0000 0.0000 0.0000 18.3246 0.0000
# 6 0.0000 0.0000 0.0000 0.0000 0.0000 56.1060
#
#
#
# Elastic Compliance Matrix: (Units=1/GPa)
#
#
# Indices 1 2 3 4 5 6 
#
# 1 0.030478 -0.023269 -0.004530 0.000000 0.000000 0.000000
# 2 -0.023269 0.031014 -0.001213 0.000000 0.000000 0.000000
# 3 -0.004530 -0.001213 0.016881 0.000000 0.000000 0.000000
# 4 0.000000 0.000000 0.000000 0.073651 0.000000 0.000000
# 5 0.000000 0.000000 0.000000 0.000000 0.054571 0.000000
# 6 0.000000 0.000000 0.000000 0.000000 0.000000 0.017823
#
#
# Mechanical properties :
#
#
# Convention : Reuss Voigt Hill
#
# Bulk Modulus (GPa) = 49.14133 53.64311 51.39222
# Shear Modulus (GPa) = 17.28748 25.65719 21.47233
#
# Velocity S-wave (km/s) = 2.75812 3.36010 3.07389
# Velocity P-wave (km/s) = 5.63625 6.21764 5.93407
#
# Compressibility (1/GPa) = 0.02034947
#
# Stress axis : x y z
#
# Youngs Moduli (GPa) = 32.81087 32.24299 59.23772
#
# Poissons Ratio (x) = 0.75026 0.26834
# Poissons Ratio (y) = 0.76347 0.07187
# Poissons Ratio (z) = 0.14863 0.03912
#
# Static dielectric constant tensor:
#      x y z
#    x 1.964690 0.000000 0.000000 
#    y 0.000000 1.910170 0.000000 
#    z 0.000000 0.000000 1.913180 
# 
# From -- ./inp_files/19006.got.cif
#   From: 2010.05.17/outbox.cif.g08.bks.cpg/sg56_10_cif.got.tgz:19006.got - 2010.06.03 13:42:01.
