data_PCOD9430912
_publ_section_title
;
Structure prediction by ZEFSAII (Michael W. Deem and Ramdas Pophale) SiO2 
 PCOD9430912
Probable space group: P C C N
;
_chemical_formula_sum "Si O2"
_cell_formula_units_Z 44
_cell_length_a 18.599838
_cell_length_b 8.510879
_cell_length_c 14.185899
_cell_angle_alpha 90.000000
_cell_angle_beta 90.000000
_cell_angle_gamma 90.000000
_cell_volume 2245.641581
_symmetry_space_group_name_H-M "P C C N"
_symmetry_group_IT_number 56
_symmetry_cell_setting 'orthorhombic'
loop_
_space_group_symop_operation_xyz
x,y,z
1/2-x,1/2-y,z
1/2+x,-y,1/2-z
-x,1/2+y,1/2-z
-x,-y,-z
1/2+x,1/2+y,-z
1/2-x,y,1/2+z
x,1/2-y,1/2+z
loop_
_atom_site_type_symbol
_atom_site_label
_atom_site_fract_x
_atom_site_fract_y
_atom_site_fract_z
Si Si1 0.919492 0.907554 0.153848
Si Si2 0.788613 0.483739 0.764638
Si Si3 0.500209 0.786923 0.289406
Si Si4 0.360179 0.650491 0.218005
Si Si5 0.896644 0.897391 0.941599
Si Si6 0.250000 0.250000 0.088114
O O1 0.950646 0.748509 0.198435
O O2 0.837865 0.941714 0.183844
O O3 0.930138 0.927863 0.043254
O O4 0.965427 0.041433 0.206499
O O5 0.707404 0.438823 0.735428
O O6 0.828015 0.324890 0.801209
O O7 0.780195 0.611195 0.846028
O O8 0.429785 0.676699 0.282971
O O9 0.553022 0.782833 0.379140
O O10 0.382427 0.550279 0.125150
O O11 0.819263 0.819776 0.962903
#
# Coordination Sequence:
#
# PCOD9430912 Si02
#       6
#     8   8   8   8   8   4
#     4  11  23  40  65  89 124 168 207 255 319 376
#     4   9  19  39  61  86 124 167 207 255 318 368
#     4  11  21  39  62  91 125 162 202 262 317 370
#     4   9  20  38  62  86 124 167 203 260 320 371
#     4  11  22  40  63  92 122 167 210 258 314 379
#     4  10  20  38  64  92 124 164 212 266 304 372
#
# _framework density 19.593509999999998
#
# number of rings (size 3 to 8) (size 9 to 14) (size 15 to 20)
#    0.000    1.818    3.636    0.545    0.000    0.727 
#    0.000   17.273    0.000    0.000    0.000    0.000 
#    0.000    0.000    0.000    0.000    0.000    0.000 
#
# Total GULP energy -245094.049047 kJ/mol
# GULP energy per Si atom -5570.319297 kJ/mol
# Density = 1.954891 g / cm^3
# Si number density = 19.593510 Si / 1000 Ang^3
#
#
#
# Elastic Constant Matrix: (Units=GPa)
#
#
# Indices 1 2 3 4 5 6 
#
# 1 127.6513 50.7651 58.4925 0.0000 0.0000 0.0000
# 2 50.7651 59.3371 35.6841 0.0000 0.0000 0.0000
# 3 58.4925 35.6841 90.8012 0.0000 0.0000 0.0000
# 4 0.0000 0.0000 0.0000 13.6520 0.0000 0.0000
# 5 0.0000 0.0000 0.0000 0.0000 11.2131 0.0000
# 6 0.0000 0.0000 0.0000 0.0000 0.0000 27.0793
#
#
#
# Elastic Compliance Matrix: (Units=1/GPa)
#
#
# Indices 1 2 3 4 5 6 
#
# 1 0.013709 -0.008404 -0.005529 0.000000 0.000000 0.000000
# 2 -0.008404 0.027220 -0.005284 0.000000 0.000000 0.000000
# 3 -0.005529 -0.005284 0.016651 0.000000 0.000000 0.000000
# 4 0.000000 0.000000 0.000000 0.073249 0.000000 0.000000
# 5 0.000000 0.000000 0.000000 0.000000 0.089181 0.000000
# 6 0.000000 0.000000 0.000000 0.000000 0.000000 0.036929
#
#
# Mechanical properties :
#
#
# Convention : Reuss Voigt Hill
#
# Bulk Modulus (GPa) = 52.22469 63.07478 57.64974
# Shear Modulus (GPa) = 16.56976 19.24542 17.90759
#
# Velocity S-wave (km/s) = 2.91121 3.13746 3.02645
# Velocity P-wave (km/s) = 6.16540 6.73695 6.45750
#
# Compressibility (1/GPa) = 0.01914803
#
# Stress axis : x y z
#
# Youngs Moduli (GPa) = 72.94312 36.73727 60.05683
#
# Poissons Ratio (x) = 0.30874 0.33203
# Poissons Ratio (y) = 0.61302 0.31732
# Poissons Ratio (z) = 0.40327 0.19411
#
# Static dielectric constant tensor:
#      x y z
#    x 1.769930 0.000000 0.000000 
#    y 0.000000 1.730290 0.000000 
#    z 0.000000 0.000000 1.622070 
# 
# From -- ./inp_files/12635.got.cif
#   From: 2010.05.17/outbox.cif.g08.bks.cpg/sg56_7_cif.got.tgz:12635.got - 2010.06.03 13:42:01.
