data_PCOD9430633
_publ_section_title
;
Structure prediction by ZEFSAII (Michael W. Deem and Ramdas Pophale) SiO2 
 PCOD9430633
Probable space group: P C C N
;
_chemical_formula_sum "Si O2"
_cell_formula_units_Z 60
_cell_length_a 9.423372
_cell_length_b 11.216517
_cell_length_c 26.584923
_cell_angle_alpha 90.000000
_cell_angle_beta 90.000000
_cell_angle_gamma 90.000000
_cell_volume 2809.957566
_symmetry_space_group_name_H-M "P C C N"
_symmetry_group_IT_number 56
_symmetry_cell_setting 'orthorhombic'
loop_
_space_group_symop_operation_xyz
x,y,z
1/2-x,1/2-y,z
1/2+x,-y,1/2-z
-x,1/2+y,1/2-z
-x,-y,-z
1/2+x,1/2+y,-z
1/2-x,y,1/2+z
x,1/2-y,1/2+z
loop_
_atom_site_type_symbol
_atom_site_label
_atom_site_fract_x
_atom_site_fract_y
_atom_site_fract_z
Si Si1 0.750000 0.750000 0.845842
Si Si2 0.897343 0.627662 0.255307
Si Si3 0.873660 0.910945 0.422646
Si Si4 0.112954 0.106844 0.998830
Si Si5 0.415006 0.400276 0.783031
Si Si6 0.862091 0.340719 0.907841
Si Si7 0.611937 0.187089 0.023120
Si Si8 0.379121 0.324081 0.887496
O O1 0.667035 0.658752 0.810210
O O2 0.635436 0.804743 0.883488
O O3 0.754402 0.589709 0.225791
O O4 0.949696 0.761146 0.235256
O O5 0.003626 0.513687 0.257940
O O6 0.746292 0.901078 0.463576
O O7 0.029815 0.915370 0.447162
O O8 0.850263 0.027476 0.388904
O O9 0.160993 0.116988 0.940726
O O10 0.015766 0.219429 0.014076
O O11 0.000000 0.000000 0.000000
O O12 0.439674 0.405300 0.843285
O O13 0.750000 0.250000 0.886042
O O14 0.008961 0.277122 0.901228
O O15 0.837253 0.354161 0.968094
O O16 0.750000 0.250000 0.046879
O O17 0.250000 0.250000 0.865613
#
# Coordination Sequence:
#
# PCOD9430633 Si02
#       8
#     4   8   8   8   8   8   8   8
#     4  10  24  40  68  98 130 174 224 262 346 408
#     4  10  24  48  74 102 134 172 219 291 351 421
#     4  12  21  41  61  88 138 186 219 271 329 390
#     4  11  22  35  62  92 135 183 228 267 324 395
#     4  10  23  47  75 101 137 171 225 286 357 418
#     4  10  23  37  58  93 127 172 231 267 313 389
#     4  10  20  36  54  84 126 178 229 269 316 373
#     4  11  22  41  64  98 130 174 226 278 333 397
#
# _framework density 21.352633999999998
#
# number of rings (size 3 to 8) (size 9 to 14) (size 15 to 20)
#    0.000    1.600    2.667    4.400    3.733    3.733 
#    0.000    0.000    0.000    0.000    0.000    0.000 
#    0.000    0.000    0.000    0.000    0.000    0.000 
#
# Total GULP energy -334391.065248 kJ/mol
# GULP energy per Si atom -5573.184421 kJ/mol
# Density = 2.130403 g / cm^3
# Si number density = 21.352634 Si / 1000 Ang^3
#
#
#
# Elastic Constant Matrix: (Units=GPa)
#
#
# Indices 1 2 3 4 5 6 
#
# 1 95.0328 36.6730 13.9680 0.0000 0.0000 0.0000
# 2 36.6730 94.8540 12.7309 0.0000 0.0000 0.0000
# 3 13.9680 12.7309 81.5446 0.0000 0.0000 0.0000
# 4 0.0000 0.0000 0.0000 20.3266 0.0000 0.0000
# 5 0.0000 0.0000 0.0000 0.0000 13.0524 0.0000
# 6 0.0000 0.0000 0.0000 0.0000 0.0000 40.8788
#
#
#
# Elastic Compliance Matrix: (Units=1/GPa)
#
#
# Indices 1 2 3 4 5 6 
#
# 1 0.012527 -0.004653 -0.001419 0.000000 0.000000 0.000000
# 2 -0.004653 0.012496 -0.001154 0.000000 0.000000 0.000000
# 3 -0.001419 -0.001154 0.012687 0.000000 0.000000 0.000000
# 4 0.000000 0.000000 0.000000 0.049197 0.000000 0.000000
# 5 0.000000 0.000000 0.000000 0.000000 0.076614 0.000000
# 6 0.000000 0.000000 0.000000 0.000000 0.000000 0.024463
#
#
# Mechanical properties :
#
#
# Convention : Reuss Voigt Hill
#
# Bulk Modulus (GPa) = 42.99685 44.24169 43.61927
# Shear Modulus (GPa) = 23.78829 28.72221 26.25525
#
# Velocity S-wave (km/s) = 3.34139 3.67159 3.51037
# Velocity P-wave (km/s) = 5.92172 6.22404 6.07476
#
# Compressibility (1/GPa) = 0.02325752
#
# Stress axis : x y z
#
# Youngs Moduli (GPa) = 79.82918 80.02409 78.82391
#
# Poissons Ratio (x) = 0.37232 0.11188
# Poissons Ratio (y) = 0.37142 0.09096
# Poissons Ratio (z) = 0.11331 0.09235
#
# Static dielectric constant tensor:
#      x y z
#    x 1.776800 0.000000 0.000000 
#    y 0.000000 1.876720 0.000000 
#    z 0.000000 0.000000 1.816020 
# 
# From -- ./inp_files/22141.got.cif
#   From: 2010.05.17/outbox.cif.g08.bks.cpg/sg56_12_cif.got.tgz:22141.got - 2010.06.03 13:42:01.
