data_PCOD9430412
_publ_section_title
;
Structure prediction by ZEFSAII (Michael W. Deem and Ramdas Pophale) SiO2 
 PCOD9430412
Probable space group: P C C N
;
_chemical_formula_sum "Si O2"
_cell_formula_units_Z 40
_cell_length_a 7.323281
_cell_length_b 13.948767
_cell_length_c 15.762746
_cell_angle_alpha 90.000000
_cell_angle_beta 90.000000
_cell_angle_gamma 90.000000
_cell_volume 1610.176174
_symmetry_space_group_name_H-M "P C C N"
_symmetry_group_IT_number 56
_symmetry_cell_setting 'orthorhombic'
loop_
_space_group_symop_operation_xyz
x,y,z
1/2-x,1/2-y,z
1/2+x,-y,1/2-z
-x,1/2+y,1/2-z
-x,-y,-z
1/2+x,1/2+y,-z
1/2-x,y,1/2+z
x,1/2-y,1/2+z
loop_
_atom_site_type_symbol
_atom_site_label
_atom_site_fract_x
_atom_site_fract_y
_atom_site_fract_z
Si Si1 0.456460 0.292852 0.870916
Si Si2 0.995722 0.585912 0.932639
Si Si3 0.250000 0.750000 0.488480
Si Si4 0.001014 0.845690 0.777897
Si Si5 0.867313 0.537829 0.743864
Si Si6 0.250000 0.250000 0.586949
O O1 0.250000 0.250000 0.880293
O O2 0.581291 0.284732 0.953023
O O3 0.541553 0.224459 0.798826
O O4 0.456912 0.398657 0.830508
O O5 0.955804 0.548704 0.837622
O O6 0.822141 0.654103 0.956221
O O7 0.170748 0.656169 0.941394
O O8 0.000000 0.500000 0.000000
O O9 0.826238 0.911025 0.755489
O O10 0.922241 0.782125 0.854356
O O11 0.149307 0.928215 0.784715
#
# Coordination Sequence:
#
# PCOD9430412 Si02
#       6
#     8   8   4   8   8   4
#     4  10  22  44  65 102 137 181 248 299 348 421
#     4  11  25  47  67 108 151 187 241 297 368 448
#     4  12  28  40  74  98 148 200 228 298 374 432
#     4  10  19  41  69 102 131 177 239 307 352 412
#     4  10  22  39  71  98 138 183 237 304 357 418
#     4  10  22  46  72  98 150 190 230 304 364 420
#
# _framework density 24.842001
#
# number of rings (size 3 to 8) (size 9 to 14) (size 15 to 20)
#    0.000    1.600    5.000    1.200    9.800    2.400 
#    0.000    1.000    0.000    0.000    0.000    0.000 
#    0.000    0.000    0.000    0.000    0.000    0.000 
#
# Total GULP energy -223762.299241 kJ/mol
# GULP energy per Si atom -5594.057481 kJ/mol
# Density = 2.478546 g / cm^3
# Si number density = 24.842001 Si / 1000 Ang^3
#
#
#
# Elastic Constant Matrix: (Units=GPa)
#
#
# Indices 1 2 3 4 5 6 
#
# 1 97.4133 23.3647 36.0899 0.0000 0.0000 0.0000
# 2 23.3647 121.4406 46.4159 0.0000 0.0000 0.0000
# 3 36.0899 46.4159 119.7939 0.0000 0.0000 0.0000
# 4 0.0000 0.0000 0.0000 45.9531 0.0000 0.0000
# 5 0.0000 0.0000 0.0000 0.0000 -3.8851 0.0000
# 6 0.0000 0.0000 0.0000 0.0000 0.0000 53.7952
#
#
#
# Elastic Compliance Matrix: (Units=1/GPa)
#
#
# Indices 1 2 3 4 5 6 
#
# 1 0.011670 -0.001058 -0.003106 0.000000 0.000000 0.000000
# 2 -0.001058 0.009762 -0.003464 0.000000 0.000000 0.000000
# 3 -0.003106 -0.003464 0.010625 0.000000 0.000000 0.000000
# 4 0.000000 0.000000 0.000000 0.021761 0.000000 0.000000
# 5 0.000000 0.000000 0.000000 0.000000 -0.257397 0.000000
# 6 0.000000 0.000000 0.000000 0.000000 0.000000 0.018589
#
#
# Mechanical properties :
#
#
# Convention : Reuss Voigt Hill
#
# Bulk Modulus (GPa) = 59.51630 61.15431 60.33531
# Shear Modulus (GPa) = -30.46306 34.69114 2.11404
#
# Velocity S-wave (km/s) = -3.50562 3.74099 0.92349
# Velocity P-wave (km/s) = 2.76119 6.58261 5.04752
#
# Compressibility (1/GPa) = 0.01680212
#
# Stress axis : x y z
#
# Youngs Moduli (GPa) = 85.69002 102.43915 94.11454
#
# Poissons Ratio (x) = 0.10840 0.29230
# Poissons Ratio (y) = 0.09068 0.32597
# Poissons Ratio (z) = 0.26613 0.35481
#
# Static dielectric constant tensor:
#      x y z
#    x 2.060750 0.000000 0.000000 
#    y 0.000000 2.017770 0.000000 
#    z 0.000000 0.000000 1.985790 
# 
# From -- ./inp_files/10443.got.cif
#   From: 2010.05.17/outbox.cif.g08.bks.cpg/sg56_6_cif.got.tgz:10443.got - 2010.06.03 13:42:01.
