data_PCOD9430100
_publ_section_title
;
Structure prediction by ZEFSAII (Michael W. Deem and Ramdas Pophale) SiO2 
 PCOD9430100
Probable space group: P C C N
;
_chemical_formula_sum "Si O2"
_cell_formula_units_Z 52
_cell_length_a 29.637993
_cell_length_b 5.177980
_cell_length_c 15.074224
_cell_angle_alpha 90.000000
_cell_angle_beta 90.000000
_cell_angle_gamma 90.000000
_cell_volume 2313.364806
_symmetry_space_group_name_H-M "P C C N"
_symmetry_group_IT_number 56
_symmetry_cell_setting 'orthorhombic'
loop_
_space_group_symop_operation_xyz
x,y,z
1/2-x,1/2-y,z
1/2+x,-y,1/2-z
-x,1/2+y,1/2-z
-x,-y,-z
1/2+x,1/2+y,-z
1/2-x,y,1/2+z
x,1/2-y,1/2+z
loop_
_atom_site_type_symbol
_atom_site_label
_atom_site_fract_x
_atom_site_fract_y
_atom_site_fract_z
Si Si1 0.250000 0.750000 0.368221
Si Si2 0.994819 0.908809 0.688484
Si Si3 0.097428 0.849154 0.333432
Si Si4 0.664780 0.473333 0.080008
Si Si5 0.585578 0.273741 0.364966
Si Si6 0.857975 0.767481 0.907714
Si Si7 0.313347 0.349585 0.272298
O O1 0.208018 0.703446 0.435362
O O2 0.271568 0.523504 0.305257
O O3 0.946061 0.977679 0.647348
O O4 0.009022 0.169447 0.742373
O O5 0.032996 0.828905 0.617586
O O6 0.116505 0.662599 0.408810
O O7 0.086567 0.699390 0.242496
O O8 0.141302 0.009220 0.306027
O O9 0.680453 0.583780 0.174999
O O10 0.661241 0.684940 0.004814
O O11 0.604650 0.991936 0.388530
O O12 0.618498 0.491539 0.401407
O O13 0.820066 0.804984 0.831880
#
# Coordination Sequence:
#
# PCOD9430100 Si02
#       7
#     4   8   8   8   8   8   8
#     4  10  24  42  66  94 120 160 208 270 320 398
#     4  10  19  33  62  95 128 174 224 266 309 370
#     4   9  20  36  64  90 127 173 215 260 317 371
#     4  11  23  42  65  92 130 164 213 262 329 388
#     4  10  20  40  59  97 129 170 223 257 309 375
#     4  11  24  40  68  92 131 172 207 263 317 381
#     4  10  21  43  64  91 123 163 213 259 320 385
#
# _framework density 22.478078
#
# number of rings (size 3 to 8) (size 9 to 14) (size 15 to 20)
#    0.000    1.846    1.538    3.231    6.462    0.615 
#    0.000    4.615    0.000    0.000    0.000    0.000 
#    0.000    0.000    0.000    0.000    0.000    0.000 
#
# Total GULP energy -290106.061633 kJ/mol
# GULP energy per Si atom -5578.962724 kJ/mol
# Density = 2.242692 g / cm^3
# Si number density = 22.478078 Si / 1000 Ang^3
#
#
#
# Elastic Constant Matrix: (Units=GPa)
#
#
# Indices 1 2 3 4 5 6 
#
# 1 110.8297 6.7662 4.5442 0.0000 0.0000 0.0000
# 2 6.7662 62.2787 -6.4478 0.0000 0.0000 0.0000
# 3 4.5442 -6.4478 39.2160 0.0000 0.0000 0.0000
# 4 0.0000 0.0000 0.0000 18.2337 0.0000 0.0000
# 5 0.0000 0.0000 0.0000 0.0000 8.4223 0.0000
# 6 0.0000 0.0000 0.0000 0.0000 0.0000 15.7139
#
#
#
# Elastic Compliance Matrix: (Units=1/GPa)
#
#
# Indices 1 2 3 4 5 6 
#
# 1 0.009142 -0.001122 -0.001244 0.000000 0.000000 0.000000
# 2 -0.001122 0.016473 0.002838 0.000000 0.000000 0.000000
# 3 -0.001244 0.002838 0.026111 0.000000 0.000000 0.000000
# 4 0.000000 0.000000 0.000000 0.054844 0.000000 0.000000
# 5 0.000000 0.000000 0.000000 0.000000 0.118732 0.000000
# 6 0.000000 0.000000 0.000000 0.000000 0.000000 0.063638
#
#
# Mechanical properties :
#
#
# Convention : Reuss Voigt Hill
#
# Bulk Modulus (GPa) = 18.98595 24.67219 21.82907
# Shear Modulus (GPa) = 16.36389 22.30477 19.33433
#
# Velocity S-wave (km/s) = 2.70106 3.15348 2.93600
# Velocity P-wave (km/s) = 4.26526 4.92536 4.60715
#
# Compressibility (1/GPa) = 0.05267053
#
# Stress axis : x y z
#
# Youngs Moduli (GPa) = 109.38102 60.70678 38.29864
#
# Poissons Ratio (x) = 0.06812 0.04764
# Poissons Ratio (y) = 0.12273 -0.10871
# Poissons Ratio (z) = 0.13606 -0.17231
#
# Static dielectric constant tensor:
#      x y z
#    x 2.092640 0.000000 0.000000 
#    y 0.000000 1.933440 0.000000 
#    z 0.000000 0.000000 1.842760 
# 
# From -- ./inp_files/17086.got.cif
#   From: 2010.05.17/outbox.cif.g08.bks.cpg/sg56_9_cif.got.tgz:17086.got - 2010.06.03 13:42:01.
