data_PCOD9430497
_publ_section_title
;
Structure prediction by ZEFSAII (Michael W. Deem and Ramdas Pophale) SiO2 
 PCOD9430497
Probable space group: P C C N
;
_chemical_formula_sum "Si O2"
_cell_formula_units_Z 52
_cell_length_a 10.552863
_cell_length_b 8.248418
_cell_length_c 31.878785
_cell_angle_alpha 90.000000
_cell_angle_beta 90.000000
_cell_angle_gamma 90.000000
_cell_volume 2774.870514
_symmetry_space_group_name_H-M "P C C N"
_symmetry_group_IT_number 56
_symmetry_cell_setting 'orthorhombic'
loop_
_space_group_symop_operation_xyz
x,y,z
1/2-x,1/2-y,z
1/2+x,-y,1/2-z
-x,1/2+y,1/2-z
-x,-y,-z
1/2+x,1/2+y,-z
1/2-x,y,1/2+z
x,1/2-y,1/2+z
loop_
_atom_site_type_symbol
_atom_site_label
_atom_site_fract_x
_atom_site_fract_y
_atom_site_fract_z
Si Si1 0.504883 0.620985 0.460825
Si Si2 0.105547 0.048718 0.126343
Si Si3 0.603778 0.966403 0.465044
Si Si4 0.250000 0.750000 0.993433
Si Si5 0.394966 0.567196 0.217337
Si Si6 0.392901 0.948719 0.218524
Si Si7 0.407587 0.429268 0.627138
O O1 0.500000 0.500000 0.500000
O O2 0.608647 0.768147 0.463684
O O3 0.369483 0.709302 0.464321
O O4 0.525112 0.529734 0.416732
O O5 0.056981 0.987258 0.081629
O O6 0.071547 0.236863 0.132107
O O7 0.257829 0.040236 0.121434
O O8 0.069144 0.960299 0.168766
O O9 0.500000 0.000000 0.500000
O O10 0.716240 0.090147 0.478395
O O11 0.383759 0.757483 0.223701
O O12 0.253577 0.489138 0.223269
O O13 0.504496 0.507982 0.248137
O O14 0.439455 0.988892 0.171323
#
# Coordination Sequence:
#
# PCOD9430497 Si02
#       7
#     8   8   8   4   8   8   8
#     4  10  20  34  54  79 108 144 183 226 274 327
#     4   9  17  32  54  77 103 139 179 222 266 318
#     4   9  19  33  51  78 108 140 180 222 268 320
#     4  10  20  34  52  76 110 146 178 226 276 326
#     4  10  21  36  58  83 110 141 180 226 275 329
#     4  10  21  37  57  84 110 141 181 225 275 329
#     4   9  18  33  53  76 104 139 180 220 266 322
#
# _framework density 18.739614
#
# number of rings (size 3 to 8) (size 9 to 14) (size 15 to 20)
#    0.000    2.462    0.000    1.846    0.000    8.615 
#    0.000    6.154    0.000    1.846    0.000    0.000 
#    0.000    0.000    0.000    0.000    0.000    0.000 
#
# Total GULP energy -289528.157107 kJ/mol
# GULP energy per Si atom -5567.849175 kJ/mol
# Density = 1.869696 g / cm^3
# Si number density = 18.739614 Si / 1000 Ang^3
#
#
#
# Elastic Constant Matrix: (Units=GPa)
#
#
# Indices 1 2 3 4 5 6 
#
# 1 81.6654 28.6612 72.1886 0.0000 0.0000 0.0000
# 2 28.6612 50.0477 42.5834 0.0000 0.0000 0.0000
# 3 72.1886 42.5834 165.9327 0.0000 0.0000 0.0000
# 4 0.0000 0.0000 0.0000 37.7768 0.0000 0.0000
# 5 0.0000 0.0000 0.0000 0.0000 34.1231 0.0000
# 6 0.0000 0.0000 0.0000 0.0000 0.0000 27.3971
#
#
#
# Elastic Compliance Matrix: (Units=1/GPa)
#
#
# Indices 1 2 3 4 5 6 
#
# 1 0.020993 -0.005439 -0.007737 0.000000 0.000000 0.000000
# 2 -0.005439 0.026972 -0.004556 0.000000 0.000000 0.000000
# 3 -0.007737 -0.004556 0.010562 0.000000 0.000000 0.000000
# 4 0.000000 0.000000 0.000000 0.026471 0.000000 0.000000
# 5 0.000000 0.000000 0.000000 0.000000 0.029306 0.000000
# 6 0.000000 0.000000 0.000000 0.000000 0.000000 0.036500
#
#
# Mechanical properties :
#
#
# Convention : Reuss Voigt Hill
#
# Bulk Modulus (GPa) = 43.35922 64.94578 54.15250
# Shear Modulus (GPa) = 25.77906 30.14023 27.95964
#
# Velocity S-wave (km/s) = 3.71299 4.01480 3.86684
# Velocity P-wave (km/s) = 6.44746 7.49824 6.99262
#
# Compressibility (1/GPa) = 0.02306315
#
# Stress axis : x y z
#
# Youngs Moduli (GPa) = 47.63402 37.07559 94.68169
#
# Poissons Ratio (x) = 0.20166 0.73258
# Poissons Ratio (y) = 0.25909 0.43133
# Poissons Ratio (z) = 0.36856 0.16890
#
# Static dielectric constant tensor:
#      x y z
#    x 1.704680 0.000000 0.000000 
#    y 0.000000 1.694960 0.000000 
#    z 0.000000 0.000000 1.647750 
# 
# From -- ./inp_files/22276.got.cif
#   From: 2010.05.17/outbox.cif.g08.bks.cpg/sg56_12_cif.got.tgz:22276.got - 2010.06.03 13:42:01.
