data_PCOD9430788
_publ_section_title
;
Structure prediction by ZEFSAII (Michael W. Deem and Ramdas Pophale) SiO2 
 PCOD9430788
Probable space group: P C C N
;
_chemical_formula_sum "Si O2"
_cell_formula_units_Z 56
_cell_length_a 8.936368
_cell_length_b 30.832632
_cell_length_c 10.713005
_cell_angle_alpha 90.000000
_cell_angle_beta 90.000000
_cell_angle_gamma 90.000000
_cell_volume 2951.772972
_symmetry_space_group_name_H-M "P C C N"
_symmetry_group_IT_number 56
_symmetry_cell_setting 'orthorhombic'
loop_
_space_group_symop_operation_xyz
x,y,z
1/2-x,1/2-y,z
1/2+x,-y,1/2-z
-x,1/2+y,1/2-z
-x,-y,-z
1/2+x,1/2+y,-z
1/2-x,y,1/2+z
x,1/2-y,1/2+z
loop_
_atom_site_type_symbol
_atom_site_label
_atom_site_fract_x
_atom_site_fract_y
_atom_site_fract_z
Si Si1 0.750000 0.250000 0.500000
Si Si2 0.931151 0.400541 0.502787
Si Si3 0.431151 0.900541 0.002787
Si Si4 0.420941 0.954672 0.250000
Si Si5 0.560094 0.450130 0.750000
Si Si6 0.750000 0.750000 1.000000
Si Si7 0.498649 0.310726 0.392177
Si Si8 0.498649 0.189274 0.607823
O O1 0.642886 0.280894 0.419472
O O2 0.642886 0.219106 0.580528
O O3 0.750000 0.396053 0.500000
O O4 0.968462 0.429402 0.624354
O O5 0.979275 0.423737 0.375284
O O6 0.997378 0.352673 0.519735
O O7 0.468462 0.929402 0.124354
O O8 0.497378 0.852673 0.019735
O O9 0.479276 0.923737 0.875284
O O10 0.240106 0.955889 0.250000
O O11 0.484483 0.003017 0.250000
O O12 0.643587 0.719321 0.918436
O O13 0.643588 0.780679 0.081564
O O14 0.502937 0.325988 0.250000
#
# Coordination Sequence:
#
# PCOD9430788 Si02
#       8
#     4   8   8   8   8   4   8   8
#     4  10  22  34  68  96 110 156 208 254 302 368
#     4  10  20  37  63  88 119 156 201 252 298 358
#     4  10  20  37  63  88 119 156 201 252 298 358
#     4  10  20  40  60  85 118 156 198 247 304 354
#     4  10  22  38  60  89 118 154 198 245 300 366
#     4  10  26  42  56  88 126 168 196 254 306 372
#     4  11  21  42  62  90 124 159 204 251 310 357
#     4  11  21  42  62  90 124 159 204 251 310 357
#
# _framework density 18.971648999999999
#
# number of rings (size 3 to 8) (size 9 to 14) (size 15 to 20)
#    0.000    1.714    2.857    1.714    0.000    0.000 
#   18.000    0.000    0.000    0.000    0.000    0.000 
#    0.000    0.000    0.000    0.000    0.000    0.000 
#
# Total GULP energy -312819.035957 kJ/mol
# GULP energy per Si atom -5586.054214 kJ/mol
# Density = 1.892847 g / cm^3
# Si number density = 18.971649 Si / 1000 Ang^3
#
#
#
# Elastic Constant Matrix: (Units=GPa)
#
#
# Indices 1 2 3 4 5 6 
#
# 1 54.6282 43.3227 29.1589 0.0000 0.0000 0.0000
# 2 43.3227 172.6902 74.8215 0.0000 0.0000 0.0000
# 3 29.1589 74.8215 137.3809 0.0000 0.0000 0.0000
# 4 0.0000 0.0000 0.0000 37.8245 0.0000 0.0000
# 5 0.0000 0.0000 0.0000 0.0000 1.0393 0.0000
# 6 0.0000 0.0000 0.0000 0.0000 0.0000 3.1270
#
#
#
# Elastic Compliance Matrix: (Units=1/GPa)
#
#
# Indices 1 2 3 4 5 6 
#
# 1 0.023402 -0.004867 -0.002316 0.000000 0.000000 0.000000
# 2 -0.004867 0.008592 -0.003646 0.000000 0.000000 0.000000
# 3 -0.002316 -0.003646 0.009756 0.000000 0.000000 0.000000
# 4 0.000000 0.000000 0.000000 0.026438 0.000000 0.000000
# 5 0.000000 0.000000 0.000000 0.000000 0.962203 0.000000
# 6 0.000000 0.000000 0.000000 0.000000 0.000000 0.319794
#
#
# Mechanical properties :
#
#
# Convention : Reuss Voigt Hill
#
# Bulk Modulus (GPa) = 49.77435 73.25618 61.51527
# Shear Modulus (GPa) = 3.62702 22.89122 13.25912
#
# Velocity S-wave (km/s) = 1.38418 3.47739 2.64652
# Velocity P-wave (km/s) = 5.37101 7.40407 6.46792
#
# Compressibility (1/GPa) = 0.02009067
#
# Stress axis : x y z
#
# Youngs Moduli (GPa) = 42.73170 116.39373 102.49675
#
# Poissons Ratio (x) = 0.56652 0.23740
# Poissons Ratio (y) = 0.20799 0.37371
# Poissons Ratio (z) = 0.09897 0.42438
#
# Static dielectric constant tensor:
#      x y z
#    x 1.641560 0.000000 0.000000 
#    y 0.000000 1.617650 0.000000 
#    z 0.000000 0.000000 1.648430 
# 
# From -- ./inp_files/6535.got.cif
#   From: 2010.05.17/outbox.cif.g08.bks.cpg/sg56_4_cif.got.tgz:6535.got - 2010.06.03 13:42:01.
