data_PCOD9430236
_publ_section_title
;
Structure prediction by ZEFSAII (Michael W. Deem and Ramdas Pophale) SiO2 
 PCOD9430236
Probable space group: P C C N
;
_chemical_formula_sum "Si O2"
_cell_formula_units_Z 40
_cell_length_a 9.157123
_cell_length_b 13.193444
_cell_length_c 16.218397
_cell_angle_alpha 90.000000
_cell_angle_beta 90.000000
_cell_angle_gamma 90.000000
_cell_volume 1959.409245
_symmetry_space_group_name_H-M "P C C N"
_symmetry_group_IT_number 56
_symmetry_cell_setting 'orthorhombic'
loop_
_space_group_symop_operation_xyz
x,y,z
1/2-x,1/2-y,z
1/2+x,-y,1/2-z
-x,1/2+y,1/2-z
-x,-y,-z
1/2+x,1/2+y,-z
1/2-x,y,1/2+z
x,1/2-y,1/2+z
loop_
_atom_site_type_symbol
_atom_site_label
_atom_site_fract_x
_atom_site_fract_y
_atom_site_fract_z
Si Si1 0.757393 0.635996 0.401835
Si Si2 0.271977 0.631155 0.708251
Si Si3 0.256803 0.366469 0.899154
Si Si4 0.038114 0.972287 0.594377
Si Si5 0.999844 0.496283 0.682424
O O1 0.750000 0.750000 0.371019
O O2 0.757649 0.636304 0.501249
O O3 0.614734 0.574119 0.372239
O O4 0.901070 0.578465 0.372257
O O5 0.250000 0.750000 0.723057
O O6 0.335354 0.610188 0.615169
O O7 0.395645 0.575611 0.762972
O O8 0.121719 0.570626 0.721603
O O9 0.250000 0.250000 0.869908
O O10 0.394532 0.428769 0.867821
O O11 0.111467 0.426079 0.871974
O O12 0.000000 0.000000 0.500000
#
# Coordination Sequence:
#
# PCOD9430236 Si02
#       5
#     8   8   8   8   8
#     4   9  20  37  59  86 117 153 196 242 292 347
#     4  11  24  40  59  88 121 159 200 246 306 366
#     4  10  19  36  61  87 115 153 196 244 296 347
#     4   9  19  38  60  83 114 150 195 247 296 357
#     4  11  23  37  57  84 118 155 196 241 291 357
#
# _framework density 20.414318000000002
#
# number of rings (size 3 to 8) (size 9 to 14) (size 15 to 20)
#    0.000    2.000    0.000    3.000    0.000    4.800 
#    0.000    2.000    0.000    3.600    0.000    0.000 
#    0.000    0.000    0.000    0.000    0.000    0.000 
#
# Total GULP energy -223022.487959 kJ/mol
# GULP energy per Si atom -5575.562199 kJ/mol
# Density = 2.036785 g / cm^3
# Si number density = 20.414318 Si / 1000 Ang^3
#
#
#
# Elastic Constant Matrix: (Units=GPa)
#
#
# Indices 1 2 3 4 5 6 
#
# 1 185.9801 114.4076 37.4798 0.0000 0.0000 0.0000
# 2 114.4076 220.2055 45.8032 0.0000 0.0000 0.0000
# 3 37.4798 45.8032 42.2599 0.0000 0.0000 0.0000
# 4 0.0000 0.0000 0.0000 21.1127 0.0000 0.0000
# 5 0.0000 0.0000 0.0000 0.0000 -7.2351 0.0000
# 6 0.0000 0.0000 0.0000 0.0000 0.0000 26.4485
#
#
#
# Elastic Compliance Matrix: (Units=1/GPa)
#
#
# Indices 1 2 3 4 5 6 
#
# 1 0.008277 -0.003581 -0.003460 0.000000 0.000000 0.000000
# 2 -0.003581 0.007412 -0.004858 0.000000 0.000000 0.000000
# 3 -0.003460 -0.004858 0.031997 0.000000 0.000000 0.000000
# 4 0.000000 0.000000 0.000000 0.047365 0.000000 0.000000
# 5 0.000000 0.000000 0.000000 0.000000 -0.138216 0.000000
# 6 0.000000 0.000000 0.000000 0.000000 0.000000 0.037809
#
#
# Mechanical properties :
#
#
# Convention : Reuss Voigt Hill
#
# Bulk Modulus (GPa) = 41.86029 93.75854 67.80941
# Shear Modulus (GPa) = 189.37018 24.78221 107.07619
#
# Velocity S-wave (km/s) = 9.64183 3.48798 7.25020
# Velocity P-wave (km/s) = 12.02094 7.88979 10.16739
#
# Compressibility (1/GPa) = 0.02388899
#
# Stress axis : x y z
#
# Youngs Moduli (GPa) = 120.82014 134.91778 31.25324
#
# Poissons Ratio (x) = 0.48308 0.10813
# Poissons Ratio (y) = 0.43260 0.15182
# Poissons Ratio (z) = 0.41801 0.65541
#
# Static dielectric constant tensor:
#      x y z
#    x 1.691610 0.000000 0.000000 
#    y 0.000000 1.714640 0.000000 
#    z 0.000000 0.000000 1.805500 
# 
# From -- ./inp_files/14430.got.cif
#   From: 2010.05.17/outbox.cif.g08.bks.cpg/sg56_8_cif.got.tgz:14430.got - 2010.06.03 13:42:01.
