data_PCOD9430496
_publ_section_title
;
Structure prediction by ZEFSAII (Michael W. Deem and Ramdas Pophale) SiO2 
 PCOD9430496
Probable space group: P C C N
;
_chemical_formula_sum "Si O2"
_cell_formula_units_Z 56
_cell_length_a 15.051709
_cell_length_b 24.263329
_cell_length_c 9.646594
_cell_angle_alpha 90.000000
_cell_angle_beta 90.000000
_cell_angle_gamma 90.000000
_cell_volume 3522.980189
_symmetry_space_group_name_H-M "P C C N"
_symmetry_group_IT_number 56
_symmetry_cell_setting 'orthorhombic'
loop_
_space_group_symop_operation_xyz
x,y,z
1/2-x,1/2-y,z
1/2+x,-y,1/2-z
-x,1/2+y,1/2-z
-x,-y,-z
1/2+x,1/2+y,-z
1/2-x,y,1/2+z
x,1/2-y,1/2+z
loop_
_atom_site_type_symbol
_atom_site_label
_atom_site_fract_x
_atom_site_fract_y
_atom_site_fract_z
Si Si1 0.843738 0.227251 0.258507
Si Si2 0.265910 0.512311 0.254271
Si Si3 0.984878 0.077485 0.617567
Si Si4 0.700739 0.119304 0.586756
Si Si5 0.623050 0.181033 0.029571
Si Si6 0.357272 0.481846 0.507812
Si Si7 0.434567 0.958470 0.584365
O O1 0.750000 0.250000 0.317303
O O2 0.835158 0.170178 0.175525
O O3 0.867962 0.274836 0.151545
O O4 0.902272 0.213569 0.391187
O O5 0.246867 0.573199 0.315777
O O6 0.283183 0.474850 0.389110
O O7 0.186000 0.498790 0.152643
O O8 0.353705 0.509418 0.159515
O O9 0.945469 0.135710 0.578375
O O10 0.985779 0.067972 0.783572
O O11 0.078172 0.067924 0.542758
O O12 0.918495 0.031278 0.552454
O O13 0.783234 0.147681 0.503812
O O14 0.621531 0.087460 0.504546
O O15 0.500000 0.000000 0.500000
#
# Coordination Sequence:
#
# PCOD9430496 Si02
#       7
#     8   8   8   8   8   8   8
#     4  10  22  31  51  74 104 142 189 218 255 325
#     4  11  19  33  53  74 108 146 179 213 264 321
#     4  10  21  34  52  73 112 140 185 226 273 305
#     4  11  19  33  52  74 108 145 182 214 264 313
#     4  11  21  35  51  74 107 145 180 221 265 315
#     4  10  20  34  52  75 104 146 179 218 262 326
#     4  11  21  32  51  80 108 146 185 222 265 326
#
# _framework density 15.895633
#
# number of rings (size 3 to 8) (size 9 to 14) (size 15 to 20)
#    0.000    1.429    4.286    3.857    4.000    2.286 
#    0.000    0.000    0.000    0.000    0.000    0.000 
#    0.000    9.143    0.000    0.000    0.000    0.000 
#
# Total GULP energy -311857.940196 kJ/mol
# GULP energy per Si atom -5568.891789 kJ/mol
# Density = 1.585945 g / cm^3
# Si number density = 15.895633 Si / 1000 Ang^3
#
#
#
# Elastic Constant Matrix: (Units=GPa)
#
#
# Indices 1 2 3 4 5 6 
#
# 1 42.6404 46.4308 39.3519 0.0000 0.0000 0.0000
# 2 46.4308 88.8846 58.5401 0.0000 0.0000 0.0000
# 3 39.3519 58.5401 100.4441 0.0000 0.0000 0.0000
# 4 0.0000 0.0000 0.0000 22.6079 0.0000 0.0000
# 5 0.0000 0.0000 0.0000 0.0000 25.3004 0.0000
# 6 0.0000 0.0000 0.0000 0.0000 0.0000 14.1456
#
#
#
# Elastic Compliance Matrix: (Units=1/GPa)
#
#
# Indices 1 2 3 4 5 6 
#
# 1 0.058333 -0.025026 -0.008268 0.000000 0.000000 0.000000
# 2 -0.025026 0.028996 -0.007095 0.000000 0.000000 0.000000
# 3 -0.008268 -0.007095 0.017330 0.000000 0.000000 0.000000
# 4 0.000000 0.000000 0.000000 0.044232 0.000000 0.000000
# 5 0.000000 0.000000 0.000000 0.000000 0.039525 0.000000
# 6 0.000000 0.000000 0.000000 0.000000 0.000000 0.070693
#
#
# Mechanical properties :
#
#
# Convention : Reuss Voigt Hill
#
# Bulk Modulus (GPa) = 41.87357 57.84609 49.85983
# Shear Modulus (GPa) = 14.37409 18.25388 16.31398
#
# Velocity S-wave (km/s) = 3.01039 3.39242 3.20710
# Velocity P-wave (km/s) = 6.20349 7.19825 6.71930
#
# Compressibility (1/GPa) = 0.02388141
#
# Stress axis : x y z
#
# Youngs Moduli (GPa) = 17.14286 34.48745 57.70392
#
# Poissons Ratio (x) = 0.86309 0.47710
# Poissons Ratio (y) = 0.42902 0.40938
# Poissons Ratio (z) = 0.14174 0.24467
#
# Static dielectric constant tensor:
#      x y z
#    x 1.565570 0.000000 0.000000 
#    y 0.000000 1.506860 0.000000 
#    z 0.000000 0.000000 1.579640 
# 
# From -- ./inp_files/3585.got.cif
#   From: 2010.05.17/outbox.cif.g08.bks.cpg/sg56_2_cif.got.tgz:3585.got - 2010.06.03 13:42:01.
