data_PCOD9430339
_publ_section_title
;
Structure prediction by ZEFSAII (Michael W. Deem and Ramdas Pophale) SiO2 
 PCOD9430339
Probable space group: P C C N
;
_chemical_formula_sum "Si O2"
_cell_formula_units_Z 52
_cell_length_a 12.882125
_cell_length_b 19.384543
_cell_length_c 9.509035
_cell_angle_alpha 90.000000
_cell_angle_beta 90.000000
_cell_angle_gamma 90.000000
_cell_volume 2374.540174
_symmetry_space_group_name_H-M "P C C N"
_symmetry_group_IT_number 56
_symmetry_cell_setting 'orthorhombic'
loop_
_space_group_symop_operation_xyz
x,y,z
1/2-x,1/2-y,z
1/2+x,-y,1/2-z
-x,1/2+y,1/2-z
-x,-y,-z
1/2+x,1/2+y,-z
1/2-x,y,1/2+z
x,1/2-y,1/2+z
loop_
_atom_site_type_symbol
_atom_site_label
_atom_site_fract_x
_atom_site_fract_y
_atom_site_fract_z
Si Si1 0.750000 0.250000 0.015368
Si Si2 0.864101 0.556891 0.571100
Si Si3 0.327013 0.976813 0.896373
Si Si4 0.948856 0.296430 0.693387
Si Si5 0.986795 0.550401 0.282811
Si Si6 0.998104 0.174507 0.902752
Si Si7 0.272974 0.612183 0.130093
O O1 0.659736 0.276417 0.117855
O O2 0.776077 0.313843 0.912050
O O3 0.745008 0.544319 0.601007
O O4 0.898650 0.556628 0.406539
O O5 0.923244 0.493209 0.643238
O O6 0.909315 0.625339 0.640340
O O7 0.287922 0.918267 0.785441
O O8 0.437292 0.005194 0.842965
O O9 0.296657 0.941939 0.044027
O O10 0.973623 0.236324 0.800331
O O11 0.022122 0.295640 0.555935
O O12 0.967502 0.373846 0.751397
O O13 0.894594 0.125380 0.914391
#
# Coordination Sequence:
#
# PCOD9430339 Si02
#       7
#     4   8   8   8   8   8   8
#     4  10  22  36  60  96 126 166 206 258 348 386
#     4  10  19  38  65  86 124 173 214 272 322 392
#     4  12  21  40  65  95 126 172 219 265 326 390
#     4  10  22  38  63  90 130 165 210 266 319 402
#     4  10  21  41  64  91 128 177 221 259 335 391
#     4  10  21  41  60  92 124 168 211 263 335 381
#     4  11  23  37  64  95 133 161 212 274 319 402
#
# _framework density 21.898976000000001
#
# number of rings (size 3 to 8) (size 9 to 14) (size 15 to 20)
#    0.000    1.538    3.077    3.692    0.000   10.462 
#    2.769    1.538    0.000    3.692    0.000    0.000 
#    0.000    0.000    0.000    0.000    0.000    0.000 
#
# Total GULP energy -290213.812760 kJ/mol
# GULP energy per Si atom -5581.034861 kJ/mol
# Density = 2.184913 g / cm^3
# Si number density = 21.898976 Si / 1000 Ang^3
#
#
#
# Elastic Constant Matrix: (Units=GPa)
#
#
# Indices 1 2 3 4 5 6 
#
# 1 34.9911 28.0677 0.6900 0.0000 0.0000 0.0000
# 2 28.0677 140.2537 23.4080 0.0000 0.0000 0.0000
# 3 0.6900 23.4080 58.7108 0.0000 0.0000 0.0000
# 4 0.0000 0.0000 0.0000 41.7716 0.0000 0.0000
# 5 0.0000 0.0000 0.0000 0.0000 20.2912 0.0000
# 6 0.0000 0.0000 0.0000 0.0000 0.0000 40.5724
#
#
#
# Elastic Compliance Matrix: (Units=1/GPa)
#
#
# Indices 1 2 3 4 5 6 
#
# 1 0.034384 -0.007299 0.002506 0.000000 0.000000 0.000000
# 2 -0.007299 0.009188 -0.003577 0.000000 0.000000 0.000000
# 3 0.002506 -0.003577 0.018429 0.000000 0.000000 0.000000
# 4 0.000000 0.000000 0.000000 0.023940 0.000000 0.000000
# 5 0.000000 0.000000 0.000000 0.000000 0.049282 0.000000
# 6 0.000000 0.000000 0.000000 0.000000 0.000000 0.024647
#
#
# Mechanical properties :
#
#
# Convention : Reuss Voigt Hill
#
# Bulk Modulus (GPa) = 22.09434 37.58744 29.84089
# Shear Modulus (GPa) = 26.08259 32.64638 29.36448
#
# Velocity S-wave (km/s) = 3.45489 3.86524 3.66581
# Velocity P-wave (km/s) = 5.10158 6.09273 5.61905
#
# Compressibility (1/GPa) = 0.04526045
#
# Stress axis : x y z
#
# Youngs Moduli (GPa) = 29.08308 108.84090 54.26086
#
# Poissons Ratio (x) = 0.79446 -0.13598
# Poissons Ratio (y) = 0.21229 0.19411
# Poissons Ratio (z) = -0.07289 0.38936
#
# Static dielectric constant tensor:
#      x y z
#    x 1.844660 0.000000 0.000000 
#    y 0.000000 1.825230 0.000000 
#    z 0.000000 0.000000 1.880790 
# 
# From -- ./inp_files/7985.got.cif
#   From: 2010.05.17/outbox.cif.g08.bks.cpg/sg56_4_cif.got.tgz:7985.got - 2010.06.03 13:42:01.
