data_PCOD9430901
_publ_section_title
;
Structure prediction by ZEFSAII (Michael W. Deem and Ramdas Pophale) SiO2 
 PCOD9430901
Probable space group: P C C N
;
_chemical_formula_sum "Si O2"
_cell_formula_units_Z 40
_cell_length_a 7.778851
_cell_length_b 19.055594
_cell_length_c 10.957483
_cell_angle_alpha 90.000000
_cell_angle_beta 90.000000
_cell_angle_gamma 90.000000
_cell_volume 1624.234569
_symmetry_space_group_name_H-M "P C C N"
_symmetry_group_IT_number 56
_symmetry_cell_setting 'orthorhombic'
loop_
_space_group_symop_operation_xyz
x,y,z
1/2-x,1/2-y,z
1/2+x,-y,1/2-z
-x,1/2+y,1/2-z
-x,-y,-z
1/2+x,1/2+y,-z
1/2-x,y,1/2+z
x,1/2-y,1/2+z
loop_
_atom_site_type_symbol
_atom_site_label
_atom_site_fract_x
_atom_site_fract_y
_atom_site_fract_z
Si Si1 0.643065 0.079061 0.599712
Si Si2 0.888440 0.852897 0.314426
Si Si3 0.934245 0.484821 0.259194
Si Si4 0.050954 0.900190 0.566622
Si Si5 0.000261 0.202084 0.222651
O O1 0.764599 0.074599 0.483655
O O2 0.601436 0.160642 0.618337
O O3 0.760768 0.053129 0.714473
O O4 0.470332 0.034105 0.623684
O O5 0.932267 0.920087 0.232331
O O6 0.696700 0.824995 0.295042
O O7 0.005100 0.785283 0.284566
O O8 0.934894 0.879298 0.450086
O O9 0.968206 0.537506 0.145254
O O10 0.061176 0.831379 0.650692
#
# Coordination Sequence:
#
# PCOD9430901 Si02
#       5
#     8   8   8   8   8
#     4  10  20  39  63  91 131 169 211 264 316 387
#     4  10  21  40  65  89 125 166 214 270 318 384
#     4  10  20  38  63  91 126 168 212 263 322 381
#     4  10  22  42  62  89 133 174 211 266 328 387
#     4  10  23  41  62  93 128 168 216 265 325 387
#
# _framework density 24.626984
#
# number of rings (size 3 to 8) (size 9 to 14) (size 15 to 20)
#    0.000    2.000    0.000    4.800    0.000    6.400 
#    0.000   40.000    0.000    0.000    0.000    0.000 
#    0.000    0.000    0.000    0.000    0.000    0.000 
#
# Total GULP energy -223629.269896 kJ/mol
# GULP energy per Si atom -5590.731747 kJ/mol
# Density = 2.457093 g / cm^3
# Si number density = 24.626984 Si / 1000 Ang^3
#
#
#
# Elastic Constant Matrix: (Units=GPa)
#
#
# Indices 1 2 3 4 5 6 
#
# 1 68.9821 23.6410 7.1530 0.0000 0.0000 0.0000
# 2 23.6410 189.3838 34.3010 0.0000 0.0000 0.0000
# 3 7.1530 34.3010 64.4873 0.0000 0.0000 0.0000
# 4 0.0000 0.0000 0.0000 27.7063 0.0000 0.0000
# 5 0.0000 0.0000 0.0000 0.0000 29.6650 0.0000
# 6 0.0000 0.0000 0.0000 0.0000 0.0000 52.4182
#
#
#
# Elastic Compliance Matrix: (Units=1/GPa)
#
#
# Indices 1 2 3 4 5 6 
#
# 1 0.015177 -0.001759 -0.000748 0.000000 0.000000 0.000000
# 2 -0.001759 0.006047 -0.003021 0.000000 0.000000 0.000000
# 3 -0.000748 -0.003021 0.017197 0.000000 0.000000 0.000000
# 4 0.000000 0.000000 0.000000 0.036093 0.000000 0.000000
# 5 0.000000 0.000000 0.000000 0.000000 0.033710 0.000000
# 6 0.000000 0.000000 0.000000 0.000000 0.000000 0.019077
#
#
# Mechanical properties :
#
#
# Convention : Reuss Voigt Hill
#
# Bulk Modulus (GPa) = 36.54368 50.33813 43.44091
# Shear Modulus (GPa) = 33.90315 39.14177 36.52246
#
# Velocity S-wave (km/s) = 3.71437 3.99103 3.85519
# Velocity P-wave (km/s) = 5.76771 6.45929 6.12327
#
# Compressibility (1/GPa) = 0.02736451
#
# Stress axis : x y z
#
# Youngs Moduli (GPa) = 65.88951 165.36851 58.14986
#
# Poissons Ratio (x) = 0.29090 0.04348
# Poissons Ratio (y) = 0.11591 0.17569
# Poissons Ratio (z) = 0.04927 0.49964
#
# Static dielectric constant tensor:
#      x y z
#    x 2.084890 0.000000 0.000000 
#    y 0.000000 1.911930 0.000000 
#    z 0.000000 0.000000 1.974710 
# 
# From -- ./inp_files/6156.got.cif
#   From: 2010.05.17/outbox.cif.g08.bks.cpg/sg56_4_cif.got.tgz:6156.got - 2010.06.03 13:42:01.
