data_PCOD9430558
_publ_section_title
;
Structure prediction by ZEFSAII (Michael W. Deem and Ramdas Pophale) SiO2 
 PCOD9430558
Probable space group: P C C N
;
_chemical_formula_sum "Si O2"
_cell_formula_units_Z 52
_cell_length_a 21.316591
_cell_length_b 5.030755
_cell_length_c 21.558430
_cell_angle_alpha 90.000000
_cell_angle_beta 90.000000
_cell_angle_gamma 90.000000
_cell_volume 2311.894704
_symmetry_space_group_name_H-M "P C C N"
_symmetry_group_IT_number 56
_symmetry_cell_setting 'orthorhombic'
loop_
_space_group_symop_operation_xyz
x,y,z
1/2-x,1/2-y,z
1/2+x,-y,1/2-z
-x,1/2+y,1/2-z
-x,-y,-z
1/2+x,1/2+y,-z
1/2-x,y,1/2+z
x,1/2-y,1/2+z
loop_
_atom_site_type_symbol
_atom_site_label
_atom_site_fract_x
_atom_site_fract_y
_atom_site_fract_z
Si Si1 0.088738 0.741866 0.748424
Si Si2 0.250000 0.750000 0.077231
Si Si3 0.967485 0.060817 0.566793
Si Si4 0.691532 0.902640 0.814990
Si Si5 0.090447 0.309280 0.598494
Si Si6 0.123739 0.706268 0.022890
Si Si7 0.456681 0.263863 0.820687
O O1 0.153173 0.859279 0.718909
O O2 0.070474 0.956965 0.800286
O O3 0.030088 0.751090 0.700052
O O4 0.082550 0.457348 0.781535
O O5 0.225540 0.528447 0.124762
O O6 0.192859 0.816730 0.032713
O O7 0.905937 0.214399 0.544630
O O8 0.950303 0.808799 0.607566
O O9 0.019401 0.214247 0.607000
O O10 0.000000 0.000000 0.500000
O O11 0.750000 0.750000 0.782365
O O12 0.636056 0.713009 0.842365
O O13 0.086926 0.599078 0.569301
O O14 0.118461 0.094138 0.549313
#
# Coordination Sequence:
#
# PCOD9430558 Si02
#       7
#     8   4   8   8   8   8   8
#     4  10  23  39  63  87 123 161 204 261 312 365
#     4  10  22  36  58  92 126 156 210 266 302 374
#     4  10  21  39  64  94 126 165 204 255 318 379
#     4  11  21  37  62  91 121 163 209 262 314 367
#     4  10  20  35  54  91 121 150 201 248 297 368
#     4  10  21  34  55  85 123 159 195 248 314 354
#     4  10  22  41  60  92 122 158 206 258 313 372
#
# _framework density 22.492373000000001
#
# number of rings (size 3 to 8) (size 9 to 14) (size 15 to 20)
#    0.000    1.846    3.077    0.462    2.154    4.923 
#    0.000    0.000    3.385    0.000    0.000    0.000 
#    0.000    0.000    0.000    0.000    0.000    0.000 
#
# Total GULP energy -290417.169520 kJ/mol
# GULP energy per Si atom -5584.945568 kJ/mol
# Density = 2.244118 g / cm^3
# Si number density = 22.492373 Si / 1000 Ang^3
#
#
#
# Elastic Constant Matrix: (Units=GPa)
#
#
# Indices 1 2 3 4 5 6 
#
# 1 119.8869 13.4889 22.7299 0.0000 0.0000 0.0000
# 2 13.4889 64.3239 23.7576 0.0000 0.0000 0.0000
# 3 22.7299 23.7576 78.9944 0.0000 0.0000 0.0000
# 4 0.0000 0.0000 0.0000 19.6144 0.0000 0.0000
# 5 0.0000 0.0000 0.0000 0.0000 14.7943 0.0000
# 6 0.0000 0.0000 0.0000 0.0000 0.0000 28.2243
#
#
#
# Elastic Compliance Matrix: (Units=1/GPa)
#
#
# Indices 1 2 3 4 5 6 
#
# 1 0.008883 -0.001034 -0.002245 0.000000 0.000000 0.000000
# 2 -0.001034 0.017609 -0.004999 0.000000 0.000000 0.000000
# 3 -0.002245 -0.004999 0.014808 0.000000 0.000000 0.000000
# 4 0.000000 0.000000 0.000000 0.050983 0.000000 0.000000
# 5 0.000000 0.000000 0.000000 0.000000 0.067594 0.000000
# 6 0.000000 0.000000 0.000000 0.000000 0.000000 0.035431
#
#
# Mechanical properties :
#
#
# Convention : Reuss Voigt Hill
#
# Bulk Modulus (GPa) = 40.41027 42.57312 41.49170
# Shear Modulus (GPa) = 22.71575 26.07517 24.39546
#
# Velocity S-wave (km/s) = 3.18139 3.40853 3.29691
# Velocity P-wave (km/s) = 5.61250 5.87023 5.74281
#
# Compressibility (1/GPa) = 0.02474618
#
# Stress axis : x y z
#
# Youngs Moduli (GPa) = 112.57254 56.78830 67.52881
#
# Poissons Ratio (x) = 0.05869 0.15162
# Poissons Ratio (y) = 0.11635 0.33755
# Poissons Ratio (z) = 0.25275 0.28386
#
# Static dielectric constant tensor:
#      x y z
#    x 1.950250 0.000000 0.000000 
#    y 0.000000 1.928480 0.000000 
#    z 0.000000 0.000000 1.842090 
# 
# From -- ./inp_files/19475.got.cif
#   From: 2010.05.17/outbox.cif.g08.bks.cpg/sg56_10_cif.got.tgz:19475.got - 2010.06.03 13:42:01.
