data_PCOD9430257
_publ_section_title
;
Structure prediction by ZEFSAII (Michael W. Deem and Ramdas Pophale) SiO2 
 PCOD9430257
Probable space group: P C C N
;
_chemical_formula_sum "Si O2"
_cell_formula_units_Z 52
_cell_length_a 14.210611
_cell_length_b 8.690960
_cell_length_c 20.297562
_cell_angle_alpha 90.000000
_cell_angle_beta 90.000000
_cell_angle_gamma 90.000000
_cell_volume 2506.827089
_symmetry_space_group_name_H-M "P C C N"
_symmetry_group_IT_number 56
_symmetry_cell_setting 'orthorhombic'
loop_
_space_group_symop_operation_xyz
x,y,z
1/2-x,1/2-y,z
1/2+x,-y,1/2-z
-x,1/2+y,1/2-z
-x,-y,-z
1/2+x,1/2+y,-z
1/2-x,y,1/2+z
x,1/2-y,1/2+z
loop_
_atom_site_type_symbol
_atom_site_label
_atom_site_fract_x
_atom_site_fract_y
_atom_site_fract_z
Si Si1 0.564264 0.597844 0.448774
Si Si2 0.722155 0.579317 0.766157
Si Si3 0.397856 0.922203 0.186869
Si Si4 0.400070 0.774933 0.880353
Si Si5 0.761632 0.996647 0.115763
Si Si6 0.955069 0.396040 0.263357
Si Si7 0.750000 0.750000 0.010454
O O1 0.500000 0.500000 0.500000
O O2 0.582288 0.492347 0.384588
O O3 0.494293 0.730409 0.422285
O O4 0.663191 0.670162 0.472293
O O5 0.750000 0.750000 0.789663
O O6 0.788152 0.446246 0.797022
O O7 0.735969 0.573163 0.686986
O O8 0.615581 0.533135 0.782656
O O9 0.442865 0.752133 0.190500
O O10 0.446397 0.028228 0.243811
O O11 0.344125 0.618376 0.876393
O O12 0.419795 0.829112 0.806401
O O13 0.329654 0.906407 0.907806
O O14 0.790227 0.876330 0.060810
#
# Coordination Sequence:
#
# PCOD9430257 Si02
#       7
#     8   8   8   8   8   8   4
#     4  11  25  45  63  90 139 178 219 273 327 401
#     4  11  21  37  65 100 131 163 209 280 335 392
#     4  11  23  40  65  94 133 169 216 278 338 398
#     4   9  19  40  63  89 131 168 211 279 321 390
#     4  10  19  36  68  95 121 171 227 259 326 396
#     4  10  21  39  63  95 130 169 210 270 348 390
#     4  12  24  40  68  98 124 184 230 260 326 412
#
# _framework density 20.743352000000002
#
# number of rings (size 3 to 8) (size 9 to 14) (size 15 to 20)
#    0.000    1.538    3.846    1.385    1.077    1.846 
#    0.000    3.077    0.000    0.000    0.000    0.000 
#    0.000    0.000    0.000    0.000    0.000    0.000 
#
# Total GULP energy -290239.819192 kJ/mol
# GULP energy per Si atom -5581.534984 kJ/mol
# Density = 2.069614 g / cm^3
# Si number density = 20.743352 Si / 1000 Ang^3
#
#
#
# Elastic Constant Matrix: (Units=GPa)
#
#
# Indices 1 2 3 4 5 6 
#
# 1 75.5225 4.8459 26.0371 0.0000 0.0000 0.0000
# 2 4.8459 84.5311 18.2123 0.0000 0.0000 0.0000
# 3 26.0371 18.2123 65.6596 0.0000 0.0000 0.0000
# 4 0.0000 0.0000 0.0000 28.1871 0.0000 0.0000
# 5 0.0000 0.0000 0.0000 0.0000 23.4536 0.0000
# 6 0.0000 0.0000 0.0000 0.0000 0.0000 28.6523
#
#
#
# Elastic Compliance Matrix: (Units=1/GPa)
#
#
# Indices 1 2 3 4 5 6 
#
# 1 0.015355 0.000459 -0.006216 0.000000 0.000000 0.000000
# 2 0.000459 0.012596 -0.003676 0.000000 0.000000 0.000000
# 3 -0.006216 -0.003676 0.018715 0.000000 0.000000 0.000000
# 4 0.000000 0.000000 0.000000 0.035477 0.000000 0.000000
# 5 0.000000 0.000000 0.000000 0.000000 0.042637 0.000000
# 6 0.000000 0.000000 0.000000 0.000000 0.000000 0.034901
#
#
# Mechanical properties :
#
#
# Convention : Reuss Voigt Hill
#
# Bulk Modulus (GPa) = 35.97226 35.98930 35.98078
# Shear Modulus (GPa) = 26.62223 27.83312 27.22767
#
# Velocity S-wave (km/s) = 3.58636 3.66701 3.62691
# Velocity P-wave (km/s) = 5.87610 5.94279 5.90954
#
# Compressibility (1/GPa) = 0.02779920
#
# Stress axis : x y z
#
# Youngs Moduli (GPa) = 65.12654 79.39283 53.43413
#
# Poissons Ratio (x) = -0.03645 0.33216
# Poissons Ratio (y) = -0.02990 0.19641
# Poissons Ratio (z) = 0.40484 0.29183
#
# Static dielectric constant tensor:
#      x y z
#    x 1.769630 0.000000 0.000000 
#    y 0.000000 1.798430 0.000000 
#    z 0.000000 0.000000 1.735680 
# 
# From -- ./inp_files/19049.got.cif
#   From: 2010.05.17/outbox.cif.g08.bks.cpg/sg56_10_cif.got.tgz:19049.got - 2010.06.03 13:42:01.
