data_PCOD9430555
_publ_section_title
;
Structure prediction by ZEFSAII (Michael W. Deem and Ramdas Pophale) SiO2 
 PCOD9430555
Probable space group: P C C N
;
_chemical_formula_sum "Si O2"
_cell_formula_units_Z 60
_cell_length_a 5.384464
_cell_length_b 15.993536
_cell_length_c 34.650130
_cell_angle_alpha 90.000000
_cell_angle_beta 90.000000
_cell_angle_gamma 90.000000
_cell_volume 2983.952037
_symmetry_space_group_name_H-M "P C C N"
_symmetry_group_IT_number 56
_symmetry_cell_setting 'orthorhombic'
loop_
_space_group_symop_operation_xyz
x,y,z
1/2-x,1/2-y,z
1/2+x,-y,1/2-z
-x,1/2+y,1/2-z
-x,-y,-z
1/2+x,1/2+y,-z
1/2-x,y,1/2+z
x,1/2-y,1/2+z
loop_
_atom_site_type_symbol
_atom_site_label
_atom_site_fract_x
_atom_site_fract_y
_atom_site_fract_z
Si Si1 0.104991 0.873769 0.372066
Si Si2 0.250000 0.750000 0.932235
Si Si3 0.499164 0.483780 0.162623
Si Si4 0.583607 0.452365 0.759445
Si Si5 0.769982 0.515623 0.418184
Si Si6 0.354493 0.164381 0.198274
Si Si7 0.454295 0.357378 0.017698
Si Si8 0.965161 0.411433 0.978649
O O1 0.271139 0.826889 0.402718
O O2 0.231817 0.944689 0.345878
O O3 0.902791 0.913336 0.399937
O O4 0.999076 0.810672 0.340667
O O5 0.485719 0.728368 0.959010
O O6 0.472025 0.554455 0.194970
O O7 0.419079 0.511331 0.119814
O O8 0.335934 0.406638 0.181277
O O9 0.868237 0.480589 0.753124
O O10 0.521123 0.376242 0.731479
O O11 0.603956 0.440970 0.435566
O O12 0.916941 0.563413 0.452610
O O13 0.250000 0.250000 0.214291
O O14 0.714792 0.371428 0.995681
O O15 0.217871 0.362095 0.988997
O O16 0.000000 0.500000 0.000000
#
# Coordination Sequence:
#
# PCOD9430555 Si02
#       8
#     8   4   8   8   8   8   8   8
#     4  11  21  33  52  84 118 156 189 238 295 353
#     4  12  22  34  54  80 124 150 192 230 302 370
#     4  10  20  35  54  84 115 156 199 245 299 341
#     4  10  20  38  56  79 120 158 198 242 284 349
#     4  10  21  34  55  80 111 147 196 245 288 343
#     4  10  21  35  54  83 122 163 195 235 298 367
#     4  11  23  35  52  79 112 155 179 235 286 360
#     4  10  21  37  54  75 110 146 194 230 284 340
#
# _framework density 20.107559999999999
#
# number of rings (size 3 to 8) (size 9 to 14) (size 15 to 20)
#    0.000    1.600    2.667    4.000    3.733    1.600 
#    0.000    0.000    0.000    0.000    0.000    1.867 
#    0.000    0.000    0.000    0.000    0.000    0.000 
#
# Total GULP energy -334026.741247 kJ/mol
# GULP energy per Si atom -5567.112354 kJ/mol
# Density = 2.006179 g / cm^3
# Si number density = 20.107560 Si / 1000 Ang^3
#
#
#
# Elastic Constant Matrix: (Units=GPa)
#
#
# Indices 1 2 3 4 5 6 
#
# 1 78.1786 9.9740 19.4826 0.0000 0.0000 0.0000
# 2 9.9740 32.3389 27.9540 0.0000 0.0000 0.0000
# 3 19.4826 27.9540 98.6269 0.0000 0.0000 0.0000
# 4 0.0000 0.0000 0.0000 14.1048 0.0000 0.0000
# 5 0.0000 0.0000 0.0000 0.0000 24.5161 0.0000
# 6 0.0000 0.0000 0.0000 0.0000 0.0000 18.3300
#
#
#
# Elastic Compliance Matrix: (Units=1/GPa)
#
#
# Indices 1 2 3 4 5 6 
#
# 1 0.013602 -0.002480 -0.001984 0.000000 0.000000 0.000000
# 2 -0.002480 0.041409 -0.011247 0.000000 0.000000 0.000000
# 3 -0.001984 -0.011247 0.013719 0.000000 0.000000 0.000000
# 4 0.000000 0.000000 0.000000 0.070898 0.000000 0.000000
# 5 0.000000 0.000000 0.000000 0.000000 0.040790 0.000000
# 6 0.000000 0.000000 0.000000 0.000000 0.000000 0.054555
#
#
# Mechanical properties :
#
#
# Convention : Reuss Voigt Hill
#
# Bulk Modulus (GPa) = 26.80370 35.99617 31.39994
# Shear Modulus (GPa) = 17.93201 21.50576 19.71889
#
# Velocity S-wave (km/s) = 2.98955 3.27392 3.13496
# Velocity P-wave (km/s) = 5.02749 5.67733 5.36226
#
# Compressibility (1/GPa) = 0.03730828
#
# Stress axis : x y z
#
# Youngs Moduli (GPa) = 73.51821 24.14921 72.89257
#
# Poissons Ratio (x) = 0.05989 0.14462
# Poissons Ratio (y) = 0.18234 0.81980
# Poissons Ratio (z) = 0.14586 0.27160
#
# Static dielectric constant tensor:
#      x y z
#    x 1.861870 0.000000 0.000000 
#    y 0.000000 1.734950 0.000000 
#    z 0.000000 0.000000 1.756140 
# 
# From -- ./inp_files/22964.got.cif
#   From: 2010.05.17/outbox.cif.g08.bks.cpg/sg56_12_cif.got.tgz:22964.got - 2010.06.03 13:42:01.
