data_PCOD9430592
_publ_section_title
;
Structure prediction by ZEFSAII (Michael W. Deem and Ramdas Pophale) SiO2 
 PCOD9430592
Probable space group: P C C N
;
_chemical_formula_sum "Si O2"
_cell_formula_units_Z 56
_cell_length_a 13.903726
_cell_length_b 16.006726
_cell_length_c 12.714341
_cell_angle_alpha 90.000000
_cell_angle_beta 90.000000
_cell_angle_gamma 90.000000
_cell_volume 2829.616417
_symmetry_space_group_name_H-M "P C C N"
_symmetry_group_IT_number 56
_symmetry_cell_setting 'orthorhombic'
loop_
_space_group_symop_operation_xyz
x,y,z
1/2-x,1/2-y,z
1/2+x,-y,1/2-z
-x,1/2+y,1/2-z
-x,-y,-z
1/2+x,1/2+y,-z
1/2-x,y,1/2+z
x,1/2-y,1/2+z
loop_
_atom_site_type_symbol
_atom_site_label
_atom_site_fract_x
_atom_site_fract_y
_atom_site_fract_z
Si Si1 0.176884 0.587790 0.179319
Si Si2 0.521257 0.612679 0.752353
Si Si3 0.455844 0.212323 0.963524
Si Si4 0.338871 0.061265 0.033053
Si Si5 0.660198 0.304750 0.527931
Si Si6 0.673796 0.680517 0.914355
Si Si7 0.644746 0.461960 0.678094
O O1 0.133026 0.510554 0.113339
O O2 0.191674 0.654067 0.084666
O O3 0.272636 0.559158 0.237897
O O4 0.094240 0.612690 0.262362
O O5 0.537113 0.671345 0.650344
O O6 0.585784 0.655686 0.840677
O O7 0.561636 0.518199 0.732870
O O8 0.560513 0.241553 0.000702
O O9 0.418007 0.133850 0.032389
O O10 0.374042 0.281045 0.980727
O O11 0.238152 0.100439 0.065696
O O12 0.325576 0.023777 0.917084
O O13 0.750000 0.250000 0.565700
O O14 0.631262 0.375308 0.613735
O O15 0.750000 0.750000 0.872440
#
# Coordination Sequence:
#
# PCOD9430592 Si02
#       7
#     8   8   8   8   8   8   8
#     4  10  20  37  57  82 109 146 189 231 272 336
#     4  10  20  36  60  83 111 149 191 227 277 339
#     4   9  20  37  55  80 111 151 184 226 277 335
#     4   9  18  37  59  83 110 141 189 232 277 329
#     4  10  22  38  56  79 113 151 189 228 275 341
#     4  10  20  35  58  86 117 141 182 239 282 327
#     4  10  20  36  61  80 109 151 184 228 281 327
#
# _framework density 19.790669000000001
#
# number of rings (size 3 to 8) (size 9 to 14) (size 15 to 20)
#    0.000    2.286    1.429    0.857    2.000    6.857 
#    2.571    2.143    0.000    0.000    0.000    0.000 
#    0.000    0.000    0.000    0.000    0.000    0.000 
#
# Total GULP energy -311865.134272 kJ/mol
# GULP energy per Si atom -5569.020255 kJ/mol
# Density = 1.974562 g / cm^3
# Si number density = 19.790669 Si / 1000 Ang^3
#
#
#
# Elastic Constant Matrix: (Units=GPa)
#
#
# Indices 1 2 3 4 5 6 
#
# 1 67.4864 14.7868 14.1527 0.0000 0.0000 0.0000
# 2 14.7868 38.4098 -8.3281 0.0000 0.0000 0.0000
# 3 14.1527 -8.3281 23.0051 0.0000 0.0000 0.0000
# 4 0.0000 0.0000 0.0000 1.3115 0.0000 0.0000
# 5 0.0000 0.0000 0.0000 0.0000 29.7729 0.0000
# 6 0.0000 0.0000 0.0000 0.0000 0.0000 21.4569
#
#
#
# Elastic Compliance Matrix: (Units=1/GPa)
#
#
# Indices 1 2 3 4 5 6 
#
# 1 0.021017 -0.011823 -0.017210 0.000000 0.000000 0.000000
# 2 -0.011823 0.034903 0.019908 0.000000 0.000000 0.000000
# 3 -0.017210 0.019908 0.061263 0.000000 0.000000 0.000000
# 4 0.000000 0.000000 0.000000 0.762498 0.000000 0.000000
# 5 0.000000 0.000000 0.000000 0.000000 0.033588 0.000000
# 6 0.000000 0.000000 0.000000 0.000000 0.000000 0.046605
#
#
# Mechanical properties :
#
#
# Convention : Reuss Voigt Hill
#
# Bulk Modulus (GPa) = 10.10756 18.90268 14.50512
# Shear Modulus (GPa) = 4.94511 17.72757 11.33634
#
# Velocity S-wave (km/s) = 1.58244 2.99616 2.39595
# Velocity P-wave (km/s) = 2.90812 4.64127 3.87289
#
# Compressibility (1/GPa) = 0.09893580
#
# Stress axis : x y z
#
# Youngs Moduli (GPa) = 47.57991 28.65086 16.32305
#
# Poissons Ratio (x) = 0.33873 0.28091
# Poissons Ratio (y) = 0.56252 -0.32497
# Poissons Ratio (z) = 0.81883 -0.57039
#
# Static dielectric constant tensor:
#      x y z
#    x 1.689480 0.000000 0.000000 
#    y 0.000000 1.728060 0.000000 
#    z 0.000000 0.000000 1.686790 
# 
# From -- ./inp_files/7915.got.cif
#   From: 2010.05.17/outbox.cif.g08.bks.cpg/sg56_4_cif.got.tgz:7915.got - 2010.06.03 13:42:01.
