data_PCOD9430035
_publ_section_title
;
Structure prediction by ZEFSAII (Michael W. Deem and Ramdas Pophale) SiO2 
 PCOD9430035
Probable space group: P C C N
;
_chemical_formula_sum "Si O2"
_cell_formula_units_Z 52
_cell_length_a 20.004700
_cell_length_b 8.407461
_cell_length_c 16.462166
_cell_angle_alpha 90.000000
_cell_angle_beta 90.000000
_cell_angle_gamma 90.000000
_cell_volume 2768.750876
_symmetry_space_group_name_H-M "P C C N"
_symmetry_group_IT_number 56
_symmetry_cell_setting 'orthorhombic'
loop_
_space_group_symop_operation_xyz
x,y,z
1/2-x,1/2-y,z
1/2+x,-y,1/2-z
-x,1/2+y,1/2-z
-x,-y,-z
1/2+x,1/2+y,-z
1/2-x,y,1/2+z
x,1/2-y,1/2+z
loop_
_atom_site_type_symbol
_atom_site_label
_atom_site_fract_x
_atom_site_fract_y
_atom_site_fract_z
Si Si1 0.419772 0.354353 0.264732
Si Si2 0.029042 0.259423 0.022208
Si Si3 0.750000 0.750000 0.978687
Si Si4 0.365502 0.461505 0.093446
Si Si5 0.049889 0.461077 0.178077
Si Si6 0.857499 0.951710 0.570065
Si Si7 0.886990 0.303383 0.946642
O O1 0.392675 0.433222 0.183109
O O2 0.422955 0.164071 0.245509
O O3 0.493574 0.422322 0.285959
O O4 0.371455 0.413602 0.336722
O O5 0.073796 0.103487 0.036519
O O6 0.017693 0.343844 0.109545
O O7 0.077226 0.376988 0.973251
O O8 0.961734 0.249313 0.971923
O O9 0.697830 0.649358 0.925455
O O10 0.706767 0.862937 0.036054
O O11 0.349897 0.645095 0.080320
O O12 0.103309 0.566691 0.126142
O O13 0.855812 0.124448 0.528860
#
# Coordination Sequence:
#
# PCOD9430035 Si02
#       7
#     8   8   4   8   8   8   8
#     4  11  20  35  56  93 118 160 177 252 303 355
#     4   9  17  35  56  87 119 155 183 236 294 362
#     4  10  24  46  54  80 108 168 214 238 276 352
#     4  10  23  35  60  85 120 155 199 242 299 341
#     4  10  19  32  55  88 133 145 182 235 314 367
#     4  10  20  37  63  77 120 157 204 237 288 343
#     4  11  18  37  61  89 118 158 192 244 293 367
#
# _framework density 18.781033000000001
#
# number of rings (size 3 to 8) (size 9 to 14) (size 15 to 20)
#    0.000    1.846    3.077    3.231    0.000    1.231 
#    2.769    0.000    0.000    1.846    0.000    0.000 
#    0.000    0.000    0.000    0.000    0.000    0.000 
#
# Total GULP energy -289826.583376 kJ/mol
# GULP energy per Si atom -5573.588142 kJ/mol
# Density = 1.873829 g / cm^3
# Si number density = 18.781033 Si / 1000 Ang^3
#
#
#
# Elastic Constant Matrix: (Units=GPa)
#
#
# Indices 1 2 3 4 5 6 
#
# 1 36.7131 8.0767 2.6281 0.0000 0.0000 0.0000
# 2 8.0767 117.2734 28.4090 0.0000 0.0000 0.0000
# 3 2.6281 28.4090 72.8530 0.0000 0.0000 0.0000
# 4 0.0000 0.0000 0.0000 20.2332 0.0000 0.0000
# 5 0.0000 0.0000 0.0000 0.0000 -0.0211 0.0000
# 6 0.0000 0.0000 0.0000 0.0000 0.0000 5.3152
#
#
#
# Elastic Compliance Matrix: (Units=1/GPa)
#
#
# Indices 1 2 3 4 5 6 
#
# 1 0.027662 -0.001837 -0.000282 0.000000 0.000000 0.000000
# 2 -0.001837 0.009539 -0.003653 0.000000 0.000000 0.000000
# 3 -0.000282 -0.003653 0.015161 0.000000 0.000000 0.000000
# 4 0.000000 0.000000 0.000000 0.049424 0.000000 0.000000
# 5 0.000000 0.000000 0.000000 0.000000-47.306732 0.000000
# 6 0.000000 0.000000 0.000000 0.000000 0.000000 0.188141
#
#
# Mechanical properties :
#
#
# Convention : Reuss Voigt Hill
#
# Bulk Modulus (GPa) = 24.49870 33.89634 29.19752
# Shear Modulus (GPa) = -0.10640 17.62049 8.75705
#
# Velocity S-wave (km/s) = -0.23828 3.06634 2.16167
# Velocity P-wave (km/s) = 3.60514 5.53389 4.67017
#
# Compressibility (1/GPa) = 0.04081849
#
# Stress axis : x y z
#
# Youngs Moduli (GPa) = 36.15005 104.83726 65.95853
#
# Poissons Ratio (x) = 0.19258 0.01857
# Poissons Ratio (y) = 0.06641 0.24097
# Poissons Ratio (z) = 0.01018 0.38300
#
# Static dielectric constant tensor:
#      x y z
#    x 1.648760 0.000000 0.000000 
#    y 0.000000 1.746980 0.000000 
#    z 0.000000 0.000000 1.675800 
# 
# From -- ./inp_files/10960.got.cif
#   From: 2010.05.17/outbox.cif.g08.bks.cpg/sg56_6_cif.got.tgz:10960.got - 2010.06.03 13:42:01.
