data_PCOD9430347
_publ_section_title
;
Structure prediction by ZEFSAII (Michael W. Deem and Ramdas Pophale) SiO2 
 PCOD9430347
Probable space group: P C C N
;
_chemical_formula_sum "Si O2"
_cell_formula_units_Z 52
_cell_length_a 8.553889
_cell_length_b 10.715106
_cell_length_c 26.989483
_cell_angle_alpha 90.000000
_cell_angle_beta 90.000000
_cell_angle_gamma 90.000000
_cell_volume 2473.743394
_symmetry_space_group_name_H-M "P C C N"
_symmetry_group_IT_number 56
_symmetry_cell_setting 'orthorhombic'
loop_
_space_group_symop_operation_xyz
x,y,z
1/2-x,1/2-y,z
1/2+x,-y,1/2-z
-x,1/2+y,1/2-z
-x,-y,-z
1/2+x,1/2+y,-z
1/2-x,y,1/2+z
x,1/2-y,1/2+z
loop_
_atom_site_type_symbol
_atom_site_label
_atom_site_fract_x
_atom_site_fract_y
_atom_site_fract_z
Si Si1 0.750000 0.250000 0.480990
Si Si2 0.735665 0.999177 0.411988
Si Si3 0.016248 0.416071 0.861755
Si Si4 0.750000 0.750000 0.076105
Si Si5 0.552667 0.859979 0.489090
Si Si6 0.079088 0.517824 0.694143
Si Si7 0.250000 0.750000 0.185395
Si Si8 0.263667 0.102783 0.777832
O O1 0.750386 0.125600 0.446112
O O2 0.596485 0.230831 0.514946
O O3 0.619156 0.017024 0.364682
O O4 0.910612 0.983976 0.390264
O O5 0.672184 0.884166 0.444284
O O6 0.150903 0.349761 0.893198
O O7 0.100165 0.456911 0.811695
O O8 0.887672 0.311906 0.846664
O O9 0.866602 0.818171 0.039405
O O10 0.500000 0.000000 0.500000
O O11 0.168082 0.640583 0.714954
O O12 0.171451 0.408942 0.722156
O O13 0.898837 0.535849 0.708157
O O14 0.250000 0.250000 0.790182
#
# Coordination Sequence:
#
# PCOD9430347 Si02
#       8
#     4   8   8   4   8   8   4   8
#     4  10  19  40  64  95 128 168 223 278 312 391
#     4  10  21  40  66  93 129 177 210 275 337 380
#     4  11  21  36  68  95 126 160 225 272 323 384
#     4  12  22  38  62  94 124 166 220 272 312 390
#     4  10  24  38  63  93 128 166 218 271 331 379
#     4  11  23  40  67  95 139 166 222 270 333 394
#     4  10  19  38  66  95 124 174 205 272 322 387
#     4  12  25  41  67 106 127 174 219 274 328 404
#
# _framework density 21.020775
#
# number of rings (size 3 to 8) (size 9 to 14) (size 15 to 20)
#    0.000    1.231    3.846    3.692    8.615    0.615 
#    1.385    0.000    3.385    0.000    0.000    0.000 
#    0.000    0.000    0.000    0.000    0.000    0.000 
#
# Total GULP energy -289944.567996 kJ/mol
# GULP energy per Si atom -5575.857077 kJ/mol
# Density = 2.097293 g / cm^3
# Si number density = 21.020775 Si / 1000 Ang^3
#
#
#
# Elastic Constant Matrix: (Units=GPa)
#
#
# Indices 1 2 3 4 5 6 
#
# 1 123.0969 21.8098 27.7472 0.0000 0.0000 0.0000
# 2 21.8098 37.8642 25.4463 0.0000 0.0000 0.0000
# 3 27.7472 25.4463 72.1530 0.0000 0.0000 0.0000
# 4 0.0000 0.0000 0.0000 24.0282 0.0000 0.0000
# 5 0.0000 0.0000 0.0000 0.0000 32.8049 0.0000
# 6 0.0000 0.0000 0.0000 0.0000 0.0000 18.8487
#
#
#
# Elastic Compliance Matrix: (Units=1/GPa)
#
#
# Indices 1 2 3 4 5 6 
#
# 1 0.009309 -0.003874 -0.002214 0.000000 0.000000 0.000000
# 2 -0.003874 0.036227 -0.011286 0.000000 0.000000 0.000000
# 3 -0.002214 -0.011286 0.018691 0.000000 0.000000 0.000000
# 4 0.000000 0.000000 0.000000 0.041618 0.000000 0.000000
# 5 0.000000 0.000000 0.000000 0.000000 0.030483 0.000000
# 6 0.000000 0.000000 0.000000 0.000000 0.000000 0.053054
#
#
# Mechanical properties :
#
#
# Convention : Reuss Voigt Hill
#
# Bulk Modulus (GPa) = 33.92307 42.56897 38.24602
# Shear Modulus (GPa) = 21.37155 25.67708 23.52432
#
# Velocity S-wave (km/s) = 3.19201 3.49880 3.34892
# Velocity P-wave (km/s) = 5.45510 6.05120 5.76087
#
# Compressibility (1/GPa) = 0.02947847
#
# Stress axis : x y z
#
# Youngs Moduli (GPa) = 107.42188 27.60408 53.50191
#
# Poissons Ratio (x) = 0.10695 0.11843
# Poissons Ratio (y) = 0.41620 0.60383
# Poissons Ratio (z) = 0.23778 0.31154
#
# Static dielectric constant tensor:
#      x y z
#    x 1.849920 0.000000 0.000000 
#    y 0.000000 1.759160 0.000000 
#    z 0.000000 0.000000 1.818150 
# 
# From -- ./inp_files/22082.got.cif
#   From: 2010.05.17/outbox.cif.g08.bks.cpg/sg56_12_cif.got.tgz:22082.got - 2010.06.03 13:42:01.
