data_PCOD9430106
_publ_section_title
;
Structure prediction by ZEFSAII (Michael W. Deem and Ramdas Pophale) SiO2 
 PCOD9430106
Probable space group: P C C N
;
_chemical_formula_sum "Si O2"
_cell_formula_units_Z 48
_cell_length_a 18.687390
_cell_length_b 10.310796
_cell_length_c 13.745919
_cell_angle_alpha 90.000000
_cell_angle_beta 90.000000
_cell_angle_gamma 90.000000
_cell_volume 2648.589324
_symmetry_space_group_name_H-M "P C C N"
_symmetry_group_IT_number 56
_symmetry_cell_setting 'orthorhombic'
loop_
_space_group_symop_operation_xyz
x,y,z
1/2-x,1/2-y,z
1/2+x,-y,1/2-z
-x,1/2+y,1/2-z
-x,-y,-z
1/2+x,1/2+y,-z
1/2-x,y,1/2+z
x,1/2-y,1/2+z
loop_
_atom_site_type_symbol
_atom_site_label
_atom_site_fract_x
_atom_site_fract_y
_atom_site_fract_z
Si Si1 0.505654 0.441245 0.156365
Si Si2 0.338089 0.891709 0.380395
Si Si3 0.489800 0.694410 0.480797
Si Si4 0.683340 0.110356 0.202867
Si Si5 0.941692 0.555879 0.137966
Si Si6 0.883663 0.356026 0.409181
O O1 0.590889 0.466197 0.154895
O O2 0.483974 0.404879 0.265470
O O3 0.451753 0.553282 0.120136
O O4 0.497188 0.320767 0.083403
O O5 0.264408 0.921462 0.325904
O O6 0.343677 0.737171 0.356544
O O7 0.339792 0.906798 0.497146
O O8 0.477163 0.572336 0.410564
O O9 0.553615 0.662439 0.554600
O O10 0.421517 0.725022 0.550958
O O11 0.666475 0.147251 0.314732
O O12 0.635539 0.988982 0.172639
#
# Coordination Sequence:
#
# PCOD9430106 Si02
#       6
#     8   8   8   8   8   8
#     4  10  20  36  59  82 110 148 191 232 276 343
#     4  10  19  34  53  81 115 140 182 227 287 335
#     4  10  19  34  55  84 109 144 190 228 281 322
#     4  10  20  33  52  84 114 144 173 234 289 331
#     4  10  20  34  56  83 114 142 185 241 271 339
#     4  10  20  36  57  80 112 149 190 224 280 345
#
# _framework density 18.122855000000001
#
# number of rings (size 3 to 8) (size 9 to 14) (size 15 to 20)
#    0.000    2.000    3.333    3.000    2.333    2.667 
#    6.000    0.000    0.000    4.000    0.000    0.000 
#    0.000    0.000    0.000    0.000    0.000    0.000 
#
# Total GULP energy -267346.224519 kJ/mol
# GULP energy per Si atom -5569.713011 kJ/mol
# Density = 1.808161 g / cm^3
# Si number density = 18.122855 Si / 1000 Ang^3
#
#
#
# Elastic Constant Matrix: (Units=GPa)
#
#
# Indices 1 2 3 4 5 6 
#
# 1 97.7602 9.6741 68.4745 0.0000 0.0000 0.0000
# 2 9.6741 12.6630 21.9332 0.0000 0.0000 0.0000
# 3 68.4745 21.9332 133.6989 0.0000 0.0000 0.0000
# 4 0.0000 0.0000 0.0000 25.8535 0.0000 0.0000
# 5 0.0000 0.0000 0.0000 0.0000 30.8660 0.0000
# 6 0.0000 0.0000 0.0000 0.0000 0.0000 16.5089
#
#
#
# Elastic Compliance Matrix: (Units=1/GPa)
#
#
# Indices 1 2 3 4 5 6 
#
# 1 0.016020 0.002755 -0.008657 0.000000 0.000000 0.000000
# 2 0.002755 0.110790 -0.019586 0.000000 0.000000 0.000000
# 3 -0.008657 -0.019586 0.015126 0.000000 0.000000 0.000000
# 4 0.000000 0.000000 0.000000 0.038680 0.000000 0.000000
# 5 0.000000 0.000000 0.000000 0.000000 0.032398 0.000000
# 6 0.000000 0.000000 0.000000 0.000000 0.000000 0.060573
#
#
# Mechanical properties :
#
#
# Convention : Reuss Voigt Hill
#
# Bulk Modulus (GPa) = 10.99371 49.36508 30.17939
# Shear Modulus (GPa) = 14.08916 24.24835 19.16876
#
# Velocity S-wave (km/s) = 2.79126 3.66183 3.25578
# Velocity P-wave (km/s) = 4.05802 6.72138 5.55178
#
# Compressibility (1/GPa) = 0.09096111
#
# Stress axis : x y z
#
# Youngs Moduli (GPa) = 62.42254 9.02607 66.11064
#
# Poissons Ratio (x) = -0.02487 0.57230
# Poissons Ratio (y) = -0.17200 1.29486
# Poissons Ratio (z) = 0.54037 0.17679
#
# Static dielectric constant tensor:
#      x y z
#    x 1.651760 0.000000 0.000000 
#    y 0.000000 1.640470 0.000000 
#    z 0.000000 0.000000 1.648130 
# 
# From -- ./inp_files/12745.got.cif
#   From: 2010.05.17/outbox.cif.g08.bks.cpg/sg56_7_cif.got.tgz:12745.got - 2010.06.03 13:42:01.
