data_PCOD9430516
_publ_section_title
;
Structure prediction by ZEFSAII (Michael W. Deem and Ramdas Pophale) SiO2 
 PCOD9430516
Probable space group: P C C N
;
_chemical_formula_sum "Si O2"
_cell_formula_units_Z 48
_cell_length_a 16.369063
_cell_length_b 7.495685
_cell_length_c 14.049928
_cell_angle_alpha 90.000000
_cell_angle_beta 90.000000
_cell_angle_gamma 90.000000
_cell_volume 1723.888793
_symmetry_space_group_name_H-M "P C C N"
_symmetry_group_IT_number 56
_symmetry_cell_setting 'orthorhombic'
loop_
_space_group_symop_operation_xyz
x,y,z
1/2-x,1/2-y,z
1/2+x,-y,1/2-z
-x,1/2+y,1/2-z
-x,-y,-z
1/2+x,1/2+y,-z
1/2-x,y,1/2+z
x,1/2-y,1/2+z
loop_
_atom_site_type_symbol
_atom_site_label
_atom_site_fract_x
_atom_site_fract_y
_atom_site_fract_z
Si Si1 0.595117 0.445501 0.925601
Si Si2 0.750000 0.750000 0.238196
Si Si3 0.424759 0.611531 0.870292
Si Si4 0.919508 0.835462 0.291247
Si Si5 0.987889 0.627457 0.113189
Si Si6 0.673851 0.470410 0.593504
Si Si7 0.250000 0.750000 0.074992
O O1 0.526418 0.579320 0.881497
O O2 0.544064 0.262842 0.941219
O O3 0.609936 0.490026 0.035721
O O4 0.676635 0.363781 0.875979
O O5 0.829799 0.757865 0.306010
O O6 0.770892 0.581707 0.167904
O O7 0.399154 0.503127 0.778334
O O8 0.374768 0.797814 0.863500
O O9 0.971955 0.719619 0.215800
O O10 0.968639 0.939161 0.371798
O O11 0.899835 0.602384 0.069626
O O12 0.712921 0.396232 0.497603
#
# Coordination Sequence:
#
# PCOD9430516 Si02
#       7
#     8   4   8   8   8   8   4
#     4   9  19  36  57  83 114 148 196 247 297 356
#     4  10  20  34  56  88 118 152 208 260 290 352
#     4   9  18  35  59  82 111 153 195 240 297 369
#     4  10  20  36  57  84 117 153 200 247 299 360
#     4  10  21  37  56  81 116 158 196 239 298 371
#     4  10  20  35  58  82 113 154 198 242 299 364
#     4  10  20  36  58  86 116 152 198 256 310 354
#
# _framework density 27.844021999999999
#
# number of rings (size 3 to 8) (size 9 to 14) (size 15 to 20)
#    0.000    2.333    0.000    3.000    0.000    4.000 
#    0.000   10.000    0.000    1.000    0.000    0.000 
#    0.000    0.000    0.000    0.000    0.000    0.000 
#
# Total GULP energy -267952.882918 kJ/mol
# GULP energy per Si atom -5582.351727 kJ/mol
# Density = 2.778065 g / cm^3
# Si number density = 27.844022 Si / 1000 Ang^3
#
#
#
# Elastic Constant Matrix: (Units=GPa)
#
#
# Indices 1 2 3 4 5 6 
#
# 1 157.4610 32.5744 -7.0330 0.0000 0.0000 0.0000
# 2 32.5744 150.8069 -3.6815 0.0000 0.0000 0.0000
# 3 -7.0330 -3.6815 38.1300 0.0000 0.0000 0.0000
# 4 0.0000 0.0000 0.0000 28.3938 0.0000 0.0000
# 5 0.0000 0.0000 0.0000 0.0000 14.7553 0.0000
# 6 0.0000 0.0000 0.0000 0.0000 0.0000 59.8726
#
#
#
# Elastic Compliance Matrix: (Units=1/GPa)
#
#
# Indices 1 2 3 4 5 6 
#
# 1 0.006693 -0.001419 0.001098 0.000000 0.000000 0.000000
# 2 -0.001419 0.006947 0.000409 0.000000 0.000000 0.000000
# 3 0.001098 0.000409 0.026468 0.000000 0.000000 0.000000
# 4 0.000000 0.000000 0.000000 0.035219 0.000000 0.000000
# 5 0.000000 0.000000 0.000000 0.000000 0.067772 0.000000
# 6 0.000000 0.000000 0.000000 0.000000 0.000000 0.016702
#
#
# Mechanical properties :
#
#
# Convention : Reuss Voigt Hill
#
# Bulk Modulus (GPa) = 24.82370 43.34643 34.08506
# Shear Modulus (GPa) = 28.89256 42.24021 35.56639
#
# Velocity S-wave (km/s) = 3.22476 3.89913 3.57787
# Velocity P-wave (km/s) = 4.77494 5.98935 5.41629
#
# Compressibility (1/GPa) = 0.04028409
#
# Stress axis : x y z
#
# Youngs Moduli (GPa) = 149.40205 143.93709 37.78151
#
# Poissons Ratio (x) = 0.20424 -0.04147
# Poissons Ratio (y) = 0.21200 -0.01545
# Poissons Ratio (z) = -0.16398 -0.05888
#
# Static dielectric constant tensor:
#      x y z
#    x 2.310250 0.000000 0.000000 
#    y 0.000000 2.354960 0.000000 
#    z 0.000000 0.000000 2.430340 
# 
# From -- ./inp_files/18996.got.cif
#   From: 2010.05.17/outbox.cif.g08.bks.cpg/sg56_10_cif.got.tgz:18996.got - 2010.06.03 13:42:01.
