data_PCOD9430693
_publ_section_title
;
Structure prediction by ZEFSAII (Michael W. Deem and Ramdas Pophale) SiO2 
 PCOD9430693
Probable space group: P C C N
;
_chemical_formula_sum "Si O2"
_cell_formula_units_Z 36
_cell_length_a 12.127146
_cell_length_b 4.912253
_cell_length_c 25.326810
_cell_angle_alpha 90.000000
_cell_angle_beta 90.000000
_cell_angle_gamma 90.000000
_cell_volume 1508.758831
_symmetry_space_group_name_H-M "P C C N"
_symmetry_group_IT_number 56
_symmetry_cell_setting 'orthorhombic'
loop_
_space_group_symop_operation_xyz
x,y,z
1/2-x,1/2-y,z
1/2+x,-y,1/2-z
-x,1/2+y,1/2-z
-x,-y,-z
1/2+x,1/2+y,-z
1/2-x,y,1/2+z
x,1/2-y,1/2+z
loop_
_atom_site_type_symbol
_atom_site_label
_atom_site_fract_x
_atom_site_fract_y
_atom_site_fract_z
Si Si1 0.000237 0.169950 0.819630
Si Si2 0.958310 0.059773 0.584663
Si Si3 0.393220 0.183578 0.510685
Si Si4 0.250000 0.750000 0.454610
Si Si5 0.126341 0.334221 0.213544
O O1 0.897791 0.352908 0.799297
O O2 0.032711 0.322284 0.872859
O O3 0.093091 0.205800 0.774807
O O4 0.959491 0.858442 0.819093
O O5 0.853338 0.260079 0.588210
O O6 0.076149 0.188821 0.567805
O O7 0.908721 0.917814 0.532151
O O8 0.500000 0.000000 0.500000
O O9 0.292372 0.986135 0.496332
O O10 0.250000 0.250000 0.202753
#
# Coordination Sequence:
#
# PCOD9430693 Si02
#       5
#     8   8   8   4   8
#     4  10  23  41  70  98 131 172 223 275 331 396
#     4  10  21  39  63  91 133 168 222 280 327 396
#     4   9  20  37  59  87 128 167 212 280 323 385
#     4  10  20  36  62  94 124 172 226 270 334 398
#     4  10  22  44  66  97 136 172 214 277 337 400
#
# _framework density 23.860675000000001
#
# number of rings (size 3 to 8) (size 9 to 14) (size 15 to 20)
#    0.000    2.222    0.000    1.333    6.222    1.778 
#    8.000    6.667    4.889    0.000    0.000    0.000 
#    0.000    0.000    0.000    0.000    0.000    0.000 
#
# Total GULP energy -200499.448424 kJ/mol
# GULP energy per Si atom -5569.429123 kJ/mol
# Density = 2.380637 g / cm^3
# Si number density = 23.860675 Si / 1000 Ang^3
#
#
#
# Elastic Constant Matrix: (Units=GPa)
#
#
# Indices 1 2 3 4 5 6 
#
# 1 96.6906 -8.8978 7.2338 0.0000 0.0000 0.0000
# 2 -8.8978 81.3923 -6.5377 0.0000 0.0000 0.0000
# 3 7.2338 -6.5377 96.5175 0.0000 0.0000 0.0000
# 4 0.0000 0.0000 0.0000 -22.2605 0.0000 0.0000
# 5 0.0000 0.0000 0.0000 0.0000 -1.8078 0.0000
# 6 0.0000 0.0000 0.0000 0.0000 0.0000 16.3590
#
#
#
# Elastic Compliance Matrix: (Units=1/GPa)
#
#
# Indices 1 2 3 4 5 6 
#
# 1 0.010496 0.001090 -0.000713 0.000000 0.000000 0.000000
# 2 0.001090 0.012467 0.000763 0.000000 0.000000 0.000000
# 3 -0.000713 0.000763 0.010466 0.000000 0.000000 0.000000
# 4 0.000000 0.000000 0.000000 -0.044923 0.000000 0.000000
# 5 0.000000 0.000000 0.000000 0.000000 -0.553163 0.000000
# 6 0.000000 0.000000 0.000000 0.000000 0.000000 0.061129
#
#
# Mechanical properties :
#
#
# Convention : Reuss Voigt Hill
#
# Bulk Modulus (GPa) = 28.00446 28.68856 28.34651
# Shear Modulus (GPa) = -10.12339 17.31161 3.59411
#
# Velocity S-wave (km/s) = -2.06202 2.69649 1.22864
# Velocity P-wave (km/s) = 2.46838 4.66307 3.73076
#
# Compressibility (1/GPa) = 0.03570859
#
# Stress axis : x y z
#
# Youngs Moduli (GPa) = 95.27511 80.21427 95.54835
#
# Poissons Ratio (x) = -0.08745 0.06811
# Poissons Ratio (y) = -0.10387 -0.07288
# Poissons Ratio (z) = 0.06791 -0.06118
#
# Static dielectric constant tensor:
#      x y z
#    x 1.788290 0.000000 0.000000 
#    y 0.000000 1.807850 0.000000 
#    z 0.000000 0.000000 1.925050 
# 
# From -- ./inp_files/22173.got.cif
#   From: 2010.05.17/outbox.cif.g08.bks.cpg/sg56_12_cif.got.tgz:22173.got - 2010.06.03 13:42:01.
