data_PCOD9430415
_publ_section_title
;
Structure prediction by ZEFSAII (Michael W. Deem and Ramdas Pophale) SiO2 
 PCOD9430415
Probable space group: P C C N
;
_chemical_formula_sum "Si O2"
_cell_formula_units_Z 64
_cell_length_a 4.999127
_cell_length_b 25.569557
_cell_length_c 19.206584
_cell_angle_alpha 90.000000
_cell_angle_beta 90.000000
_cell_angle_gamma 90.000000
_cell_volume 2455.090488
_symmetry_space_group_name_H-M "P C C N"
_symmetry_group_IT_number 56
_symmetry_cell_setting 'orthorhombic'
loop_
_space_group_symop_operation_xyz
x,y,z
1/2-x,1/2-y,z
1/2+x,-y,1/2-z
-x,1/2+y,1/2-z
-x,-y,-z
1/2+x,1/2+y,-z
1/2-x,y,1/2+z
x,1/2-y,1/2+z
loop_
_atom_site_type_symbol
_atom_site_label
_atom_site_fract_x
_atom_site_fract_y
_atom_site_fract_z
Si Si1 0.340341 0.806267 0.411020
Si Si2 0.944668 0.626230 0.986111
Si Si3 0.699456 0.022437 0.210743
Si Si4 0.578999 0.080472 0.422275
Si Si5 0.637883 0.813857 0.554629
Si Si6 0.971996 0.362622 0.716125
Si Si7 0.859762 0.518400 0.929012
Si Si8 0.501921 0.156420 0.303543
O O1 0.250000 0.750000 0.386673
O O2 0.487048 0.800185 0.485445
O O3 0.532251 0.834078 0.355791
O O4 0.099139 0.846300 0.420902
O O5 0.796624 0.578595 0.941072
O O6 0.940309 0.686002 0.032800
O O7 0.177403 0.597549 0.030077
O O8 0.841719 0.079525 0.207990
O O9 0.556298 0.009989 0.136633
O O10 0.941961 0.985384 0.237783
O O11 0.340729 0.119275 0.450977
O O12 0.613638 0.106478 0.347231
O O13 0.598227 0.018581 0.420466
O O14 0.555178 0.803665 0.632114
O O15 0.735056 0.328864 0.752046
O O16 0.230449 0.360066 0.765646
O O17 0.000000 0.500000 0.000000
#
# Coordination Sequence:
#
# PCOD9430415 Si02
#       8
#     8   8   8   8   8   8   8   8
#     4  11  26  47  74 106 148 193 255 321 397 459
#     4  10  19  41  71 104 145 185 245 311 368 445
#     4  12  27  45  66 103 148 200 246 295 368 454
#     4   8  19  38  65 107 139 189 233 298 356 431
#     4   9  22  41  74 106 135 192 240 308 372 446
#     4  12  25  46  72 109 150 203 243 316 380 459
#     4  10  21  42  66 103 146 191 247 298 360 442
#     4  10  23  44  74 101 150 195 245 302 378 445
#
# _framework density 26.068284999999999
#
# number of rings (size 3 to 8) (size 9 to 14) (size 15 to 20)
#    0.750    1.000    1.250    2.250    1.750    5.000 
#    0.000    0.625    2.750    0.000    0.000    0.000 
#    0.000    0.000    0.000    0.000    0.000    0.000 
#
# Total GULP energy -356478.747566 kJ/mol
# GULP energy per Si atom -5569.980431 kJ/mol
# Density = 2.600895 g / cm^3
# Si number density = 26.068285 Si / 1000 Ang^3
#
#
#
# Elastic Constant Matrix: (Units=GPa)
#
#
# Indices 1 2 3 4 5 6 
#
# 1 102.5549 21.2857 49.3921 0.0000 0.0000 0.0000
# 2 21.2857 88.1770 54.0269 0.0000 0.0000 0.0000
# 3 49.3921 54.0269 133.5981 0.0000 0.0000 0.0000
# 4 0.0000 0.0000 0.0000 19.7088 0.0000 0.0000
# 5 0.0000 0.0000 0.0000 0.0000 46.2463 0.0000
# 6 0.0000 0.0000 0.0000 0.0000 0.0000 -2.7078
#
#
#
# Elastic Compliance Matrix: (Units=1/GPa)
#
#
# Indices 1 2 3 4 5 6 
#
# 1 0.011867 -0.000235 -0.004292 0.000000 0.000000 0.000000
# 2 -0.000235 0.015081 -0.006012 0.000000 0.000000 0.000000
# 3 -0.004292 -0.006012 0.011503 0.000000 0.000000 0.000000
# 4 0.000000 0.000000 0.000000 0.050739 0.000000 0.000000
# 5 0.000000 0.000000 0.000000 0.000000 0.021623 0.000000
# 6 0.000000 0.000000 0.000000 0.000000 0.000000 -0.369304
#
#
# Mechanical properties :
#
#
# Convention : Reuss Voigt Hill
#
# Bulk Modulus (GPa) = 57.56001 63.74883 60.65442
# Shear Modulus (GPa) = -21.58691 25.95783 2.18546
#
# Velocity S-wave (km/s) = -2.88078 3.15899 0.91661
# Velocity P-wave (km/s) = 3.32614 6.14925 4.94351
#
# Compressibility (1/GPa) = 0.01737317
#
# Stress axis : x y z
#
# Youngs Moduli (GPa) = 84.26840 66.30819 86.93158
#
# Poissons Ratio (x) = 0.01556 0.37314
# Poissons Ratio (y) = 0.01977 0.52263
# Poissons Ratio (z) = 0.36171 0.39865
#
# Static dielectric constant tensor:
#      x y z
#    x 2.018850 0.000000 0.000000 
#    y 0.000000 2.196450 0.000000 
#    z 0.000000 0.000000 2.328020 
# 
# From -- ./inp_files/17705.got.cif
#   From: 2010.05.17/outbox.cif.g08.bks.cpg/sg56_9_cif.got.tgz:17705.got - 2010.06.03 13:42:01.
