data_PCOD9430070
_publ_section_title
;
Structure prediction by ZEFSAII (Michael W. Deem and Ramdas Pophale) SiO2 
 PCOD9430070
Probable space group: P C C N
;
_chemical_formula_sum "Si O2"
_cell_formula_units_Z 48
_cell_length_a 9.011068
_cell_length_b 30.418384
_cell_length_c 8.229612
_cell_angle_alpha 90.000000
_cell_angle_beta 90.000000
_cell_angle_gamma 90.000000
_cell_volume 2255.754151
_symmetry_space_group_name_H-M "P C C N"
_symmetry_group_IT_number 56
_symmetry_cell_setting 'orthorhombic'
loop_
_space_group_symop_operation_xyz
x,y,z
1/2-x,1/2-y,z
1/2+x,-y,1/2-z
-x,1/2+y,1/2-z
-x,-y,-z
1/2+x,1/2+y,-z
1/2-x,y,1/2+z
x,1/2-y,1/2+z
loop_
_atom_site_type_symbol
_atom_site_label
_atom_site_fract_x
_atom_site_fract_y
_atom_site_fract_z
Si Si1 0.545312 0.454982 0.083379
Si Si2 0.168706 0.386850 0.745232
Si Si3 0.029452 0.127992 0.598026
Si Si4 0.911501 0.336560 0.670462
Si Si5 0.818972 0.297300 0.980729
Si Si6 0.218906 0.919389 0.224015
O O1 0.402292 0.429925 0.158821
O O2 0.672234 0.458924 0.222547
O O3 0.500000 0.500000 0.000000
O O4 0.630108 0.427398 0.941641
O O5 0.341928 0.378286 0.730270
O O6 0.082023 0.347331 0.653880
O O7 0.112251 0.383138 0.929771
O O8 0.945330 0.175548 0.582418
O O9 0.904478 0.092443 0.641763
O O10 0.826715 0.327402 0.505812
O O11 0.832740 0.378143 0.760596
O O12 0.880244 0.297978 0.798476
O O13 0.750000 0.250000 0.019949
#
# Coordination Sequence:
#
# PCOD9430070 Si02
#       6
#     8   8   8   8   8   8
#     4  11  23  38  59  87 119 155 198 252 296 343
#     4  10  20  37  56  84 114 152 198 235 292 354
#     4  10  21  37  61  84 114 155 196 243 291 359
#     4   9  18  34  57  78 108 147 186 230 279 350
#     4  10  19  33  55  84 109 142 188 235 286 341
#     4  10  20  39  59  81 112 155 199 233 288 357
#
# _framework density 21.278912999999999
#
# number of rings (size 3 to 8) (size 9 to 14) (size 15 to 20)
#    0.000    2.000    0.000    6.500    0.000    4.000 
#    0.000    3.333    0.000    4.000    0.000    0.000 
#    0.000    0.000    0.000    0.000    0.000    0.000 
#
# Total GULP energy -267335.967734 kJ/mol
# GULP energy per Si atom -5569.499328 kJ/mol
# Density = 2.123048 g / cm^3
# Si number density = 21.278913 Si / 1000 Ang^3
#
#
#
# Elastic Constant Matrix: (Units=GPa)
#
#
# Indices 1 2 3 4 5 6 
#
# 1 115.6957 17.5457 5.0976 0.0000 0.0000 0.0000
# 2 17.5457 59.8726 1.4650 0.0000 0.0000 0.0000
# 3 5.0976 1.4650 46.3830 0.0000 0.0000 0.0000
# 4 0.0000 0.0000 0.0000 10.8653 0.0000 0.0000
# 5 0.0000 0.0000 0.0000 0.0000 35.5834 0.0000
# 6 0.0000 0.0000 0.0000 0.0000 0.0000 23.3050
#
#
#
# Elastic Compliance Matrix: (Units=1/GPa)
#
#
# Indices 1 2 3 4 5 6 
#
# 1 0.009084 -0.002640 -0.000915 0.000000 0.000000 0.000000
# 2 -0.002640 0.017482 -0.000262 0.000000 0.000000 0.000000
# 3 -0.000915 -0.000262 0.021668 0.000000 0.000000 0.000000
# 4 0.000000 0.000000 0.000000 0.092036 0.000000 0.000000
# 5 0.000000 0.000000 0.000000 0.000000 0.028103 0.000000
# 6 0.000000 0.000000 0.000000 0.000000 0.000000 0.042909
#
#
# Mechanical properties :
#
#
# Convention : Reuss Voigt Hill
#
# Bulk Modulus (GPa) = 24.62986 30.01864 27.32425
# Shear Modulus (GPa) = 21.51001 27.14029 24.32515
#
# Velocity S-wave (km/s) = 3.18285 3.57523 3.38473
# Velocity P-wave (km/s) = 5.01072 5.58398 5.30510
#
# Compressibility (1/GPa) = 0.04060113
#
# Stress axis : x y z
#
# Youngs Moduli (GPa) = 110.08374 57.20141 46.15001
#
# Poissons Ratio (x) = 0.15099 0.04223
# Poissons Ratio (y) = 0.29059 0.01209
# Poissons Ratio (z) = 0.10072 0.01499
#
# Static dielectric constant tensor:
#      x y z
#    x 1.775860 0.000000 0.000000 
#    y 0.000000 1.861580 0.000000 
#    z 0.000000 0.000000 1.856940 
# 
# From -- ./inp_files/2228.got.cif
#   From: 2010.05.17/outbox.cif.g08.bks.cpg/sg56_2_cif.got.tgz:2228.got - 2010.06.03 13:42:01.
