data_PCOD9430231
_publ_section_title
;
Structure prediction by ZEFSAII (Michael W. Deem and Ramdas Pophale) SiO2 
 PCOD9430231
Probable space group: P C C N
;
_chemical_formula_sum "Si O2"
_cell_formula_units_Z 48
_cell_length_a 15.536281
_cell_length_b 5.081657
_cell_length_c 29.176048
_cell_angle_alpha 90.000000
_cell_angle_beta 90.000000
_cell_angle_gamma 90.000000
_cell_volume 2303.450480
_symmetry_space_group_name_H-M "P C C N"
_symmetry_group_IT_number 56
_symmetry_cell_setting 'orthorhombic'
loop_
_space_group_symop_operation_xyz
x,y,z
1/2-x,1/2-y,z
1/2+x,-y,1/2-z
-x,1/2+y,1/2-z
-x,-y,-z
1/2+x,1/2+y,-z
1/2-x,y,1/2+z
x,1/2-y,1/2+z
loop_
_atom_site_type_symbol
_atom_site_label
_atom_site_fract_x
_atom_site_fract_y
_atom_site_fract_z
Si Si1 0.933752 0.789257 0.478976
Si Si2 0.074205 0.080338 0.928433
Si Si3 0.688383 0.495677 0.158373
Si Si4 0.938978 0.193130 0.366428
Si Si5 0.022309 0.053664 0.778546
Si Si6 0.153457 0.208354 0.109679
O O1 0.885923 0.681102 0.524231
O O2 0.862484 0.838272 0.440577
O O3 0.998979 0.602967 0.449867
O O4 0.000000 0.000000 0.500000
O O5 0.137636 0.963550 0.890363
O O6 0.021655 0.301674 0.900063
O O7 0.750000 0.750000 0.155840
O O8 0.616657 0.520751 0.198395
O O9 0.750000 0.250000 0.166525
O O10 0.871191 0.401867 0.387716
O O11 0.965675 0.325654 0.319344
O O12 0.907107 0.898157 0.360486
O O13 0.014212 0.277552 0.739684
O O14 0.250000 0.250000 0.124415
#
# Coordination Sequence:
#
# PCOD9430231 Si02
#       6
#     8   8   8   8   8   8
#     4  10  19  36  60  86 121 171 220 257 298 370
#     4   9  21  37  59  87 121 170 213 249 310 382
#     4  11  25  43  66  98 136 167 208 278 342 383
#     4  10  21  40  62  84 118 160 203 245 309 383
#     4  11  23  44  72  96 121 165 214 257 320 411
#     4  11  22  37  57  87 124 162 206 259 302 352
#
# _framework density 20.838301000000001
#
# number of rings (size 3 to 8) (size 9 to 14) (size 15 to 20)
#    0.000    1.667    1.667    2.500    2.333    3.333 
#    0.000    8.333    0.000    0.000    0.000    0.000 
#    0.000    0.000    0.000    0.000    0.000    0.000 
#
# Total GULP energy -267525.766930 kJ/mol
# GULP energy per Si atom -5573.453478 kJ/mol
# Density = 2.079087 g / cm^3
# Si number density = 20.838301 Si / 1000 Ang^3
#
#
#
# Elastic Constant Matrix: (Units=GPa)
#
#
# Indices 1 2 3 4 5 6 
#
# 1 53.3723 11.1798 43.8489 0.0000 0.0000 0.0000
# 2 11.1798 85.5838 32.0380 0.0000 0.0000 0.0000
# 3 43.8489 32.0380 123.9181 0.0000 0.0000 0.0000
# 4 0.0000 0.0000 0.0000 34.5777 0.0000 0.0000
# 5 0.0000 0.0000 0.0000 0.0000 24.6605 0.0000
# 6 0.0000 0.0000 0.0000 0.0000 0.0000 30.7082
#
#
#
# Elastic Compliance Matrix: (Units=1/GPa)
#
#
# Indices 1 2 3 4 5 6 
#
# 1 0.026416 0.000054 -0.009361 0.000000 0.000000 0.000000
# 2 0.000054 0.012937 -0.003364 0.000000 0.000000 0.000000
# 3 -0.009361 -0.003364 0.012252 0.000000 0.000000 0.000000
# 4 0.000000 0.000000 0.000000 0.028920 0.000000 0.000000
# 5 0.000000 0.000000 0.000000 0.000000 0.040551 0.000000
# 6 0.000000 0.000000 0.000000 0.000000 0.000000 0.032565
#
#
# Mechanical properties :
#
#
# Convention : Reuss Voigt Hill
#
# Bulk Modulus (GPa) = 38.07769 48.55640 43.31704
# Shear Modulus (GPa) = 26.63302 29.70978 28.17140
#
# Velocity S-wave (km/s) = 3.57890 3.77998 3.68081
# Velocity P-wave (km/s) = 5.94901 6.51177 6.23674
#
# Compressibility (1/GPa) = 0.02626210
#
# Stress axis : x y z
#
# Youngs Moduli (GPa) = 37.85582 77.30001 81.61921
#
# Poissons Ratio (x) = -0.00415 0.76406
# Poissons Ratio (y) = -0.00203 0.27454
# Poissons Ratio (z) = 0.35438 0.26001
#
# Static dielectric constant tensor:
#      x y z
#    x 1.762110 0.000000 0.000000 
#    y 0.000000 1.802790 0.000000 
#    z 0.000000 0.000000 1.809650 
# 
# From -- ./inp_files/22430.got.cif
#   From: 2010.05.17/outbox.cif.g08.bks.cpg/sg56_12_cif.got.tgz:22430.got - 2010.06.03 13:42:01.
