data_PCOD9430421
_publ_section_title
;
Structure prediction by ZEFSAII (Michael W. Deem and Ramdas Pophale) SiO2 
 PCOD9430421
Probable space group: P C C N
;
_chemical_formula_sum "Si O2"
_cell_formula_units_Z 52
_cell_length_a 7.738598
_cell_length_b 18.748099
_cell_length_c 18.833315
_cell_angle_alpha 90.000000
_cell_angle_beta 90.000000
_cell_angle_gamma 90.000000
_cell_volume 2732.412700
_symmetry_space_group_name_H-M "P C C N"
_symmetry_group_IT_number 56
_symmetry_cell_setting 'orthorhombic'
loop_
_space_group_symop_operation_xyz
x,y,z
1/2-x,1/2-y,z
1/2+x,-y,1/2-z
-x,1/2+y,1/2-z
-x,-y,-z
1/2+x,1/2+y,-z
1/2-x,y,1/2+z
x,1/2-y,1/2+z
loop_
_atom_site_type_symbol
_atom_site_label
_atom_site_fract_x
_atom_site_fract_y
_atom_site_fract_z
Si Si1 0.166049 0.107359 0.209195
Si Si2 0.718857 0.556699 0.137783
Si Si3 0.746637 0.100979 0.695666
Si Si4 0.250000 0.250000 0.629987
Si Si5 0.098673 0.698304 0.924398
Si Si6 0.821916 0.451493 0.351178
Si Si7 0.520839 0.076357 0.962641
O O1 0.236552 0.095324 0.288212
O O2 0.242839 0.178183 0.175808
O O3 0.958130 0.113352 0.205900
O O4 0.211064 0.035184 0.166054
O O5 0.767088 0.473731 0.153170
O O6 0.516137 0.558046 0.120326
O O7 0.840700 0.588653 0.077831
O O8 0.836724 0.162318 0.649675
O O9 0.817565 0.087936 0.774815
O O10 0.425512 0.256356 0.586066
O O11 0.250000 0.750000 0.949807
O O12 0.061850 0.635561 0.979405
O O13 0.674122 0.426314 0.404509
O O14 0.500000 0.000000 0.000000
#
# Coordination Sequence:
#
# PCOD9430421 Si02
#       7
#     8   8   8   4   8   8   8
#     4  10  20  38  67  99 123 159 214 267 322 378
#     4  10  21  39  66 100 124 156 213 273 321 376
#     4  10  19  42  68  95 125 160 214 273 318 371
#     4  12  24  40  64  92 126 176 214 260 318 398
#     4  12  26  43  63  93 132 174 213 261 325 393
#     4  10  22  39  70  96 125 161 216 278 319 365
#     4  12  24  41  65  95 132 171 216 267 320 382
#
# _framework density 19.030798999999998
#
# number of rings (size 3 to 8) (size 9 to 14) (size 15 to 20)
#    0.000    1.231    4.615    1.846    2.154    1.846 
#    0.000    4.615    0.000    0.000    0.000    0.000 
#    0.000    0.000    0.000    0.000    0.000    0.000 
#
# Total GULP energy -290624.228531 kJ/mol
# GULP energy per Si atom -5588.927472 kJ/mol
# Density = 1.898748 g / cm^3
# Si number density = 19.030799 Si / 1000 Ang^3
#
#
#
# Elastic Constant Matrix: (Units=GPa)
#
#
# Indices 1 2 3 4 5 6 
#
# 1 64.2532 9.8273 7.1459 0.0000 0.0000 0.0000
# 2 9.8273 57.9931 17.0204 0.0000 0.0000 0.0000
# 3 7.1459 17.0204 44.7504 0.0000 0.0000 0.0000
# 4 0.0000 0.0000 0.0000 28.1258 0.0000 0.0000
# 5 0.0000 0.0000 0.0000 0.0000 -52.3148 0.0000
# 6 0.0000 0.0000 0.0000 0.0000 0.0000 32.3813
#
#
#
# Elastic Compliance Matrix: (Units=1/GPa)
#
#
# Indices 1 2 3 4 5 6 
#
# 1 0.016095 -0.002221 -0.001725 0.000000 0.000000 0.000000
# 2 -0.002221 0.019717 -0.007144 0.000000 0.000000 0.000000
# 3 -0.001725 -0.007144 0.025339 0.000000 0.000000 0.000000
# 4 0.000000 0.000000 0.000000 0.035555 0.000000 0.000000
# 5 0.000000 0.000000 0.000000 0.000000 -0.019115 0.000000
# 6 0.000000 0.000000 0.000000 0.000000 0.000000 0.030882
#
#
# Mechanical properties :
#
#
# Convention : Reuss Voigt Hill
#
# Bulk Modulus (GPa) = 25.66136 26.10931 25.88534
# Shear Modulus (GPa) = 34.80847 10.50534 22.65690
#
# Velocity S-wave (km/s) = 4.28139 2.35205 3.45416
# Velocity P-wave (km/s) = 6.16067 4.59625 5.43504
#
# Compressibility (1/GPa) = 0.03896909
#
# Stress axis : x y z
#
# Youngs Moduli (GPa) = 62.13102 50.71873 39.46493
#
# Poissons Ratio (x) = 0.11265 0.06809
# Poissons Ratio (y) = 0.13799 0.28195
# Poissons Ratio (z) = 0.10720 0.36235
#
# Static dielectric constant tensor:
#      x y z
#    x 1.694430 0.000000 0.000000 
#    y 0.000000 1.646800 0.000000 
#    z 0.000000 0.000000 1.652970 
# 
# From -- ./inp_files/15042.got.cif
#   From: 2010.05.17/outbox.cif.g08.bks.cpg/sg56_8_cif.got.tgz:15042.got - 2010.06.03 13:42:01.
