data_PCOD9430702
_publ_section_title
;
Structure prediction by ZEFSAII (Michael W. Deem and Ramdas Pophale) SiO2 
 PCOD9430702
Probable space group: P C C N
;
_chemical_formula_sum "Si O2"
_cell_formula_units_Z 40
_cell_length_a 9.124428
_cell_length_b 11.000359
_cell_length_c 18.213243
_cell_angle_alpha 90.000000
_cell_angle_beta 90.000000
_cell_angle_gamma 90.000000
_cell_volume 1828.099329
_symmetry_space_group_name_H-M "P C C N"
_symmetry_group_IT_number 56
_symmetry_cell_setting 'orthorhombic'
loop_
_space_group_symop_operation_xyz
x,y,z
1/2-x,1/2-y,z
1/2+x,-y,1/2-z
-x,1/2+y,1/2-z
-x,-y,-z
1/2+x,1/2+y,-z
1/2-x,y,1/2+z
x,1/2-y,1/2+z
loop_
_atom_site_type_symbol
_atom_site_label
_atom_site_fract_x
_atom_site_fract_y
_atom_site_fract_z
Si Si1 0.713675 0.012344 0.048412
Si Si2 0.043938 0.658889 0.828142
Si Si3 0.250000 0.750000 0.205254
Si Si4 0.470650 0.112359 0.583531
Si Si5 0.750000 0.750000 0.026241
Si Si6 0.188820 0.976563 0.620600
O O1 0.637602 0.098050 0.106793
O O2 0.883721 0.054525 0.049182
O O3 0.649643 0.022841 0.966088
O O4 0.702100 0.870037 0.069539
O O5 0.140979 0.670394 0.755662
O O6 0.012417 0.796284 0.851736
O O7 0.897697 0.577338 0.832087
O O8 0.334768 0.845433 0.154723
O O9 0.378213 0.196101 0.526257
O O10 0.359458 0.013361 0.615810
#
# Coordination Sequence:
#
# PCOD9430702 Si02
#       6
#     8   8   4   8   4   8
#     4  11  23  41  74 103 135 168 233 288 343 404
#     4  12  24  45  68  98 137 179 221 286 341 402
#     4  12  30  42  68 100 140 184 236 272 342 420
#     4  11  21  43  70  97 135 170 223 281 343 396
#     4  10  20  36  64 106 126 172 212 280 344 388
#     4  11  26  45  70  98 134 182 227 281 343 408
#
# _framework density 21.880648999999998
#
# number of rings (size 3 to 8) (size 9 to 14) (size 15 to 20)
#    0.000    0.800    6.000    3.000    5.600    1.600 
#    0.000    0.000    0.000    0.000    0.000    0.000 
#    0.000    0.000    0.000    0.000    0.000    0.000 
#
# Total GULP energy -223549.568179 kJ/mol
# GULP energy per Si atom -5588.739204 kJ/mol
# Density = 2.183085 g / cm^3
# Si number density = 21.880649 Si / 1000 Ang^3
#
#
#
# Elastic Constant Matrix: (Units=GPa)
#
#
# Indices 1 2 3 4 5 6 
#
# 1 84.9278 10.8829 20.1065 0.0000 0.0000 0.0000
# 2 10.8829 93.5407 49.5775 0.0000 0.0000 0.0000
# 3 20.1065 49.5775 63.1129 0.0000 0.0000 0.0000
# 4 0.0000 0.0000 0.0000 31.4721 0.0000 0.0000
# 5 0.0000 0.0000 0.0000 0.0000 -0.9493 0.0000
# 6 0.0000 0.0000 0.0000 0.0000 0.0000 47.4217
#
#
#
# Elastic Compliance Matrix: (Units=1/GPa)
#
#
# Indices 1 2 3 4 5 6 
#
# 1 0.012807 0.001152 -0.004985 0.000000 0.000000 0.000000
# 2 0.001152 0.018420 -0.014837 0.000000 0.000000 0.000000
# 3 -0.004985 -0.014837 0.029088 0.000000 0.000000 0.000000
# 4 0.000000 0.000000 0.000000 0.031774 0.000000 0.000000
# 5 0.000000 0.000000 0.000000 0.000000 -1.053394 0.000000
# 6 0.000000 0.000000 0.000000 0.000000 0.000000 0.021087
#
#
# Mechanical properties :
#
#
# Convention : Reuss Voigt Hill
#
# Bulk Modulus (GPa) = 43.52470 44.74613 44.13542
# Shear Modulus (GPa) = -5.58522 26.32321 10.36899
#
# Velocity S-wave (km/s) = -1.59941 3.47224 2.17926
# Velocity P-wave (km/s) = 4.06500 6.04730 5.15238
#
# Compressibility (1/GPa) = 0.02297546
#
# Stress axis : x y z
#
# Youngs Moduli (GPa) = 78.08040 54.28853 34.37890
#
# Poissons Ratio (x) = -0.06255 0.17139
# Poissons Ratio (y) = -0.08996 0.51007
# Poissons Ratio (z) = 0.38925 0.80546
#
# Static dielectric constant tensor:
#      x y z
#    x 1.879750 0.000000 0.000000 
#    y 0.000000 1.809260 0.000000 
#    z 0.000000 0.000000 1.776220 
# 
# From -- ./inp_files/18023.got.cif
#   From: 2010.05.17/outbox.cif.g08.bks.cpg/sg56_10_cif.got.tgz:18023.got - 2010.06.03 13:42:01.
