data_PCOD9430858
_publ_section_title
;
Structure prediction by ZEFSAII (Michael W. Deem and Ramdas Pophale) SiO2 
 PCOD9430858
Probable space group: P C C N
;
_chemical_formula_sum "Si O2"
_cell_formula_units_Z 24
_cell_length_a 16.845563
_cell_length_b 5.149336
_cell_length_c 13.944792
_cell_angle_alpha 90.000000
_cell_angle_beta 90.000000
_cell_angle_gamma 90.000000
_cell_volume 1209.619563
_symmetry_space_group_name_H-M "P C C N"
_symmetry_group_IT_number 56
_symmetry_cell_setting 'orthorhombic'
loop_
_space_group_symop_operation_xyz
x,y,z
1/2-x,1/2-y,z
1/2+x,-y,1/2-z
-x,1/2+y,1/2-z
-x,-y,-z
1/2+x,1/2+y,-z
1/2-x,y,1/2+z
x,1/2-y,1/2+z
loop_
_atom_site_type_symbol
_atom_site_label
_atom_site_fract_x
_atom_site_fract_y
_atom_site_fract_z
Si Si1 0.013636 0.624099 0.398102
Si Si2 0.166687 0.847267 0.321368
Si Si3 0.104436 0.362041 0.237087
O O1 0.092989 0.800284 0.393341
O O2 0.034029 0.410001 0.315688
O O3 0.000000 0.500000 0.500000
O O4 0.937687 0.778807 0.359958
O O5 0.250000 0.750000 0.363311
O O6 0.149267 0.635616 0.237363
O O7 0.159271 0.133906 0.279208
#
# Coordination Sequence:
#
# PCOD9430858 Si02
#       3
#     8   8   8
#     4  10  21  38  65  86 119 159 207 248 296 364
#     4  10  20  38  61  82 124 156 196 254 302 350
#     4  10  20  39  59  87 116 155 208 235 308 357
#
# _framework density 19.840949999999999
#
# number of rings (size 3 to 8) (size 9 to 14) (size 15 to 20)
#    2.000    0.000    3.333    1.000    0.000    1.333 
#    0.000    1.667    7.333    0.000    0.000    0.000 
#    0.000    0.000    0.000    0.000    0.000    0.000 
#
# Total GULP energy -133606.209338 kJ/mol
# GULP energy per Si atom -5566.925389 kJ/mol
# Density = 1.979579 g / cm^3
# Si number density = 19.840950 Si / 1000 Ang^3
#
#
#
# Elastic Constant Matrix: (Units=GPa)
#
#
# Indices 1 2 3 4 5 6 
#
# 1 53.2141 -3.4318 -14.9844 0.0000 0.0000 0.0000
# 2 -3.4318 84.4943 -7.8217 0.0000 0.0000 0.0000
# 3 -14.9844 -7.8217 60.8381 0.0000 0.0000 0.0000
# 4 0.0000 0.0000 0.0000 13.8875 0.0000 0.0000
# 5 0.0000 0.0000 0.0000 0.0000 8.4012 0.0000
# 6 0.0000 0.0000 0.0000 0.0000 0.0000 32.4234
#
#
#
# Elastic Compliance Matrix: (Units=1/GPa)
#
#
# Indices 1 2 3 4 5 6 
#
# 1 0.020334 0.001305 0.005176 0.000000 0.000000 0.000000
# 2 0.001305 0.012061 0.001872 0.000000 0.000000 0.000000
# 3 0.005176 0.001872 0.017953 0.000000 0.000000 0.000000
# 4 0.000000 0.000000 0.000000 0.072007 0.000000 0.000000
# 5 0.000000 0.000000 0.000000 0.000000 0.119030 0.000000
# 6 0.000000 0.000000 0.000000 0.000000 0.000000 0.030842
#
#
# Mechanical properties :
#
#
# Convention : Reuss Voigt Hill
#
# Bulk Modulus (GPa) = 14.91341 16.23009 15.57175
# Shear Modulus (GPa) = 17.99389 25.92804 21.96096
#
# Velocity S-wave (km/s) = 3.01476 3.61888 3.33055
# Velocity P-wave (km/s) = 4.43296 5.06553 4.75977
#
# Compressibility (1/GPa) = 0.06705375
#
# Stress axis : x y z
#
# Youngs Moduli (GPa) = 49.17957 82.90892 55.70229
#
# Poissons Ratio (x) = -0.10820 -0.28831
# Poissons Ratio (y) = -0.06418 -0.10428
# Poissons Ratio (z) = -0.25455 -0.15521
#
# Static dielectric constant tensor:
#      x y z
#    x 1.786790 0.000000 0.000000 
#    y 0.000000 1.749570 0.000000 
#    z 0.000000 0.000000 1.655560 
# 
# From -- ./inp_files/5336.got.cif
#   From: 2010.05.17/outbox.cif.g08.bks.cpg/sg56_3_cif.got.tgz:5336.got - 2010.06.03 13:42:01.
