data_PCOD9430645
_publ_section_title
;
Structure prediction by ZEFSAII (Michael W. Deem and Ramdas Pophale) SiO2 
 PCOD9430645
Probable space group: P C C N
;
_chemical_formula_sum "Si O2"
_cell_formula_units_Z 40
_cell_length_a 5.022575
_cell_length_b 16.758336
_cell_length_c 19.976529
_cell_angle_alpha 90.000000
_cell_angle_beta 90.000000
_cell_angle_gamma 90.000000
_cell_volume 1681.424435
_symmetry_space_group_name_H-M "P C C N"
_symmetry_group_IT_number 56
_symmetry_cell_setting 'orthorhombic'
loop_
_space_group_symop_operation_xyz
x,y,z
1/2-x,1/2-y,z
1/2+x,-y,1/2-z
-x,1/2+y,1/2-z
-x,-y,-z
1/2+x,1/2+y,-z
1/2-x,y,1/2+z
x,1/2-y,1/2+z
loop_
_atom_site_type_symbol
_atom_site_label
_atom_site_fract_x
_atom_site_fract_y
_atom_site_fract_z
Si Si1 0.835497 0.831647 0.519763
Si Si2 0.183868 0.032912 0.059977
Si Si3 0.814608 0.363480 0.393524
Si Si4 0.400615 0.579223 0.811978
Si Si5 0.407858 0.105868 0.262266
O O1 0.750000 0.750000 0.483920
O O2 0.895738 0.906186 0.471706
O O3 0.571969 0.855800 0.559994
O O4 0.067862 0.817564 0.573769
O O5 0.006888 0.081293 0.113054
O O6 0.287975 0.955905 0.100554
O O7 0.000000 0.000000 0.000000
O O8 0.936781 0.347296 0.320639
O O9 0.103493 0.608828 0.800967
O O10 0.398727 0.485532 0.789940
O O11 0.610232 0.622920 0.762278
#
# Coordination Sequence:
#
# PCOD9430645 Si02
#       5
#     8   8   8   8   8
#     4  11  22  36  55  79 109 143 179 225 276 327
#     4   9  20  35  56  84 113 145 184 224 269 328
#     4  10  20  36  57  80 106 140 183 227 272 324
#     4   9  17  29  49  78 110 136 169 218 266 307
#     4   9  17  30  50  77 104 134 173 220 264 308
#
# _framework density 23.789351
#
# number of rings (size 3 to 8) (size 9 to 14) (size 15 to 20)
#    0.000    2.400    0.000    2.400    0.000   12.800 
#    0.000    0.000    0.000    7.200    0.000    0.000 
#    0.000    0.000    0.000    0.000    0.000    0.000 
#
# Total GULP energy -223223.507263 kJ/mol
# GULP energy per Si atom -5580.587682 kJ/mol
# Density = 2.373521 g / cm^3
# Si number density = 23.789351 Si / 1000 Ang^3
#
#
#
# Elastic Constant Matrix: (Units=GPa)
#
#
# Indices 1 2 3 4 5 6 
#
# 1 101.0040 13.4696 -5.4285 0.0000 0.0000 0.0000
# 2 13.4696 45.5265 6.3653 0.0000 0.0000 0.0000
# 3 -5.4285 6.3653 64.9977 0.0000 0.0000 0.0000
# 4 0.0000 0.0000 0.0000 -9.2292 0.0000 0.0000
# 5 0.0000 0.0000 0.0000 0.0000 15.9745 0.0000
# 6 0.0000 0.0000 0.0000 0.0000 0.0000 19.9441
#
#
#
# Elastic Compliance Matrix: (Units=1/GPa)
#
#
# Indices 1 2 3 4 5 6 
#
# 1 0.010397 -0.003242 0.001186 0.000000 0.000000 0.000000
# 2 -0.003242 0.023281 -0.002551 0.000000 0.000000 0.000000
# 3 0.001186 -0.002551 0.015734 0.000000 0.000000 0.000000
# 4 0.000000 0.000000 0.000000 -0.108352 0.000000 0.000000
# 5 0.000000 0.000000 0.000000 0.000000 0.062600 0.000000
# 6 0.000000 0.000000 0.000000 0.000000 0.000000 0.050140
#
#
# Mechanical properties :
#
#
# Convention : Reuss Voigt Hill
#
# Bulk Modulus (GPa) = 24.87670 26.70456 25.79063
# Shear Modulus (GPa) = 65.43421 18.47933 41.95677
#
# Velocity S-wave (km/s) = 5.25027 2.79012 4.20417
# Velocity P-wave (km/s) = 6.87267 4.65075 5.86784
#
# Compressibility (1/GPa) = 0.04019826
#
# Stress axis : x y z
#
# Youngs Moduli (GPa) = 96.18496 42.95354 63.55670
#
# Poissons Ratio (x) = 0.13925 -0.07536
# Poissons Ratio (y) = 0.31181 0.16211
# Poissons Ratio (z) = -0.11405 0.10956
#
# Static dielectric constant tensor:
#      x y z
#    x 1.853820 0.000000 0.000000 
#    y 0.000000 2.099710 0.000000 
#    z 0.000000 0.000000 1.938830 
# 
# From -- ./inp_files/13821.got.cif
#   From: 2010.05.17/outbox.cif.g08.bks.cpg/sg56_7_cif.got.tgz:13821.got - 2010.06.03 13:42:01.
