data_PCOD9430307
_publ_section_title
;
Structure prediction by ZEFSAII (Michael W. Deem and Ramdas Pophale) SiO2 
 PCOD9430307
Probable space group: P C C N
;
_chemical_formula_sum "Si O2"
_cell_formula_units_Z 36
_cell_length_a 7.952243
_cell_length_b 14.180564
_cell_length_c 13.202390
_cell_angle_alpha 90.000000
_cell_angle_beta 90.000000
_cell_angle_gamma 90.000000
_cell_volume 1488.797752
_symmetry_space_group_name_H-M "P C C N"
_symmetry_group_IT_number 56
_symmetry_cell_setting 'orthorhombic'
loop_
_space_group_symop_operation_xyz
x,y,z
1/2-x,1/2-y,z
1/2+x,-y,1/2-z
-x,1/2+y,1/2-z
-x,-y,-z
1/2+x,1/2+y,-z
1/2-x,y,1/2+z
x,1/2-y,1/2+z
loop_
_atom_site_type_symbol
_atom_site_label
_atom_site_fract_x
_atom_site_fract_y
_atom_site_fract_z
Si Si1 0.912593 0.182818 0.922700
Si Si2 0.603864 0.638717 0.591159
Si Si3 0.706956 0.041424 0.010115
Si Si4 0.401350 0.674665 0.313968
Si Si5 0.250000 0.250000 0.726016
O O1 0.750000 0.250000 0.938637
O O2 0.911361 0.153295 0.805429
O O3 0.060761 0.255461 0.943418
O O4 0.881060 0.092289 0.988638
O O5 0.426905 0.578598 0.576123
O O6 0.718895 0.569661 0.525888
O O7 0.679816 0.663402 0.701917
O O8 0.638000 0.087624 0.114017
O O9 0.250000 0.750000 0.326742
O O10 0.586233 0.716566 0.334020
#
# Coordination Sequence:
#
# PCOD9430307 Si02
#       5
#     8   8   8   8   4
#     4   8  16  34  59  83 123 162 201 263 327 366
#     4   9  19  37  58  86 130 161 211 277 319 376
#     4  10  19  37  66  91 121 179 216 261 333 408
#     4  10  20  38  64  89 125 170 214 260 328 393
#     4  10  22  42  58  92 134 170 200 286 328 366
#
# _framework density 24.180582999999999
#
# number of rings (size 3 to 8) (size 9 to 14) (size 15 to 20)
#    0.000    2.667    0.000    3.333    0.000    0.889 
#   20.000    4.444    0.000    0.000    0.000    1.556 
#    0.000    0.000    0.000    0.000    0.000    0.000 
#
# Total GULP energy -200743.405910 kJ/mol
# GULP energy per Si atom -5576.205720 kJ/mol
# Density = 2.412555 g / cm^3
# Si number density = 24.180583 Si / 1000 Ang^3
#
#
#
# Elastic Constant Matrix: (Units=GPa)
#
#
# Indices 1 2 3 4 5 6 
#
# 1 132.6496 69.1001 31.6699 0.0000 0.0000 0.0000
# 2 69.1001 137.5387 42.5189 0.0000 0.0000 0.0000
# 3 31.6699 42.5189 111.4120 0.0000 0.0000 0.0000
# 4 0.0000 0.0000 0.0000 15.0575 0.0000 0.0000
# 5 0.0000 0.0000 0.0000 0.0000 -11.1469 0.0000
# 6 0.0000 0.0000 0.0000 0.0000 0.0000 48.7173
#
#
#
# Elastic Compliance Matrix: (Units=1/GPa)
#
#
# Indices 1 2 3 4 5 6 
#
# 1 0.010325 -0.004853 -0.001083 0.000000 0.000000 0.000000
# 2 -0.004853 0.010524 -0.002637 0.000000 0.000000 0.000000
# 3 -0.001083 -0.002637 0.010290 0.000000 0.000000 0.000000
# 4 0.000000 0.000000 0.000000 0.066412 0.000000 0.000000
# 5 0.000000 0.000000 0.000000 0.000000 -0.089711 0.000000
# 6 0.000000 0.000000 0.000000 0.000000 0.000000 0.020527
#
#
# Mechanical properties :
#
#
# Convention : Reuss Voigt Hill
#
# Bulk Modulus (GPa) = 71.46059 74.24202 72.85130
# Shear Modulus (GPa) = 99.64895 26.41299 63.03097
#
# Velocity S-wave (km/s) = 6.42649 3.30862 5.11110
# Velocity P-wave (km/s) = 9.20236 6.73541 8.06378
#
# Compressibility (1/GPa) = 0.01399373
#
# Stress axis : x y z
#
# Youngs Moduli (GPa) = 96.85213 95.02295 97.18264
#
# Poissons Ratio (x) = 0.46110 0.10526
# Poissons Ratio (y) = 0.46998 0.25626
# Poissons Ratio (z) = 0.10490 0.25056
#
# Static dielectric constant tensor:
#      x y z
#    x 2.052740 0.000000 0.000000 
#    y 0.000000 1.930420 0.000000 
#    z 0.000000 0.000000 1.950980 
# 
# From -- ./inp_files/10269.got.cif
#   From: 2010.05.17/outbox.cif.g08.bks.cpg/sg56_6_cif.got.tgz:10269.got - 2010.06.03 13:42:01.
