data_PCOD9430947
_publ_section_title
;
Structure prediction by ZEFSAII (Michael W. Deem and Ramdas Pophale) SiO2 
 PCOD9430947
Probable space group: P C C N
;
_chemical_formula_sum "Si O2"
_cell_formula_units_Z 40
_cell_length_a 9.599536
_cell_length_b 15.193279
_cell_length_c 13.173195
_cell_angle_alpha 90.000000
_cell_angle_beta 90.000000
_cell_angle_gamma 90.000000
_cell_volume 1921.289792
_symmetry_space_group_name_H-M "P C C N"
_symmetry_group_IT_number 56
_symmetry_cell_setting 'orthorhombic'
loop_
_space_group_symop_operation_xyz
x,y,z
1/2-x,1/2-y,z
1/2+x,-y,1/2-z
-x,1/2+y,1/2-z
-x,-y,-z
1/2+x,1/2+y,-z
1/2-x,y,1/2+z
x,1/2-y,1/2+z
loop_
_atom_site_type_symbol
_atom_site_label
_atom_site_fract_x
_atom_site_fract_y
_atom_site_fract_z
Si Si1 0.973291 0.533701 0.383317
Si Si2 0.859352 0.330451 0.102492
Si Si3 0.275217 0.526949 0.759999
Si Si4 0.884292 0.186979 0.365754
Si Si5 0.587862 0.773559 0.301704
O O1 0.096465 0.483974 0.320412
O O2 0.000000 0.500000 0.500000
O O3 0.832974 0.514627 0.318547
O O4 0.967716 0.641323 0.368919
O O5 0.750000 0.250000 0.121598
O O6 0.802062 0.419681 0.150219
O O7 0.002891 0.307955 0.155262
O O8 0.887437 0.331165 0.983879
O O9 0.351046 0.597999 0.691011
O O10 0.750000 0.250000 0.347954
O O11 0.027082 0.217195 0.312685
O O12 0.750000 0.750000 0.305758
#
# Coordination Sequence:
#
# PCOD9430947 Si02
#       5
#     8   8   8   8   8
#     4  11  26  45  68  97 138 181 217 280 344 398
#     4  11  20  40  68  92 120 171 223 265 325 398
#     4  11  22  43  65  96 132 171 221 272 328 403
#     4  10  20  38  69  92 119 168 217 268 326 392
#     4  11  24  43  62  99 133 166 225 276 333 397
#
# _framework density 20.819348000000002
#
# number of rings (size 3 to 8) (size 9 to 14) (size 15 to 20)
#    0.000    1.200    6.000    1.200    5.600    0.800 
#    7.200    5.000    0.000    0.000    0.000    0.000 
#    0.000    0.000    0.000    0.000    0.000    0.000 
#
# Total GULP energy -222691.155165 kJ/mol
# GULP energy per Si atom -5567.278879 kJ/mol
# Density = 2.077196 g / cm^3
# Si number density = 20.819348 Si / 1000 Ang^3
#
#
#
# Elastic Constant Matrix: (Units=GPa)
#
#
# Indices 1 2 3 4 5 6 
#
# 1 129.3584 0.4654 21.9838 0.0000 0.0000 0.0000
# 2 0.4654 18.8869 3.7662 0.0000 0.0000 0.0000
# 3 21.9838 3.7662 134.3532 0.0000 0.0000 0.0000
# 4 0.0000 0.0000 0.0000 23.6013 0.0000 0.0000
# 5 0.0000 0.0000 0.0000 0.0000 -12.2499 0.0000
# 6 0.0000 0.0000 0.0000 0.0000 0.0000 28.6308
#
#
#
# Elastic Compliance Matrix: (Units=1/GPa)
#
#
# Indices 1 2 3 4 5 6 
#
# 1 0.007952 0.000064 -0.001303 0.000000 0.000000 0.000000
# 2 0.000064 0.053245 -0.001503 0.000000 0.000000 0.000000
# 3 -0.001303 -0.001503 0.007698 0.000000 0.000000 0.000000
# 4 0.000000 0.000000 0.000000 0.042370 0.000000 0.000000
# 5 0.000000 0.000000 0.000000 0.000000 -0.081633 0.000000
# 6 0.000000 0.000000 0.000000 0.000000 0.000000 0.034927
#
#
# Mechanical properties :
#
#
# Convention : Reuss Voigt Hill
#
# Bulk Modulus (GPa) = 15.77017 37.22550 26.49783
# Shear Modulus (GPa) = 54.83634 25.08866 39.96250
#
# Velocity S-wave (km/s) = 5.13773 3.47517 4.38595
# Velocity P-wave (km/s) = 6.54112 5.83279 6.19709
#
# Compressibility (1/GPa) = 0.06341084
#
# Stress axis : x y z
#
# Youngs Moduli (GPa) = 125.76003 18.78113 129.89732
#
# Poissons Ratio (x) = -0.00120 0.16924
# Poissons Ratio (y) = -0.00803 0.19524
# Poissons Ratio (z) = 0.16385 0.02823
#
# Static dielectric constant tensor:
#      x y z
#    x 1.854090 0.000000 0.000000 
#    y 0.000000 1.825920 0.000000 
#    z 0.000000 0.000000 1.809360 
# 
# From -- ./inp_files/6162.got.cif
#   From: 2010.05.17/outbox.cif.g08.bks.cpg/sg56_4_cif.got.tgz:6162.got - 2010.06.03 13:42:01.
