data_PCOD9430427
_publ_section_title
;
Structure prediction by ZEFSAII (Michael W. Deem and Ramdas Pophale) SiO2 
 PCOD9430427
Probable space group: P C C N
;
_chemical_formula_sum "Si O2"
_cell_formula_units_Z 64
_cell_length_a 9.167853
_cell_length_b 29.478461
_cell_length_c 10.195214
_cell_angle_alpha 90.000000
_cell_angle_beta 90.000000
_cell_angle_gamma 90.000000
_cell_volume 2755.299374
_symmetry_space_group_name_H-M "P C C N"
_symmetry_group_IT_number 56
_symmetry_cell_setting 'orthorhombic'
loop_
_space_group_symop_operation_xyz
x,y,z
1/2-x,1/2-y,z
1/2+x,-y,1/2-z
-x,1/2+y,1/2-z
-x,-y,-z
1/2+x,1/2+y,-z
1/2-x,y,1/2+z
x,1/2-y,1/2+z
loop_
_atom_site_type_symbol
_atom_site_label
_atom_site_fract_x
_atom_site_fract_y
_atom_site_fract_z
Si Si1 0.961919 0.583092 0.532217
Si Si2 0.665077 0.621056 0.440589
Si Si3 0.662639 0.703667 0.833612
Si Si4 0.020897 0.651320 0.148283
Si Si5 0.716145 0.197338 0.209962
Si Si6 0.872854 0.967011 0.272145
Si Si7 0.953814 0.950030 0.745320
Si Si8 0.594251 0.178368 0.468292
O O1 0.802212 0.607956 0.535041
O O2 0.976221 0.551654 0.657335
O O3 0.970368 0.553174 0.402109
O O4 0.073990 0.624275 0.523773
O O5 0.734442 0.659909 0.351473
O O6 0.519840 0.643368 0.498590
O O7 0.627137 0.573160 0.377114
O O8 0.750000 0.750000 0.837422
O O9 0.580528 0.692464 0.698469
O O10 0.537700 0.700777 0.946893
O O11 0.173335 0.663745 0.212441
O O12 0.973357 0.602041 0.203502
O O13 0.750000 0.250000 0.230310
O O14 0.582554 0.190884 0.313606
O O15 0.760335 0.190434 0.055721
O O16 0.707944 0.968483 0.218451
O O17 0.929671 0.015754 0.315517
#
# Coordination Sequence:
#
# PCOD9430427 Si02
#       8
#     8   8   8   8   8   8   8   8
#     4  10  19  44  67  91 135 176 222 281 346 402
#     4  10  20  40  65  99 132 166 223 289 338 397
#     4  10  21  41  70  98 129 174 229 282 344 403
#     4  11  22  44  64  95 141 175 218 291 340 411
#     4  11  24  44  66  95 141 180 226 276 342 413
#     4  11  23  40  68  99 134 181 229 288 348 423
#     4  11  22  43  66  97 137 177 233 284 348 415
#     4  10  23  44  68  99 137 183 223 284 344 411
#
# _framework density 23.227965999999999
#
# number of rings (size 3 to 8) (size 9 to 14) (size 15 to 20)
#    0.000    1.500    6.250    0.750    1.750    3.000 
#   13.500    0.000    0.000    0.000    0.000    0.000 
#    0.000    0.000    0.000    0.000    0.000    0.000 
#
# Total GULP energy -356848.389821 kJ/mol
# GULP energy per Si atom -5575.756091 kJ/mol
# Density = 2.317510 g / cm^3
# Si number density = 23.227966 Si / 1000 Ang^3
#
#
#
# Elastic Constant Matrix: (Units=GPa)
#
#
# Indices 1 2 3 4 5 6 
#
# 1 48.4787 35.4380 -12.4807 0.0000 0.0000 0.0000
# 2 35.4380 117.9357 -1.2948 0.0000 0.0000 0.0000
# 3 -12.4807 -1.2948 40.1224 0.0000 0.0000 0.0000
# 4 0.0000 0.0000 0.0000 10.2268 0.0000 0.0000
# 5 0.0000 0.0000 0.0000 0.0000 12.9276 0.0000
# 6 0.0000 0.0000 0.0000 0.0000 0.0000 31.8196
#
#
#
# Elastic Compliance Matrix: (Units=1/GPa)
#
#
# Indices 1 2 3 4 5 6 
#
# 1 0.029253 -0.008693 0.008819 0.000000 0.000000 0.000000
# 2 -0.008693 0.011066 -0.002347 0.000000 0.000000 0.000000
# 3 0.008819 -0.002347 0.027591 0.000000 0.000000 0.000000
# 4 0.000000 0.000000 0.000000 0.097782 0.000000 0.000000
# 5 0.000000 0.000000 0.000000 0.000000 0.077354 0.000000
# 6 0.000000 0.000000 0.000000 0.000000 0.000000 0.031427
#
#
# Mechanical properties :
#
#
# Convention : Reuss Voigt Hill
#
# Bulk Modulus (GPa) = 15.75620 27.76244 21.75932
# Shear Modulus (GPa) = 16.66270 23.31975 19.99123
#
# Velocity S-wave (km/s) = 2.68125 3.17196 2.93687
# Velocity P-wave (km/s) = 4.04766 5.03917 4.57038
#
# Compressibility (1/GPa) = 0.06346706
#
# Stress axis : x y z
#
# Youngs Moduli (GPa) = 34.18478 90.37002 36.24336
#
# Poissons Ratio (x) = 0.78561 -0.31963
# Poissons Ratio (y) = 0.29718 0.08507
# Poissons Ratio (z) = -0.30148 0.21211
#
# Static dielectric constant tensor:
#      x y z
#    x 1.980320 0.000000 0.000000 
#    y 0.000000 1.811130 0.000000 
#    z 0.000000 0.000000 1.997380 
# 
# From -- ./inp_files/6631.got.cif
#   From: 2010.05.17/outbox.cif.g08.bks.cpg/sg56_4_cif.got.tgz:6631.got - 2010.06.03 13:42:01.
