data_PCOD9430273
_publ_section_title
;
Structure prediction by ZEFSAII (Michael W. Deem and Ramdas Pophale) SiO2 
 PCOD9430273
Probable space group: P C C N
;
_chemical_formula_sum "Si O2"
_cell_formula_units_Z 44
_cell_length_a 5.054814
_cell_length_b 25.874590
_cell_length_c 13.360015
_cell_angle_alpha 90.000000
_cell_angle_beta 90.000000
_cell_angle_gamma 90.000000
_cell_volume 1747.372925
_symmetry_space_group_name_H-M "P C C N"
_symmetry_group_IT_number 56
_symmetry_cell_setting 'orthorhombic'
loop_
_space_group_symop_operation_xyz
x,y,z
1/2-x,1/2-y,z
1/2+x,-y,1/2-z
-x,1/2+y,1/2-z
-x,-y,-z
1/2+x,1/2+y,-z
1/2-x,y,1/2+z
x,1/2-y,1/2+z
loop_
_atom_site_type_symbol
_atom_site_label
_atom_site_fract_x
_atom_site_fract_y
_atom_site_fract_z
Si Si1 0.840474 0.696390 0.400032
Si Si2 0.000692 0.003556 0.678358
Si Si3 0.803835 0.306953 0.437246
Si Si4 0.488735 0.884962 0.797428
Si Si5 0.750000 0.250000 0.249130
Si Si6 0.985359 0.892133 0.657943
O O1 0.750000 0.750000 0.448952
O O2 0.594637 0.663742 0.359567
O O3 0.003822 0.666311 0.484204
O O4 0.036267 0.717464 0.312798
O O5 0.024130 0.061940 0.639153
O O6 0.222520 0.999558 0.764458
O O7 0.026244 0.950418 0.616586
O O8 0.750000 0.250000 0.482676
O O9 0.900539 0.288149 0.327329
O O10 0.563339 0.345241 0.414217
O O11 0.195531 0.886302 0.750653
O O12 0.694543 0.888312 0.704330
#
# Coordination Sequence:
#
# PCOD9430273 Si02
#       6
#     8   8   8   8   4   8
#     4  12  24  37  61  88 121 159 207 256 307 367
#     4   8  16  31  56  87 114 154 206 243 293 364
#     4  10  22  37  59  87 119 155 204 249 305 360
#     4  10  20  36  62  86 120 163 203 248 305 361
#     4  10  20  44  56  80 118 156 206 244 310 364
#     4  10  19  37  60  88 121 162 202 250 304 362
#
# _framework density 25.180658000000001
#
# number of rings (size 3 to 8) (size 9 to 14) (size 15 to 20)
#    0.545    1.455    2.727    1.091    0.000    3.636 
#    0.000    0.909    0.000    0.000    0.000   16.545 
#    0.000    0.000    0.000    0.000    0.000    0.000 
#
# Total GULP energy -245596.303265 kJ/mol
# GULP energy per Si atom -5581.734165 kJ/mol
# Density = 2.512335 g / cm^3
# Si number density = 25.180658 Si / 1000 Ang^3
#
#
#
# Elastic Constant Matrix: (Units=GPa)
#
#
# Indices 1 2 3 4 5 6 
#
# 1 109.0998 -5.5136 19.3043 0.0000 0.0000 0.0000
# 2 -5.5136 163.2500 -13.1867 0.0000 0.0000 0.0000
# 3 19.3043 -13.1867 68.8459 0.0000 0.0000 0.0000
# 4 0.0000 0.0000 0.0000 -2.7798 0.0000 0.0000
# 5 0.0000 0.0000 0.0000 0.0000 32.8483 0.0000
# 6 0.0000 0.0000 0.0000 0.0000 0.0000 34.1983
#
#
#
# Elastic Compliance Matrix: (Units=1/GPa)
#
#
# Indices 1 2 3 4 5 6 
#
# 1 0.009646 0.000109 -0.002684 0.000000 0.000000 0.000000
# 2 0.000109 0.006223 0.001161 0.000000 0.000000 0.000000
# 3 -0.002684 0.001161 0.015500 0.000000 0.000000 0.000000
# 4 0.000000 0.000000 0.000000 -0.359734 0.000000 0.000000
# 5 0.000000 0.000000 0.000000 0.000000 0.030443 0.000000
# 6 0.000000 0.000000 0.000000 0.000000 0.000000 0.029241
#
#
# Mechanical properties :
#
#
# Convention : Reuss Voigt Hill
#
# Bulk Modulus (GPa) = 35.03544 38.04486 36.54015
# Shear Modulus (GPa) = -19.50539 35.55947 8.02704
#
# Velocity S-wave (km/s) = -2.78622 3.76197 1.78737
# Velocity P-wave (km/s) = 1.89557 5.83193 4.33616
#
# Compressibility (1/GPa) = 0.02854253
#
# Stress axis : x y z
#
# Youngs Moduli (GPa) = 103.66640 160.69246 64.51519
#
# Poissons Ratio (x) = -0.01752 0.17316
# Poissons Ratio (y) = -0.01130 -0.07493
# Poissons Ratio (z) = 0.27823 -0.18663
#
# Static dielectric constant tensor:
#      x y z
#    x 2.025430 0.000000 0.000000 
#    y 0.000000 2.128740 0.000000 
#    z 0.000000 0.000000 1.969080 
# 
# From -- ./inp_files/9631.got.cif
#   From: 2010.05.17/outbox.cif.g08.bks.cpg/sg56_5_cif.got.tgz:9631.got - 2010.06.03 13:42:01.
