data_PCOD9430033
_publ_section_title
;
Structure prediction by ZEFSAII (Michael W. Deem and Ramdas Pophale) SiO2 
 PCOD9430033
Probable space group: P C C N
;
_chemical_formula_sum "Si O2"
_cell_formula_units_Z 64
_cell_length_a 22.519230
_cell_length_b 5.465250
_cell_length_c 26.807681
_cell_angle_alpha 90.000000
_cell_angle_beta 90.000000
_cell_angle_gamma 90.000000
_cell_volume 3299.307669
_symmetry_space_group_name_H-M "P C C N"
_symmetry_group_IT_number 56
_symmetry_cell_setting 'orthorhombic'
loop_
_space_group_symop_operation_xyz
x,y,z
1/2-x,1/2-y,z
1/2+x,-y,1/2-z
-x,1/2+y,1/2-z
-x,-y,-z
1/2+x,1/2+y,-z
1/2-x,y,1/2+z
x,1/2-y,1/2+z
loop_
_atom_site_type_symbol
_atom_site_label
_atom_site_fract_x
_atom_site_fract_y
_atom_site_fract_z
Si Si1 0.428588 0.546825 0.498530
Si Si2 0.588844 0.522470 0.392563
Si Si3 0.180131 0.269871 0.673471
Si Si4 0.917504 0.351411 0.305720
Si Si5 0.490233 0.876047 0.366589
Si Si6 0.819063 0.674227 0.712267
Si Si7 0.115878 0.818251 0.306781
Si Si8 0.444601 0.045822 0.461986
O O1 0.500000 0.500000 0.500000
O O2 0.406759 0.605282 0.554380
O O3 0.413555 0.780484 0.464930
O O4 0.407752 0.281029 0.479467
O O5 0.648688 0.647070 0.373503
O O6 0.571405 0.362432 0.344900
O O7 0.537221 0.721429 0.398504
O O8 0.250000 0.250000 0.667022
O O9 0.146502 0.529427 0.679771
O O10 0.168349 0.150742 0.728004
O O11 0.914423 0.293720 0.247880
O O12 0.970904 0.534693 0.319636
O O13 0.435088 0.722029 0.347130
O O14 0.467458 0.080216 0.405451
O O15 0.750000 0.750000 0.706979
O O16 0.838425 0.412474 0.689710
O O17 0.855545 0.910826 0.692685
O O18 0.500000 0.000000 0.500000
#
# Coordination Sequence:
#
# PCOD9430033 Si02
#       8
#     8   8   8   8   8   8   8   8
#     4  10  19  32  55  75 110 140 192 224 279 337
#     4  11  20  34  54  82 113 158 182 238 295 348
#     4   9  20  36  54  79 110 152 202 243 282 340
#     4  10  22  34  52  79 124 160 185 229 291 351
#     4  11  24  33  56  81 127 151 191 231 287 359
#     4  10  21  42  61  80 112 153 203 251 282 330
#     4  11  24  37  56  89 115 159 196 228 293 351
#     4  10  19  36  51  78 107 151 189 231 269 333
#
# _framework density 19.398008000000001
#
# number of rings (size 3 to 8) (size 9 to 14) (size 15 to 20)
#    0.000    1.750    3.750    1.875    5.250    0.500 
#    0.000    0.000    0.000    0.000    0.000    5.250 
#    0.000    0.000    0.000    0.000    0.000    0.000 
#
# Total GULP energy -356606.239541 kJ/mol
# GULP energy per Si atom -5571.972493 kJ/mol
# Density = 1.935386 g / cm^3
# Si number density = 19.398008 Si / 1000 Ang^3
#
#
#
# Elastic Constant Matrix: (Units=GPa)
#
#
# Indices 1 2 3 4 5 6 
#
# 1 56.4188 4.5753 30.4415 0.0000 0.0000 0.0000
# 2 4.5753 76.2955 5.0556 0.0000 0.0000 0.0000
# 3 30.4415 5.0556 55.3215 0.0000 0.0000 0.0000
# 4 0.0000 0.0000 0.0000 6.3961 0.0000 0.0000
# 5 0.0000 0.0000 0.0000 0.0000 11.3063 0.0000
# 6 0.0000 0.0000 0.0000 0.0000 0.0000 10.5781
#
#
#
# Elastic Compliance Matrix: (Units=1/GPa)
#
#
# Indices 1 2 3 4 5 6 
#
# 1 0.025236 -0.000597 -0.013832 0.000000 0.000000 0.000000
# 2 -0.000597 0.013201 -0.000878 0.000000 0.000000 0.000000
# 3 -0.013832 -0.000878 0.025768 0.000000 0.000000 0.000000
# 4 0.000000 0.000000 0.000000 0.156346 0.000000 0.000000
# 5 0.000000 0.000000 0.000000 0.000000 0.088447 0.000000
# 6 0.000000 0.000000 0.000000 0.000000 0.000000 0.094535
#
#
# Mechanical properties :
#
#
# Convention : Reuss Voigt Hill
#
# Bulk Modulus (GPa) = 29.76977 29.79784 29.78381
# Shear Modulus (GPa) = 11.22728 15.52030 13.37379
#
# Velocity S-wave (km/s) = 2.40841 2.83167 2.62857
# Velocity P-wave (km/s) = 4.80771 5.10742 4.95983
#
# Compressibility (1/GPa) = 0.03359112
#
# Stress axis : x y z
#
# Youngs Moduli (GPa) = 39.62547 75.75245 38.80825
#
# Poissons Ratio (x) = 0.04521 0.53680
# Poissons Ratio (y) = 0.02365 0.03407
# Poissons Ratio (z) = 0.54810 0.06651
#
# Static dielectric constant tensor:
#      x y z
#    x 1.658530 0.000000 0.000000 
#    y 0.000000 1.754020 0.000000 
#    z 0.000000 0.000000 1.920890 
# 
# From -- ./inp_files/22605.got.cif
#   From: 2010.05.17/outbox.cif.g08.bks.cpg/sg56_12_cif.got.tgz:22605.got - 2010.06.03 13:42:01.
