data_PCOD9430857
_publ_section_title
;
Structure prediction by ZEFSAII (Michael W. Deem and Ramdas Pophale) SiO2 
 PCOD9430857
Probable space group: P C C N
;
_chemical_formula_sum "Si O2"
_cell_formula_units_Z 24
_cell_length_a 11.196856
_cell_length_b 5.146770
_cell_length_c 17.380472
_cell_angle_alpha 90.000000
_cell_angle_beta 90.000000
_cell_angle_gamma 90.000000
_cell_volume 1001.595628
_symmetry_space_group_name_H-M "P C C N"
_symmetry_group_IT_number 56
_symmetry_cell_setting 'orthorhombic'
loop_
_space_group_symop_operation_xyz
x,y,z
1/2-x,1/2-y,z
1/2+x,-y,1/2-z
-x,1/2+y,1/2-z
-x,-y,-z
1/2+x,1/2+y,-z
1/2-x,y,1/2+z
x,1/2-y,1/2+z
loop_
_atom_site_type_symbol
_atom_site_label
_atom_site_fract_x
_atom_site_fract_y
_atom_site_fract_z
Si Si1 0.635910 0.386895 0.687320
Si Si2 0.542481 0.112677 0.919080
Si Si3 0.895686 0.616908 0.344492
O O1 0.750000 0.250000 0.651744
O O2 0.576332 0.603424 0.633898
O O3 0.669032 0.501057 0.770274
O O4 0.528785 0.176833 0.691074
O O5 0.594328 0.398788 0.910359
O O6 0.631324 0.897293 0.881450
O O7 0.500000 0.000000 0.000000
#
# Coordination Sequence:
#
# PCOD9430857 Si02
#       3
#     8   8   8
#     4  10  21  38  65  88 121 162 210 242 312 361
#     4  10  20  38  61  82 123 159 193 252 312 352
#     4  10  20  39  59  87 116 159 199 257 290 360
#
# _framework density 23.961766000000001
#
# number of rings (size 3 to 8) (size 9 to 14) (size 15 to 20)
#    2.000    0.000    3.333    1.000    0.000    1.333 
#    0.000    1.667    7.333    0.000    0.000    0.000 
#    0.000    0.000    0.000    0.000    0.000    0.000 
#
# Total GULP energy -133872.785133 kJ/mol
# GULP energy per Si atom -5578.032714 kJ/mol
# Density = 2.390723 g / cm^3
# Si number density = 23.961766 Si / 1000 Ang^3
#
#
#
# Elastic Constant Matrix: (Units=GPa)
#
#
# Indices 1 2 3 4 5 6 
#
# 1 41.7691 15.7981 -12.0528 0.0000 0.0000 0.0000
# 2 15.7981 139.6573 20.8417 0.0000 0.0000 0.0000
# 3 -12.0528 20.8417 110.5077 0.0000 0.0000 0.0000
# 4 0.0000 0.0000 0.0000 28.9252 0.0000 0.0000
# 5 0.0000 0.0000 0.0000 0.0000 13.7539 0.0000
# 6 0.0000 0.0000 0.0000 0.0000 0.0000 34.3670
#
#
#
# Elastic Compliance Matrix: (Units=1/GPa)
#
#
# Indices 1 2 3 4 5 6 
#
# 1 0.026282 -0.003499 0.003527 0.000000 0.000000 0.000000
# 2 -0.003499 0.007834 -0.001859 0.000000 0.000000 0.000000
# 3 0.003527 -0.001859 0.009784 0.000000 0.000000 0.000000
# 4 0.000000 0.000000 0.000000 0.034572 0.000000 0.000000
# 5 0.000000 0.000000 0.000000 0.000000 0.072706 0.000000
# 6 0.000000 0.000000 0.000000 0.000000 0.000000 0.029098
#
#
# Mechanical properties :
#
#
# Convention : Reuss Voigt Hill
#
# Bulk Modulus (GPa) = 24.85303 37.90089 31.37696
# Shear Modulus (GPa) = 25.33538 33.23236 29.28387
#
# Velocity S-wave (km/s) = 3.25518 3.72814 3.49966
# Velocity P-wave (km/s) = 4.95204 5.86375 5.42708
#
# Compressibility (1/GPa) = 0.04023655
#
# Stress axis : x y z
#
# Youngs Moduli (GPa) = 38.04840 127.65401 102.20357
#
# Poissons Ratio (x) = 0.44671 -0.36042
# Poissons Ratio (y) = 0.13314 0.19001
# Poissons Ratio (z) = -0.13418 0.23732
#
# Static dielectric constant tensor:
#      x y z
#    x 2.081640 0.000000 0.000000 
#    y 0.000000 1.998330 0.000000 
#    z 0.000000 0.000000 1.885350 
# 
# From -- ./inp_files/9288.got.cif
#   From: 2010.05.17/outbox.cif.g08.bks.cpg/sg56_5_cif.got.tgz:9288.got - 2010.06.03 13:42:01.
