data_PCOD9430624
_publ_section_title
;
Structure prediction by ZEFSAII (Michael W. Deem and Ramdas Pophale) SiO2 
 PCOD9430624
Probable space group: P C C N
;
_chemical_formula_sum "Si O2"
_cell_formula_units_Z 56
_cell_length_a 6.774270
_cell_length_b 15.813498
_cell_length_c 21.917446
_cell_angle_alpha 90.000000
_cell_angle_beta 90.000000
_cell_angle_gamma 90.000000
_cell_volume 2347.904323
_symmetry_space_group_name_H-M "P C C N"
_symmetry_group_IT_number 56
_symmetry_cell_setting 'orthorhombic'
loop_
_space_group_symop_operation_xyz
x,y,z
1/2-x,1/2-y,z
1/2+x,-y,1/2-z
-x,1/2+y,1/2-z
-x,-y,-z
1/2+x,1/2+y,-z
1/2-x,y,1/2+z
x,1/2-y,1/2+z
loop_
_atom_site_type_symbol
_atom_site_label
_atom_site_fract_x
_atom_site_fract_y
_atom_site_fract_z
Si Si1 0.382121 0.833996 0.684983
Si Si2 0.880762 0.888505 0.953927
Si Si3 0.869079 0.408296 0.050266
Si Si4 0.617879 0.166004 0.184983
Si Si5 0.750000 0.750000 0.360719
Si Si6 0.369079 0.591703 0.050266
Si Si7 0.619238 0.611494 0.546073
Si Si8 0.750000 0.750000 0.139281
O O1 0.250000 0.750000 0.685101
O O2 0.344433 0.879194 0.750000
O O3 0.354006 0.877375 0.620125
O O4 0.607636 0.804813 0.680604
O O5 0.874841 0.813214 0.904271
O O6 0.873522 0.989505 0.941925
O O7 0.882357 0.879113 0.032990
O O8 0.129003 0.887781 0.969474
O O9 0.854007 0.377374 0.120125
O O10 0.873521 0.510495 0.058075
O O11 0.870997 0.387782 0.969474
O O12 0.117643 0.379112 0.032989
O O13 0.750000 0.250000 0.185101
O O14 0.392363 0.195187 0.180604
O O15 0.625159 0.686786 0.595729
#
# Coordination Sequence:
#
# PCOD9430624 Si02
#       8
#     8   8   8   8   4   8   8   4
#     4  11  25  43  62  91 133 171 213 265 324 392
#     4  10  20  35  63  95 123 155 211 274 311 371
#     4  10  21  38  62  94 127 162 212 268 321 377
#     4  11  25  43  62  91 133 171 213 265 324 392
#     4  12  22  40  68  94 125 173 218 264 323 389
#     4  10  21  38  62  94 127 162 212 268 321 377
#     4  10  20  35  63  95 123 155 211 274 311 371
#     4  12  22  40  68  94 125 173 218 264 323 389
#
# _framework density 23.851056
#
# number of rings (size 3 to 8) (size 9 to 14) (size 15 to 20)
#    0.000    1.429    2.857    2.571    0.000    2.857 
#    0.000    2.857    0.000    0.000    0.000    0.000 
#    0.000    0.000    0.000    0.000    0.000    0.000 
#
# Total GULP energy -311791.627629 kJ/mol
# GULP energy per Si atom -5567.707636 kJ/mol
# Density = 2.379677 g / cm^3
# Si number density = 23.851056 Si / 1000 Ang^3
#
#
#
# Elastic Constant Matrix: (Units=GPa)
#
#
# Indices 1 2 3 4 5 6 
#
# 1 165.4796 8.5101 73.6440 0.0000 0.0000 0.0000
# 2 8.5101 53.1599 77.7758 0.0000 0.0000 0.0000
# 3 73.6440 77.7758 256.7970 0.0000 0.0000 0.0000
# 4 0.0000 0.0000 0.0000 24.6694 0.0000 0.0000
# 5 0.0000 0.0000 0.0000 0.0000 -100.9250 0.0000
# 6 0.0000 0.0000 0.0000 0.0000 0.0000 45.9858
#
#
#
# Elastic Compliance Matrix: (Units=1/GPa)
#
#
# Indices 1 2 3 4 5 6 
#
# 1 0.007250 0.003378 -0.003102 0.000000 0.000000 0.000000
# 2 0.003378 0.035353 -0.011676 0.000000 0.000000 0.000000
# 3 -0.003102 -0.011676 0.008320 0.000000 0.000000 0.000000
# 4 0.000000 0.000000 0.000000 0.040536 0.000000 0.000000
# 5 0.000000 0.000000 0.000000 0.000000 -0.009908 0.000000
# 6 0.000000 0.000000 0.000000 0.000000 0.000000 0.021746
#
#
# Mechanical properties :
#
#
# Convention : Reuss Voigt Hill
#
# Bulk Modulus (GPa) = 35.55840 88.36627 61.96234
# Shear Modulus (GPa) = 36.90809 14.97982 25.94395
#
# Velocity S-wave (km/s) = 3.93802 2.50883 3.30168
# Velocity P-wave (km/s) = 5.96810 6.74699 6.36946
#
# Compressibility (1/GPa) = 0.02812275
#
# Stress axis : x y z
#
# Youngs Moduli (GPa) = 137.93240 28.28597 120.19019
#
# Poissons Ratio (x) = -0.09556 0.37286
# Poissons Ratio (y) = -0.46596 1.40336
# Poissons Ratio (z) = 0.42790 0.33027
#
# Static dielectric constant tensor:
#      x y z
#    x 2.286710 0.000000 0.000000 
#    y 0.000000 1.749910 0.000000 
#    z 0.000000 0.000000 1.925120 
# 
# From -- ./inp_files/18269.got.cif
#   From: 2010.05.17/outbox.cif.g08.bks.cpg/sg56_10_cif.got.tgz:18269.got - 2010.06.03 13:42:01.
