data_PCOD9430847
_publ_section_title
;
Structure prediction by ZEFSAII (Michael W. Deem and Ramdas Pophale) SiO2 
 PCOD9430847
Probable space group: P C C N
;
_chemical_formula_sum "Si O2"
_cell_formula_units_Z 56
_cell_length_a 12.818636
_cell_length_b 12.347112
_cell_length_c 19.672073
_cell_angle_alpha 90.000000
_cell_angle_beta 90.000000
_cell_angle_gamma 90.000000
_cell_volume 3113.560653
_symmetry_space_group_name_H-M "P C C N"
_symmetry_group_IT_number 56
_symmetry_cell_setting 'orthorhombic'
loop_
_space_group_symop_operation_xyz
x,y,z
1/2-x,1/2-y,z
1/2+x,-y,1/2-z
-x,1/2+y,1/2-z
-x,-y,-z
1/2+x,1/2+y,-z
1/2-x,y,1/2+z
x,1/2-y,1/2+z
loop_
_atom_site_type_symbol
_atom_site_label
_atom_site_fract_x
_atom_site_fract_y
_atom_site_fract_z
Si Si1 0.394558 0.009104 0.852124
Si Si2 0.888673 0.934453 0.356528
Si Si3 0.834268 0.980187 0.792993
Si Si4 0.629396 0.229269 0.297133
Si Si5 0.365073 0.790028 0.936880
Si Si6 0.452149 0.868346 0.075639
Si Si7 0.512035 0.709105 0.832064
O O1 0.322922 0.032983 0.788632
O O2 0.428566 0.105954 0.902187
O O3 0.508574 0.981639 0.818072
O O4 0.362339 0.901808 0.893024
O O5 0.778677 0.959565 0.324616
O O6 0.913659 0.807972 0.357366
O O7 0.901044 0.010011 0.423552
O O8 0.916901 0.893978 0.820152
O O9 0.872850 0.100972 0.809281
O O10 0.750000 0.250000 0.276210
O O11 0.601241 0.298212 0.364316
O O12 0.549211 0.260821 0.237387
O O13 0.250000 0.750000 0.954192
O O14 0.423623 0.703200 0.889640
O O15 0.431008 0.814067 0.004246
#
# Coordination Sequence:
#
# PCOD9430847 Si02
#       7
#     8   8   8   8   8   8   8
#     4   9  20  36  57  89 117 155 198 255 301 357
#     4   9  20  36  58  84 116 159 192 240 299 363
#     4  12  21  36  62  90 119 153 203 257 304 362
#     4  12  20  35  61  86 117 154 204 254 297 349
#     4  11  22  36  61  91 120 158 209 252 297 362
#     4  10  20  38  60  88 117 160 202 242 301 366
#     4  11  23  38  54  93 124 155 198 251 309 357
#
# _framework density 17.985838000000001
#
# number of rings (size 3 to 8) (size 9 to 14) (size 15 to 20)
#    0.857    0.571    5.714    1.714    0.000    0.000 
#    0.000    0.714    0.000    0.000    3.714    0.000 
#    0.000    0.000    0.000    0.000    0.000    0.000 
#
# Total GULP energy -311759.730833 kJ/mol
# GULP energy per Si atom -5567.138051 kJ/mol
# Density = 1.794490 g / cm^3
# Si number density = 17.985838 Si / 1000 Ang^3
#
#
#
# Elastic Constant Matrix: (Units=GPa)
#
#
# Indices 1 2 3 4 5 6 
#
# 1 28.3103 15.3766 -7.0595 0.0000 0.0000 0.0000
# 2 15.3766 97.4652 13.6930 0.0000 0.0000 0.0000
# 3 -7.0595 13.6930 61.9307 0.0000 0.0000 0.0000
# 4 0.0000 0.0000 0.0000 19.2495 0.0000 0.0000
# 5 0.0000 0.0000 0.0000 0.0000 16.5537 0.0000
# 6 0.0000 0.0000 0.0000 0.0000 0.0000 21.8269
#
#
#
# Elastic Compliance Matrix: (Units=1/GPa)
#
#
# Indices 1 2 3 4 5 6 
#
# 1 0.040870 -0.007330 0.006279 0.000000 0.000000 0.000000
# 2 -0.007330 0.011904 -0.003467 0.000000 0.000000 0.000000
# 3 0.006279 -0.003467 0.017630 0.000000 0.000000 0.000000
# 4 0.000000 0.000000 0.000000 0.051949 0.000000 0.000000
# 5 0.000000 0.000000 0.000000 0.000000 0.060409 0.000000
# 6 0.000000 0.000000 0.000000 0.000000 0.000000 0.045815
#
#
# Mechanical properties :
#
#
# Convention : Reuss Voigt Hill
#
# Bulk Modulus (GPa) = 16.29538 25.74738 21.02138
# Shear Modulus (GPa) = 19.37469 22.57244 20.97356
#
# Velocity S-wave (km/s) = 3.28566 3.54646 3.41855
# Velocity P-wave (km/s) = 4.84499 5.57819 5.22447
#
# Compressibility (1/GPa) = 0.06136707
#
# Stress axis : x y z
#
# Youngs Moduli (GPa) = 24.46783 84.00783 56.72297
#
# Poissons Ratio (x) = 0.61578 -0.35619
# Poissons Ratio (y) = 0.17935 0.19669
# Poissons Ratio (z) = -0.15365 0.29130
#
# Static dielectric constant tensor:
#      x y z
#    x 1.619350 0.000000 0.000000 
#    y 0.000000 1.654240 0.000000 
#    z 0.000000 0.000000 1.631670 
# 
# From -- ./inp_files/18735.got.cif
#   From: 2010.05.17/outbox.cif.g08.bks.cpg/sg56_10_cif.got.tgz:18735.got - 2010.06.03 13:42:01.
