data_PCOD9430420
_publ_section_title
;
Structure prediction by ZEFSAII (Michael W. Deem and Ramdas Pophale) SiO2 
 PCOD9430420
Probable space group: P C C N
;
_chemical_formula_sum "Si O2"
_cell_formula_units_Z 56
_cell_length_a 7.997484
_cell_length_b 20.909887
_cell_length_c 14.796274
_cell_angle_alpha 90.000000
_cell_angle_beta 90.000000
_cell_angle_gamma 90.000000
_cell_volume 2474.328918
_symmetry_space_group_name_H-M "P C C N"
_symmetry_group_IT_number 56
_symmetry_cell_setting 'orthorhombic'
loop_
_space_group_symop_operation_xyz
x,y,z
1/2-x,1/2-y,z
1/2+x,-y,1/2-z
-x,1/2+y,1/2-z
-x,-y,-z
1/2+x,1/2+y,-z
1/2-x,y,1/2+z
x,1/2-y,1/2+z
loop_
_atom_site_type_symbol
_atom_site_label
_atom_site_fract_x
_atom_site_fract_y
_atom_site_fract_z
Si Si1 0.608133 0.882144 0.684056
Si Si2 0.579992 0.289147 0.916720
Si Si3 0.624704 0.060220 0.994474
Si Si4 0.692745 0.680792 0.834714
Si Si5 0.072223 0.503426 0.601571
Si Si6 0.141091 0.330056 0.967251
Si Si7 0.407251 0.876357 0.403704
O O1 0.458459 0.831358 0.671081
O O2 0.709391 0.869785 0.773573
O O3 0.537337 0.952368 0.666433
O O4 0.732317 0.862862 0.602467
O O5 0.750000 0.250000 0.912259
O O6 0.434185 0.237536 0.935293
O O7 0.588293 0.339829 0.999855
O O8 0.751364 0.037447 0.915375
O O9 0.514770 0.121846 0.973780
O O10 0.736658 0.082157 0.082858
O O11 0.500000 0.000000 0.000000
O O12 0.750000 0.750000 0.798575
O O13 0.488659 0.677198 0.837705
O O14 0.769247 0.675962 0.935885
O O15 0.000000 0.500000 0.500000
O O16 0.047769 0.429347 0.621926
#
# Coordination Sequence:
#
# PCOD9430420 Si02
#       7
#     8   8   8   8   8   8   8
#     4  12  24  43  69 105 140 188 248 304 368 440
#     4  12  21  40  69 100 136 185 234 295 362 439
#     4  11  21  37  71 104 130 186 242 291 360 431
#     4  12  24  42  68 101 144 191 237 310 372 434
#     4  10  19  42  68  94 134 182 232 304 358 419
#     4  12  21  40  67  98 134 187 241 289 368 440
#     4  11  21  42  68  96 141 185 240 294 365 435
#
# _framework density 22.632397999999998
#
# number of rings (size 3 to 8) (size 9 to 14) (size 15 to 20)
#    0.000    0.571    7.143    3.857    0.000    0.000 
#    0.000   10.714    0.000    0.000    0.000    0.000 
#    0.000    0.000    0.000    0.000    0.000    0.000 
#
# Total GULP energy -312190.948374 kJ/mol
# GULP energy per Si atom -5574.838364 kJ/mol
# Density = 2.258089 g / cm^3
# Si number density = 22.632398 Si / 1000 Ang^3
#
#
#
# Elastic Constant Matrix: (Units=GPa)
#
#
# Indices 1 2 3 4 5 6 
#
# 1 115.4618 32.8999 12.5758 0.0000 0.0000 0.0000
# 2 32.8999 90.5439 -5.8405 0.0000 0.0000 0.0000
# 3 12.5758 -5.8405 38.1623 0.0000 0.0000 0.0000
# 4 0.0000 0.0000 0.0000 12.2242 0.0000 0.0000
# 5 0.0000 0.0000 0.0000 0.0000 20.0653 0.0000
# 6 0.0000 0.0000 0.0000 0.0000 0.0000 54.5010
#
#
#
# Elastic Compliance Matrix: (Units=1/GPa)
#
#
# Indices 1 2 3 4 5 6 
#
# 1 0.010226 -0.003972 -0.003978 0.000000 0.000000 0.000000
# 2 -0.003972 0.012698 0.003252 0.000000 0.000000 0.000000
# 3 -0.003978 0.003252 0.028012 0.000000 0.000000 0.000000
# 4 0.000000 0.000000 0.000000 0.081805 0.000000 0.000000
# 5 0.000000 0.000000 0.000000 0.000000 0.049837 0.000000
# 6 0.000000 0.000000 0.000000 0.000000 0.000000 0.018348
#
#
# Mechanical properties :
#
#
# Convention : Reuss Voigt Hill
#
# Bulk Modulus (GPa) = 24.07291 35.93758 30.00525
# Shear Modulus (GPa) = 22.30464 30.99362 26.64913
#
# Velocity S-wave (km/s) = 3.14270 3.70460 3.43516
# Velocity P-wave (km/s) = 4.88143 5.84911 5.38704
#
# Compressibility (1/GPa) = 0.04154046
#
# Stress axis : x y z
#
# Youngs Moduli (GPa) = 97.79000 78.75558 35.69841
#
# Poissons Ratio (x) = 0.31284 0.14200
# Poissons Ratio (y) = 0.38845 -0.11610
# Poissons Ratio (z) = 0.38899 -0.25614
#
# Static dielectric constant tensor:
#      x y z
#    x 2.046480 0.000000 0.000000 
#    y 0.000000 1.953450 0.000000 
#    z 0.000000 0.000000 1.842040 
# 
# From -- ./inp_files/10891.got.cif
#   From: 2010.05.17/outbox.cif.g08.bks.cpg/sg56_6_cif.got.tgz:10891.got - 2010.06.03 13:42:01.
