data_PCOD9430504
_publ_section_title
;
Structure prediction by ZEFSAII (Michael W. Deem and Ramdas Pophale) SiO2 
 PCOD9430504
Probable space group: P C C N
;
_chemical_formula_sum "Si O2"
_cell_formula_units_Z 48
_cell_length_a 7.439659
_cell_length_b 30.983159
_cell_length_c 7.896656
_cell_angle_alpha 90.000000
_cell_angle_beta 90.000000
_cell_angle_gamma 90.000000
_cell_volume 1820.211882
_symmetry_space_group_name_H-M "P C C N"
_symmetry_group_IT_number 56
_symmetry_cell_setting 'orthorhombic'
loop_
_space_group_symop_operation_xyz
x,y,z
1/2-x,1/2-y,z
1/2+x,-y,1/2-z
-x,1/2+y,1/2-z
-x,-y,-z
1/2+x,1/2+y,-z
1/2-x,y,1/2+z
x,1/2-y,1/2+z
loop_
_atom_site_type_symbol
_atom_site_label
_atom_site_fract_x
_atom_site_fract_y
_atom_site_fract_z
Si Si1 0.661075 0.550294 0.919929
Si Si2 0.010161 0.527429 0.775906
Si Si3 0.073413 0.805141 0.260768
Si Si4 0.024407 0.131836 0.228870
Si Si5 0.349801 0.611132 0.404997
Si Si6 0.515930 0.282321 0.352408
O O1 0.856677 0.529175 0.916936
O O2 0.559788 0.519785 0.785869
O O3 0.664956 0.598233 0.846246
O O4 0.571254 0.547461 0.101953
O O5 0.154684 0.561802 0.842658
O O6 0.053814 0.856681 0.269664
O O7 0.969198 0.768059 0.159329
O O8 0.281925 0.793714 0.216919
O O9 0.031319 0.792420 0.452110
O O10 0.854261 0.128440 0.101393
O O11 0.944723 0.116485 0.412436
O O12 0.094459 0.180421 0.255622
#
# Coordination Sequence:
#
# PCOD9430504 Si02
#       6
#     8   8   8   8   8   8
#     4  11  24  40  59  82 108 140 177 219 268 321
#     4  11  24  40  59  82 108 140 177 219 268 321
#     4   9  16  26  44  72 105 140 177 218 262 308
#     4  10  20  34  54  81 112 145 182 223 268 317
#     4  10  20  34  54  81 112 145 182 223 268 317
#     4   9  16  26  44  72 105 140 177 218 262 308
#
# _framework density 26.370556000000001
#
# number of rings (size 3 to 8) (size 9 to 14) (size 15 to 20)
#    0.000    2.000    0.000    5.000    0.000    9.333 
#    0.000    0.000    0.000    1.000    0.000    7.000 
#    0.000    0.000    0.000    0.000    0.000    0.000 
#
# Total GULP energy -268379.378268 kJ/mol
# GULP energy per Si atom -5591.237047 kJ/mol
# Density = 2.631054 g / cm^3
# Si number density = 26.370556 Si / 1000 Ang^3
#
#
#
# Elastic Constant Matrix: (Units=GPa)
#
#
# Indices 1 2 3 4 5 6 
#
# 1 36.4730 4.7306 -5.4382 0.0000 0.0000 0.0000
# 2 4.7306 87.9517 1.0906 0.0000 0.0000 0.0000
# 3 -5.4382 1.0906 105.2793 0.0000 0.0000 0.0000
# 4 0.0000 0.0000 0.0000 33.1845 0.0000 0.0000
# 5 0.0000 0.0000 0.0000 0.0000 18.8108 0.0000
# 6 0.0000 0.0000 0.0000 0.0000 0.0000 38.0758
#
#
#
# Elastic Compliance Matrix: (Units=1/GPa)
#
#
# Indices 1 2 3 4 5 6 
#
# 1 0.027831 -0.001515 0.001453 0.000000 0.000000 0.000000
# 2 -0.001515 0.011454 -0.000197 0.000000 0.000000 0.000000
# 3 0.001453 -0.000197 0.009576 0.000000 0.000000 0.000000
# 4 0.000000 0.000000 0.000000 0.030135 0.000000 0.000000
# 5 0.000000 0.000000 0.000000 0.000000 0.053161 0.000000
# 6 0.000000 0.000000 0.000000 0.000000 0.000000 0.026263
#
#
# Mechanical properties :
#
#
# Convention : Reuss Voigt Hill
#
# Bulk Modulus (GPa) = 20.68551 25.60779 23.14665
# Shear Modulus (GPa) = 28.56319 33.30229 30.93274
#
# Velocity S-wave (km/s) = 3.29469 3.55753 3.42863
# Velocity P-wave (km/s) = 4.72594 5.15815 4.94677
#
# Compressibility (1/GPa) = 0.04834303
#
# Stress axis : x y z
#
# Youngs Moduli (GPa) = 35.93154 87.30729 104.43150
#
# Poissons Ratio (x) = 0.13226 -0.15177
# Poissons Ratio (y) = 0.05443 0.02056
# Poissons Ratio (z) = -0.05222 0.01719
#
# Static dielectric constant tensor:
#      x y z
#    x 2.136070 0.000000 0.000000 
#    y 0.000000 2.270100 0.000000 
#    z 0.000000 0.000000 2.001970 
# 
# From -- ./inp_files/2251.got.cif
#   From: 2010.05.17/outbox.cif.g08.bks.cpg/sg56_2_cif.got.tgz:2251.got - 2010.06.03 13:42:01.
