data_PCOD9430655
_publ_section_title
;
Structure prediction by ZEFSAII (Michael W. Deem and Ramdas Pophale) SiO2 
 PCOD9430655
Probable space group: P C C N
;
_chemical_formula_sum "Si O2"
_cell_formula_units_Z 60
_cell_length_a 26.074896
_cell_length_b 6.126405
_cell_length_c 20.006554
_cell_angle_alpha 90.000000
_cell_angle_beta 90.000000
_cell_angle_gamma 90.000000
_cell_volume 3195.954436
_symmetry_space_group_name_H-M "P C C N"
_symmetry_group_IT_number 56
_symmetry_cell_setting 'orthorhombic'
loop_
_space_group_symop_operation_xyz
x,y,z
1/2-x,1/2-y,z
1/2+x,-y,1/2-z
-x,1/2+y,1/2-z
-x,-y,-z
1/2+x,1/2+y,-z
1/2-x,y,1/2+z
x,1/2-y,1/2+z
loop_
_atom_site_type_symbol
_atom_site_label
_atom_site_fract_x
_atom_site_fract_y
_atom_site_fract_z
Si Si1 0.467752 0.193909 0.465999
Si Si2 0.250000 0.750000 0.660417
Si Si3 0.123692 0.900026 0.952761
Si Si4 0.933330 0.411029 0.938205
Si Si5 0.306456 0.262167 0.504566
Si Si6 0.697393 0.624163 0.755417
Si Si7 0.303548 0.605849 0.381840
Si Si8 0.156348 0.445492 0.135164
O O1 0.447473 0.369014 0.520345
O O2 0.510810 0.311986 0.421873
O O3 0.500000 0.000000 0.500000
O O4 0.418722 0.079154 0.433265
O O5 0.214419 0.586415 0.702495
O O6 0.293754 0.601365 0.626791
O O7 0.147601 0.759567 0.893938
O O8 0.173143 0.032707 0.978345
O O9 0.098240 0.745605 0.009768
O O10 0.897929 0.435183 0.872814
O O11 0.250000 0.250000 0.533987
O O12 0.302319 0.442979 0.445993
O O13 0.343151 0.314182 0.565856
O O14 0.750000 0.750000 0.743185
O O15 0.682947 0.537724 0.682833
O O16 0.663703 0.787922 0.801108
O O17 0.250000 0.750000 0.375033
#
# Coordination Sequence:
#
# PCOD9430655 Si02
#       8
#     8   4   8   8   8   8   8   8
#     4   9  19  36  58  85 130 149 191 257 315 375
#     4  10  22  38  54  78 128 164 202 242 300 374
#     4  11  21  35  56  89 127 158 199 252 312 374
#     4  10  20  36  58  90 126 154 197 253 323 369
#     4  12  23  34  55  90 127 162 198 254 307 362
#     4  10  23  40  53  77 123 171 208 247 293 373
#     4  12  23  36  57  83 126 171 213 248 301 375
#     4  11  23  35  58  87 127 160 208 250 308 371
#
# _framework density 18.773734000000001
#
# number of rings (size 3 to 8) (size 9 to 14) (size 15 to 20)
#    0.000    1.333    4.667    1.600    4.667    0.000 
#    0.000    0.000    0.000    0.000    0.000    0.000 
#  180.000    0.000    0.000    0.000    0.000    0.000 
#
# Total GULP energy -334110.055904 kJ/mol
# GULP energy per Si atom -5568.500932 kJ/mol
# Density = 1.873100 g / cm^3
# Si number density = 18.773734 Si / 1000 Ang^3
#
#
#
# Elastic Constant Matrix: (Units=GPa)
#
#
# Indices 1 2 3 4 5 6 
#
# 1 90.2984 26.7593 19.0874 0.0000 0.0000 0.0000
# 2 26.7593 78.6122 38.5275 0.0000 0.0000 0.0000
# 3 19.0874 38.5275 55.0344 0.0000 0.0000 0.0000
# 4 0.0000 0.0000 0.0000 -50.6556 0.0000 0.0000
# 5 0.0000 0.0000 0.0000 0.0000 6.8077 0.0000
# 6 0.0000 0.0000 0.0000 0.0000 0.0000 24.0789
#
#
#
# Elastic Compliance Matrix: (Units=1/GPa)
#
#
# Indices 1 2 3 4 5 6 
#
# 1 0.012468 -0.003235 -0.002060 0.000000 0.000000 0.000000
# 2 -0.003235 0.020204 -0.013022 0.000000 0.000000 0.000000
# 3 -0.002060 -0.013022 0.028001 0.000000 0.000000 0.000000
# 4 0.000000 0.000000 0.000000 -0.019741 0.000000 0.000000
# 5 0.000000 0.000000 0.000000 0.000000 0.146892 0.000000
# 6 0.000000 0.000000 0.000000 0.000000 0.000000 0.041530
#
#
# Mechanical properties :
#
#
# Convention : Reuss Voigt Hill
#
# Bulk Modulus (GPa) = 41.59717 43.63260 42.61489
# Shear Modulus (GPa) = 18.24811 5.35092 11.79951
#
# Velocity S-wave (km/s) = 3.12108 1.69009 2.50973
# Velocity P-wave (km/s) = 5.93240 5.20579 5.58093
#
# Compressibility (1/GPa) = 0.02404009
#
# Stress axis : x y z
#
# Youngs Moduli (GPa) = 80.20279 49.49566 35.71282
#
# Poissons Ratio (x) = 0.16010 0.07357
# Poissons Ratio (y) = 0.25943 0.46505
# Poissons Ratio (z) = 0.16521 0.64454
#
# Static dielectric constant tensor:
#      x y z
#    x 1.735410 0.000000 0.000000 
#    y 0.000000 1.676740 0.000000 
#    z 0.000000 0.000000 1.698280 
# 
# From -- ./inp_files/17054.got.cif
#   From: 2010.05.17/outbox.cif.g08.bks.cpg/sg56_9_cif.got.tgz:17054.got - 2010.06.03 13:42:01.
