data_PCOD9430282
_publ_section_title
;
Structure prediction by ZEFSAII (Michael W. Deem and Ramdas Pophale) SiO2 
 PCOD9430282
Probable space group: P C C N
;
_chemical_formula_sum "Si O2"
_cell_formula_units_Z 44
_cell_length_a 26.940842
_cell_length_b 5.085060
_cell_length_c 13.506008
_cell_angle_alpha 90.000000
_cell_angle_beta 90.000000
_cell_angle_gamma 90.000000
_cell_volume 1850.266344
_symmetry_space_group_name_H-M "P C C N"
_symmetry_group_IT_number 56
_symmetry_cell_setting 'orthorhombic'
loop_
_space_group_symop_operation_xyz
x,y,z
1/2-x,1/2-y,z
1/2+x,-y,1/2-z
-x,1/2+y,1/2-z
-x,-y,-z
1/2+x,1/2+y,-z
1/2-x,y,1/2+z
x,1/2-y,1/2+z
loop_
_atom_site_type_symbol
_atom_site_label
_atom_site_fract_x
_atom_site_fract_y
_atom_site_fract_z
Si Si1 0.394818 0.869557 0.550300
Si Si2 0.805450 0.642898 0.694488
Si Si3 0.002482 0.749807 0.072587
Si Si4 0.398755 0.367234 0.415359
Si Si5 0.750000 0.250000 0.573817
Si Si6 0.297221 0.890272 0.113888
O O1 0.442652 0.789434 0.617036
O O2 0.398613 0.662851 0.457710
O O3 0.342882 0.803925 0.600050
O O4 0.395847 0.165167 0.509086
O O5 0.750000 0.750000 0.683189
O O6 0.851211 0.798854 0.649666
O O7 0.795550 0.369920 0.635282
O O8 0.813679 0.611294 0.811279
O O9 0.951807 0.712881 0.133936
O O10 0.000000 0.500000 0.000000
O O11 0.000000 0.000000 0.000000
O O12 0.774931 0.046594 0.494286
O O13 0.250000 0.750000 0.164233
#
# Coordination Sequence:
#
# PCOD9430282 Si02
#       6
#     8   8   8   8   4   8
#     4  10  19  37  61  90 123 162 204 257 316 375
#     4  12  24  37  62  89 124 164 215 263 324 378
#     4   8  16  31  57  89 115 153 205 246 301 371
#     4  10  20  36  63  88 122 163 206 256 313 375
#     4  10  20  44  56  82 124 158 208 254 324 378
#     4  10  22  37  60  88 121 158 210 254 317 376
#
# _framework density 23.780360999999999
#
# number of rings (size 3 to 8) (size 9 to 14) (size 15 to 20)
#    0.545    1.455    2.727    1.091    0.000    3.636 
#    0.000    0.000    0.000   15.273    0.000    0.000 
#    0.000    0.000    0.000    0.000    0.000    0.000 
#
# Total GULP energy -245323.956089 kJ/mol
# GULP energy per Si atom -5575.544457 kJ/mol
# Density = 2.372624 g / cm^3
# Si number density = 23.780361 Si / 1000 Ang^3
#
#
#
# Elastic Constant Matrix: (Units=GPa)
#
#
# Indices 1 2 3 4 5 6 
#
# 1 143.1338 -6.9938 12.7642 0.0000 0.0000 0.0000
# 2 -6.9938 85.3199 7.2581 0.0000 0.0000 0.0000
# 3 12.7642 7.2581 52.2656 0.0000 0.0000 0.0000
# 4 0.0000 0.0000 0.0000 15.8922 0.0000 0.0000
# 5 0.0000 0.0000 0.0000 0.0000 -4.2283 0.0000
# 6 0.0000 0.0000 0.0000 0.0000 0.0000 32.0316
#
#
#
# Elastic Compliance Matrix: (Units=1/GPa)
#
#
# Indices 1 2 3 4 5 6 
#
# 1 0.007189 0.000747 -0.001859 0.000000 0.000000 0.000000
# 2 0.000747 0.011938 -0.001840 0.000000 0.000000 0.000000
# 3 -0.001859 -0.001840 0.019843 0.000000 0.000000 0.000000
# 4 0.000000 0.000000 0.000000 0.062924 0.000000 0.000000
# 5 0.000000 0.000000 0.000000 0.000000 -0.236501 0.000000
# 6 0.000000 0.000000 0.000000 0.000000 0.000000 0.031219
#
#
# Mechanical properties :
#
#
# Convention : Reuss Voigt Hill
#
# Bulk Modulus (GPa) = 30.24331 34.08625 32.16478
# Shear Modulus (GPa) = -57.82891 26.58517 -15.62187
#
# Velocity S-wave (km/s) = -4.93667 3.34720 -2.56583
# Velocity P-wave (km/s) = 4.44398 5.41324 2.18567
#
# Compressibility (1/GPa) = 0.03306516
#
# Stress axis : x y z
#
# Youngs Moduli (GPa) = 139.10506 83.76308 50.39632
#
# Poissons Ratio (x) = -0.06261 0.09371
# Poissons Ratio (y) = -0.10398 0.09275
# Poissons Ratio (z) = 0.25866 0.15416
#
# Static dielectric constant tensor:
#      x y z
#    x 2.016820 0.000000 0.000000 
#    y 0.000000 1.840780 0.000000 
#    z 0.000000 0.000000 1.884600 
# 
# From -- ./inp_files/13421.got.cif
#   From: 2010.05.17/outbox.cif.g08.bks.cpg/sg56_7_cif.got.tgz:13421.got - 2010.06.03 13:42:01.
