data_PCOD9430801
_publ_section_title
;
Structure prediction by ZEFSAII (Michael W. Deem and Ramdas Pophale) SiO2 
 PCOD9430801
Probable space group: P C C N
;
_chemical_formula_sum "Si O2"
_cell_formula_units_Z 64
_cell_length_a 9.544320
_cell_length_b 17.139660
_cell_length_c 20.011546
_cell_angle_alpha 90.000000
_cell_angle_beta 90.000000
_cell_angle_gamma 90.000000
_cell_volume 3273.616763
_symmetry_space_group_name_H-M "P C C N"
_symmetry_group_IT_number 56
_symmetry_cell_setting 'orthorhombic'
loop_
_space_group_symop_operation_xyz
x,y,z
1/2-x,1/2-y,z
1/2+x,-y,1/2-z
-x,1/2+y,1/2-z
-x,-y,-z
1/2+x,1/2+y,-z
1/2-x,y,1/2+z
x,1/2-y,1/2+z
loop_
_atom_site_type_symbol
_atom_site_label
_atom_site_fract_x
_atom_site_fract_y
_atom_site_fract_z
Si Si1 0.072210 0.179024 0.892504
Si Si2 0.950500 0.061136 0.059466
Si Si3 0.318597 0.462063 0.819377
Si Si4 0.711490 0.115077 0.448478
Si Si5 0.397473 0.031433 0.056787
Si Si6 0.491323 0.524999 0.696702
Si Si7 0.380555 0.694626 0.654929
Si Si8 0.798813 0.668982 0.460046
O O1 0.166621 0.125379 0.846652
O O2 0.140191 0.186896 0.965752
O O3 0.925753 0.132987 0.905062
O O4 0.021341 0.256280 0.855333
O O5 0.874540 0.015496 0.118833
O O6 0.836595 0.117763 0.024461
O O7 0.081798 0.116871 0.076145
O O8 0.000000 0.000000 0.000000
O O9 0.419368 0.481856 0.758141
O O10 0.158530 0.471967 0.797303
O O11 0.829522 0.171642 0.420090
O O12 0.768764 0.028706 0.438478
O O13 0.466070 0.023963 0.128929
O O14 0.336609 0.114107 0.035978
O O15 0.500000 0.000000 0.000000
O O16 0.418442 0.611526 0.689038
O O17 0.250000 0.750000 0.681403
O O18 0.750000 0.750000 0.428387
#
# Coordination Sequence:
#
# PCOD9430801 Si02
#       8
#     8   8   8   8   8   8   8   8
#     4  10  20  37  65  95 129 163 217 286 338 397
#     4  11  19  39  67  92 132 177 215 279 344 394
#     4  12  25  43  69  98 130 180 235 275 328 412
#     4   9  17  34  62  93 117 166 213 255 340 393
#     4  11  21  38  63  90 130 163 219 277 330 391
#     4  11  28  41  69 100 129 182 236 272 330 410
#     4   9  21  38  65  96 136 165 216 285 346 395
#     4  11  23  35  64 100 134 166 219 282 353 393
#
# _framework density 19.550242999999998
#
# number of rings (size 3 to 8) (size 9 to 14) (size 15 to 20)
#    0.000    1.500    3.750    1.500   12.250    0.000 
#    0.000    1.250    0.000    0.000    0.000    0.000 
#    0.000    0.000    0.000    0.000    0.000    0.000 
#
# Total GULP energy -356788.647740 kJ/mol
# GULP energy per Si atom -5574.822621 kJ/mol
# Density = 1.950575 g / cm^3
# Si number density = 19.550243 Si / 1000 Ang^3
#
#
#
# Elastic Constant Matrix: (Units=GPa)
#
#
# Indices 1 2 3 4 5 6 
#
# 1 98.1920 18.0905 20.0633 0.0000 0.0000 0.0000
# 2 18.0905 60.3979 -20.6405 0.0000 0.0000 0.0000
# 3 20.0633 -20.6405 51.9911 0.0000 0.0000 0.0000
# 4 0.0000 0.0000 0.0000 13.2819 0.0000 0.0000
# 5 0.0000 0.0000 0.0000 0.0000 21.6755 0.0000
# 6 0.0000 0.0000 0.0000 0.0000 0.0000 31.2643
#
#
#
# Elastic Compliance Matrix: (Units=1/GPa)
#
#
# Indices 1 2 3 4 5 6 
#
# 1 0.012912 -0.006445 -0.007541 0.000000 0.000000 0.000000
# 2 -0.006445 0.022372 0.011369 0.000000 0.000000 0.000000
# 3 -0.007541 0.011369 0.026658 0.000000 0.000000 0.000000
# 4 0.000000 0.000000 0.000000 0.075291 0.000000 0.000000
# 5 0.000000 0.000000 0.000000 0.000000 0.046135 0.000000
# 6 0.000000 0.000000 0.000000 0.000000 0.000000 0.031985
#
#
# Mechanical properties :
#
#
# Convention : Reuss Voigt Hill
#
# Bulk Modulus (GPa) = 17.63419 27.28972 22.46196
# Shear Modulus (GPa) = 20.87761 26.11552 23.49656
#
# Velocity S-wave (km/s) = 3.27141 3.65885 3.47054
# Velocity P-wave (km/s) = 4.82794 5.64257 5.25108
#
# Compressibility (1/GPa) = 0.05670800
#
# Stress axis : x y z
#
# Youngs Moduli (GPa) = 77.44490 44.69781 37.51252
#
# Poissons Ratio (x) = 0.28807 0.28290
# Poissons Ratio (y) = 0.49912 -0.42648
# Poissons Ratio (z) = 0.58405 -0.50817
#
# Static dielectric constant tensor:
#      x y z
#    x 1.748760 0.000000 0.000000 
#    y 0.000000 1.722660 0.000000 
#    z 0.000000 0.000000 1.670900 
# 
# From -- ./inp_files/18373.got.cif
#   From: 2010.05.17/outbox.cif.g08.bks.cpg/sg56_10_cif.got.tgz:18373.got - 2010.06.03 13:42:01.
