data_PCOD9430327
_publ_section_title
;
Structure prediction by ZEFSAII (Michael W. Deem and Ramdas Pophale) SiO2 
 PCOD9430327
Probable space group: P C C N
;
_chemical_formula_sum "Si O2"
_cell_formula_units_Z 60
_cell_length_a 13.145222
_cell_length_b 12.082949
_cell_length_c 18.652601
_cell_angle_alpha 90.000000
_cell_angle_beta 90.000000
_cell_angle_gamma 90.000000
_cell_volume 2962.649452
_symmetry_space_group_name_H-M "P C C N"
_symmetry_group_IT_number 56
_symmetry_cell_setting 'orthorhombic'
loop_
_space_group_symop_operation_xyz
x,y,z
1/2-x,1/2-y,z
1/2+x,-y,1/2-z
-x,1/2+y,1/2-z
-x,-y,-z
1/2+x,1/2+y,-z
1/2-x,y,1/2+z
x,1/2-y,1/2+z
loop_
_atom_site_type_symbol
_atom_site_label
_atom_site_fract_x
_atom_site_fract_y
_atom_site_fract_z
Si Si1 0.750000 0.750000 0.495619
Si Si2 0.096645 0.962561 0.936015
Si Si3 0.069564 0.224581 0.905064
Si Si4 0.182285 0.859924 0.799428
Si Si5 0.512047 0.726036 0.258097
Si Si6 0.605056 0.653433 0.880602
Si Si7 0.148200 0.941919 0.210130
Si Si8 0.849582 0.183560 0.937012
O O1 0.658683 0.715585 0.550026
O O2 0.807293 0.670511 0.439022
O O3 0.170040 0.913413 0.876311
O O4 0.993222 0.893526 0.922135
O O5 0.082800 0.092135 0.920162
O O6 0.135672 0.923082 0.012697
O O7 0.068388 0.240002 0.818640
O O8 0.956190 0.250572 0.934810
O O9 0.250000 0.750000 0.803794
O O10 0.247246 0.943060 0.752426
O O11 0.074691 0.821377 0.767109
O O12 0.577797 0.740030 0.330787
O O13 0.447484 0.611462 0.252543
O O14 0.627634 0.560357 0.822182
O O15 0.163556 0.858124 0.143869
O O16 0.750000 0.250000 0.959707
#
# Coordination Sequence:
#
# PCOD9430327 Si02
#       8
#     4   8   8   8   8   8   8   8
#     4  12  26  38  58  90 136 168 210 262 316 394
#     4  11  20  38  65  90 117 170 216 253 318 387
#     4  11  22  41  63  90 127 169 214 256 319 390
#     4   9  19  35  59  95 123 152 210 272 311 366
#     4   9  20  37  63  89 120 163 221 260 307 377
#     4  11  22  40  62  91 126 169 212 263 324 381
#     4  10  19  38  62  89 125 164 207 265 320 381
#     4  11  20  35  67  93 119 162 222 263 309 375
#
# _framework density 20.252141999999999
#
# number of rings (size 3 to 8) (size 9 to 14) (size 15 to 20)
#    0.000    1.600    4.000    3.600    0.000    2.667 
#    0.000    0.000    0.000    7.200    0.000    0.000 
#    0.000    0.000    0.000    0.000    0.000    0.000 
#
# Total GULP energy -334603.338135 kJ/mol
# GULP energy per Si atom -5576.722302 kJ/mol
# Density = 2.020605 g / cm^3
# Si number density = 20.252142 Si / 1000 Ang^3
#
#
#
# Elastic Constant Matrix: (Units=GPa)
#
#
# Indices 1 2 3 4 5 6 
#
# 1 91.8536 4.6873 33.4916 0.0000 0.0000 0.0000
# 2 4.6873 27.0568 10.1837 0.0000 0.0000 0.0000
# 3 33.4916 10.1837 93.5772 0.0000 0.0000 0.0000
# 4 0.0000 0.0000 0.0000 26.6479 0.0000 0.0000
# 5 0.0000 0.0000 0.0000 0.0000 50.3954 0.0000
# 6 0.0000 0.0000 0.0000 0.0000 0.0000 16.6383
#
#
#
# Elastic Compliance Matrix: (Units=1/GPa)
#
#
# Indices 1 2 3 4 5 6 
#
# 1 0.012527 -0.000503 -0.004429 0.000000 0.000000 0.000000
# 2 -0.000503 0.038558 -0.004016 0.000000 0.000000 0.000000
# 3 -0.004429 -0.004016 0.012709 0.000000 0.000000 0.000000
# 4 0.000000 0.000000 0.000000 0.037526 0.000000 0.000000
# 5 0.000000 0.000000 0.000000 0.000000 0.019843 0.000000
# 6 0.000000 0.000000 0.000000 0.000000 0.000000 0.060102
#
#
# Mechanical properties :
#
#
# Convention : Reuss Voigt Hill
#
# Bulk Modulus (GPa) = 21.78760 34.35698 28.07229
# Shear Modulus (GPa) = 23.31422 29.67798 26.49610
#
# Velocity S-wave (km/s) = 3.39661 3.83224 3.62098
# Velocity P-wave (km/s) = 5.11509 6.04838 5.60121
#
# Compressibility (1/GPa) = 0.04589766
#
# Stress axis : x y z
#
# Youngs Moduli (GPa) = 79.82493 25.93490 78.68741
#
# Poissons Ratio (x) = 0.01305 0.34849
# Poissons Ratio (y) = 0.04018 0.31601
# Poissons Ratio (z) = 0.35353 0.10416
#
# Static dielectric constant tensor:
#      x y z
#    x 1.783940 0.000000 0.000000 
#    y 0.000000 1.722190 0.000000 
#    z 0.000000 0.000000 1.736590 
# 
# From -- ./inp_files/15774.got.cif
#   From: 2010.05.17/outbox.cif.g08.bks.cpg/sg56_8_cif.got.tgz:15774.got - 2010.06.03 13:42:01.
