data_PCOD9430939
_publ_section_title
;
Structure prediction by ZEFSAII (Michael W. Deem and Ramdas Pophale) SiO2 
 PCOD9430939
Probable space group: P C C N
;
_chemical_formula_sum "Si O2"
_cell_formula_units_Z 56
_cell_length_a 13.405961
_cell_length_b 11.777273
_cell_length_c 14.443983
_cell_angle_alpha 90.000000
_cell_angle_beta 90.000000
_cell_angle_gamma 90.000000
_cell_volume 2280.497825
_symmetry_space_group_name_H-M "P C C N"
_symmetry_group_IT_number 56
_symmetry_cell_setting 'orthorhombic'
loop_
_space_group_symop_operation_xyz
x,y,z
1/2-x,1/2-y,z
1/2+x,-y,1/2-z
-x,1/2+y,1/2-z
-x,-y,-z
1/2+x,1/2+y,-z
1/2-x,y,1/2+z
x,1/2-y,1/2+z
loop_
_atom_site_type_symbol
_atom_site_label
_atom_site_fract_x
_atom_site_fract_y
_atom_site_fract_z
Si Si1 0.022597 0.778074 0.440030
Si Si2 0.429933 0.333217 0.740937
Si Si3 0.422026 0.931917 0.328328
Si Si4 0.213931 0.569288 0.903026
Si Si5 0.088345 0.731400 0.133773
Si Si6 0.240152 0.936623 0.108563
Si Si7 0.634848 0.594450 0.744133
O O1 0.027229 0.644996 0.410306
O O2 0.130946 0.835376 0.422782
O O3 0.010143 0.786311 0.550387
O O4 0.947392 0.843504 0.370063
O O5 0.402729 0.433851 0.810736
O O6 0.537332 0.284315 0.775908
O O7 0.356326 0.228534 0.754060
O O8 0.307802 0.889501 0.341583
O O9 0.516654 0.927591 0.258402
O O10 0.164097 0.467354 0.848764
O O11 0.249945 0.527153 0.002833
O O12 0.163389 0.831537 0.105002
O O13 0.155676 0.618709 0.144082
O O14 0.197129 0.032651 0.174993
#
# Coordination Sequence:
#
# PCOD9430939 Si02
#       7
#     8   8   8   8   8   8   8
#     4  10  21  40  66 106 137 172 242 293 353 412
#     4  11  24  42  64 104 143 185 230 288 360 432
#     4  11  22  39  70  95 143 181 224 302 347 421
#     4  11  22  42  69 101 138 182 237 293 356 415
#     4  10  20  38  67 106 136 176 233 300 357 406
#     4  10  21  38  68 106 136 175 236 299 350 420
#     4  11  25  42  62 107 140 183 239 281 363 429
#
# _framework density 24.556041
#
# number of rings (size 3 to 8) (size 9 to 14) (size 15 to 20)
#    0.000    1.429    4.286    0.429    4.000    4.000 
#    0.000    4.286    0.000    1.714    0.000    0.000 
#    0.000    0.000    0.000    0.000    0.000    0.000 
#
# Total GULP energy -312450.570086 kJ/mol
# GULP energy per Si atom -5579.474466 kJ/mol
# Density = 2.450015 g / cm^3
# Si number density = 24.556041 Si / 1000 Ang^3
#
#
#
# Elastic Constant Matrix: (Units=GPa)
#
#
# Indices 1 2 3 4 5 6 
#
# 1 77.7477 0.0850 7.7558 0.0000 0.0000 0.0000
# 2 0.0850 106.4714 21.3754 0.0000 0.0000 0.0000
# 3 7.7558 21.3754 120.6515 0.0000 0.0000 0.0000
# 4 0.0000 0.0000 0.0000 31.5808 0.0000 0.0000
# 5 0.0000 0.0000 0.0000 0.0000 32.0651 0.0000
# 6 0.0000 0.0000 0.0000 0.0000 0.0000 33.7897
#
#
#
# Elastic Compliance Matrix: (Units=1/GPa)
#
#
# Indices 1 2 3 4 5 6 
#
# 1 0.012948 0.000163 -0.000861 0.000000 0.000000 0.000000
# 2 0.000163 0.009741 -0.001736 0.000000 0.000000 0.000000
# 3 -0.000861 -0.001736 0.008651 0.000000 0.000000 0.000000
# 4 0.000000 0.000000 0.000000 0.031665 0.000000 0.000000
# 5 0.000000 0.000000 0.000000 0.000000 0.031187 0.000000
# 6 0.000000 0.000000 0.000000 0.000000 0.000000 0.029595
#
#
# Mechanical properties :
#
#
# Convention : Reuss Voigt Hill
#
# Bulk Modulus (GPa) = 37.77821 40.36698 39.07260
# Shear Modulus (GPa) = 36.36925 37.86409 37.11667
#
# Velocity S-wave (km/s) = 3.85264 3.93102 3.89203
# Velocity P-wave (km/s) = 5.93366 6.08920 6.01193
#
# Compressibility (1/GPa) = 0.02647028
#
# Stress axis : x y z
#
# Youngs Moduli (GPa) = 77.23294 102.66288 115.58986
#
# Poissons Ratio (x) = -0.01669 0.09954
# Poissons Ratio (y) = -0.01255 0.20068
# Poissons Ratio (z) = 0.06651 0.17824
#
# Static dielectric constant tensor:
#      x y z
#    x 1.979630 0.000000 0.000000 
#    y 0.000000 2.011080 0.000000 
#    z 0.000000 0.000000 2.070830 
# 
# From -- ./inp_files/12297.got.cif
#   From: 2010.05.17/outbox.cif.g08.bks.cpg/sg56_7_cif.got.tgz:12297.got - 2010.06.03 13:42:01.
