data_PCOD9430545
_publ_section_title
;
Structure prediction by ZEFSAII (Michael W. Deem and Ramdas Pophale) SiO2 
 PCOD9430545
Probable space group: P C C N
;
_chemical_formula_sum "Si O2"
_cell_formula_units_Z 56
_cell_length_a 21.261224
_cell_length_b 15.282170
_cell_length_c 9.220481
_cell_angle_alpha 90.000000
_cell_angle_beta 90.000000
_cell_angle_gamma 90.000000
_cell_volume 2995.896922
_symmetry_space_group_name_H-M "P C C N"
_symmetry_group_IT_number 56
_symmetry_cell_setting 'orthorhombic'
loop_
_space_group_symop_operation_xyz
x,y,z
1/2-x,1/2-y,z
1/2+x,-y,1/2-z
-x,1/2+y,1/2-z
-x,-y,-z
1/2+x,1/2+y,-z
1/2-x,y,1/2+z
x,1/2-y,1/2+z
loop_
_atom_site_type_symbol
_atom_site_label
_atom_site_fract_x
_atom_site_fract_y
_atom_site_fract_z
Si Si1 0.761334 0.531094 0.096399
Si Si2 0.119681 0.195838 0.669864
Si Si3 0.963592 0.577015 0.420267
Si Si4 0.322236 0.377690 0.128030
Si Si5 0.531190 0.754647 0.071595
Si Si6 0.662882 0.498342 0.318423
Si Si7 0.025345 0.930680 0.618214
O O1 0.802058 0.571236 0.227057
O O2 0.707856 0.476049 0.182520
O O3 0.727417 0.605807 0.999600
O O4 0.802344 0.483294 0.972827
O O5 0.167123 0.276980 0.669047
O O6 0.088150 0.196974 0.511938
O O7 0.062867 0.218827 0.780884
O O8 0.150236 0.102788 0.698426
O O9 0.888413 0.584879 0.433224
O O10 0.988264 0.669438 0.481360
O O11 0.000000 0.500000 0.500000
O O12 0.977760 0.565615 0.252218
O O13 0.478230 0.828564 0.075707
O O14 0.594516 0.455704 0.327109
O O15 0.000000 0.000000 0.500000
#
# Coordination Sequence:
#
# PCOD9430545 Si02
#       7
#     8   8   8   8   8   8   8
#     4  10  22  36  51  82 118 160 208 238 282 367
#     4  11  20  35  56  83 126 156 195 252 289 369
#     4  11  23  38  61  90 120 154 198 256 319 367
#     4  10  20  35  52  79 117 160 192 240 293 349
#     4  11  21  37  55  89 126 152 192 251 307 364
#     4  11  22  36  58  83 118 160 201 244 301 355
#     4  12  22  38  62  88 117 162 200 248 309 366
#
# _framework density 18.692232000000001
#
# number of rings (size 3 to 8) (size 9 to 14) (size 15 to 20)
#    0.000    1.143    4.286    5.143    0.000    3.429 
#    0.000    0.000    0.000    0.000    0.000   17.000 
#    0.000    0.000    0.000    0.000    0.000    0.000 
#
# Total GULP energy -312540.279726 kJ/mol
# GULP energy per Si atom -5581.076424 kJ/mol
# Density = 1.864969 g / cm^3
# Si number density = 18.692232 Si / 1000 Ang^3
#
#
#
# Elastic Constant Matrix: (Units=GPa)
#
#
# Indices 1 2 3 4 5 6 
#
# 1 65.7282 22.5906 4.3560 0.0000 0.0000 0.0000
# 2 22.5906 61.7128 22.2290 0.0000 0.0000 0.0000
# 3 4.3560 22.2290 78.2407 0.0000 0.0000 0.0000
# 4 0.0000 0.0000 0.0000 20.4190 0.0000 0.0000
# 5 0.0000 0.0000 0.0000 0.0000 40.5917 0.0000
# 6 0.0000 0.0000 0.0000 0.0000 0.0000 25.8677
#
#
#
# Elastic Compliance Matrix: (Units=1/GPa)
#
#
# Indices 1 2 3 4 5 6 
#
# 1 0.017466 -0.006732 0.000940 0.000000 0.000000 0.000000
# 2 -0.006732 0.020646 -0.005491 0.000000 0.000000 0.000000
# 3 0.000940 -0.005491 0.014289 0.000000 0.000000 0.000000
# 4 0.000000 0.000000 0.000000 0.048974 0.000000 0.000000
# 5 0.000000 0.000000 0.000000 0.000000 0.024636 0.000000
# 6 0.000000 0.000000 0.000000 0.000000 0.000000 0.038658
#
#
# Mechanical properties :
#
#
# Convention : Reuss Voigt Hill
#
# Bulk Modulus (GPa) = 33.51772 33.78144 33.64958
# Shear Modulus (GPa) = 25.35759 27.80940 26.58349
#
# Velocity S-wave (km/s) = 3.68718 3.86132 3.77526
# Velocity P-wave (km/s) = 6.00811 6.16372 6.08641
#
# Compressibility (1/GPa) = 0.02983497
#
# Stress axis : x y z
#
# Youngs Moduli (GPa) = 57.25507 48.43469 69.98493
#
# Poissons Ratio (x) = 0.32607 -0.06581
# Poissons Ratio (y) = 0.38545 0.38429
# Poissons Ratio (z) = -0.05384 0.26596
#
# Static dielectric constant tensor:
#      x y z
#    x 1.670690 0.000000 0.000000 
#    y 0.000000 1.654430 0.000000 
#    z 0.000000 0.000000 1.711000 
# 
# From -- ./inp_files/4494.got.cif
#   From: 2010.05.17/outbox.cif.g08.bks.cpg/sg56_3_cif.got.tgz:4494.got - 2010.06.03 13:42:01.
