data_PCOD9430967
_publ_section_title
;
Structure prediction by ZEFSAII (Michael W. Deem and Ramdas Pophale) SiO2 
 PCOD9430967
Probable space group: P C C N
;
_chemical_formula_sum "Si O2"
_cell_formula_units_Z 64
_cell_length_a 12.889312
_cell_length_b 26.472014
_cell_length_c 8.307784
_cell_angle_alpha 90.000000
_cell_angle_beta 90.000000
_cell_angle_gamma 90.000000
_cell_volume 2834.666144
_symmetry_space_group_name_H-M "P C C N"
_symmetry_group_IT_number 56
_symmetry_cell_setting 'orthorhombic'
loop_
_space_group_symop_operation_xyz
x,y,z
1/2-x,1/2-y,z
1/2+x,-y,1/2-z
-x,1/2+y,1/2-z
-x,-y,-z
1/2+x,1/2+y,-z
1/2-x,y,1/2+z
x,1/2-y,1/2+z
loop_
_atom_site_type_symbol
_atom_site_label
_atom_site_fract_x
_atom_site_fract_y
_atom_site_fract_z
Si Si1 0.000237 0.289996 0.767007
Si Si2 0.947769 0.923997 0.051395
Si Si3 0.379209 0.526804 0.819468
Si Si4 0.837566 0.792947 0.195032
Si Si5 0.674787 0.651142 0.865271
Si Si6 0.864434 0.266376 0.477846
Si Si7 0.298518 0.921299 0.012384
Si Si8 0.877269 0.137630 0.784636
O O1 0.921629 0.296603 0.619353
O O2 0.932841 0.281544 0.925321
O O3 0.061962 0.236798 0.748031
O O4 0.086807 0.333507 0.764915
O O5 0.853895 0.901300 0.946837
O O6 0.011451 0.881295 0.148683
O O7 0.907313 0.968024 0.167079
O O8 0.031293 0.946118 0.924562
O O9 0.369195 0.549853 0.641837
O O10 0.269724 0.539434 0.906754
O O11 0.750000 0.750000 0.205247
O O12 0.844452 0.809271 0.010476
O O13 0.788616 0.838934 0.295938
O O14 0.750000 0.250000 0.521320
O O15 0.861474 0.303611 0.323337
O O16 0.213309 0.889015 0.110032
O O17 0.359177 0.884247 0.892464
#
# Coordination Sequence:
#
# PCOD9430967 Si02
#       8
#     8   8   8   8   8   8   8   8
#     4  11  22  41  58  84 123 159 200 250 299 353
#     4  10  20  39  60  87 124 151 195 255 309 367
#     4   9  20  38  62  88 117 158 194 250 316 367
#     4  10  21  38  62  84 116 161 204 246 300 356
#     4  11  22  39  61  87 116 158 203 246 300 359
#     4  12  26  38  59  90 123 165 207 252 299 359
#     4   9  20  38  62  85 114 159 203 244 305 378
#     4  10  21  39  58  83 121 157 200 249 302 360
#
# _framework density 22.577615999999999
#
# number of rings (size 3 to 8) (size 9 to 14) (size 15 to 20)
#    0.000    1.750    2.500    1.500    5.250    2.500 
#    0.000    1.250    0.000    0.000    0.000    0.000 
#    0.000    0.000    0.000    0.000    0.000    0.000 
#
# Total GULP energy -357758.084727 kJ/mol
# GULP energy per Si atom -5589.970074 kJ/mol
# Density = 2.252623 g / cm^3
# Si number density = 22.577616 Si / 1000 Ang^3
#
#
#
# Elastic Constant Matrix: (Units=GPa)
#
#
# Indices 1 2 3 4 5 6 
#
# 1 84.9144 8.9200 2.3652 0.0000 0.0000 0.0000
# 2 8.9200 50.1808 -4.4141 0.0000 0.0000 0.0000
# 3 2.3652 -4.4141 53.6685 0.0000 0.0000 0.0000
# 4 0.0000 0.0000 0.0000 26.0774 0.0000 0.0000
# 5 0.0000 0.0000 0.0000 0.0000 22.5046 0.0000
# 6 0.0000 0.0000 0.0000 0.0000 0.0000 25.2196
#
#
#
# Elastic Compliance Matrix: (Units=1/GPa)
#
#
# Indices 1 2 3 4 5 6 
#
# 1 0.012028 -0.002201 -0.000711 0.000000 0.000000 0.000000
# 2 -0.002201 0.020476 0.001781 0.000000 0.000000 0.000000
# 3 -0.000711 0.001781 0.018811 0.000000 0.000000 0.000000
# 4 0.000000 0.000000 0.000000 0.038347 0.000000 0.000000
# 5 0.000000 0.000000 0.000000 0.000000 0.044435 0.000000
# 6 0.000000 0.000000 0.000000 0.000000 0.000000 0.039652
#
#
# Mechanical properties :
#
#
# Convention : Reuss Voigt Hill
#
# Bulk Modulus (GPa) = 20.38612 22.50065 21.44339
# Shear Modulus (GPa) = 25.99287 26.88650 26.43968
#
# Velocity S-wave (km/s) = 3.39671 3.45461 3.42578
# Velocity P-wave (km/s) = 4.94292 5.08920 5.01660
#
# Compressibility (1/GPa) = 0.04905298
#
# Stress axis : x y z
#
# Youngs Moduli (GPa) = 83.14262 48.83826 53.16116
#
# Poissons Ratio (x) = 0.10747 0.03780
# Poissons Ratio (y) = 0.18296 -0.09468
# Poissons Ratio (z) = 0.05912 -0.08698
#
# Static dielectric constant tensor:
#      x y z
#    x 1.845360 0.000000 0.000000 
#    y 0.000000 1.855630 0.000000 
#    z 0.000000 0.000000 1.855880 
# 
# From -- ./inp_files/2961.got.cif
#   From: 2010.05.17/outbox.cif.g08.bks.cpg/sg56_2_cif.got.tgz:2961.got - 2010.06.03 13:42:01.
