data_PCOD9430842
_publ_section_title
;
Structure prediction by ZEFSAII (Michael W. Deem and Ramdas Pophale) SiO2 
 PCOD9430842
Probable space group: P C C N
;
_chemical_formula_sum "Si O2"
_cell_formula_units_Z 64
_cell_length_a 28.297028
_cell_length_b 5.861388
_cell_length_c 18.738729
_cell_angle_alpha 90.000000
_cell_angle_beta 90.000000
_cell_angle_gamma 90.000000
_cell_volume 3108.002975
_symmetry_space_group_name_H-M "P C C N"
_symmetry_group_IT_number 56
_symmetry_cell_setting 'orthorhombic'
loop_
_space_group_symop_operation_xyz
x,y,z
1/2-x,1/2-y,z
1/2+x,-y,1/2-z
-x,1/2+y,1/2-z
-x,-y,-z
1/2+x,1/2+y,-z
1/2-x,y,1/2+z
x,1/2-y,1/2+z
loop_
_atom_site_type_symbol
_atom_site_label
_atom_site_fract_x
_atom_site_fract_y
_atom_site_fract_z
Si Si1 0.135096 0.456877 0.110628
Si Si2 0.852767 0.872507 0.770391
Si Si3 0.194759 0.726580 0.999519
Si Si4 0.107993 0.032952 0.836594
Si Si5 0.492342 0.942970 0.286577
Si Si6 0.305037 0.680390 0.340334
Si Si7 0.616481 0.925777 0.501678
Si Si8 0.423784 0.646802 0.128399
O O1 0.161243 0.326684 0.174607
O O2 0.088638 0.587805 0.139602
O O3 0.171539 0.616200 0.068888
O O4 0.117418 0.290310 0.048770
O O5 0.885465 0.755299 0.711282
O O6 0.814330 0.002980 0.723363
O O7 0.883328 0.034046 0.821733
O O8 0.250000 0.750000 0.008577
O O9 0.185869 0.601220 0.922941
O O10 0.169180 0.970431 0.992775
O O11 0.061419 0.904419 0.810977
O O12 0.100073 0.102870 0.918340
O O13 0.155615 0.879867 0.829751
O O14 0.492793 0.188108 0.241856
O O15 0.528295 0.026139 0.348370
O O16 0.250000 0.750000 0.338633
O O17 0.585989 0.103844 0.455184
#
# Coordination Sequence:
#
# PCOD9430842 Si02
#       8
#     8   8   8   8   8   8   8   8
#     4  10  20  38  60  85 123 165 209 269 328 398
#     4  11  20  38  61  87 126 166 210 266 330 393
#     4   9  19  38  60  86 122 166 215 269 330 401
#     4  11  23  41  66  94 125 169 222 271 333 407
#     4  12  25  43  70 103 135 181 228 279 340 414
#     4  10  22  40  63  92 129 168 216 275 333 396
#     4   9  21  39  62  89 121 165 217 271 333 392
#     4  10  22  41  61  90 131 169 213 272 334 393
#
# _framework density 20.592002000000001
#
# number of rings (size 3 to 8) (size 9 to 14) (size 15 to 20)
#    0.000    1.750    1.250    3.000    1.750    1.500 
#    0.000   19.375    0.000    0.000    0.000    0.000 
#    0.000    0.000    0.000    0.000    0.000    0.000 
#
# Total GULP energy -356507.469475 kJ/mol
# GULP energy per Si atom -5570.429211 kJ/mol
# Density = 2.054513 g / cm^3
# Si number density = 20.592002 Si / 1000 Ang^3
#
#
#
# Elastic Constant Matrix: (Units=GPa)
#
#
# Indices 1 2 3 4 5 6 
#
# 1 78.8948 4.9831 19.6113 0.0000 0.0000 0.0000
# 2 4.9831 61.8867 37.2563 0.0000 0.0000 0.0000
# 3 19.6113 37.2563 139.5079 0.0000 0.0000 0.0000
# 4 0.0000 0.0000 0.0000 23.9139 0.0000 0.0000
# 5 0.0000 0.0000 0.0000 0.0000 26.2927 0.0000
# 6 0.0000 0.0000 0.0000 0.0000 0.0000 14.4391
#
#
#
# Elastic Compliance Matrix: (Units=1/GPa)
#
#
# Indices 1 2 3 4 5 6 
#
# 1 0.013134 0.000064 -0.001864 0.000000 0.000000 0.000000
# 2 0.000064 0.019254 -0.005151 0.000000 0.000000 0.000000
# 3 -0.001864 -0.005151 0.008806 0.000000 0.000000 0.000000
# 4 0.000000 0.000000 0.000000 0.041817 0.000000 0.000000
# 5 0.000000 0.000000 0.000000 0.000000 0.038033 0.000000
# 6 0.000000 0.000000 0.000000 0.000000 0.000000 0.069256
#
#
# Mechanical properties :
#
#
# Convention : Reuss Voigt Hill
#
# Bulk Modulus (GPa) = 36.63843 44.88786 40.76314
# Shear Modulus (GPa) = 23.44129 27.49174 25.46652
#
# Velocity S-wave (km/s) = 3.37763 3.65782 3.52052
# Velocity P-wave (km/s) = 5.74825 6.29965 6.03026
#
# Compressibility (1/GPa) = 0.02729375
#
# Stress axis : x y z
#
# Youngs Moduli (GPa) = 76.13675 51.93638 113.56391
#
# Poissons Ratio (x) = -0.00334 0.21163
# Poissons Ratio (y) = -0.00489 0.58497
# Poissons Ratio (z) = 0.14188 0.26752
#
# Static dielectric constant tensor:
#      x y z
#    x 1.725720 0.000000 0.000000 
#    y 0.000000 1.829810 0.000000 
#    z 0.000000 0.000000 1.756630 
# 
# From -- ./inp_files/17135.got.cif
#   From: 2010.05.17/outbox.cif.g08.bks.cpg/sg56_9_cif.got.tgz:17135.got - 2010.06.03 13:42:01.
