data_PCOD9430395
_publ_section_title
;
Structure prediction by ZEFSAII (Michael W. Deem and Ramdas Pophale) SiO2 
 PCOD9430395
Probable space group: P C C N
;
_chemical_formula_sum "Si O2"
_cell_formula_units_Z 56
_cell_length_a 11.606144
_cell_length_b 13.488405
_cell_length_c 16.527372
_cell_angle_alpha 90.000000
_cell_angle_beta 90.000000
_cell_angle_gamma 90.000000
_cell_volume 2587.333160
_symmetry_space_group_name_H-M "P C C N"
_symmetry_group_IT_number 56
_symmetry_cell_setting 'orthorhombic'
loop_
_space_group_symop_operation_xyz
x,y,z
1/2-x,1/2-y,z
1/2+x,-y,1/2-z
-x,1/2+y,1/2-z
-x,-y,-z
1/2+x,1/2+y,-z
1/2-x,y,1/2+z
x,1/2-y,1/2+z
loop_
_atom_site_type_symbol
_atom_site_label
_atom_site_fract_x
_atom_site_fract_y
_atom_site_fract_z
Si Si1 0.281097 0.416485 0.323287
Si Si2 0.373278 0.213769 0.515876
Si Si3 0.403528 0.499506 0.067182
Si Si4 0.686691 0.466602 0.511467
Si Si5 0.523312 0.605765 0.405763
Si Si6 0.423203 0.926700 0.737656
Si Si7 0.936592 0.725956 0.664126
O O1 0.274873 0.463517 0.413374
O O2 0.308822 0.511140 0.265375
O O3 0.166164 0.351175 0.310408
O O4 0.386934 0.336451 0.319401
O O5 0.250000 0.250000 0.484769
O O6 0.419772 0.288495 0.582970
O O7 0.448799 0.214264 0.433677
O O8 0.355090 0.110889 0.560418
O O9 0.454425 0.520196 0.154216
O O10 0.500000 0.500000 0.000000
O O11 0.297049 0.567612 0.039073
O O12 0.603732 0.529979 0.453764
O O13 0.602217 0.387592 0.552111
O O14 0.501566 0.565272 0.316799
O O15 0.448136 0.811740 0.710335
#
# Coordination Sequence:
#
# PCOD9430395 Si02
#       7
#     8   8   8   8   8   8   8
#     4  10  20  39  64  94 129 169 226 280 323 385
#     4  12  20  40  70 100 122 167 236 278 324 400
#     4  12  23  41  64  97 135 178 223 271 339 408
#     4  10  19  40  66  91 130 176 217 275 341 398
#     4  10  22  39  63 100 129 168 224 280 337 395
#     4  11  26  36  57 101 140 167 209 281 342 391
#     4  11  19  39  64  91 127 173 218 277 327 383
#
# _framework density 21.643908
#
# number of rings (size 3 to 8) (size 9 to 14) (size 15 to 20)
#    0.000    1.143    7.143    0.000    4.000    0.000 
#    0.000    0.714    0.000    2.571    3.714    0.000 
#    0.000    0.000    0.000    0.000    0.000    0.000 
#
# Total GULP energy -312028.298636 kJ/mol
# GULP energy per Si atom -5571.933904 kJ/mol
# Density = 2.159465 g / cm^3
# Si number density = 21.643908 Si / 1000 Ang^3
#
#
#
# Elastic Constant Matrix: (Units=GPa)
#
#
# Indices 1 2 3 4 5 6 
#
# 1 66.6346 13.7670 28.3952 0.0000 0.0000 0.0000
# 2 13.7670 40.2094 13.1809 0.0000 0.0000 0.0000
# 3 28.3952 13.1809 110.8017 0.0000 0.0000 0.0000
# 4 0.0000 0.0000 0.0000 25.5255 0.0000 0.0000
# 5 0.0000 0.0000 0.0000 0.0000 29.8897 0.0000
# 6 0.0000 0.0000 0.0000 0.0000 0.0000 34.6677
#
#
#
# Elastic Compliance Matrix: (Units=1/GPa)
#
#
# Indices 1 2 3 4 5 6 
#
# 1 0.017679 -0.004753 -0.003965 0.000000 0.000000 0.000000
# 2 -0.004753 0.027157 -0.002012 0.000000 0.000000 0.000000
# 3 -0.003965 -0.002012 0.010281 0.000000 0.000000 0.000000
# 4 0.000000 0.000000 0.000000 0.039176 0.000000 0.000000
# 5 0.000000 0.000000 0.000000 0.000000 0.033456 0.000000
# 6 0.000000 0.000000 0.000000 0.000000 0.000000 0.028845
#
#
# Mechanical properties :
#
#
# Convention : Reuss Voigt Hill
#
# Bulk Modulus (GPa) = 29.71332 36.48132 33.09732
# Shear Modulus (GPa) = 26.41666 28.83675 27.62670
#
# Velocity S-wave (km/s) = 3.49737 3.65406 3.57658
# Velocity P-wave (km/s) = 5.48333 5.89022 5.69041
#
# Compressibility (1/GPa) = 0.03365494
#
# Stress axis : x y z
#
# Youngs Moduli (GPa) = 56.56454 36.82308 97.26977
#
# Poissons Ratio (x) = 0.17503 0.38569
# Poissons Ratio (y) = 0.26886 0.19575
# Poissons Ratio (z) = 0.22429 0.07411
#
# Static dielectric constant tensor:
#      x y z
#    x 1.881860 0.000000 0.000000 
#    y 0.000000 1.851850 0.000000 
#    z 0.000000 0.000000 1.786600 
# 
# From -- ./inp_files/11679.got.cif
#   From: 2010.05.17/outbox.cif.g08.bks.cpg/sg56_6_cif.got.tgz:11679.got - 2010.06.03 13:42:01.
