data_PCOD9430151
_publ_section_title
;
Structure prediction by ZEFSAII (Michael W. Deem and Ramdas Pophale) SiO2 
 PCOD9430151
Probable space group: P C C N
;
_chemical_formula_sum "Si O2"
_cell_formula_units_Z 64
_cell_length_a 23.946509
_cell_length_b 5.147163
_cell_length_c 24.701092
_cell_angle_alpha 90.000000
_cell_angle_beta 90.000000
_cell_angle_gamma 90.000000
_cell_volume 3044.572248
_symmetry_space_group_name_H-M "P C C N"
_symmetry_group_IT_number 56
_symmetry_cell_setting 'orthorhombic'
loop_
_space_group_symop_operation_xyz
x,y,z
1/2-x,1/2-y,z
1/2+x,-y,1/2-z
-x,1/2+y,1/2-z
-x,-y,-z
1/2+x,1/2+y,-z
1/2-x,y,1/2+z
x,1/2-y,1/2+z
loop_
_atom_site_type_symbol
_atom_site_label
_atom_site_fract_x
_atom_site_fract_y
_atom_site_fract_z
Si Si1 0.508106 0.721248 0.328884
Si Si2 0.789446 0.496584 0.857085
Si Si3 0.138122 0.134380 0.420868
Si Si4 0.580410 0.579894 0.731477
Si Si5 0.686612 0.653066 0.245212
Si Si6 0.789899 0.498468 0.977542
Si Si7 0.686918 0.146343 0.635062
Si Si8 0.471827 0.280262 0.872884
O O1 0.453868 0.668087 0.289824
O O2 0.554027 0.823905 0.287593
O O3 0.515774 0.446319 0.358892
O O4 0.496960 0.936406 0.374139
O O5 0.750000 0.250000 0.848333
O O6 0.826342 0.529734 0.803735
O O7 0.750000 0.750000 0.859545
O O8 0.814760 0.470497 0.916939
O O9 0.064796 0.277219 0.317254
O O10 0.163274 0.039710 0.477428
O O11 0.171789 0.390538 0.400549
O O12 0.072767 0.206057 0.418407
O O13 0.646122 0.602019 0.737279
O O14 0.647904 0.388486 0.618972
O O15 0.750000 0.750000 0.244202
O O16 0.680863 0.452564 0.196230
O O17 0.750000 0.750000 0.979039
O O18 0.750000 0.250000 0.987937
O O19 0.750000 0.250000 0.625997
#
# Coordination Sequence:
#
# PCOD9430151 Si02
#       8
#     8   8   8   8   8   8   8   8
#     4  10  19  35  53  75 102 148 184 224 258 315
#     4   9  20  40  55  72 102 145 196 229 257 311
#     4  12  22  33  51  79 107 141 176 222 276 318
#     4  10  20  36  55  76 110 144 191 220 260 330
#     4  11  23  38  54  83 115 153 174 222 282 332
#     4  10  20  36  56  73 101 144 194 229 255 313
#     4  12  23  33  46  74 115 146 172 205 267 341
#     4  10  20  33  50  76 107 132 179 222 269 313
#
# _framework density 21.021015999999999
#
# number of rings (size 3 to 8) (size 9 to 14) (size 15 to 20)
#    0.750    0.750    2.500    4.125    0.000    1.000 
#    4.500    0.000    0.000    0.000    0.000    1.750 
#    0.000    0.000    0.000    0.750    0.000    0.125 
#
# Total GULP energy -357064.609527 kJ/mol
# GULP energy per Si atom -5579.134524 kJ/mol
# Density = 2.097317 g / cm^3
# Si number density = 21.021016 Si / 1000 Ang^3
#
#
#
# Elastic Constant Matrix: (Units=GPa)
#
#
# Indices 1 2 3 4 5 6 
#
# 1 25.6338 14.5705 -16.0168 0.0000 0.0000 0.0000
# 2 14.5705 132.1501 14.1339 0.0000 0.0000 0.0000
# 3 -16.0168 14.1339 93.2573 0.0000 0.0000 0.0000
# 4 0.0000 0.0000 0.0000 14.9928 0.0000 0.0000
# 5 0.0000 0.0000 0.0000 0.0000 -20.9696 0.0000
# 6 0.0000 0.0000 0.0000 0.0000 0.0000 11.6041
#
#
#
# Elastic Compliance Matrix: (Units=1/GPa)
#
#
# Indices 1 2 3 4 5 6 
#
# 1 0.048401 -0.006328 0.009272 0.000000 0.000000 0.000000
# 2 -0.006328 0.008519 -0.002378 0.000000 0.000000 0.000000
# 3 0.009272 -0.002378 0.012676 0.000000 0.000000 0.000000
# 4 0.000000 0.000000 0.000000 0.066699 0.000000 0.000000
# 5 0.000000 0.000000 0.000000 0.000000 -0.047688 0.000000
# 6 0.000000 0.000000 0.000000 0.000000 0.000000 0.086176
#
#
# Mechanical properties :
#
#
# Convention : Reuss Voigt Hill
#
# Bulk Modulus (GPa) = 14.13870 30.71293 22.42582
# Shear Modulus (GPa) = 25.35135 17.01570 21.18353
#
# Velocity S-wave (km/s) = 3.47652 2.84819 3.17792
# Velocity P-wave (km/s) = 4.78074 5.04565 4.91498
#
# Compressibility (1/GPa) = 0.07072787
#
# Stress axis : x y z
#
# Youngs Moduli (GPa) = 20.66054 117.38155 78.89008
#
# Poissons Ratio (x) = 0.74282 -0.73147
# Poissons Ratio (y) = 0.13075 0.18760
# Poissons Ratio (z) = -0.19156 0.27914
#
# Static dielectric constant tensor:
#      x y z
#    x 1.800400 0.000000 0.000000 
#    y 0.000000 1.788160 0.000000 
#    z 0.000000 0.000000 1.785870 
# 
# From -- ./inp_files/21398.got.cif
#   From: 2010.05.17/outbox.cif.g08.bks.cpg/sg56_11_cif.got.tgz:21398.got - 2010.06.03 13:42:01.
