data_PCOD9430292
_publ_section_title
;
Structure prediction by ZEFSAII (Michael W. Deem and Ramdas Pophale) SiO2 
 PCOD9430292
Probable space group: P C C N
;
_chemical_formula_sum "Si O2"
_cell_formula_units_Z 48
_cell_length_a 8.754014
_cell_length_b 18.991569
_cell_length_c 15.395885
_cell_angle_alpha 90.000000
_cell_angle_beta 90.000000
_cell_angle_gamma 90.000000
_cell_volume 2559.603769
_symmetry_space_group_name_H-M "P C C N"
_symmetry_group_IT_number 56
_symmetry_cell_setting 'orthorhombic'
loop_
_space_group_symop_operation_xyz
x,y,z
1/2-x,1/2-y,z
1/2+x,-y,1/2-z
-x,1/2+y,1/2-z
-x,-y,-z
1/2+x,1/2+y,-z
1/2-x,y,1/2+z
x,1/2-y,1/2+z
loop_
_atom_site_type_symbol
_atom_site_label
_atom_site_fract_x
_atom_site_fract_y
_atom_site_fract_z
Si Si1 0.815251 0.171975 0.461567
Si Si2 0.397027 0.648567 0.201219
Si Si3 0.417991 0.404576 0.220820
Si Si4 0.787148 0.399726 0.632862
Si Si5 0.589990 0.717551 0.643672
Si Si6 0.368256 0.475124 0.764594
O O1 0.750000 0.250000 0.482848
O O2 0.721343 0.144400 0.378142
O O3 0.783685 0.122093 0.542512
O O4 0.989366 0.183214 0.432332
O O5 0.302090 0.640999 0.290202
O O6 0.485483 0.721671 0.187114
O O7 0.520850 0.585998 0.202320
O O8 0.531134 0.382584 0.142809
O O9 0.380177 0.340407 0.282876
O O10 0.525751 0.461788 0.270229
O O11 0.259900 0.444091 0.201376
O O12 0.783526 0.482747 0.657293
O O13 0.750000 0.750000 0.614085
#
# Coordination Sequence:
#
# PCOD9430292 Si02
#       6
#     8   8   8   8   8   8
#     4  10  23  38  58  90 122 161 211 253 301 377
#     4  11  21  39  62  88 121 164 205 256 310 367
#     4  10  20  37  63  88 120 160 200 253 307 371
#     4  10  21  37  63  86 120 160 202 255 306 366
#     4  11  22  38  63  86 124 166 204 254 311 362
#     4  10  19  37  63  90 120 157 210 254 305 374
#
# _framework density 18.752903
#
# number of rings (size 3 to 8) (size 9 to 14) (size 15 to 20)
#    1.000    0.667    5.000    0.000    2.333    0.667 
#    0.000    5.000    0.000    0.000    0.000    0.000 
#    0.000    0.000    0.000    0.000    0.000    0.000 
#
# Total GULP energy -267270.119290 kJ/mol
# GULP energy per Si atom -5568.127485 kJ/mol
# Density = 1.871022 g / cm^3
# Si number density = 18.752903 Si / 1000 Ang^3
#
#
#
# Elastic Constant Matrix: (Units=GPa)
#
#
# Indices 1 2 3 4 5 6 
#
# 1 123.7066 29.4400 31.3971 0.0000 0.0000 0.0000
# 2 29.4400 51.1820 19.3795 0.0000 0.0000 0.0000
# 3 31.3971 19.3795 58.3034 0.0000 0.0000 0.0000
# 4 0.0000 0.0000 0.0000 7.6082 0.0000 0.0000
# 5 0.0000 0.0000 0.0000 0.0000 5.0724 0.0000
# 6 0.0000 0.0000 0.0000 0.0000 0.0000 39.2529
#
#
#
# Elastic Compliance Matrix: (Units=1/GPa)
#
#
# Indices 1 2 3 4 5 6 
#
# 1 0.010129 -0.004302 -0.004025 0.000000 0.000000 0.000000
# 2 -0.004302 0.024179 -0.005720 0.000000 0.000000 0.000000
# 3 -0.004025 -0.005720 0.021220 0.000000 0.000000 0.000000
# 4 0.000000 0.000000 0.000000 0.131438 0.000000 0.000000
# 5 0.000000 0.000000 0.000000 0.000000 0.197145 0.000000
# 6 0.000000 0.000000 0.000000 0.000000 0.000000 0.025476
#
#
# Mechanical properties :
#
#
# Convention : Reuss Voigt Hill
#
# Bulk Modulus (GPa) = 36.45081 43.73613 40.09347
# Shear Modulus (GPa) = 11.19007 20.58504 15.88756
#
# Velocity S-wave (km/s) = 2.44542 3.31675 2.91384
# Velocity P-wave (km/s) = 5.23957 6.16772 5.72249
#
# Compressibility (1/GPa) = 0.02743423
#
# Stress axis : x y z
#
# Youngs Moduli (GPa) = 98.72675 41.35886 47.12502
#
# Poissons Ratio (x) = 0.17794 0.18966
# Poissons Ratio (y) = 0.42476 0.26955
# Poissons Ratio (z) = 0.39733 0.23657
#
# Static dielectric constant tensor:
#      x y z
#    x 1.697490 0.000000 0.000000 
#    y 0.000000 1.676850 0.000000 
#    z 0.000000 0.000000 1.602060 
# 
# From -- ./inp_files/10757.got.cif
#   From: 2010.05.17/outbox.cif.g08.bks.cpg/sg56_6_cif.got.tgz:10757.got - 2010.06.03 13:42:01.
