data_PCOD9430699
_publ_section_title
;
Structure prediction by ZEFSAII (Michael W. Deem and Ramdas Pophale) SiO2 
 PCOD9430699
Probable space group: P C C N
;
_chemical_formula_sum "Si O2"
_cell_formula_units_Z 64
_cell_length_a 17.625723
_cell_length_b 12.239377
_cell_length_c 11.736979
_cell_angle_alpha 90.000000
_cell_angle_beta 90.000000
_cell_angle_gamma 90.000000
_cell_volume 2531.993465
_symmetry_space_group_name_H-M "P C C N"
_symmetry_group_IT_number 56
_symmetry_cell_setting 'orthorhombic'
loop_
_space_group_symop_operation_xyz
x,y,z
1/2-x,1/2-y,z
1/2+x,-y,1/2-z
-x,1/2+y,1/2-z
-x,-y,-z
1/2+x,1/2+y,-z
1/2-x,y,1/2+z
x,1/2-y,1/2+z
loop_
_atom_site_type_symbol
_atom_site_label
_atom_site_fract_x
_atom_site_fract_y
_atom_site_fract_z
Si Si1 0.180712 0.171297 0.917413
Si Si2 0.090270 0.583786 0.441679
Si Si3 0.715092 0.129286 0.750383
Si Si4 0.438357 0.401675 0.785051
Si Si5 0.841151 0.522708 0.359146
Si Si6 0.459837 0.203582 0.685384
Si Si7 0.426755 0.147515 0.994339
Si Si8 0.915154 0.066731 0.412482
O O1 0.250000 0.250000 0.903317
O O2 0.153684 0.114071 0.801404
O O3 0.113401 0.260275 0.924121
O O4 0.188402 0.097647 0.032017
O O5 0.165152 0.607101 0.363772
O O6 0.054332 0.465716 0.405815
O O7 0.115203 0.572664 0.571361
O O8 0.027170 0.665449 0.395158
O O9 0.750000 0.250000 0.741528
O O10 0.654934 0.126499 0.855832
O O11 0.779169 0.037779 0.781204
O O12 0.489708 0.292855 0.776039
O O13 0.452772 0.496468 0.691915
O O14 0.901400 0.603997 0.296051
O O15 0.414993 0.299167 0.618416
O O16 0.514825 0.130468 0.966161
O O17 0.390855 0.027219 0.998117
#
# Coordination Sequence:
#
# PCOD9430699 Si02
#       8
#     8   8   8   8   8   8   8   8
#     4  10  20  36  63  93 126 167 214 274 331 394
#     4  10  23  43  63  94 140 165 224 277 322 406
#     4  11  25  41  65  95 133 185 212 272 341 406
#     4   9  21  35  58  91 129 161 207 273 330 375
#     4  10  23  43  64  94 130 173 227 273 335 393
#     4  10  21  39  67  98 120 174 223 277 334 394
#     4   9  19  36  65  93 115 168 220 270 329 381
#     4   9  19  39  58  86 129 158 215 266 318 391
#
# _framework density 25.276526
#
# number of rings (size 3 to 8) (size 9 to 14) (size 15 to 20)
#    0.000    2.250    0.000    1.125    5.250    5.500 
#    0.000    1.250    8.250    0.000    0.000    0.000 
#    0.000    0.000    0.000    0.000    0.000    0.000 
#
# Total GULP energy -356459.581428 kJ/mol
# GULP energy per Si atom -5569.680960 kJ/mol
# Density = 2.521900 g / cm^3
# Si number density = 25.276526 Si / 1000 Ang^3
#
#
#
# Elastic Constant Matrix: (Units=GPa)
#
#
# Indices 1 2 3 4 5 6 
#
# 1 94.6747 67.0496 17.6263 0.0000 0.0000 0.0000
# 2 67.0496 144.5784 28.7250 0.0000 0.0000 0.0000
# 3 17.6263 28.7250 44.7809 0.0000 0.0000 0.0000
# 4 0.0000 0.0000 0.0000 55.0161 0.0000 0.0000
# 5 0.0000 0.0000 0.0000 0.0000 35.8281 0.0000
# 6 0.0000 0.0000 0.0000 0.0000 0.0000 47.8490
#
#
#
# Elastic Compliance Matrix: (Units=1/GPa)
#
#
# Indices 1 2 3 4 5 6 
#
# 1 0.015846 -0.007002 -0.001746 0.000000 0.000000 0.000000
# 2 -0.007002 0.011021 -0.004313 0.000000 0.000000 0.000000
# 3 -0.001746 -0.004313 0.025785 0.000000 0.000000 0.000000
# 4 0.000000 0.000000 0.000000 0.018177 0.000000 0.000000
# 5 0.000000 0.000000 0.000000 0.000000 0.027911 0.000000
# 6 0.000000 0.000000 0.000000 0.000000 0.000000 0.020899
#
#
# Mechanical properties :
#
#
# Convention : Reuss Voigt Hill
#
# Bulk Modulus (GPa) = 37.69344 56.75955 47.22649
# Shear Modulus (GPa) = 32.34055 39.11418 35.72737
#
# Velocity S-wave (km/s) = 3.58085 3.93803 3.76368
# Velocity P-wave (km/s) = 5.66052 6.57128 6.13283
#
# Compressibility (1/GPa) = 0.02652982
#
# Stress axis : x y z
#
# Youngs Moduli (GPa) = 63.10556 90.73651 38.78238
#
# Poissons Ratio (x) = 0.63535 0.06771
# Poissons Ratio (y) = 0.44187 0.16728
# Poissons Ratio (z) = 0.11017 0.39138
#
# Static dielectric constant tensor:
#      x y z
#    x 2.118380 0.000000 0.000000 
#    y 0.000000 1.592820 0.000000 
#    z 0.000000 0.000000 2.955190 
# 
# From -- ./inp_files/12869.got.cif
#   From: 2010.05.17/outbox.cif.g08.bks.cpg/sg56_7_cif.got.tgz:12869.got - 2010.06.03 13:42:01.
