data_PCOD9430328
_publ_section_title
;
Structure prediction by ZEFSAII (Michael W. Deem and Ramdas Pophale) SiO2 
 PCOD9430328
Probable space group: P C C N
;
_chemical_formula_sum "Si O2"
_cell_formula_units_Z 48
_cell_length_a 6.276627
_cell_length_b 13.542325
_cell_length_c 22.167598
_cell_angle_alpha 90.000000
_cell_angle_beta 90.000000
_cell_angle_gamma 90.000000
_cell_volume 1884.248551
_symmetry_space_group_name_H-M "P C C N"
_symmetry_group_IT_number 56
_symmetry_cell_setting 'orthorhombic'
loop_
_space_group_symop_operation_xyz
x,y,z
1/2-x,1/2-y,z
1/2+x,-y,1/2-z
-x,1/2+y,1/2-z
-x,-y,-z
1/2+x,1/2+y,-z
1/2-x,y,1/2+z
x,1/2-y,1/2+z
loop_
_atom_site_type_symbol
_atom_site_label
_atom_site_fract_x
_atom_site_fract_y
_atom_site_fract_z
Si Si1 0.839213 0.587027 0.874228
Si Si2 0.541507 0.656688 0.197920
Si Si3 0.319841 0.937747 0.966019
Si Si4 0.679415 0.018035 0.222105
Si Si5 0.036752 0.693203 0.308748
Si Si6 0.045539 0.913540 0.074717
O O1 0.663474 0.665045 0.851126
O O2 0.712615 0.496126 0.902872
O O3 0.027771 0.621769 0.919851
O O4 0.977161 0.548681 0.817787
O O5 0.757747 0.594346 0.209670
O O6 0.367087 0.575485 0.216229
O O7 0.504599 0.668591 0.126197
O O8 0.513516 0.743041 0.247499
O O9 0.157712 0.881213 0.011628
O O10 0.168635 0.021595 0.935563
O O11 0.500000 0.000000 0.000000
O O12 0.879696 0.083132 0.202102
O O13 0.250000 0.750000 0.332063
#
# Coordination Sequence:
#
# PCOD9430328 Si02
#       6
#     8   8   8   8   8   8
#     4  11  19  40  63  95 151 190 246 317 383 465
#     4  11  22  40  64  97 147 195 247 296 385 475
#     4   9  19  34  66 101 137 190 252 312 393 448
#     4  11  23  42  62 101 144 193 233 307 383 460
#     4  10  24  41  61 101 145 199 245 300 386 474
#     4  10  19  38  63 101 144 192 251 312 377 475
#
# _framework density 25.474346000000001
#
# number of rings (size 3 to 8) (size 9 to 14) (size 15 to 20)
#    0.000    1.667    3.333    1.000    0.000    2.667 
#    6.000    0.000    0.000    0.000    0.000  147.000 
#    0.000    0.000    0.000    0.333    0.000    0.000 
#
# Total GULP energy -267407.958281 kJ/mol
# GULP energy per Si atom -5570.999131 kJ/mol
# Density = 2.541637 g / cm^3
# Si number density = 25.474346 Si / 1000 Ang^3
#
#
#
# Elastic Constant Matrix: (Units=GPa)
#
#
# Indices 1 2 3 4 5 6 
#
# 1 176.3857 48.9901 73.6299 0.0000 0.0000 0.0000
# 2 48.9901 99.8495 28.1292 0.0000 0.0000 0.0000
# 3 73.6299 28.1292 135.9127 0.0000 0.0000 0.0000
# 4 0.0000 0.0000 0.0000 37.1713 0.0000 0.0000
# 5 0.0000 0.0000 0.0000 0.0000 55.9135 0.0000
# 6 0.0000 0.0000 0.0000 0.0000 0.0000 49.1087
#
#
#
# Elastic Compliance Matrix: (Units=1/GPa)
#
#
# Indices 1 2 3 4 5 6 
#
# 1 0.008040 -0.002886 -0.003758 0.000000 0.000000 0.000000
# 2 -0.002886 0.011671 -0.000852 0.000000 0.000000 0.000000
# 3 -0.003758 -0.000852 0.009570 0.000000 0.000000 0.000000
# 4 0.000000 0.000000 0.000000 0.026902 0.000000 0.000000
# 5 0.000000 0.000000 0.000000 0.000000 0.017885 0.000000
# 6 0.000000 0.000000 0.000000 0.000000 0.000000 0.020363
#
#
# Mechanical properties :
#
#
# Convention : Reuss Voigt Hill
#
# Bulk Modulus (GPa) = 69.98664 79.29405 74.64034
# Shear Modulus (GPa) = 43.78813 45.86528 44.82671
#
# Velocity S-wave (km/s) = 4.15047 4.24777 4.19941
# Velocity P-wave (km/s) = 7.10645 7.43322 7.27167
#
# Compressibility (1/GPa) = 0.01428844
#
# Stress axis : x y z
#
# Youngs Moduli (GPa) = 124.38213 85.68212 104.49314
#
# Poissons Ratio (x) = 0.24727 0.39271
# Poissons Ratio (y) = 0.35895 0.08904
# Poissons Ratio (z) = 0.46745 0.07301
#
# Static dielectric constant tensor:
#      x y z
#    x 2.133550 0.000000 0.000000 
#    y 0.000000 1.997160 0.000000 
#    z 0.000000 0.000000 2.239220 
# 
# From -- ./inp_files/20050.got.cif
#   From: 2010.05.17/outbox.cif.g08.bks.cpg/sg56_11_cif.got.tgz:20050.got - 2010.06.03 13:42:01.
