data_PCOD9430755
_publ_section_title
;
Structure prediction by ZEFSAII (Michael W. Deem and Ramdas Pophale) SiO2 
 PCOD9430755
Probable space group: P C C N
;
_chemical_formula_sum "Si O2"
_cell_formula_units_Z 60
_cell_length_a 24.694697
_cell_length_b 8.510941
_cell_length_c 13.304855
_cell_angle_alpha 90.000000
_cell_angle_beta 90.000000
_cell_angle_gamma 90.000000
_cell_volume 2796.349352
_symmetry_space_group_name_H-M "P C C N"
_symmetry_group_IT_number 56
_symmetry_cell_setting 'orthorhombic'
loop_
_space_group_symop_operation_xyz
x,y,z
1/2-x,1/2-y,z
1/2+x,-y,1/2-z
-x,1/2+y,1/2-z
-x,-y,-z
1/2+x,1/2+y,-z
1/2-x,y,1/2+z
x,1/2-y,1/2+z
loop_
_atom_site_type_symbol
_atom_site_label
_atom_site_fract_x
_atom_site_fract_y
_atom_site_fract_z
Si Si1 0.153877 0.696457 0.789168
Si Si2 0.019535 0.432223 0.860428
Si Si3 0.411522 0.762764 0.606300
Si Si4 0.395205 0.279016 0.484971
Si Si5 0.091287 0.953555 0.904677
Si Si6 0.979451 0.710139 0.347103
Si Si7 0.323771 0.957066 0.005963
Si Si8 0.750000 0.250000 0.866874
O O1 0.103412 0.661388 0.713869
O O2 0.133983 0.862573 0.835021
O O3 0.202859 0.699754 0.710244
O O4 0.168982 0.598385 0.889397
O O5 0.067190 0.417866 0.940346
O O6 0.039288 0.352007 0.759162
O O7 0.969877 0.319273 0.893287
O O8 0.000745 0.610464 0.846583
O O9 0.404550 0.885281 0.516951
O O10 0.369070 0.626705 0.576337
O O11 0.429553 0.212879 0.577448
O O12 0.338110 0.358758 0.509129
O O13 0.395556 0.136260 0.406938
O O14 0.030158 0.904020 0.874077
O O15 0.269612 0.889582 0.058158
#
# Coordination Sequence:
#
# PCOD9430755 Si02
#       8
#     8   8   8   8   8   8   8   4
#     4  10  21  41  68  95 123 164 229 291 342 422
#     4  12  23  35  58  88 133 194 231 271 320 400
#     4  10  20  37  60  87 129 177 228 273 322 399
#     4  12  25  38  59  94 145 182 222 278 341 409
#     4  11  23  38  60  94 138 184 223 275 331 408
#     4  12  24  38  57  91 141 192 236 267 323 410
#     4  10  22  42  66  97 125 171 223 285 360 411
#     4  10  22  42  78  96 120 160 236 304 362 414
#
# _framework density 21.456547
#
# number of rings (size 3 to 8) (size 9 to 14) (size 15 to 20)
#    0.000    1.067    4.000    3.600    1.867    0.000 
#    0.000    0.000    0.000   17.600    0.000    0.000 
#    0.000    0.000    0.000    0.000    0.000    0.000 
#
# Total GULP energy -335065.274723 kJ/mol
# GULP energy per Si atom -5584.421245 kJ/mol
# Density = 2.140771 g / cm^3
# Si number density = 21.456547 Si / 1000 Ang^3
#
#
#
# Elastic Constant Matrix: (Units=GPa)
#
#
# Indices 1 2 3 4 5 6 
#
# 1 77.2174 35.5389 30.5991 0.0000 0.0000 0.0000
# 2 35.5389 102.7420 27.6072 0.0000 0.0000 0.0000
# 3 30.5991 27.6072 115.1764 0.0000 0.0000 0.0000
# 4 0.0000 0.0000 0.0000 3.1056 0.0000 0.0000
# 5 0.0000 0.0000 0.0000 0.0000 36.8106 0.0000
# 6 0.0000 0.0000 0.0000 0.0000 0.0000 10.3581
#
#
#
# Elastic Compliance Matrix: (Units=1/GPa)
#
#
# Indices 1 2 3 4 5 6 
#
# 1 0.016444 -0.004825 -0.003212 0.000000 0.000000 0.000000
# 2 -0.004825 0.011819 -0.001551 0.000000 0.000000 0.000000
# 3 -0.003212 -0.001551 0.009908 0.000000 0.000000 0.000000
# 4 0.000000 0.000000 0.000000 0.321998 0.000000 0.000000
# 5 0.000000 0.000000 0.000000 0.000000 0.027166 0.000000
# 6 0.000000 0.000000 0.000000 0.000000 0.000000 0.096542
#
#
# Mechanical properties :
#
#
# Convention : Reuss Voigt Hill
#
# Bulk Modulus (GPa) = 52.64824 53.62513 53.13668
# Shear Modulus (GPa) = 9.81577 23.48091 16.64834
#
# Velocity S-wave (km/s) = 2.14118 3.31168 2.78854
# Velocity P-wave (km/s) = 5.54105 6.29839 5.93182
#
# Compressibility (1/GPa) = 0.01899399
#
# Stress axis : x y z
#
# Youngs Moduli (GPa) = 60.81245 84.61051 100.93354
#
# Poissons Ratio (x) = 0.40824 0.32422
# Poissons Ratio (y) = 0.29342 0.15656
# Poissons Ratio (z) = 0.19534 0.13124
#
# Static dielectric constant tensor:
#      x y z
#    x 1.826260 0.000000 0.000000 
#    y 0.000000 1.806720 0.000000 
#    z 0.000000 0.000000 1.807230 
# 
# From -- ./inp_files/13410.got.cif
#   From: 2010.05.17/outbox.cif.g08.bks.cpg/sg56_7_cif.got.tgz:13410.got - 2010.06.03 13:42:01.
