data_PCOD9430830
_publ_section_title
;
Structure prediction by ZEFSAII (Michael W. Deem and Ramdas Pophale) SiO2 
 PCOD9430830
Probable space group: P C C N
;
_chemical_formula_sum "Si O2"
_cell_formula_units_Z 48
_cell_length_a 9.116612
_cell_length_b 15.692479
_cell_length_c 17.992345
_cell_angle_alpha 90.000000
_cell_angle_beta 90.000000
_cell_angle_gamma 90.000000
_cell_volume 2574.025221
_symmetry_space_group_name_H-M "P C C N"
_symmetry_group_IT_number 56
_symmetry_cell_setting 'orthorhombic'
loop_
_space_group_symop_operation_xyz
x,y,z
1/2-x,1/2-y,z
1/2+x,-y,1/2-z
-x,1/2+y,1/2-z
-x,-y,-z
1/2+x,1/2+y,-z
1/2-x,y,1/2+z
x,1/2-y,1/2+z
loop_
_atom_site_type_symbol
_atom_site_label
_atom_site_fract_x
_atom_site_fract_y
_atom_site_fract_z
Si Si1 0.927482 0.758212 0.191147
Si Si2 0.575018 0.249281 0.468148
Si Si3 0.111728 0.424311 0.225618
Si Si4 0.544392 0.910090 0.279424
Si Si5 0.847544 0.837451 0.430436
Si Si6 0.053128 0.082400 0.042955
O O1 0.750000 0.750000 0.182896
O O2 0.955534 0.854346 0.218611
O O3 0.978778 0.686123 0.249893
O O4 0.008732 0.743332 0.114036
O O5 0.750000 0.250000 0.467699
O O6 0.485398 0.316966 0.518063
O O7 0.527967 0.160673 0.504873
O O8 0.285755 0.429012 0.237620
O O9 0.097985 0.380708 0.145003
O O10 0.046928 0.517529 0.237444
O O11 0.523148 0.917846 0.368335
O O12 0.750000 0.750000 0.415554
O O13 0.727085 0.900157 0.465947
O O14 0.000000 0.000000 0.000000
#
# Coordination Sequence:
#
# PCOD9430830 Si02
#       6
#     8   8   8   8   8   8
#     4  10  20  38  59  80 114 156 192 230 286 349
#     4  11  23  37  57  85 113 149 194 241 289 337
#     4  10  20  38  60  84 114 149 189 237 287 341
#     4  10  22  36  59  89 114 149 194 233 284 346
#     4   9  19  39  61  81 114 157 192 230 285 351
#     4  10  20  38  61  85 114 152 193 233 284 348
#
# _framework density 18.647836000000002
#
# number of rings (size 3 to 8) (size 9 to 14) (size 15 to 20)
#    0.000    2.000    0.000    6.000    0.000    6.667 
#    0.000    3.333    0.000    0.000    0.000    0.000 
#    0.000    0.000    0.000    0.000    0.000    0.000 
#
# Total GULP energy -267807.373557 kJ/mol
# GULP energy per Si atom -5579.320282 kJ/mol
# Density = 1.860539 g / cm^3
# Si number density = 18.647836 Si / 1000 Ang^3
#
#
#
# Elastic Constant Matrix: (Units=GPa)
#
#
# Indices 1 2 3 4 5 6 
#
# 1 58.6479 21.4055 42.8918 0.0000 0.0000 0.0000
# 2 21.4055 66.9028 24.6121 0.0000 0.0000 0.0000
# 3 42.8918 24.6121 61.8613 0.0000 0.0000 0.0000
# 4 0.0000 0.0000 0.0000 28.3422 0.0000 0.0000
# 5 0.0000 0.0000 0.0000 0.0000 12.5460 0.0000
# 6 0.0000 0.0000 0.0000 0.0000 0.0000 28.6649
#
#
#
# Elastic Compliance Matrix: (Units=1/GPa)
#
#
# Indices 1 2 3 4 5 6 
#
# 1 0.034991 -0.002659 -0.023203 0.000000 0.000000 0.000000
# 2 -0.002659 0.017712 -0.005203 0.000000 0.000000 0.000000
# 3 -0.023203 -0.005203 0.034323 0.000000 0.000000 0.000000
# 4 0.000000 0.000000 0.000000 0.035283 0.000000 0.000000
# 5 0.000000 0.000000 0.000000 0.000000 0.079707 0.000000
# 6 0.000000 0.000000 0.000000 0.000000 0.000000 0.034886
#
#
# Mechanical properties :
#
#
# Convention : Reuss Voigt Hill
#
# Bulk Modulus (GPa) = 40.16828 40.58119 40.37474
# Shear Modulus (GPa) = 16.26908 20.47745 18.37326
#
# Velocity S-wave (km/s) = 2.95691 3.31738 3.14232
# Velocity P-wave (km/s) = 5.76585 6.04007 5.90455
#
# Compressibility (1/GPa) = 0.02489526
#
# Stress axis : x y z
#
# Youngs Moduli (GPa) = 28.57877 56.45895 29.13480
#
# Poissons Ratio (x) = 0.15015 0.67602
# Poissons Ratio (y) = 0.07600 0.15159
# Poissons Ratio (z) = 0.66312 0.29375
#
# Static dielectric constant tensor:
#      x y z
#    x 1.637540 0.000000 0.000000 
#    y 0.000000 1.653300 0.000000 
#    z 0.000000 0.000000 1.659160 
# 
# From -- ./inp_files/14762.got.cif
#   From: 2010.05.17/outbox.cif.g08.bks.cpg/sg56_8_cif.got.tgz:14762.got - 2010.06.03 13:42:01.
