data_PCOD9430379
_publ_section_title
;
Structure prediction by ZEFSAII (Michael W. Deem and Ramdas Pophale) SiO2 
 PCOD9430379
Probable space group: P C C N
;
_chemical_formula_sum "Si O2"
_cell_formula_units_Z 60
_cell_length_a 18.646528
_cell_length_b 14.767399
_cell_length_c 8.761832
_cell_angle_alpha 90.000000
_cell_angle_beta 90.000000
_cell_angle_gamma 90.000000
_cell_volume 2412.664359
_symmetry_space_group_name_H-M "P C C N"
_symmetry_group_IT_number 56
_symmetry_cell_setting 'orthorhombic'
loop_
_space_group_symop_operation_xyz
x,y,z
1/2-x,1/2-y,z
1/2+x,-y,1/2-z
-x,1/2+y,1/2-z
-x,-y,-z
1/2+x,1/2+y,-z
1/2-x,y,1/2+z
x,1/2-y,1/2+z
loop_
_atom_site_type_symbol
_atom_site_label
_atom_site_fract_x
_atom_site_fract_y
_atom_site_fract_z
Si Si1 0.418624 0.191751 0.445742
Si Si2 0.223357 0.349953 0.285181
Si Si3 0.028837 0.357191 0.785683
Si Si4 0.975387 0.048026 0.841600
Si Si5 0.870999 0.114743 0.332917
Si Si6 0.750000 0.250000 0.426788
Si Si7 0.805268 0.535742 0.998755
Si Si8 0.334401 0.583540 0.994120
O O1 0.337735 0.159223 0.415331
O O2 0.445090 0.173090 0.617310
O O3 0.426241 0.297191 0.403127
O O4 0.470475 0.132642 0.332630
O O5 0.250000 0.250000 0.250771
O O6 0.288799 0.412457 0.344805
O O7 0.188474 0.392074 0.135545
O O8 0.028236 0.466992 0.780988
O O9 0.946098 0.334543 0.823352
O O10 0.895359 0.081060 0.878945
O O11 0.000000 0.000000 0.000000
O O12 0.804332 0.182895 0.342221
O O13 0.863270 0.043085 0.471037
O O14 0.864550 0.060638 0.173142
O O15 0.802314 0.316330 0.516599
O O16 0.730687 0.482121 0.969778
#
# Coordination Sequence:
#
# PCOD9430379 Si02
#       8
#     8   8   8   8   8   4   8   8
#     4  11  25  45  70 101 139 184 237 290 360 418
#     4  12  27  44  68 100 138 180 235 295 349 419
#     4  11  24  43  72 101 134 184 235 292 346 431
#     4  10  19  39  68  90 127 182 221 274 344 417
#     4  11  21  41  67  97 139 177 234 280 349 421
#     4  10  24  34  64  98 138 180 222 288 348 416
#     4  11  24  43  67  99 134 182 228 286 349 412
#     4  11  20  40  63  96 133 176 229 278 344 418
#
# _framework density 24.868770999999999
#
# number of rings (size 3 to 8) (size 9 to 14) (size 15 to 20)
#    0.000    1.067    4.000    4.000    5.600    0.000 
#    0.000    2.000    0.000    0.000    0.000    0.000 
#    0.000    0.000    0.000    0.000    0.000    0.000 
#
# Total GULP energy -335671.372706 kJ/mol
# GULP energy per Si atom -5594.522878 kJ/mol
# Density = 2.481217 g / cm^3
# Si number density = 24.868771 Si / 1000 Ang^3
#
#
#
# Elastic Constant Matrix: (Units=GPa)
#
#
# Indices 1 2 3 4 5 6 
#
# 1 70.1326 22.9218 6.3585 0.0000 0.0000 0.0000
# 2 22.9218 107.9872 24.3722 0.0000 0.0000 0.0000
# 3 6.3585 24.3722 67.4766 0.0000 0.0000 0.0000
# 4 0.0000 0.0000 0.0000 24.5193 0.0000 0.0000
# 5 0.0000 0.0000 0.0000 0.0000 1383.3502 0.0000
# 6 0.0000 0.0000 0.0000 0.0000 0.0000 35.9828
#
#
#
# Elastic Compliance Matrix: (Units=1/GPa)
#
#
# Indices 1 2 3 4 5 6 
#
# 1 0.015327 -0.003187 -0.000293 0.000000 0.000000 0.000000
# 2 -0.003187 0.010745 -0.003581 0.000000 0.000000 0.000000
# 3 -0.000293 -0.003581 0.016141 0.000000 0.000000 0.000000
# 4 0.000000 0.000000 0.000000 0.040784 0.000000 0.000000
# 5 0.000000 0.000000 0.000000 0.000000 0.000723 0.000000
# 6 0.000000 0.000000 0.000000 0.000000 0.000000 0.027791
#
#
# Mechanical properties :
#
#
# Convention : Reuss Voigt Hill
#
# Bulk Modulus (GPa) = 35.59877 39.21128 37.40502
# Shear Modulus (GPa) = 37.03795 301.56673 169.30234
#
# Velocity S-wave (km/s) = 3.86338 11.02390 8.25991
# Velocity P-wave (km/s) = 5.85206 13.33555 10.29766
#
# Compressibility (1/GPa) = 0.02809086
#
# Stress axis : x y z
#
# Youngs Moduli (GPa) = 65.24446 93.06618 61.95442
#
# Poissons Ratio (x) = 0.29662 0.01816
# Poissons Ratio (y) = 0.20795 0.22184
# Poissons Ratio (z) = 0.01912 0.33324
#
# Static dielectric constant tensor:
#      x y z
#    x 2.018860 0.000000 0.000000 
#    y 0.000000 1.979360 0.000000 
#    z 0.000000 0.000000 1.953170 
# 
# From -- ./inp_files/8401.got.cif
#   From: 2010.05.17/outbox.cif.g08.bks.cpg/sg56_5_cif.got.tgz:8401.got - 2010.06.03 13:42:01.
