data_PCOD9430280
_publ_section_title
;
Structure prediction by ZEFSAII (Michael W. Deem and Ramdas Pophale) SiO2 
 PCOD9430280
Probable space group: P C C N
;
_chemical_formula_sum "Si O2"
_cell_formula_units_Z 40
_cell_length_a 9.292120
_cell_length_b 14.381293
_cell_length_c 14.660007
_cell_angle_alpha 90.000000
_cell_angle_beta 90.000000
_cell_angle_gamma 90.000000
_cell_volume 1959.056322
_symmetry_space_group_name_H-M "P C C N"
_symmetry_group_IT_number 56
_symmetry_cell_setting 'orthorhombic'
loop_
_space_group_symop_operation_xyz
x,y,z
1/2-x,1/2-y,z
1/2+x,-y,1/2-z
-x,1/2+y,1/2-z
-x,-y,-z
1/2+x,1/2+y,-z
1/2-x,y,1/2+z
x,1/2-y,1/2+z
loop_
_atom_site_type_symbol
_atom_site_label
_atom_site_fract_x
_atom_site_fract_y
_atom_site_fract_z
Si Si1 0.143344 0.838191 0.549536
Si Si2 0.598323 0.709260 0.107854
Si Si3 0.768161 0.145589 0.640566
Si Si4 0.862067 0.060338 0.822630
Si Si5 0.536691 0.590249 0.938986
O O1 0.250000 0.750000 0.544751
O O2 0.121605 0.864285 0.443932
O O3 0.233318 0.909978 0.609150
O O4 0.002318 0.799484 0.596817
O O5 0.750000 0.750000 0.142567
O O6 0.500704 0.630173 0.160216
O O7 0.614721 0.662185 0.006578
O O8 0.750000 0.250000 0.679376
O O9 0.808986 0.077076 0.720874
O O10 0.614972 0.128547 0.593996
O O11 0.891700 0.954196 0.849890
O O12 0.500000 0.500000 0.000000
#
# Coordination Sequence:
#
# PCOD9430280 Si02
#       5
#     8   8   8   8   8
#     4   9  16  35  60  83 109 161 205 230 300 372
#     4  10  19  37  61  87 120 155 202 262 306 352
#     4  11  18  36  65  85 115 163 208 238 296 384
#     4  10  21  37  62  89 118 161 209 250 303 370
#     4  10  19  38  61  85 119 157 196 257 302 350
#
# _framework density 20.417994
#
# number of rings (size 3 to 8) (size 9 to 14) (size 15 to 20)
#    0.000    2.000    8.000    1.800    0.000    0.000 
#    3.600   10.000    0.000    0.000    0.000    0.000 
#    0.000    0.000    0.000    0.000    0.000    0.000 
#
# Total GULP energy -222784.872268 kJ/mol
# GULP energy per Si atom -5569.621807 kJ/mol
# Density = 2.037152 g / cm^3
# Si number density = 20.417994 Si / 1000 Ang^3
#
#
#
# Elastic Constant Matrix: (Units=GPa)
#
#
# Indices 1 2 3 4 5 6 
#
# 1 50.4353 9.2506 -7.1784 0.0000 0.0000 0.0000
# 2 9.2506 30.2121 -23.6875 0.0000 0.0000 0.0000
# 3 -7.1784 -23.6875 32.1790 0.0000 0.0000 0.0000
# 4 0.0000 0.0000 0.0000 -7.4978 0.0000 0.0000
# 5 0.0000 0.0000 0.0000 0.0000 -1.2745 0.0000
# 6 0.0000 0.0000 0.0000 0.0000 0.0000 22.3807
#
#
#
# Elastic Compliance Matrix: (Units=1/GPa)
#
#
# Indices 1 2 3 4 5 6 
#
# 1 0.021007 -0.006522 -0.000115 0.000000 0.000000 0.000000
# 2 -0.006522 0.080301 0.057656 0.000000 0.000000 0.000000
# 3 -0.000115 0.057656 0.073492 0.000000 0.000000 0.000000
# 4 0.000000 0.000000 0.000000 -0.133372 0.000000 0.000000
# 5 0.000000 0.000000 0.000000 0.000000 -0.784641 0.000000
# 6 0.000000 0.000000 0.000000 0.000000 0.000000 0.044681
#
#
# Mechanical properties :
#
#
# Convention : Reuss Voigt Hill
#
# Bulk Modulus (GPa) = 3.61222 7.73287 5.67255
# Shear Modulus (GPa) = -7.05927 11.68446 2.31260
#
# Velocity S-wave (km/s) = -1.86142 2.39480 1.06540
# Velocity P-wave (km/s) = 1.68727 3.38264 2.07309
#
# Compressibility (1/GPa) = 0.27683779
#
# Stress axis : x y z
#
# Youngs Moduli (GPa) = 47.60241 12.45314 13.60690
#
# Poissons Ratio (x) = 0.08122 0.00156
# Poissons Ratio (y) = 0.31048 -0.78452
# Poissons Ratio (z) = 0.00547 -0.71800
#
# Static dielectric constant tensor:
#      x y z
#    x 1.790480 0.000000 0.000000 
#    y 0.000000 1.576470 0.000000 
#    z 0.000000 0.000000 1.801010 
# 
# From -- ./inp_files/10534.got.cif
#   From: 2010.05.17/outbox.cif.g08.bks.cpg/sg56_6_cif.got.tgz:10534.got - 2010.06.03 13:42:01.
