data_PCOD9430716
_publ_section_title
;
Structure prediction by ZEFSAII (Michael W. Deem and Ramdas Pophale) SiO2 
 PCOD9430716
Probable space group: P C C N
;
_chemical_formula_sum "Si O2"
_cell_formula_units_Z 36
_cell_length_a 10.928395
_cell_length_b 17.258773
_cell_length_c 8.314599
_cell_angle_alpha 90.000000
_cell_angle_beta 90.000000
_cell_angle_gamma 90.000000
_cell_volume 1568.222242
_symmetry_space_group_name_H-M "P C C N"
_symmetry_group_IT_number 56
_symmetry_cell_setting 'orthorhombic'
loop_
_space_group_symop_operation_xyz
x,y,z
1/2-x,1/2-y,z
1/2+x,-y,1/2-z
-x,1/2+y,1/2-z
-x,-y,-z
1/2+x,1/2+y,-z
1/2-x,y,1/2+z
x,1/2-y,1/2+z
loop_
_atom_site_type_symbol
_atom_site_label
_atom_site_fract_x
_atom_site_fract_y
_atom_site_fract_z
Si Si1 0.151648 0.088928 0.504293
Si Si2 0.064518 0.967058 0.275832
Si Si3 0.887403 0.333140 0.457620
Si Si4 0.750000 0.250000 0.706234
Si Si5 0.593680 0.872437 0.327253
O O1 0.119185 0.148044 0.358850
O O2 0.276759 0.109189 0.590826
O O3 0.042355 0.078225 0.631295
O O4 0.154557 0.006383 0.407567
O O5 0.118587 0.912258 0.140785
O O6 0.018412 0.046322 0.191445
O O7 0.782586 0.321047 0.590758
O O8 0.862153 0.268805 0.322297
O O9 0.013140 0.322397 0.553166
#
# Coordination Sequence:
#
# PCOD9430716 Si02
#       5
#     8   8   8   4   8
#     4   9  20  35  58 108 130 160 198 245 348 387
#     4   9  21  36  63  99 137 161 199 260 340 373
#     4  11  23  43  63  87 127 166 223 264 308 390
#     4  10  28  44  60  88 118 186 222 258 312 372
#     4  10  20  36  65  96 131 163 203 267 329 375
#
# _framework density 22.955929999999999
#
# number of rings (size 3 to 8) (size 9 to 14) (size 15 to 20)
#    1.333    0.889    0.000    2.000    3.111    5.333 
#    0.000    0.000    0.000   16.000    0.000    0.000 
#    0.000    0.000    0.000    0.000    0.000    0.000 
#
# Total GULP energy -200623.598792 kJ/mol
# GULP energy per Si atom -5572.877744 kJ/mol
# Density = 2.290368 g / cm^3
# Si number density = 22.955930 Si / 1000 Ang^3
#
#
#
# Elastic Constant Matrix: (Units=GPa)
#
#
# Indices 1 2 3 4 5 6 
#
# 1 88.8908 14.0512 68.0121 0.0000 0.0000 0.0000
# 2 14.0512 21.4341 39.6564 0.0000 0.0000 0.0000
# 3 68.0121 39.6564 159.9261 0.0000 0.0000 0.0000
# 4 0.0000 0.0000 0.0000 22.6591 0.0000 0.0000
# 5 0.0000 0.0000 0.0000 0.0000 30.6632 0.0000
# 6 0.0000 0.0000 0.0000 0.0000 0.0000 19.6719
#
#
#
# Elastic Compliance Matrix: (Units=1/GPa)
#
#
# Indices 1 2 3 4 5 6 
#
# 1 0.016868 0.004091 -0.008188 0.000000 0.000000 0.000000
# 2 0.004091 0.087194 -0.023361 0.000000 0.000000 0.000000
# 3 -0.008188 -0.023361 0.015528 0.000000 0.000000 0.000000
# 4 0.000000 0.000000 0.000000 0.044132 0.000000 0.000000
# 5 0.000000 0.000000 0.000000 0.000000 0.032612 0.000000
# 6 0.000000 0.000000 0.000000 0.000000 0.000000 0.050834
#
#
# Mechanical properties :
#
#
# Convention : Reuss Voigt Hill
#
# Bulk Modulus (GPa) = 15.46221 57.07670 36.26946
# Shear Modulus (GPa) = 15.44918 24.50093 19.97505
#
# Velocity S-wave (km/s) = 2.59703 3.27050 2.95303
# Velocity P-wave (km/s) = 3.96774 6.25933 5.24033
#
# Compressibility (1/GPa) = 0.06467381
#
# Stress axis : x y z
#
# Youngs Moduli (GPa) = 59.28482 11.46867 64.40117
#
# Poissons Ratio (x) = -0.04692 0.52730
# Poissons Ratio (y) = -0.24253 1.50448
# Poissons Ratio (z) = 0.48541 0.26792
#
# Static dielectric constant tensor:
#      x y z
#    x 1.831240 0.000000 0.000000 
#    y 0.000000 1.920200 0.000000 
#    z 0.000000 0.000000 1.874040 
# 
# From -- ./inp_files/1957.got.cif
#   From: 2010.05.17/outbox.cif.g08.bks.cpg/sg56_1_cif.got.tgz:1957.got - 2010.06.03 13:42:01.
