data_PCOD9430954
_publ_section_title
;
Structure prediction by ZEFSAII (Michael W. Deem and Ramdas Pophale) SiO2 
 PCOD9430954
Probable space group: P C C N
;
_chemical_formula_sum "Si O2"
_cell_formula_units_Z 28
_cell_length_a 28.220254
_cell_length_b 4.396122
_cell_length_c 7.604620
_cell_angle_alpha 90.000000
_cell_angle_beta 90.000000
_cell_angle_gamma 90.000000
_cell_volume 943.426720
_symmetry_space_group_name_H-M "P C C N"
_symmetry_group_IT_number 56
_symmetry_cell_setting 'orthorhombic'
loop_
_space_group_symop_operation_xyz
x,y,z
1/2-x,1/2-y,z
1/2+x,-y,1/2-z
-x,1/2+y,1/2-z
-x,-y,-z
1/2+x,1/2+y,-z
1/2-x,y,1/2+z
x,1/2-y,1/2+z
loop_
_atom_site_type_symbol
_atom_site_label
_atom_site_fract_x
_atom_site_fract_y
_atom_site_fract_z
Si Si1 0.645414 0.057885 0.056658
Si Si2 0.214097 0.996131 0.166496
Si Si3 0.000000 0.500000 0.500000
Si Si4 0.426572 0.568399 0.705108
O O1 0.679263 0.299020 0.956843
O O2 0.609873 0.888207 0.922231
O O3 0.680485 0.869914 0.180979
O O4 0.609359 0.231716 0.183154
O O5 0.250000 0.750000 0.247496
O O6 0.250000 0.250000 0.094922
O O7 0.963346 0.598966 0.667419
O O8 0.960167 0.269370 0.420879
#
# Coordination Sequence:
#
# PCOD9430954 Si02
#       4
#     8   8   4   8
#     4   9  21  43  65  96 152 197 251 318 387 453
#     4  11  24  44  71 103 146 199 256 313 382 462
#     4  10  20  38  70  96 140 194 242 302 382 462
#     4   9  20  42  66 103 147 189 245 316 381 457
#
# _framework density 29.679041000000002
#
# number of rings (size 3 to 8) (size 9 to 14) (size 15 to 20)
#    0.000    2.286    0.000    0.857    0.000    9.143 
#    0.000   47.143    0.000    0.000    0.000    0.000 
#    0.000    0.000    0.000    0.000    0.000    0.000 
#
# Total GULP energy -155918.208846 kJ/mol
# GULP energy per Si atom -5568.507459 kJ/mol
# Density = 2.961149 g / cm^3
# Si number density = 29.679041 Si / 1000 Ang^3
#
#
#
# Elastic Constant Matrix: (Units=GPa)
#
#
# Indices 1 2 3 4 5 6 
#
# 1 253.6514 82.6983 105.1109 0.0000 0.0000 0.0000
# 2 82.6983 76.5766 38.7062 0.0000 0.0000 0.0000
# 3 105.1109 38.7062 84.1946 0.0000 0.0000 0.0000
# 4 0.0000 0.0000 0.0000 16.1703 0.0000 0.0000
# 5 0.0000 0.0000 0.0000 0.0000 134.5107 0.0000
# 6 0.0000 0.0000 0.0000 0.0000 0.0000 75.7884
#
#
#
# Elastic Compliance Matrix: (Units=1/GPa)
#
#
# Indices 1 2 3 4 5 6 
#
# 1 0.009773 -0.005715 -0.009573 0.000000 0.000000 0.000000
# 2 -0.005715 0.020354 -0.002222 0.000000 0.000000 0.000000
# 3 -0.009573 -0.002222 0.024850 0.000000 0.000000 0.000000
# 4 0.000000 0.000000 0.000000 0.061842 0.000000 0.000000
# 5 0.000000 0.000000 0.000000 0.000000 0.007434 0.000000
# 6 0.000000 0.000000 0.000000 0.000000 0.000000 0.013195
#
#
# Mechanical properties :
#
#
# Convention : Reuss Voigt Hill
#
# Bulk Modulus (GPa) = 50.11034 96.38370 73.24702
# Shear Modulus (GPa) = 27.91402 57.82102 42.86752
#
# Velocity S-wave (km/s) = 3.07013 4.41864 3.80461
# Velocity P-wave (km/s) = 5.43032 7.65365 6.63576
#
# Compressibility (1/GPa) = 0.01995596
#
# Stress axis : x y z
#
# Youngs Moduli (GPa) = 102.32444 49.12996 40.24082
#
# Poissons Ratio (x) = 0.28079 0.38524
# Poissons Ratio (y) = 0.58481 0.08942
# Poissons Ratio (z) = 0.97958 0.10918
#
# Static dielectric constant tensor:
#      x y z
#    x 2.019550 0.000000 0.000000 
#    y 0.000000 2.281040 0.000000 
#    z 0.000000 0.000000 2.298720 
# 
# From -- ./inp_files/4878.got.cif
#   From: 2010.05.17/outbox.cif.g08.bks.cpg/sg56_3_cif.got.tgz:4878.got - 2010.06.03 13:42:01.
