data_PCOD9430416
_publ_section_title
;
Structure prediction by ZEFSAII (Michael W. Deem and Ramdas Pophale) SiO2 
 PCOD9430416
Probable space group: P C C N
;
_chemical_formula_sum "Si O2"
_cell_formula_units_Z 40
_cell_length_a 13.955214
_cell_length_b 9.335968
_cell_length_c 13.288742
_cell_angle_alpha 90.000000
_cell_angle_beta 90.000000
_cell_angle_gamma 90.000000
_cell_volume 1731.329483
_symmetry_space_group_name_H-M "P C C N"
_symmetry_group_IT_number 56
_symmetry_cell_setting 'orthorhombic'
loop_
_space_group_symop_operation_xyz
x,y,z
1/2-x,1/2-y,z
1/2+x,-y,1/2-z
-x,1/2+y,1/2-z
-x,-y,-z
1/2+x,1/2+y,-z
1/2-x,y,1/2+z
x,1/2-y,1/2+z
loop_
_atom_site_type_symbol
_atom_site_label
_atom_site_fract_x
_atom_site_fract_y
_atom_site_fract_z
Si Si1 0.609751 0.681477 0.229063
Si Si2 0.520574 0.112679 0.678938
Si Si3 0.146672 0.675609 0.714233
Si Si4 0.295882 0.432812 0.350076
Si Si5 0.677521 0.115587 0.508537
O O1 0.575451 0.789540 0.317600
O O2 0.534215 0.556103 0.203299
O O3 0.712514 0.600572 0.233578
O O4 0.636667 0.795298 0.140924
O O5 0.574280 0.194010 0.770680
O O6 0.585224 0.135195 0.580006
O O7 0.250000 0.750000 0.724383
O O8 0.143442 0.562683 0.804997
O O9 0.144704 0.602549 0.605647
O O10 0.238378 0.483841 0.447221
O O11 0.750000 0.250000 0.515184
#
# Coordination Sequence:
#
# PCOD9430416 Si02
#       5
#     8   8   8   8   8
#     4  10  22  35  66  81 124 156 196 242 301 339
#     4  11  20  40  57  92 117 158 193 249 290 348
#     4  11  19  37  64  87 119 153 195 238 297 350
#     4  10  19  42  57  90 114 160 194 242 286 360
#     4  10  20  35  64  88 116 156 194 239 293 352
#
# _framework density 23.103631
#
# number of rings (size 3 to 8) (size 9 to 14) (size 15 to 20)
#    0.000    1.600    6.000    1.200    0.000    0.000 
#    0.000   20.000    0.000    0.000    0.000    0.000 
#    0.000    0.000    0.000    0.000    0.000    0.000 
#
# Total GULP energy -222952.350932 kJ/mol
# GULP energy per Si atom -5573.808773 kJ/mol
# Density = 2.305105 g / cm^3
# Si number density = 23.103631 Si / 1000 Ang^3
#
#
#
# Elastic Constant Matrix: (Units=GPa)
#
#
# Indices 1 2 3 4 5 6 
#
# 1 70.2946 23.9678 3.0788 0.0000 0.0000 0.0000
# 2 23.9678 162.4603 35.6218 0.0000 0.0000 0.0000
# 3 3.0788 35.6218 78.7883 0.0000 0.0000 0.0000
# 4 0.0000 0.0000 0.0000 17.0514 0.0000 0.0000
# 5 0.0000 0.0000 0.0000 0.0000 16.2244 0.0000
# 6 0.0000 0.0000 0.0000 0.0000 0.0000 46.7470
#
#
#
# Elastic Compliance Matrix: (Units=1/GPa)
#
#
# Indices 1 2 3 4 5 6 
#
# 1 0.014994 -0.002313 0.000460 0.000000 0.000000 0.000000
# 2 -0.002313 0.007189 -0.003160 0.000000 0.000000 0.000000
# 3 0.000460 -0.003160 0.014103 0.000000 0.000000 0.000000
# 4 0.000000 0.000000 0.000000 0.058646 0.000000 0.000000
# 5 0.000000 0.000000 0.000000 0.000000 0.061636 0.000000
# 6 0.000000 0.000000 0.000000 0.000000 0.000000 0.021392
#
#
# Mechanical properties :
#
#
# Convention : Reuss Voigt Hill
#
# Bulk Modulus (GPa) = 38.08027 48.54223 43.31125
# Shear Modulus (GPa) = 25.41421 32.59622 29.00521
#
# Velocity S-wave (km/s) = 3.32024 3.76023 3.54706
# Velocity P-wave (km/s) = 5.58720 6.31733 5.96345
#
# Compressibility (1/GPa) = 0.02626032
#
# Stress axis : x y z
#
# Youngs Moduli (GPa) = 66.69185 139.09208 70.90674
#
# Poissons Ratio (x) = 0.32171 -0.03260
# Poissons Ratio (y) = 0.15425 0.22407
# Poissons Ratio (z) = -0.03067 0.43955
#
# Static dielectric constant tensor:
#      x y z
#    x 2.018810 0.000000 0.000000 
#    y 0.000000 1.940090 0.000000 
#    z 0.000000 0.000000 1.803170 
# 
# From -- ./inp_files/10413.got.cif
#   From: 2010.05.17/outbox.cif.g08.bks.cpg/sg56_6_cif.got.tgz:10413.got - 2010.06.03 13:42:01.
