data_PCOD9430836
_publ_section_title
;
Structure prediction by ZEFSAII (Michael W. Deem and Ramdas Pophale) SiO2 
 PCOD9430836
Probable space group: P C C N
;
_chemical_formula_sum "Si O2"
_cell_formula_units_Z 36
_cell_length_a 7.889741
_cell_length_b 7.248994
_cell_length_c 24.383113
_cell_angle_alpha 90.000000
_cell_angle_beta 90.000000
_cell_angle_gamma 90.000000
_cell_volume 1394.535705
_symmetry_space_group_name_H-M "P C C N"
_symmetry_group_IT_number 56
_symmetry_cell_setting 'orthorhombic'
loop_
_space_group_symop_operation_xyz
x,y,z
1/2-x,1/2-y,z
1/2+x,-y,1/2-z
-x,1/2+y,1/2-z
-x,-y,-z
1/2+x,1/2+y,-z
1/2-x,y,1/2+z
x,1/2-y,1/2+z
loop_
_atom_site_type_symbol
_atom_site_label
_atom_site_fract_x
_atom_site_fract_y
_atom_site_fract_z
Si Si1 0.560380 0.216094 0.492218
Si Si2 0.250000 0.250000 0.059487
Si Si3 0.376641 0.422357 0.228821
Si Si4 0.217153 0.938705 0.829608
Si Si5 0.582159 0.404067 0.878981
O O1 0.750000 0.250000 0.514210
O O2 0.405846 0.320174 0.521708
O O3 0.580868 0.247632 0.426533
O O4 0.500000 0.000000 0.500000
O O5 0.330578 0.411724 0.096064
O O6 0.250000 0.250000 0.220660
O O7 0.571341 0.379344 0.214713
O O8 0.360772 0.475670 0.292316
O O9 0.345985 0.581890 0.183101
O O10 0.250000 0.750000 0.860127
O O11 0.118199 0.071899 0.869022
#
# Coordination Sequence:
#
# PCOD9430836 Si02
#       5
#     8   4   8   8   8
#     4  10  23  43  66 101 133 174 235 291 347 419
#     4  10  20  44  68  94 134 176 234 284 344 420
#     4  10  20  38  59  92 126 175 218 272 343 414
#     4  10  21  38  62  91 131 175 225 276 340 426
#     4   9  21  37  64  91 131 175 218 276 351 406
#
# _framework density 25.815045999999999
#
# number of rings (size 3 to 8) (size 9 to 14) (size 15 to 20)
#    1.333    0.889    1.111    1.333    0.000    8.000 
#    2.000    2.222    0.000    0.000    0.000    0.000 
#    0.000    0.000    0.000    0.000    0.000    0.000 
#
# Total GULP energy -200467.073860 kJ/mol
# GULP energy per Si atom -5568.529829 kJ/mol
# Density = 2.575629 g / cm^3
# Si number density = 25.815046 Si / 1000 Ang^3
#
#
#
# Elastic Constant Matrix: (Units=GPa)
#
#
# Indices 1 2 3 4 5 6 
#
# 1 102.4064 10.0530 13.0479 0.0000 0.0000 0.0000
# 2 10.0530 53.8394 9.4221 0.0000 0.0000 0.0000
# 3 13.0479 9.4221 113.9644 0.0000 0.0000 0.0000
# 4 0.0000 0.0000 0.0000 26.3283 0.0000 0.0000
# 5 0.0000 0.0000 0.0000 0.0000 19.9716 0.0000
# 6 0.0000 0.0000 0.0000 0.0000 0.0000 42.2511
#
#
#
# Elastic Compliance Matrix: (Units=1/GPa)
#
#
# Indices 1 2 3 4 5 6 
#
# 1 0.010061 -0.001702 -0.001011 0.000000 0.000000 0.000000
# 2 -0.001702 0.019134 -0.001387 0.000000 0.000000 0.000000
# 3 -0.001011 -0.001387 0.009005 0.000000 0.000000 0.000000
# 4 0.000000 0.000000 0.000000 0.037982 0.000000 0.000000
# 5 0.000000 0.000000 0.000000 0.000000 0.050071 0.000000
# 6 0.000000 0.000000 0.000000 0.000000 0.000000 0.023668
#
#
# Mechanical properties :
#
#
# Convention : Reuss Voigt Hill
#
# Bulk Modulus (GPa) = 33.33292 37.25069 35.29181
# Shear Modulus (GPa) = 29.74043 33.55600 31.64821
#
# Velocity S-wave (km/s) = 3.39788 3.60927 3.50517
# Velocity P-wave (km/s) = 5.32300 5.64183 5.48474
#
# Compressibility (1/GPa) = 0.03000037
#
# Stress axis : x y z
#
# Youngs Moduli (GPa) = 99.39467 52.26237 111.04784
#
# Poissons Ratio (x) = 0.08893 0.11229
# Poissons Ratio (y) = 0.16913 0.15404
# Poissons Ratio (z) = 0.10051 0.07249
#
# Static dielectric constant tensor:
#      x y z
#    x 2.099950 0.000000 0.000000 
#    y 0.000000 2.236620 0.000000 
#    z 0.000000 0.000000 2.044950 
# 
# From -- ./inp_files/21930.got.cif
#   From: 2010.05.17/outbox.cif.g08.bks.cpg/sg56_11_cif.got.tgz:21930.got - 2010.06.03 13:42:01.
