data_PCOD9430789
_publ_section_title
;
Structure prediction by ZEFSAII (Michael W. Deem and Ramdas Pophale) SiO2 
 PCOD9430789
Probable space group: P C C N
;
_chemical_formula_sum "Si O2"
_cell_formula_units_Z 60
_cell_length_a 19.365410
_cell_length_b 10.997355
_cell_length_c 13.488708
_cell_angle_alpha 90.000000
_cell_angle_beta 90.000000
_cell_angle_gamma 90.000000
_cell_volume 2872.667057
_symmetry_space_group_name_H-M "P C C N"
_symmetry_group_IT_number 56
_symmetry_cell_setting 'orthorhombic'
loop_
_space_group_symop_operation_xyz
x,y,z
1/2-x,1/2-y,z
1/2+x,-y,1/2-z
-x,1/2+y,1/2-z
-x,-y,-z
1/2+x,1/2+y,-z
1/2-x,y,1/2+z
x,1/2-y,1/2+z
loop_
_atom_site_type_symbol
_atom_site_label
_atom_site_fract_x
_atom_site_fract_y
_atom_site_fract_z
Si Si1 0.919648 0.040210 0.884007
Si Si2 0.666267 0.430688 0.371874
Si Si3 0.323380 0.111062 0.299196
Si Si4 0.928711 0.064173 0.101664
Si Si5 0.953485 0.203195 0.288924
Si Si6 0.385944 0.369589 0.281837
Si Si7 0.750000 0.250000 0.732528
Si Si8 0.700226 0.467411 0.597346
O O1 0.937244 0.160659 0.822510
O O2 0.874201 0.948460 0.818635
O O3 0.896076 0.081165 0.993300
O O4 0.990431 0.966605 0.903273
O O5 0.680788 0.553401 0.310443
O O6 0.585998 0.390908 0.362314
O O7 0.702223 0.326529 0.306197
O O8 0.695565 0.438804 0.481711
O O9 0.336327 0.253546 0.290609
O O10 0.390974 0.049582 0.348073
O O11 0.261760 0.058195 0.367039
O O12 0.924295 0.174337 0.178900
O O13 0.035092 0.175614 0.287050
O O14 0.368778 0.462721 0.369526
O O15 0.712385 0.346609 0.661769
#
# Coordination Sequence:
#
# PCOD9430789 Si02
#       8
#     8   8   8   8   8   8   4   8
#     4  10  20  37  63  91 120 169 215 259 329 390
#     4  10  23  41  65  98 122 172 213 269 331 384
#     4  10  22  43  62  90 136 165 214 274 317 388
#     4   9  20  38  60  90 120 169 213 261 330 381
#     4  10  21  39  63  92 134 162 216 282 320 385
#     4  11  23  40  62  93 131 172 214 268 329 383
#     4  10  22  44  68  94 128 160 218 278 320 392
#     4  11  24  41  65  94 127 171 217 267 332 392
#
# _framework density 20.886513000000001
#
# number of rings (size 3 to 8) (size 9 to 14) (size 15 to 20)
#    0.000    1.867    1.333    1.600    0.000    9.067 
#    2.400    2.667    0.000    0.000    0.000    0.000 
#    0.000    0.000    0.000    0.000    0.000    0.000 
#
# Total GULP energy -334970.854413 kJ/mol
# GULP energy per Si atom -5582.847574 kJ/mol
# Density = 2.083897 g / cm^3
# Si number density = 20.886513 Si / 1000 Ang^3
#
#
#
# Elastic Constant Matrix: (Units=GPa)
#
#
# Indices 1 2 3 4 5 6 
#
# 1 56.6912 30.7150 31.6532 0.0000 0.0000 0.0000
# 2 30.7150 138.7616 80.1162 0.0000 0.0000 0.0000
# 3 31.6532 80.1162 175.2391 0.0000 0.0000 0.0000
# 4 0.0000 0.0000 0.0000 13.2985 0.0000 0.0000
# 5 0.0000 0.0000 0.0000 0.0000 21.6208 0.0000
# 6 0.0000 0.0000 0.0000 0.0000 0.0000 21.2900
#
#
#
# Elastic Compliance Matrix: (Units=1/GPa)
#
#
# Indices 1 2 3 4 5 6 
#
# 1 0.020665 -0.003287 -0.002230 0.000000 0.000000 0.000000
# 2 -0.003287 0.010314 -0.004122 0.000000 0.000000 0.000000
# 3 -0.002230 -0.004122 0.007994 0.000000 0.000000 0.000000
# 4 0.000000 0.000000 0.000000 0.075196 0.000000 0.000000
# 5 0.000000 0.000000 0.000000 0.000000 0.046252 0.000000
# 6 0.000000 0.000000 0.000000 0.000000 0.000000 0.046970
#
#
# Mechanical properties :
#
#
# Convention : Reuss Voigt Hill
#
# Bulk Modulus (GPa) = 50.77204 72.85118 61.81161
# Shear Modulus (GPa) = 21.43775 26.45570 23.94672
#
# Velocity S-wave (km/s) = 3.20721 3.56285 3.38970
# Velocity P-wave (km/s) = 6.17059 7.20281 6.70659
#
# Compressibility (1/GPa) = 0.01969588
#
# Stress axis : x y z
#
# Youngs Moduli (GPa) = 48.39030 96.95751 125.09946
#
# Poissons Ratio (x) = 0.31867 0.27899
# Poissons Ratio (y) = 0.15904 0.51561
# Poissons Ratio (z) = 0.10792 0.39962
#
# Static dielectric constant tensor:
#      x y z
#    x 1.812050 0.000000 0.000000 
#    y 0.000000 1.722470 0.000000 
#    z 0.000000 0.000000 1.750540 
# 
# From -- ./inp_files/8694.got.cif
#   From: 2010.05.17/outbox.cif.g08.bks.cpg/sg56_5_cif.got.tgz:8694.got - 2010.06.03 13:42:01.
