data_PCOD9430107
_publ_section_title
;
Structure prediction by ZEFSAII (Michael W. Deem and Ramdas Pophale) SiO2 
 PCOD9430107
Probable space group: P C C N
;
_chemical_formula_sum "Si O2"
_cell_formula_units_Z 48
_cell_length_a 8.132632
_cell_length_b 14.341778
_cell_length_c 18.605828
_cell_angle_alpha 90.000000
_cell_angle_beta 90.000000
_cell_angle_gamma 90.000000
_cell_volume 2170.116847
_symmetry_space_group_name_H-M "P C C N"
_symmetry_group_IT_number 56
_symmetry_cell_setting 'orthorhombic'
loop_
_space_group_symop_operation_xyz
x,y,z
1/2-x,1/2-y,z
1/2+x,-y,1/2-z
-x,1/2+y,1/2-z
-x,-y,-z
1/2+x,1/2+y,-z
1/2-x,y,1/2+z
x,1/2-y,1/2+z
loop_
_atom_site_type_symbol
_atom_site_label
_atom_site_fract_x
_atom_site_fract_y
_atom_site_fract_z
Si Si1 0.075836 0.789349 0.285214
Si Si2 0.116588 0.311652 0.084269
Si Si3 0.219118 0.503147 0.634181
Si Si4 0.420355 0.902310 0.026684
Si Si5 0.903107 0.682914 0.163410
Si Si6 0.479559 0.494501 0.260235
O O1 0.250000 0.750000 0.307655
O O2 0.068324 0.901422 0.284315
O O3 0.938019 0.760891 0.342784
O O4 0.033044 0.744306 0.208629
O O5 0.250000 0.250000 0.043056
O O6 0.213303 0.405680 0.104700
O O7 0.950502 0.336152 0.041203
O O8 0.250259 0.574370 0.568097
O O9 0.348351 0.527857 0.699226
O O10 0.044616 0.496269 0.674032
O O11 0.529766 0.856221 0.088983
O O12 0.500000 0.000000 0.000000
O O13 0.750000 0.750000 0.154307
O O14 0.866725 0.590513 0.211030
#
# Coordination Sequence:
#
# PCOD9430107 Si02
#       6
#     8   8   8   8   8   8
#     4  11  22  35  55  85 116 150 191 245 306 358
#     4  10  19  34  54  77 107 146 191 234 280 345
#     4   9  18  32  54  77 106 145 185 229 292 347
#     4   9  19  35  55  81 114 153 192 243 303 354
#     4  11  21  36  61  89 113 153 210 251 290 361
#     4  10  19  34  53  81 115 143 181 246 295 337
#
# _framework density 22.118624000000001
#
# number of rings (size 3 to 8) (size 9 to 14) (size 15 to 20)
#    0.000    2.000    0.000    7.000    0.000    0.000 
#    0.000    2.500    0.000    0.000    0.000   30.333 
#    0.000    0.000    0.000    0.000    0.000    0.000 
#
# Total GULP energy -267525.092786 kJ/mol
# GULP energy per Si atom -5573.439433 kJ/mol
# Density = 2.206828 g / cm^3
# Si number density = 22.118624 Si / 1000 Ang^3
#
#
#
# Elastic Constant Matrix: (Units=GPa)
#
#
# Indices 1 2 3 4 5 6 
#
# 1 35.6935 15.2742 5.6663 0.0000 0.0000 0.0000
# 2 15.2742 89.1963 18.2203 0.0000 0.0000 0.0000
# 3 5.6663 18.2203 74.9126 0.0000 0.0000 0.0000
# 4 0.0000 0.0000 0.0000 28.5144 0.0000 0.0000
# 5 0.0000 0.0000 0.0000 0.0000 19.0081 0.0000
# 6 0.0000 0.0000 0.0000 0.0000 0.0000 19.1503
#
#
#
# Elastic Compliance Matrix: (Units=1/GPa)
#
#
# Indices 1 2 3 4 5 6 
#
# 1 0.030315 -0.004970 -0.001084 0.000000 0.000000 0.000000
# 2 -0.004970 0.012612 -0.002692 0.000000 0.000000 0.000000
# 3 -0.001084 -0.002692 0.014086 0.000000 0.000000 0.000000
# 4 0.000000 0.000000 0.000000 0.035070 0.000000 0.000000
# 5 0.000000 0.000000 0.000000 0.000000 0.052609 0.000000
# 6 0.000000 0.000000 0.000000 0.000000 0.000000 0.052218
#
#
# Mechanical properties :
#
#
# Convention : Reuss Voigt Hill
#
# Bulk Modulus (GPa) = 25.30267 30.90265 28.10266
# Shear Modulus (GPa) = 21.97074 24.04401 23.00737
#
# Velocity S-wave (km/s) = 3.15511 3.30062 3.22868
# Velocity P-wave (km/s) = 4.97366 5.34108 5.16064
#
# Compressibility (1/GPa) = 0.03952152
#
# Stress axis : x y z
#
# Youngs Moduli (GPa) = 32.98688 79.28903 70.99468
#
# Poissons Ratio (x) = 0.39405 0.07698
# Poissons Ratio (y) = 0.16394 0.19109
# Poissons Ratio (z) = 0.03577 0.21342
#
# Static dielectric constant tensor:
#      x y z
#    x 1.883640 0.000000 0.000000 
#    y 0.000000 1.837840 0.000000 
#    z 0.000000 0.000000 1.856950 
# 
# From -- ./inp_files/18060.got.cif
#   From: 2010.05.17/outbox.cif.g08.bks.cpg/sg56_10_cif.got.tgz:18060.got - 2010.06.03 13:42:01.
