data_PCOD9430437
_publ_section_title
;
Structure prediction by ZEFSAII (Michael W. Deem and Ramdas Pophale) SiO2 
 PCOD9430437
Probable space group: P C C N
;
_chemical_formula_sum "Si O2"
_cell_formula_units_Z 40
_cell_length_a 13.024366
_cell_length_b 18.916694
_cell_length_c 7.905033
_cell_angle_alpha 90.000000
_cell_angle_beta 90.000000
_cell_angle_gamma 90.000000
_cell_volume 1947.625795
_symmetry_space_group_name_H-M "P C C N"
_symmetry_group_IT_number 56
_symmetry_cell_setting 'orthorhombic'
loop_
_space_group_symop_operation_xyz
x,y,z
1/2-x,1/2-y,z
1/2+x,-y,1/2-z
-x,1/2+y,1/2-z
-x,-y,-z
1/2+x,1/2+y,-z
1/2-x,y,1/2+z
x,1/2-y,1/2+z
loop_
_atom_site_type_symbol
_atom_site_label
_atom_site_fract_x
_atom_site_fract_y
_atom_site_fract_z
Si Si1 0.637817 0.268983 0.934544
Si Si2 0.371027 0.589595 0.842897
Si Si3 0.327905 0.967614 0.689862
Si Si4 0.034678 0.844168 0.345773
Si Si5 0.555656 0.934635 0.096481
O O1 0.750000 0.250000 0.857563
O O2 0.543303 0.291003 0.812199
O O3 0.648367 0.334893 0.065441
O O4 0.604257 0.197207 0.021468
O O5 0.284309 0.565734 0.710101
O O6 0.478044 0.588860 0.745350
O O7 0.361653 0.532083 0.994786
O O8 0.403694 0.910555 0.773575
O O9 0.345018 0.036854 0.804227
O O10 0.938637 0.874489 0.451193
O O11 0.500000 0.000000 0.000000
#
# Coordination Sequence:
#
# PCOD9430437 Si02
#       5
#     8   8   8   8   8
#     4  11  20  31  52  80 115 146 186 219 287 357
#     4  11  21  34  56  80 107 153 187 234 292 336
#     4  10  20  34  52  75 109 148 191 231 279 340
#     4  10  20  30  47  74 108 149 173 224 268 338
#     4  10  21  36  49  73 113 150 193 233 271 340
#
# _framework density 20.537825000000002
#
# number of rings (size 3 to 8) (size 9 to 14) (size 15 to 20)
#    0.000    1.600    2.000    4.800    5.600    0.000 
#    0.000    0.000    0.000    0.000    0.000    0.000 
#    0.000  193.600    0.000    0.000    0.000    0.000 
#
# Total GULP energy -222731.354141 kJ/mol
# GULP energy per Si atom -5568.283854 kJ/mol
# Density = 2.049108 g / cm^3
# Si number density = 20.537825 Si / 1000 Ang^3
#
#
#
# Elastic Constant Matrix: (Units=GPa)
#
#
# Indices 1 2 3 4 5 6 
#
# 1 24.2076 6.4602 9.1742 0.0000 0.0000 0.0000
# 2 6.4602 18.2897 30.4111 0.0000 0.0000 0.0000
# 3 9.1742 30.4111 85.3092 0.0000 0.0000 0.0000
# 4 0.0000 0.0000 0.0000 23.7180 0.0000 0.0000
# 5 0.0000 0.0000 0.0000 0.0000 25.2534 0.0000
# 6 0.0000 0.0000 0.0000 0.0000 0.0000 23.7294
#
#
#
# Elastic Compliance Matrix: (Units=1/GPa)
#
#
# Indices 1 2 3 4 5 6 
#
# 1 0.045756 -0.019594 0.002064 0.000000 0.000000 0.000000
# 2 -0.019594 0.142643 -0.048742 0.000000 0.000000 0.000000
# 3 0.002064 -0.048742 0.028876 0.000000 0.000000 0.000000
# 4 0.000000 0.000000 0.000000 0.042162 0.000000 0.000000
# 5 0.000000 0.000000 0.000000 0.000000 0.039599 0.000000
# 6 0.000000 0.000000 0.000000 0.000000 0.000000 0.042142
#
#
# Mechanical properties :
#
#
# Convention : Reuss Voigt Hill
#
# Bulk Modulus (GPa) = 11.80216 24.43305 18.11761
# Shear Modulus (GPa) = 9.96083 19.99089 14.97586
#
# Velocity S-wave (km/s) = 2.20466 3.12327 2.70327
# Velocity P-wave (km/s) = 3.49853 4.99288 4.31095
#
# Compressibility (1/GPa) = 0.08473025
#
# Stress axis : x y z
#
# Youngs Moduli (GPa) = 21.85502 7.01049 34.63102
#
# Poissons Ratio (x) = 0.13737 -0.07149
# Poissons Ratio (y) = 0.42824 1.68800
# Poissons Ratio (z) = -0.04512 0.34171
#
# Static dielectric constant tensor:
#      x y z
#    x 1.764420 0.000000 0.000000 
#    y 0.000000 1.804430 0.000000 
#    z 0.000000 0.000000 1.848090 
# 
# From -- ./inp_files/2579.got.cif
#   From: 2010.05.17/outbox.cif.g08.bks.cpg/sg56_2_cif.got.tgz:2579.got - 2010.06.03 13:42:01.
