data_PCOD9430820
_publ_section_title
;
Structure prediction by ZEFSAII (Michael W. Deem and Ramdas Pophale) SiO2 
 PCOD9430820
Probable space group: P C C N
;
_chemical_formula_sum "Si O2"
_cell_formula_units_Z 60
_cell_length_a 5.411249
_cell_length_b 21.538720
_cell_length_c 21.981722
_cell_angle_alpha 90.000000
_cell_angle_beta 90.000000
_cell_angle_gamma 90.000000
_cell_volume 2561.999969
_symmetry_space_group_name_H-M "P C C N"
_symmetry_group_IT_number 56
_symmetry_cell_setting 'orthorhombic'
loop_
_space_group_symop_operation_xyz
x,y,z
1/2-x,1/2-y,z
1/2+x,-y,1/2-z
-x,1/2+y,1/2-z
-x,-y,-z
1/2+x,1/2+y,-z
1/2-x,y,1/2+z
x,1/2-y,1/2+z
loop_
_atom_site_type_symbol
_atom_site_label
_atom_site_fract_x
_atom_site_fract_y
_atom_site_fract_z
Si Si1 0.502165 0.748545 0.199210
Si Si2 0.914284 0.169230 0.182579
Si Si3 0.327561 0.916934 0.140623
Si Si4 0.753292 0.042139 0.495416
Si Si5 0.250000 0.250000 0.091814
Si Si6 0.463096 0.637344 0.413708
Si Si7 0.349761 0.119838 0.296565
Si Si8 0.747594 0.557141 0.821789
O O1 0.750000 0.750000 0.157383
O O2 0.421497 0.797421 0.252318
O O3 0.609435 0.687604 0.233789
O O4 0.250000 0.750000 0.161678
O O5 0.662467 0.166714 0.145955
O O6 0.087849 0.206969 0.136486
O O7 0.998887 0.097323 0.189153
O O8 0.298297 0.924543 0.068847
O O9 0.593905 0.893323 0.166633
O O10 0.087333 0.879554 0.161004
O O11 0.268999 0.984928 0.167755
O O12 0.774097 0.096357 0.546462
O O13 0.500000 0.000000 0.500000
O O14 0.000000 0.000000 0.500000
O O15 0.406460 0.197252 0.055926
O O16 0.647095 0.587467 0.383553
O O17 0.382462 0.072023 0.241667
#
# Coordination Sequence:
#
# PCOD9430820 Si02
#       8
#     8   8   8   8   4   8   8   8
#     4  12  22  41  67  98 140 186 243 293 359 444
#     4  11  21  38  67 109 139 180 240 307 380 437
#     4  12  27  46  68 105 152 199 245 297 376 465
#     4  12  26  51  78 108 145 200 266 319 380 465
#     4  10  20  38  58 108 140 172 232 310 388 432
#     4  11  24  40  76 107 146 191 248 331 389 448
#     4  12  26  44  68 104 150 195 237 301 374 463
#     4  11  23  40  68 107 145 187 235 309 381 448
#
# _framework density 23.419203
#
# number of rings (size 3 to 8) (size 9 to 14) (size 15 to 20)
#    0.000    0.533    3.333    6.000    5.600    0.000 
#    0.000    0.000    4.400    0.000    0.000    0.000 
#    0.000    0.000    0.000    0.000    0.000    0.000 
#
# Total GULP energy -334105.277180 kJ/mol
# GULP energy per Si atom -5568.421286 kJ/mol
# Density = 2.336590 g / cm^3
# Si number density = 23.419203 Si / 1000 Ang^3
#
#
#
# Elastic Constant Matrix: (Units=GPa)
#
#
# Indices 1 2 3 4 5 6 
#
# 1 158.9682 55.4171 25.9279 0.0000 0.0000 0.0000
# 2 55.4171 118.4406 25.1125 0.0000 0.0000 0.0000
# 3 25.9279 25.1125 98.5938 0.0000 0.0000 0.0000
# 4 0.0000 0.0000 0.0000 19.2396 0.0000 0.0000
# 5 0.0000 0.0000 0.0000 0.0000 28.6311 0.0000
# 6 0.0000 0.0000 0.0000 0.0000 0.0000 43.4125
#
#
#
# Elastic Compliance Matrix: (Units=1/GPa)
#
#
# Indices 1 2 3 4 5 6 
#
# 1 0.007640 -0.003329 -0.001161 0.000000 0.000000 0.000000
# 2 -0.003329 0.010375 -0.001767 0.000000 0.000000 0.000000
# 3 -0.001161 -0.001767 0.010898 0.000000 0.000000 0.000000
# 4 0.000000 0.000000 0.000000 0.051976 0.000000 0.000000
# 5 0.000000 0.000000 0.000000 0.000000 0.034927 0.000000
# 6 0.000000 0.000000 0.000000 0.000000 0.000000 0.023035
#
#
# Mechanical properties :
#
#
# Convention : Reuss Voigt Hill
#
# Bulk Modulus (GPa) = 60.97883 65.43529 63.20706
# Shear Modulus (GPa) = 31.88111 36.22631 34.05371
#
# Velocity S-wave (km/s) = 3.69361 3.93729 3.81739
# Velocity P-wave (km/s) = 6.65469 6.97647 6.81748
#
# Compressibility (1/GPa) = 0.01639913
#
# Stress axis : x y z
#
# Youngs Moduli (GPa) = 130.88385 96.38392 91.75830
#
# Poissons Ratio (x) = 0.32082 0.10657
# Poissons Ratio (y) = 0.43566 0.16216
# Poissons Ratio (z) = 0.15201 0.17034
#
# Static dielectric constant tensor:
#      x y z
#    x 2.477710 0.000000 0.000000 
#    y 0.000000 2.417230 0.000000 
#    z 0.000000 0.000000 1.867080 
# 
# From -- ./inp_files/20170.got.cif
#   From: 2010.05.17/outbox.cif.g08.bks.cpg/sg56_11_cif.got.tgz:20170.got - 2010.06.03 13:42:01.
