data_PCOD9430091
_publ_section_title
;
Structure prediction by ZEFSAII (Michael W. Deem and Ramdas Pophale) SiO2 
 PCOD9430091
Probable space group: P C C N
;
_chemical_formula_sum "Si O2"
_cell_formula_units_Z 52
_cell_length_a 18.270310
_cell_length_b 7.750095
_cell_length_c 15.868999
_cell_angle_alpha 90.000000
_cell_angle_beta 90.000000
_cell_angle_gamma 90.000000
_cell_volume 2246.996910
_symmetry_space_group_name_H-M "P C C N"
_symmetry_group_IT_number 56
_symmetry_cell_setting 'orthorhombic'
loop_
_space_group_symop_operation_xyz
x,y,z
1/2-x,1/2-y,z
1/2+x,-y,1/2-z
-x,1/2+y,1/2-z
-x,-y,-z
1/2+x,1/2+y,-z
1/2-x,y,1/2+z
x,1/2-y,1/2+z
loop_
_atom_site_type_symbol
_atom_site_label
_atom_site_fract_x
_atom_site_fract_y
_atom_site_fract_z
Si Si1 0.957159 0.875651 0.276141
Si Si2 0.964622 0.687095 0.593316
Si Si3 0.250000 0.250000 0.457912
Si Si4 0.633181 0.284083 0.908552
Si Si5 0.107994 0.115479 0.548572
Si Si6 0.832565 0.435558 0.575026
Si Si7 0.614155 0.252020 0.228101
O O1 0.943840 0.770176 0.189983
O O2 0.920436 0.812550 0.362163
O O3 0.044561 0.869335 0.289650
O O4 0.923689 0.064003 0.255012
O O5 0.948072 0.836170 0.526223
O O6 0.912619 0.526239 0.572161
O O7 0.049960 0.643221 0.592631
O O8 0.182237 0.201156 0.516446
O O9 0.224736 0.414392 0.403915
O O10 0.657800 0.301640 0.811894
O O11 0.622364 0.085947 0.936718
O O12 0.680807 0.372529 0.980339
O O13 0.839217 0.288390 0.644881
#
# Coordination Sequence:
#
# PCOD9430091 Si02
#       7
#     8   8   4   8   8   8   8
#     4   9  18  32  53  82 118 146 182 233 292 353
#     4   9  18  33  55  87 116 146 182 231 301 361
#     4  10  24  40  56  76 110 162 208 234 278 342
#     4  10  19  33  59  88 113 142 188 245 301 348
#     4  10  20  36  54  79 114 152 190 238 285 338
#     4  10  20  37  58  82 119 156 193 240 283 343
#     4   9  19  34  56  89 119 147 183 236 302 361
#
# _framework density 23.142001
#
# number of rings (size 3 to 8) (size 9 to 14) (size 15 to 20)
#    0.000    2.462    0.000    1.846    0.000    9.231 
#    0.000   12.308    0.000    5.538    0.000    0.000 
#    0.000    0.000    0.000    0.000    0.000    0.000 
#
# Total GULP energy -290453.521484 kJ/mol
# GULP energy per Si atom -5585.644644 kJ/mol
# Density = 2.308933 g / cm^3
# Si number density = 23.142001 Si / 1000 Ang^3
#
#
#
# Elastic Constant Matrix: (Units=GPa)
#
#
# Indices 1 2 3 4 5 6 
#
# 1 54.5203 1.1154 11.5423 0.0000 0.0000 0.0000
# 2 1.1154 23.2682 13.8008 0.0000 0.0000 0.0000
# 3 11.5423 13.8008 115.5894 0.0000 0.0000 0.0000
# 4 0.0000 0.0000 0.0000 29.1450 0.0000 0.0000
# 5 0.0000 0.0000 0.0000 0.0000 -26.2092 0.0000
# 6 0.0000 0.0000 0.0000 0.0000 0.0000 33.4467
#
#
#
# Elastic Compliance Matrix: (Units=1/GPa)
#
#
# Indices 1 2 3 4 5 6 
#
# 1 0.018739 0.000228 -0.001898 0.000000 0.000000 0.000000
# 2 0.000228 0.046255 -0.005545 0.000000 0.000000 0.000000
# 3 -0.001898 -0.005545 0.009503 0.000000 0.000000 0.000000
# 4 0.000000 0.000000 0.000000 0.034311 0.000000 0.000000
# 5 0.000000 0.000000 0.000000 0.000000 -0.038155 0.000000
# 6 0.000000 0.000000 0.000000 0.000000 0.000000 0.029898
#
#
# Mechanical properties :
#
#
# Convention : Reuss Voigt Hill
#
# Bulk Modulus (GPa) = 16.64861 27.36610 22.00736
# Shear Modulus (GPa) = 37.03536 18.40446 27.71991
#
# Velocity S-wave (km/s) = 4.00478 2.82314 3.46471
# Velocity P-wave (km/s) = 5.34734 4.74107 5.05331
#
# Compressibility (1/GPa) = 0.06006507
#
# Stress axis : x y z
#
# Youngs Moduli (GPa) = 53.36455 21.61917 105.23027
#
# Poissons Ratio (x) = -0.00492 0.19977
# Poissons Ratio (y) = -0.01215 0.58354
# Poissons Ratio (z) = 0.10131 0.11989
#
# Static dielectric constant tensor:
#      x y z
#    x 1.885490 0.000000 0.000000 
#    y 0.000000 1.928380 0.000000 
#    z 0.000000 0.000000 1.903420 
# 
# From -- ./inp_files/10831.got.cif
#   From: 2010.05.17/outbox.cif.g08.bks.cpg/sg56_6_cif.got.tgz:10831.got - 2010.06.03 13:42:01.
