data_PCOD9430175
_publ_section_title
;
Structure prediction by ZEFSAII (Michael W. Deem and Ramdas Pophale) SiO2 
 PCOD9430175
Probable space group: P C C N
;
_chemical_formula_sum "Si O2"
_cell_formula_units_Z 48
_cell_length_a 8.480303
_cell_length_b 12.375366
_cell_length_c 18.524126
_cell_angle_alpha 90.000000
_cell_angle_beta 90.000000
_cell_angle_gamma 90.000000
_cell_volume 1944.048736
_symmetry_space_group_name_H-M "P C C N"
_symmetry_group_IT_number 56
_symmetry_cell_setting 'orthorhombic'
loop_
_space_group_symop_operation_xyz
x,y,z
1/2-x,1/2-y,z
1/2+x,-y,1/2-z
-x,1/2+y,1/2-z
-x,-y,-z
1/2+x,1/2+y,-z
1/2-x,y,1/2+z
x,1/2-y,1/2+z
loop_
_atom_site_type_symbol
_atom_site_label
_atom_site_fract_x
_atom_site_fract_y
_atom_site_fract_z
Si Si1 0.750000 0.250000 0.703871
Si Si2 0.264419 0.524926 0.471270
Si Si3 0.233357 0.109673 0.234788
Si Si4 0.250000 0.750000 0.049592
Si Si5 0.410215 0.032741 0.115701
Si Si6 0.960436 0.295164 0.824460
Si Si7 0.921381 0.461043 0.655292
O O1 0.879891 0.219595 0.764046
O O2 0.832236 0.344879 0.660375
O O3 0.258252 0.645004 0.501813
O O4 0.412941 0.522784 0.415838
O O5 0.306163 0.457715 0.542953
O O6 0.109625 0.497627 0.425370
O O7 0.361442 0.128338 0.170416
O O8 0.128205 0.185035 0.287607
O O9 0.095461 0.053406 0.186379
O O10 0.326317 0.037343 0.291236
O O11 0.093609 0.756603 0.100374
O O12 0.394560 0.918409 0.160090
#
# Coordination Sequence:
#
# PCOD9430175 Si02
#       7
#     4   8   8   4   8   8   8
#     4   9  17  30  54  84 112 154 204 260 306 380
#     4  10  20  35  57  90 120 162 215 263 316 397
#     4  11  19  34  58  92 121 161 214 270 316 383
#     4   9  19  34  60  90 116 164 212 266 316 380
#     4  10  19  35  58  89 121 160 212 269 318 376
#     4   9  17  33  57  89 117 155 213 264 313 374
#     4  11  20  33  58  88 120 162 215 263 324 385
#
# _framework density 24.690739000000001
#
# number of rings (size 3 to 8) (size 9 to 14) (size 15 to 20)
#    0.000    2.000    5.000    0.500    0.000    0.667 
#    0.000    0.000    0.000   25.000    4.333    0.000 
#    0.000    0.000    0.000    0.000    0.000    0.000 
#
# Total GULP energy -267510.861884 kJ/mol
# GULP energy per Si atom -5573.142956 kJ/mol
# Density = 2.463454 g / cm^3
# Si number density = 24.690739 Si / 1000 Ang^3
#
#
#
# Elastic Constant Matrix: (Units=GPa)
#
#
# Indices 1 2 3 4 5 6 
#
# 1 91.7630 24.8798 56.4506 0.0000 0.0000 0.0000
# 2 24.8798 35.2702 15.3579 0.0000 0.0000 0.0000
# 3 56.4506 15.3579 166.6819 0.0000 0.0000 0.0000
# 4 0.0000 0.0000 0.0000 11.3767 0.0000 0.0000
# 5 0.0000 0.0000 0.0000 0.0000 46.3742 0.0000
# 6 0.0000 0.0000 0.0000 0.0000 0.0000 38.3470
#
#
#
# Elastic Compliance Matrix: (Units=1/GPa)
#
#
# Indices 1 2 3 4 5 6 
#
# 1 0.016338 -0.009497 -0.004658 0.000000 0.000000 0.000000
# 2 -0.009497 0.035058 -0.000014 0.000000 0.000000 0.000000
# 3 -0.004658 -0.000014 0.007578 0.000000 0.000000 0.000000
# 4 0.000000 0.000000 0.000000 0.087899 0.000000 0.000000
# 5 0.000000 0.000000 0.000000 0.000000 0.021564 0.000000
# 6 0.000000 0.000000 0.000000 0.000000 0.000000 0.026078
#
#
# Mechanical properties :
#
#
# Convention : Reuss Voigt Hill
#
# Bulk Modulus (GPa) = 32.64089 54.12130 43.38109
# Shear Modulus (GPa) = 21.45335 32.35471 26.90403
#
# Velocity S-wave (km/s) = 2.95088 3.62387 3.30455
# Velocity P-wave (km/s) = 4.98586 6.28309 5.67168
#
# Compressibility (1/GPa) = 0.03063642
#
# Stress axis : x y z
#
# Youngs Moduli (GPa) = 61.20658 28.52454 131.95466
#
# Poissons Ratio (x) = 0.27089 0.61468
# Poissons Ratio (y) = 0.58125 0.00184
# Poissons Ratio (z) = 0.28512 0.00040
#
# Static dielectric constant tensor:
#      x y z
#    x 2.075060 0.000000 0.000000 
#    y 0.000000 2.058580 0.000000 
#    z 0.000000 0.000000 1.953410 
# 
# From -- ./inp_files/18097.got.cif
#   From: 2010.05.17/outbox.cif.g08.bks.cpg/sg56_10_cif.got.tgz:18097.got - 2010.06.03 13:42:01.
