data_PCOD9430375
_publ_section_title
;
Structure prediction by ZEFSAII (Michael W. Deem and Ramdas Pophale) SiO2 
 PCOD9430375
Probable space group: P C C N
;
_chemical_formula_sum "Si O2"
_cell_formula_units_Z 60
_cell_length_a 14.060321
_cell_length_b 10.892518
_cell_length_c 20.456207
_cell_angle_alpha 90.000000
_cell_angle_beta 90.000000
_cell_angle_gamma 90.000000
_cell_volume 3132.915143
_symmetry_space_group_name_H-M "P C C N"
_symmetry_group_IT_number 56
_symmetry_cell_setting 'orthorhombic'
loop_
_space_group_symop_operation_xyz
x,y,z
1/2-x,1/2-y,z
1/2+x,-y,1/2-z
-x,1/2+y,1/2-z
-x,-y,-z
1/2+x,1/2+y,-z
1/2-x,y,1/2+z
x,1/2-y,1/2+z
loop_
_atom_site_type_symbol
_atom_site_label
_atom_site_fract_x
_atom_site_fract_y
_atom_site_fract_z
Si Si1 0.872119 0.516409 0.282254
Si Si2 0.861782 0.443378 0.569712
Si Si3 0.250000 0.750000 0.520536
Si Si4 0.222495 0.113267 0.819042
Si Si5 0.463242 0.206766 0.625555
Si Si6 0.938739 0.574861 0.786482
Si Si7 0.218164 0.544227 0.120477
Si Si8 0.180136 0.348320 0.524952
O O1 0.807955 0.555625 0.222052
O O2 0.893770 0.634335 0.326020
O O3 0.807620 0.430544 0.329944
O O4 0.974264 0.477080 0.255481
O O5 0.811805 0.336379 0.527276
O O6 0.802272 0.514395 0.625325
O O7 0.876885 0.554779 0.519046
O O8 0.951369 0.381069 0.604416
O O9 0.301414 0.655373 0.570472
O O10 0.250000 0.250000 0.841606
O O11 0.135185 0.125907 0.767576
O O12 0.487749 0.327852 0.664858
O O13 0.398875 0.229835 0.562749
O O14 0.871556 0.491317 0.833796
O O15 0.255748 0.431326 0.074754
O O16 0.250000 0.250000 0.492048
#
# Coordination Sequence:
#
# PCOD9430375 Si02
#       8
#     8   8   4   8   8   8   8   8
#     4  10  22  37  63  96 122 160 208 259 322 378
#     4  11  24  40  61  90 129 165 213 262 316 376
#     4  10  24  46  58  82 132 178 208 254 316 378
#     4  11  22  41  63  95 128 164 209 270 326 379
#     4  11  21  38  63  90 123 160 210 264 311 379
#     4  11  21  39  65  97 127 161 211 265 324 383
#     4   9  21  40  64  87 126 169 210 246 315 384
#     4  10  19  39  66  89 114 166 213 254 306 369
#
# _framework density 19.151492000000001
#
# number of rings (size 3 to 8) (size 9 to 14) (size 15 to 20)
#    0.000    1.600    4.000    0.800    1.867    1.067 
#    0.000    2.000    0.000    0.000    0.000    0.000 
#    0.000    0.000    0.000    0.000    0.000    0.000 
#
# Total GULP energy -334057.026245 kJ/mol
# GULP energy per Si atom -5567.617104 kJ/mol
# Density = 1.910790 g / cm^3
# Si number density = 19.151492 Si / 1000 Ang^3
#
#
#
# Elastic Constant Matrix: (Units=GPa)
#
#
# Indices 1 2 3 4 5 6 
#
# 1 70.5356 12.6050 28.9347 0.0000 0.0000 0.0000
# 2 12.6050 59.3042 31.6644 0.0000 0.0000 0.0000
# 3 28.9347 31.6644 98.6904 0.0000 0.0000 0.0000
# 4 0.0000 0.0000 0.0000 72.5885 0.0000 0.0000
# 5 0.0000 0.0000 0.0000 0.0000 60.8396 0.0000
# 6 0.0000 0.0000 0.0000 0.0000 0.0000 26.1650
#
#
#
# Elastic Compliance Matrix: (Units=1/GPa)
#
#
# Indices 1 2 3 4 5 6 
#
# 1 0.016174 -0.001093 -0.004391 0.000000 0.000000 0.000000
# 2 -0.001093 0.020422 -0.006232 0.000000 0.000000 0.000000
# 3 -0.004391 -0.006232 0.013420 0.000000 0.000000 0.000000
# 4 0.000000 0.000000 0.000000 0.013776 0.000000 0.000000
# 5 0.000000 0.000000 0.000000 0.000000 0.016437 0.000000
# 6 0.000000 0.000000 0.000000 0.000000 0.000000 0.038219
#
#
# Mechanical properties :
#
#
# Convention : Reuss Voigt Hill
#
# Bulk Modulus (GPa) = 37.61787 41.65983 39.63885
# Shear Modulus (GPa) = 33.16952 42.27369 37.72161
#
# Velocity S-wave (km/s) = 4.16619 4.70332 4.44288
# Velocity P-wave (km/s) = 6.54429 7.16205 6.86013
#
# Compressibility (1/GPa) = 0.02658311
#
# Stress axis : x y z
#
# Youngs Moduli (GPa) = 61.82781 48.96700 74.51774
#
# Poissons Ratio (x) = 0.05353 0.32723
# Poissons Ratio (y) = 0.06758 0.46438
# Poissons Ratio (z) = 0.27150 0.30515
#
# Static dielectric constant tensor:
#      x y z
#    x 1.663910 0.000000 0.000000 
#    y 0.000000 1.680130 0.000000 
#    z 0.000000 0.000000 1.694650 
# 
# From -- ./inp_files/19195.got.cif
#   From: 2010.05.17/outbox.cif.g08.bks.cpg/sg56_10_cif.got.tgz:19195.got - 2010.06.03 13:42:01.
