data_PCOD9430308
_publ_section_title
;
Structure prediction by ZEFSAII (Michael W. Deem and Ramdas Pophale) SiO2 
 PCOD9430308
Probable space group: P C C N
;
_chemical_formula_sum "Si O2"
_cell_formula_units_Z 48
_cell_length_a 8.084754
_cell_length_b 14.680798
_cell_length_c 18.549913
_cell_angle_alpha 90.000000
_cell_angle_beta 90.000000
_cell_angle_gamma 90.000000
_cell_volume 2201.701052
_symmetry_space_group_name_H-M "P C C N"
_symmetry_group_IT_number 56
_symmetry_cell_setting 'orthorhombic'
loop_
_space_group_symop_operation_xyz
x,y,z
1/2-x,1/2-y,z
1/2+x,-y,1/2-z
-x,1/2+y,1/2-z
-x,-y,-z
1/2+x,1/2+y,-z
1/2-x,y,1/2+z
x,1/2-y,1/2+z
loop_
_atom_site_type_symbol
_atom_site_label
_atom_site_fract_x
_atom_site_fract_y
_atom_site_fract_z
Si Si1 0.250000 0.250000 0.268021
Si Si2 0.714677 0.038710 0.162737
Si Si3 0.019108 0.896053 0.469344
Si Si4 0.077625 0.370123 0.386189
Si Si5 0.709310 0.352755 0.388609
Si Si6 0.250000 0.250000 0.003993
Si Si7 0.512288 0.904605 0.246317
O O1 0.122526 0.306627 0.318055
O O2 0.358751 0.326929 0.230934
O O3 0.605590 0.095024 0.107729
O O4 0.868968 0.090346 0.196022
O O5 0.794510 0.953217 0.119845
O O6 0.610260 0.997617 0.229502
O O7 0.133972 0.853873 0.531711
O O8 0.859322 0.830522 0.460548
O O9 0.000000 0.000000 0.500000
O O10 0.123195 0.307089 0.453784
O O11 0.887899 0.401389 0.387705
O O12 0.750000 0.250000 0.367241
O O13 0.574873 0.387123 0.331376
#
# Coordination Sequence:
#
# PCOD9430308 Si02
#       7
#     4   8   8   8   8   4   8
#     4   9  18  36  68  97 128 182 234 288 344 433
#     4  11  24  43  71 105 144 184 244 306 362 432
#     4  12  23  44  72 106 143 187 249 305 361 434
#     4  10  19  37  67 102 131 184 239 281 360 433
#     4  12  21  38  74 104 136 190 243 290 353 437
#     4  11  20  40  70 101 144 186 232 302 360 437
#     4  11  22  42  70 102 140 186 243 296 360 435
#
# _framework density 21.801324000000001
#
# number of rings (size 3 to 8) (size 9 to 14) (size 15 to 20)
#    0.000    1.000    6.667    2.000    0.000    0.667 
#    0.000    0.833    3.667    2.000    0.000    0.000 
#    0.000    0.000    0.000    0.000    0.000    0.000 
#
# Total GULP energy -268119.195185 kJ/mol
# GULP energy per Si atom -5585.816566 kJ/mol
# Density = 2.175170 g / cm^3
# Si number density = 21.801324 Si / 1000 Ang^3
#
#
#
# Elastic Constant Matrix: (Units=GPa)
#
#
# Indices 1 2 3 4 5 6 
#
# 1 127.3585 47.1942 44.6105 0.0000 0.0000 0.0000
# 2 47.1942 64.3831 41.1328 0.0000 0.0000 0.0000
# 3 44.6105 41.1328 61.4377 0.0000 0.0000 0.0000
# 4 0.0000 0.0000 0.0000 -1.5087 0.0000 0.0000
# 5 0.0000 0.0000 0.0000 0.0000 22.4609 0.0000
# 6 0.0000 0.0000 0.0000 0.0000 0.0000 44.2180
#
#
#
# Elastic Compliance Matrix: (Units=1/GPa)
#
#
# Indices 1 2 3 4 5 6 
#
# 1 0.011518 -0.005417 -0.004737 0.000000 0.000000 0.000000
# 2 -0.005417 0.029689 -0.015943 0.000000 0.000000 0.000000
# 3 -0.004737 -0.015943 0.030390 0.000000 0.000000 0.000000
# 4 0.000000 0.000000 0.000000 -0.662816 0.000000 0.000000
# 5 0.000000 0.000000 0.000000 0.000000 0.044522 0.000000
# 6 0.000000 0.000000 0.000000 0.000000 0.000000 0.022615
#
#
# Mechanical properties :
#
#
# Convention : Reuss Voigt Hill
#
# Bulk Modulus (GPa) = 51.53882 57.67270 54.60576
# Shear Modulus (GPa) = -10.74299 21.05015 5.15358
#
# Velocity S-wave (km/s) = -2.22225 3.11069 1.53916
# Velocity P-wave (km/s) = 4.13607 6.27798 5.31602
#
# Compressibility (1/GPa) = 0.01940285
#
# Stress axis : x y z
#
# Youngs Moduli (GPa) = 86.81772 33.68304 32.90513
#
# Poissons Ratio (x) = 0.18246 0.15587
# Poissons Ratio (y) = 0.47028 0.52462
# Poissons Ratio (z) = 0.41126 0.53702
#
# Static dielectric constant tensor:
#      x y z
#    x 1.836920 0.000000 0.000000 
#    y 0.000000 2.060550 0.000000 
#    z 0.000000 0.000000 1.784320 
# 
# From -- ./inp_files/14855.got.cif
#   From: 2010.05.17/outbox.cif.g08.bks.cpg/sg56_8_cif.got.tgz:14855.got - 2010.06.03 13:42:01.
