data_PCOD9430991
_publ_section_title
;
Structure prediction by ZEFSAII (Michael W. Deem and Ramdas Pophale) SiO2 
 PCOD9430991
Probable space group: P C C N
;
_chemical_formula_sum "Si O2"
_cell_formula_units_Z 48
_cell_length_a 15.249989
_cell_length_b 15.888053
_cell_length_c 9.147492
_cell_angle_alpha 90.000000
_cell_angle_beta 90.000000
_cell_angle_gamma 90.000000
_cell_volume 2216.369926
_symmetry_space_group_name_H-M "P C C N"
_symmetry_group_IT_number 56
_symmetry_cell_setting 'orthorhombic'
loop_
_space_group_symop_operation_xyz
x,y,z
1/2-x,1/2-y,z
1/2+x,-y,1/2-z
-x,1/2+y,1/2-z
-x,-y,-z
1/2+x,1/2+y,-z
1/2-x,y,1/2+z
x,1/2-y,1/2+z
loop_
_atom_site_type_symbol
_atom_site_label
_atom_site_fract_x
_atom_site_fract_y
_atom_site_fract_z
Si Si1 0.090988 0.425918 0.930708
Si Si2 0.200569 0.663471 0.787081
Si Si3 0.351203 0.422893 0.914138
Si Si4 0.292144 0.340653 0.214576
Si Si5 0.239216 0.554782 0.040059
Si Si6 0.483731 0.588432 0.283862
O O1 0.132454 0.351736 0.835730
O O2 0.164971 0.485088 0.007848
O O3 0.047830 0.492350 0.817371
O O4 0.029765 0.391957 0.059646
O O5 0.250000 0.750000 0.755169
O O6 0.212542 0.638884 0.955250
O O7 0.245517 0.585452 0.702610
O O8 0.097450 0.650886 0.754772
O O9 0.283637 0.399849 0.783553
O O10 0.328530 0.515189 0.976223
O O11 0.446472 0.411532 0.846180
O O12 0.327611 0.366481 0.055828
O O13 0.250000 0.250000 0.206787
#
# Coordination Sequence:
#
# PCOD9430991 Si02
#       6
#     8   8   8   8   8   8
#     4   9  20  41  68  94 124 165 215 270 321 381
#     4  11  23  40  61  89 127 168 206 255 320 381
#     4  11  21  39  65  94 125 166 219 264 315 388
#     4  11  23  40  63  92 131 170 205 261 336 392
#     4  10  20  39  65  86 117 167 211 253 313 380
#     4  10  21  39  65  98 128 162 219 271 314 381
#
# _framework density 21.657035
#
# number of rings (size 3 to 8) (size 9 to 14) (size 15 to 20)
#    0.000    1.667    0.000    7.000    0.000    2.667 
#    0.000   14.167    0.000    2.000    0.000    0.000 
#    0.000    0.000    0.000    0.000    0.000    0.000 
#
# Total GULP energy -267995.562625 kJ/mol
# GULP energy per Si atom -5583.240888 kJ/mol
# Density = 2.160774 g / cm^3
# Si number density = 21.657035 Si / 1000 Ang^3
#
#
#
# Elastic Constant Matrix: (Units=GPa)
#
#
# Indices 1 2 3 4 5 6 
#
# 1 90.7040 49.3789 34.4404 0.0000 0.0000 0.0000
# 2 49.3789 89.4632 48.0121 0.0000 0.0000 0.0000
# 3 34.4404 48.0121 93.8785 0.0000 0.0000 0.0000
# 4 0.0000 0.0000 0.0000 -5.2658 0.0000 0.0000
# 5 0.0000 0.0000 0.0000 0.0000 36.8963 0.0000
# 6 0.0000 0.0000 0.0000 0.0000 0.0000 30.3331
#
#
#
# Elastic Compliance Matrix: (Units=1/GPa)
#
#
# Indices 1 2 3 4 5 6 
#
# 1 0.015994 -0.007827 -0.001865 0.000000 0.000000 0.000000
# 2 -0.007827 0.019237 -0.006967 0.000000 0.000000 0.000000
# 3 -0.001865 -0.006967 0.014899 0.000000 0.000000 0.000000
# 4 0.000000 0.000000 0.000000 -0.189903 0.000000 0.000000
# 5 0.000000 0.000000 0.000000 0.000000 0.027103 0.000000
# 6 0.000000 0.000000 0.000000 0.000000 0.000000 0.032967
#
#
# Mechanical properties :
#
#
# Convention : Reuss Voigt Hill
#
# Bulk Modulus (GPa) = 59.47805 59.74537 59.61171
# Shear Modulus (GPa) = -122.60313 21.87366 -50.36473
#
# Velocity S-wave (km/s) = -7.53221 3.18150 -4.82764
# Velocity P-wave (km/s) = 6.93702 6.41427 1.86807
#
# Compressibility (1/GPa) = 0.01681293
#
# Stress axis : x y z
#
# Youngs Moduli (GPa) = 62.52379 51.98373 67.11823
#
# Poissons Ratio (x) = 0.40688 0.12514
# Poissons Ratio (y) = 0.48938 0.46760
# Poissons Ratio (z) = 0.11658 0.36216
#
# Static dielectric constant tensor:
#      x y z
#    x 1.852290 0.000000 0.000000 
#    y 0.000000 1.784300 0.000000 
#    z 0.000000 0.000000 1.776640 
# 
# From -- ./inp_files/3403.got.cif
#   From: 2010.05.17/outbox.cif.g08.bks.cpg/sg56_2_cif.got.tgz:3403.got - 2010.06.03 13:42:01.
