data_PCOD9430690
_publ_section_title
;
Structure prediction by ZEFSAII (Michael W. Deem and Ramdas Pophale) SiO2 
 PCOD9430690
Probable space group: P C C N
;
_chemical_formula_sum "Si O2"
_cell_formula_units_Z 48
_cell_length_a 6.745682
_cell_length_b 14.092868
_cell_length_c 26.446937
_cell_angle_alpha 90.000000
_cell_angle_beta 90.000000
_cell_angle_gamma 90.000000
_cell_volume 2514.204671
_symmetry_space_group_name_H-M "P C C N"
_symmetry_group_IT_number 56
_symmetry_cell_setting 'orthorhombic'
loop_
_space_group_symop_operation_xyz
x,y,z
1/2-x,1/2-y,z
1/2+x,-y,1/2-z
-x,1/2+y,1/2-z
-x,-y,-z
1/2+x,1/2+y,-z
1/2-x,y,1/2+z
x,1/2-y,1/2+z
loop_
_atom_site_type_symbol
_atom_site_label
_atom_site_fract_x
_atom_site_fract_y
_atom_site_fract_z
Si Si1 0.287240 0.457521 0.513777
Si Si2 0.458705 0.005568 0.413283
Si Si3 0.750000 0.750000 0.945644
Si Si4 0.563602 0.902006 0.692515
Si Si5 0.934184 0.890980 0.767318
Si Si6 0.948301 0.195322 0.135071
Si Si7 0.750000 0.250000 0.778432
O O1 0.500000 0.500000 0.500000
O O2 0.160989 0.476900 0.463861
O O3 0.271362 0.345012 0.522491
O O4 0.185011 0.500296 0.565016
O O5 0.415288 0.075391 0.366922
O O6 0.394902 0.904243 0.390778
O O7 0.561776 0.750943 0.908411
O O8 0.761767 0.884186 0.725662
O O9 0.422141 0.810819 0.695237
O O10 0.472465 0.998954 0.717684
O O11 0.902108 0.834672 0.819948
O O12 0.130080 0.835662 0.748728
O O13 0.750000 0.250000 0.151624
#
# Coordination Sequence:
#
# PCOD9430690 Si02
#       7
#     8   8   4   8   8   8   4
#     4  10  20  42  65  90 123 162 206 272 324 383
#     4   9  22  41  61  91 128 161 213 261 325 390
#     4  10  22  36  62  96 118 156 216 262 330 382
#     4  11  24  44  63  97 133 178 219 272 323 405
#     4  11  23  41  65  92 134 170 223 273 325 389
#     4  10  20  36  62  92 121 164 211 269 320 384
#     4  12  24  42  64  92 132 182 214 264 334 380
#
# _framework density 19.091522999999999
#
# number of rings (size 3 to 8) (size 9 to 14) (size 15 to 20)
#    0.000    1.667    2.500    1.500    2.333    1.333 
#    9.000    0.000    0.000    0.000    0.000    0.000 
#    0.000    0.000    0.000    0.000    0.000    0.000 
#
# Total GULP energy -267251.087353 kJ/mol
# GULP energy per Si atom -5567.730987 kJ/mol
# Density = 1.904807 g / cm^3
# Si number density = 19.091523 Si / 1000 Ang^3
#
#
#
# Elastic Constant Matrix: (Units=GPa)
#
#
# Indices 1 2 3 4 5 6 
#
# 1 90.2558 42.9405 44.1707 0.0000 0.0000 0.0000
# 2 42.9405 58.5613 47.0817 0.0000 0.0000 0.0000
# 3 44.1707 47.0817 122.4838 0.0000 0.0000 0.0000
# 4 0.0000 0.0000 0.0000 -87.5417 0.0000 0.0000
# 5 0.0000 0.0000 0.0000 0.0000 27.7270 0.0000
# 6 0.0000 0.0000 0.0000 0.0000 0.0000 33.1193
#
#
#
# Elastic Compliance Matrix: (Units=1/GPa)
#
#
# Indices 1 2 3 4 5 6 
#
# 1 0.017340 -0.011126 -0.001977 0.000000 0.000000 0.000000
# 2 -0.011126 0.031852 -0.008231 0.000000 0.000000 0.000000
# 3 -0.001977 -0.008231 0.012041 0.000000 0.000000 0.000000
# 4 0.000000 0.000000 0.000000 -0.011423 0.000000 0.000000
# 5 0.000000 0.000000 0.000000 0.000000 0.036066 0.000000
# 6 0.000000 0.000000 0.000000 0.000000 0.000000 0.030194
#
#
# Mechanical properties :
#
#
# Convention : Reuss Voigt Hill
#
# Bulk Modulus (GPa) = 53.86220 59.96519 56.91369
# Shear Modulus (GPa) = 30.31659 3.80145 17.05902
#
# Velocity S-wave (km/s) = 3.98925 1.41262 2.99246
# Velocity P-wave (km/s) = 7.03510 5.84279 6.46648
#
# Compressibility (1/GPa) = 0.01856589
#
# Stress axis : x y z
#
# Youngs Moduli (GPa) = 57.66945 31.39528 83.04760
#
# Poissons Ratio (x) = 0.34929 0.16416
# Poissons Ratio (y) = 0.64161 0.68360
# Poissons Ratio (z) = 0.11400 0.25843
#
# Static dielectric constant tensor:
#      x y z
#    x 0.855800 0.000000 0.000000 
#    y 0.000000 1.662740 0.000000 
#    z 0.000000 0.000000 -0.504070 
# 
# From -- ./inp_files/21687.got.cif
#   From: 2010.05.17/outbox.cif.g08.bks.cpg/sg56_11_cif.got.tgz:21687.got - 2010.06.03 13:42:01.
