data_PCOD9430406
_publ_section_title
;
Structure prediction by ZEFSAII (Michael W. Deem and Ramdas Pophale) SiO2 
 PCOD9430406
Probable space group: P C C N
;
_chemical_formula_sum "Si O2"
_cell_formula_units_Z 48
_cell_length_a 8.460006
_cell_length_b 15.581249
_cell_length_c 18.704081
_cell_angle_alpha 90.000000
_cell_angle_beta 90.000000
_cell_angle_gamma 90.000000
_cell_volume 2465.524450
_symmetry_space_group_name_H-M "P C C N"
_symmetry_group_IT_number 56
_symmetry_cell_setting 'orthorhombic'
loop_
_space_group_symop_operation_xyz
x,y,z
1/2-x,1/2-y,z
1/2+x,-y,1/2-z
-x,1/2+y,1/2-z
-x,-y,-z
1/2+x,1/2+y,-z
1/2-x,y,1/2+z
x,1/2-y,1/2+z
loop_
_atom_site_type_symbol
_atom_site_label
_atom_site_fract_x
_atom_site_fract_y
_atom_site_fract_z
Si Si1 0.846529 0.922770 0.879436
Si Si2 0.360298 0.435396 0.478816
Si Si3 0.346421 0.335913 0.740342
Si Si4 0.566937 0.257637 0.126630
Si Si5 0.057138 0.413963 0.390195
Si Si6 0.937632 0.759867 0.525250
O O1 0.755886 0.902460 0.806235
O O2 0.986821 0.851947 0.877830
O O3 0.727271 0.911324 0.946202
O O4 0.920037 0.016267 0.888365
O O5 0.500000 0.500000 0.500000
O O6 0.211841 0.457500 0.427431
O O7 0.439648 0.353263 0.438735
O O8 0.250000 0.250000 0.762133
O O9 0.474260 0.298390 0.684846
O O10 0.407453 0.381943 0.810639
O O11 0.750000 0.250000 0.143134
O O12 0.535981 0.226064 0.046311
O O13 0.016276 0.326994 0.434359
O O14 0.750000 0.750000 0.510016
#
# Coordination Sequence:
#
# PCOD9430406 Si02
#       6
#     8   8   8   8   8   8
#     4  11  23  41  63  95 135 169 219 270 324 399
#     4  11  23  39  66  97 128 173 221 267 327 389
#     4  10  22  45  65  90 131 184 212 264 338 397
#     4  11  22  38  68  92 126 174 227 265 327 402
#     4  11  24  40  69  98 133 171 225 278 329 389
#     4  10  19  41  64  89 127 170 212 269 328 382
#
# _framework density 19.468475000000002
#
# number of rings (size 3 to 8) (size 9 to 14) (size 15 to 20)
#    0.000    1.333    5.000    2.500    2.333    2.667 
#    0.000    4.167    0.000    0.000    0.000    0.000 
#    0.000    0.000    0.000    0.000    0.000    0.000 
#
# Total GULP energy -267521.677838 kJ/mol
# GULP energy per Si atom -5573.368288 kJ/mol
# Density = 1.942416 g / cm^3
# Si number density = 19.468475 Si / 1000 Ang^3
#
#
#
# Elastic Constant Matrix: (Units=GPa)
#
#
# Indices 1 2 3 4 5 6 
#
# 1 67.5638 67.0871 18.0049 0.0000 0.0000 0.0000
# 2 67.0871 124.9331 37.0539 0.0000 0.0000 0.0000
# 3 18.0049 37.0539 85.7231 0.0000 0.0000 0.0000
# 4 0.0000 0.0000 0.0000 12.7457 0.0000 0.0000
# 5 0.0000 0.0000 0.0000 0.0000 -5.5759 0.0000
# 6 0.0000 0.0000 0.0000 0.0000 0.0000 31.2773
#
#
#
# Elastic Compliance Matrix: (Units=1/GPa)
#
#
# Indices 1 2 3 4 5 6 
#
# 1 0.031755 -0.017290 0.000804 0.000000 0.000000 0.000000
# 2 -0.017290 0.018596 -0.004406 0.000000 0.000000 0.000000
# 3 0.000804 -0.004406 0.013401 0.000000 0.000000 0.000000
# 4 0.000000 0.000000 0.000000 0.078458 0.000000 0.000000
# 5 0.000000 0.000000 0.000000 0.000000 -0.179343 0.000000
# 6 0.000000 0.000000 0.000000 0.000000 0.000000 0.031972
#
#
# Mechanical properties :
#
#
# Convention : Reuss Voigt Hill
#
# Bulk Modulus (GPa) = 45.52371 58.05687 51.79029
# Shear Modulus (GPa) = 113.77428 18.09436 65.93432
#
# Velocity S-wave (km/s) = 7.65292 3.05194 5.82587
# Velocity P-wave (km/s) = 10.07589 6.50422 8.48022
#
# Compressibility (1/GPa) = 0.02196658
#
# Stress axis : x y z
#
# Youngs Moduli (GPa) = 31.49115 53.77535 74.61968
#
# Poissons Ratio (x) = 0.92980 -0.06000
# Poissons Ratio (y) = 0.54449 0.32881
# Poissons Ratio (z) = -0.02532 0.23696
#
# Static dielectric constant tensor:
#      x y z
#    x 1.692070 0.000000 0.000000 
#    y 0.000000 1.762720 0.000000 
#    z 0.000000 0.000000 1.670240 
# 
# From -- ./inp_files/14789.got.cif
#   From: 2010.05.17/outbox.cif.g08.bks.cpg/sg56_8_cif.got.tgz:14789.got - 2010.06.03 13:42:01.
