data_PCOD9430885
_publ_section_title
;
Structure prediction by ZEFSAII (Michael W. Deem and Ramdas Pophale) SiO2 
 PCOD9430885
Probable space group: P C C N
;
_chemical_formula_sum "Si O2"
_cell_formula_units_Z 64
_cell_length_a 14.847009
_cell_length_b 12.284480
_cell_length_c 17.102145
_cell_angle_alpha 90.000000
_cell_angle_beta 90.000000
_cell_angle_gamma 90.000000
_cell_volume 3119.222347
_symmetry_space_group_name_H-M "P C C N"
_symmetry_group_IT_number 56
_symmetry_cell_setting 'orthorhombic'
loop_
_space_group_symop_operation_xyz
x,y,z
1/2-x,1/2-y,z
1/2+x,-y,1/2-z
-x,1/2+y,1/2-z
-x,-y,-z
1/2+x,1/2+y,-z
1/2-x,y,1/2+z
x,1/2-y,1/2+z
loop_
_atom_site_type_symbol
_atom_site_label
_atom_site_fract_x
_atom_site_fract_y
_atom_site_fract_z
Si Si1 0.202869 0.522536 0.460563
Si Si2 0.170138 0.318948 0.544500
Si Si3 0.043150 0.148265 0.242703
Si Si4 0.122757 0.344368 0.180054
Si Si5 0.259647 0.121013 0.810089
Si Si6 0.474060 0.654095 0.926649
Si Si7 0.025128 0.957925 0.610083
Si Si8 0.890172 0.119603 0.543544
O O1 0.204774 0.441596 0.535104
O O2 0.225872 0.449915 0.383379
O O3 0.104475 0.576126 0.456853
O O4 0.283282 0.609439 0.463049
O O5 0.250000 0.250000 0.503603
O O6 0.159554 0.254432 0.626370
O O7 0.064228 0.326762 0.520569
O O8 0.051809 0.279285 0.234181
O O9 0.139980 0.107032 0.274963
O O10 0.010606 0.110602 0.157062
O O11 0.977494 0.106843 0.309585
O O12 0.194131 0.397709 0.236774
O O13 0.083509 0.433708 0.122839
O O14 0.250000 0.250000 0.827934
O O15 0.426529 0.771728 0.915755
O O16 0.065000 0.885316 0.541727
O O17 0.929456 0.009707 0.583831
#
# Coordination Sequence:
#
# PCOD9430885 Si02
#       8
#     8   8   8   8   8   8   8   8
#     4  12  24  40  65  97 134 177 222 280 341 411
#     4  11  22  39  66  93 126 168 218 273 335 391
#     4  10  20  38  62  91 126 164 217 270 332 394
#     4  10  20  39  59  91 131 164 210 285 331 386
#     4  10  21  35  60  97 127 163 222 276 330 397
#     4  11  24  44  65  96 137 176 216 280 346 399
#     4  11  21  39  66  92 124 174 229 269 330 403
#     4  11  24  40  67  93 131 179 225 268 334 411
#
# _framework density 20.517935000000001
#
# number of rings (size 3 to 8) (size 9 to 14) (size 15 to 20)
#    0.000    1.250    3.750    4.500    1.750    2.000 
#    0.000    2.500    0.000    4.500    0.000    0.000 
#    0.000    0.000    0.000    0.000    0.000    0.000 
#
# Total GULP energy -356515.241457 kJ/mol
# GULP energy per Si atom -5570.550648 kJ/mol
# Density = 2.047124 g / cm^3
# Si number density = 20.517935 Si / 1000 Ang^3
#
#
#
# Elastic Constant Matrix: (Units=GPa)
#
#
# Indices 1 2 3 4 5 6 
#
# 1 121.9624 39.2442 15.5096 0.0000 0.0000 0.0000
# 2 39.2442 54.7012 25.4154 0.0000 0.0000 0.0000
# 3 15.5096 25.4154 75.2150 0.0000 0.0000 0.0000
# 4 0.0000 0.0000 0.0000 23.0308 0.0000 0.0000
# 5 0.0000 0.0000 0.0000 0.0000 14.1334 0.0000
# 6 0.0000 0.0000 0.0000 0.0000 0.0000 34.3958
#
#
#
# Elastic Compliance Matrix: (Units=1/GPa)
#
#
# Indices 1 2 3 4 5 6 
#
# 1 0.010673 -0.007870 0.000459 0.000000 0.000000 0.000000
# 2 -0.007870 0.027489 -0.007666 0.000000 0.000000 0.000000
# 3 0.000459 -0.007666 0.015791 0.000000 0.000000 0.000000
# 4 0.000000 0.000000 0.000000 0.043420 0.000000 0.000000
# 5 0.000000 0.000000 0.000000 0.000000 0.070754 0.000000
# 6 0.000000 0.000000 0.000000 0.000000 0.000000 0.029073
#
#
# Mechanical properties :
#
#
# Convention : Reuss Voigt Hill
#
# Bulk Modulus (GPa) = 42.01985 45.80189 43.91087
# Shear Modulus (GPa) = 21.25041 25.75931 23.50486
#
# Velocity S-wave (km/s) = 3.22172 3.54708 3.38831
# Velocity P-wave (km/s) = 5.86202 6.25676 6.06261
#
# Compressibility (1/GPa) = 0.02379828
#
# Stress axis : x y z
#
# Youngs Moduli (GPa) = 93.69055 36.37777 63.32742
#
# Poissons Ratio (x) = 0.28631 -0.02904
# Poissons Ratio (y) = 0.73739 0.48545
# Poissons Ratio (z) = -0.04296 0.27886
#
# Static dielectric constant tensor:
#      x y z
#    x 1.804520 0.000000 0.000000 
#    y 0.000000 1.730920 0.000000 
#    z 0.000000 0.000000 1.762130 
# 
# From -- ./inp_files/16335.got.cif
#   From: 2010.05.17/outbox.cif.g08.bks.cpg/sg56_9_cif.got.tgz:16335.got - 2010.06.03 13:42:01.
