data_PCOD9430075
_publ_section_title
;
Structure prediction by ZEFSAII (Michael W. Deem and Ramdas Pophale) SiO2 
 PCOD9430075
Probable space group: P C C N
;
_chemical_formula_sum "Si O2"
_cell_formula_units_Z 48
_cell_length_a 14.689688
_cell_length_b 5.267948
_cell_length_c 26.921641
_cell_angle_alpha 90.000000
_cell_angle_beta 90.000000
_cell_angle_gamma 90.000000
_cell_volume 2083.318065
_symmetry_space_group_name_H-M "P C C N"
_symmetry_group_IT_number 56
_symmetry_cell_setting 'orthorhombic'
loop_
_space_group_symop_operation_xyz
x,y,z
1/2-x,1/2-y,z
1/2+x,-y,1/2-z
-x,1/2+y,1/2-z
-x,-y,-z
1/2+x,1/2+y,-z
1/2-x,y,1/2+z
x,1/2-y,1/2+z
loop_
_atom_site_type_symbol
_atom_site_label
_atom_site_fract_x
_atom_site_fract_y
_atom_site_fract_z
Si Si1 0.524739 0.054214 0.614951
Si Si2 0.223714 0.503885 0.045775
Si Si3 0.325320 0.050575 0.649305
Si Si4 0.595052 0.731493 0.208510
Si Si5 0.012679 0.960850 0.558314
Si Si6 0.117221 0.741843 0.740264
O O1 0.430875 0.130935 0.643641
O O2 0.587839 0.908333 0.655028
O O3 0.544463 0.321572 0.587590
O O4 0.506047 0.826426 0.575888
O O5 0.250000 0.250000 0.017694
O O6 0.289928 0.513086 0.093994
O O7 0.121075 0.495042 0.064677
O O8 0.250000 0.750000 0.015238
O O9 0.250000 0.250000 0.666614
O O10 0.336861 0.828781 0.688603
O O11 0.631574 0.014672 0.219499
O O12 0.490584 0.751508 0.227713
O O13 0.644318 0.518147 0.241168
O O14 0.000000 0.000000 0.500000
#
# Coordination Sequence:
#
# PCOD9430075 Si02
#       6
#     8   8   8   8   8   8
#     4  11  21  36  58  79 116 159 186 243 300 349
#     4  11  20  36  54  82 114 153 180 237 302 360
#     4  10  19  33  56  84 119 150 185 229 301 348
#     4   9  18  33  48  74 108 149 185 220 270 335
#     4  12  23  37  56  88 119 150 198 254 306 364
#     4   9  18  30  48  77 110 143 185 221 260 342
#
# _framework density 23.040168999999999
#
# number of rings (size 3 to 8) (size 9 to 14) (size 15 to 20)
#    0.000    1.667    5.000    1.500    0.000    6.667 
#    0.000    0.000    0.000    0.000    0.000   11.667 
#    0.000    0.000    0.000    0.000    0.000    0.000 
#
# Total GULP energy -267699.969013 kJ/mol
# GULP energy per Si atom -5577.082688 kJ/mol
# Density = 2.298773 g / cm^3
# Si number density = 23.040169 Si / 1000 Ang^3
#
#
#
# Elastic Constant Matrix: (Units=GPa)
#
#
# Indices 1 2 3 4 5 6 
#
# 1 27.2538 3.0817 7.9469 0.0000 0.0000 0.0000
# 2 3.0817 132.7846 -9.0119 0.0000 0.0000 0.0000
# 3 7.9469 -9.0119 59.2459 0.0000 0.0000 0.0000
# 4 0.0000 0.0000 0.0000 25.9972 0.0000 0.0000
# 5 0.0000 0.0000 0.0000 0.0000 -28.6386 0.0000
# 6 0.0000 0.0000 0.0000 0.0000 0.0000 18.0205
#
#
#
# Elastic Compliance Matrix: (Units=1/GPa)
#
#
# Indices 1 2 3 4 5 6 
#
# 1 0.038391 -0.001253 -0.005340 0.000000 0.000000 0.000000
# 2 -0.001253 0.007650 0.001332 0.000000 0.000000 0.000000
# 3 -0.005340 0.001332 0.017798 0.000000 0.000000 0.000000
# 4 0.000000 0.000000 0.000000 0.038466 0.000000 0.000000
# 5 0.000000 0.000000 0.000000 0.000000 -0.034918 0.000000
# 6 0.000000 0.000000 0.000000 0.000000 0.000000 0.055492
#
#
# Mechanical properties :
#
#
# Convention : Reuss Voigt Hill
#
# Bulk Modulus (GPa) = 18.75623 24.81307 21.78465
# Shear Modulus (GPa) = 33.07434 17.56034 25.31734
#
# Velocity S-wave (km/s) = 3.79292 2.76372 3.31846
# Velocity P-wave (km/s) = 5.22877 4.58007 4.91513
#
# Compressibility (1/GPa) = 0.05331562
#
# Stress axis : x y z
#
# Youngs Moduli (GPa) = 26.04781 130.71086 56.18705
#
# Poissons Ratio (x) = 0.16383 0.30005
# Poissons Ratio (y) = 0.03265 -0.07483
# Poissons Ratio (z) = 0.13910 -0.17409
#
# Static dielectric constant tensor:
#      x y z
#    x 1.930940 0.000000 0.000000 
#    y 0.000000 2.182510 0.000000 
#    z 0.000000 0.000000 1.874110 
# 
# From -- ./inp_files/22489.got.cif
#   From: 2010.05.17/outbox.cif.g08.bks.cpg/sg56_12_cif.got.tgz:22489.got - 2010.06.03 13:42:01.
