data_PCOD9430838
_publ_section_title
;
Structure prediction by ZEFSAII (Michael W. Deem and Ramdas Pophale) SiO2 
 PCOD9430838
Probable space group: P C C N
;
_chemical_formula_sum "Si O2"
_cell_formula_units_Z 64
_cell_length_a 7.911243
_cell_length_b 15.755047
_cell_length_c 21.512809
_cell_angle_alpha 90.000000
_cell_angle_beta 90.000000
_cell_angle_gamma 90.000000
_cell_volume 2681.399653
_symmetry_space_group_name_H-M "P C C N"
_symmetry_group_IT_number 56
_symmetry_cell_setting 'orthorhombic'
loop_
_space_group_symop_operation_xyz
x,y,z
1/2-x,1/2-y,z
1/2+x,-y,1/2-z
-x,1/2+y,1/2-z
-x,-y,-z
1/2+x,1/2+y,-z
1/2-x,y,1/2+z
x,1/2-y,1/2+z
loop_
_atom_site_type_symbol
_atom_site_label
_atom_site_fract_x
_atom_site_fract_y
_atom_site_fract_z
Si Si1 0.547427 0.739803 0.106717
Si Si2 0.890822 0.918952 0.638119
Si Si3 0.450000 0.229618 0.628561
Si Si4 0.897940 0.589640 0.284371
Si Si5 0.317958 0.506902 0.033874
Si Si6 0.135818 0.829582 0.984110
Si Si7 0.594381 0.587967 0.383942
Si Si8 0.514064 0.929316 0.649084
O O1 0.750000 0.750000 0.105893
O O2 0.500918 0.838267 0.114604
O O3 0.495066 0.671962 0.160311
O O4 0.474640 0.698011 0.044220
O O5 0.866936 0.905297 0.711774
O O6 0.697419 0.930318 0.615415
O O7 0.983162 0.005263 0.624014
O O8 0.250000 0.250000 0.620457
O O9 0.483406 0.176752 0.690972
O O10 0.514263 0.166274 0.575187
O O11 0.513971 0.325743 0.621474
O O12 0.727082 0.589191 0.325917
O O13 0.000814 0.502774 0.299213
O O14 0.195463 0.429100 0.050555
O O15 0.370044 0.541735 0.101589
O O16 0.500000 0.500000 0.000000
O O17 0.249636 0.588116 0.996812
O O18 0.250000 0.750000 0.971810
#
# Coordination Sequence:
#
# PCOD9430838 Si02
#       8
#     8   8   8   8   8   8   8   8
#     4   9  20  36  57  83 111 147 188 230 284 347
#     4  11  21  36  58  85 114 145 193 246 282 337
#     4  10  22  39  58  82 115 153 193 232 282 349
#     4  10  21  38  58  79 112 155 190 230 291 347
#     4  10  20  38  60  81 113 155 190 231 294 359
#     4  11  21  36  58  83 115 145 183 237 289 341
#     4  10  22  37  57  86 115 149 196 242 287 341
#     4   9  20  36  56  81 110 147 189 230 286 347
#
# _framework density 23.868130000000001
#
# number of rings (size 3 to 8) (size 9 to 14) (size 15 to 20)
#    0.000    2.000    0.000    4.125    0.000    9.500 
#    0.000    1.875    0.000    6.750    0.000    0.000 
#    0.000    0.000    0.000    0.000    0.000    0.000 
#
# Total GULP energy -356844.276219 kJ/mol
# GULP energy per Si atom -5575.691816 kJ/mol
# Density = 2.381380 g / cm^3
# Si number density = 23.868130 Si / 1000 Ang^3
#
#
#
# Elastic Constant Matrix: (Units=GPa)
#
#
# Indices 1 2 3 4 5 6 
#
# 1 30.5704 17.5254 10.4659 0.0000 0.0000 0.0000
# 2 17.5254 147.8487 21.6367 0.0000 0.0000 0.0000
# 3 10.4659 21.6367 64.1452 0.0000 0.0000 0.0000
# 4 0.0000 0.0000 0.0000 24.7018 0.0000 0.0000
# 5 0.0000 0.0000 0.0000 0.0000 20.8737 0.0000
# 6 0.0000 0.0000 0.0000 0.0000 0.0000 34.5475
#
#
#
# Elastic Compliance Matrix: (Units=1/GPa)
#
#
# Indices 1 2 3 4 5 6 
#
# 1 0.036404 -0.003625 -0.004717 0.000000 0.000000 0.000000
# 2 -0.003625 0.007476 -0.001930 0.000000 0.000000 0.000000
# 3 -0.004717 -0.001930 0.017010 0.000000 0.000000 0.000000
# 4 0.000000 0.000000 0.000000 0.040483 0.000000 0.000000
# 5 0.000000 0.000000 0.000000 0.000000 0.047907 0.000000
# 6 0.000000 0.000000 0.000000 0.000000 0.000000 0.028946
#
#
# Mechanical properties :
#
#
# Convention : Reuss Voigt Hill
#
# Bulk Modulus (GPa) = 24.78543 37.98000 31.38271
# Shear Modulus (GPa) = 23.56054 28.88703 26.22378
#
# Velocity S-wave (km/s) = 3.14524 3.48268 3.31825
# Velocity P-wave (km/s) = 4.85767 5.66736 5.27807
#
# Compressibility (1/GPa) = 0.04034629
#
# Stress axis : x y z
#
# Youngs Moduli (GPa) = 27.46923 133.76443 58.78781
#
# Poissons Ratio (x) = 0.48489 0.27730
# Poissons Ratio (y) = 0.09957 0.11347
# Poissons Ratio (z) = 0.12957 0.25819
#
# Static dielectric constant tensor:
#      x y z
#    x 1.996950 0.000000 0.000000 
#    y 0.000000 2.119390 0.000000 
#    z 0.000000 0.000000 1.935560 
# 
# From -- ./inp_files/20644.got.cif
#   From: 2010.05.17/outbox.cif.g08.bks.cpg/sg56_11_cif.got.tgz:20644.got - 2010.06.03 13:42:01.
