data_PCOD9430222
_publ_section_title
;
Structure prediction by ZEFSAII (Michael W. Deem and Ramdas Pophale) SiO2 
 PCOD9430222
Probable space group: P C C N
;
_chemical_formula_sum "Si O2"
_cell_formula_units_Z 52
_cell_length_a 9.180397
_cell_length_b 13.918679
_cell_length_c 21.652437
_cell_angle_alpha 90.000000
_cell_angle_beta 90.000000
_cell_angle_gamma 90.000000
_cell_volume 2766.726724
_symmetry_space_group_name_H-M "P C C N"
_symmetry_group_IT_number 56
_symmetry_cell_setting 'orthorhombic'
loop_
_space_group_symop_operation_xyz
x,y,z
1/2-x,1/2-y,z
1/2+x,-y,1/2-z
-x,1/2+y,1/2-z
-x,-y,-z
1/2+x,1/2+y,-z
1/2-x,y,1/2+z
x,1/2-y,1/2+z
loop_
_atom_site_type_symbol
_atom_site_label
_atom_site_fract_x
_atom_site_fract_y
_atom_site_fract_z
Si Si1 0.910950 0.232443 0.463801
Si Si2 0.913335 0.929511 0.183412
Si Si3 0.341090 0.155788 0.033138
Si Si4 0.402630 0.071127 0.461166
Si Si5 0.250000 0.250000 0.152215
Si Si6 0.914461 0.227636 0.320604
Si Si7 0.612760 0.594658 0.759078
O O1 0.750000 0.250000 0.487698
O O2 0.902078 0.200653 0.392813
O O3 0.999187 0.159854 0.506311
O O4 0.002956 0.330713 0.462605
O O5 0.879732 0.950785 0.111148
O O6 0.763854 0.930527 0.223396
O O7 0.985720 0.823140 0.186213
O O8 0.033574 0.005049 0.208087
O O9 0.250000 0.250000 0.010193
O O10 0.334108 0.175947 0.106151
O O11 0.246537 0.075159 0.000417
O O12 0.500000 0.000000 0.500000
O O13 0.348957 0.319309 0.193199
O O14 0.750000 0.250000 0.298385
O O15 0.995287 0.141361 0.286825
#
# Coordination Sequence:
#
# PCOD9430222 Si02
#       7
#     8   8   8   8   4   8   8
#     4   9  18  34  58  83 110 146 193 242 293 355
#     4  11  23  36  61  89 121 166 202 259 301 375
#     4   8  17  33  56  80 109 154 193 233 297 357
#     4  10  19  36  59  85 113 150 201 245 301 358
#     4  10  20  36  60  82 122 164 202 256 310 368
#     4  10  20  38  60  86 118 158 205 254 306 365
#     4  12  22  40  59  88 128 160 215 246 318 367
#
# _framework density 18.794771000000001
#
# number of rings (size 3 to 8) (size 9 to 14) (size 15 to 20)
#    0.462    1.538    1.538    2.769    0.000    2.462 
#    0.000    3.077    0.000    0.000    0.000    0.000 
#    0.000    0.000    0.000    0.000    0.000    0.000 
#
# Total GULP energy -289537.157716 kJ/mol
# GULP energy per Si atom -5568.022264 kJ/mol
# Density = 1.875199 g / cm^3
# Si number density = 18.794771 Si / 1000 Ang^3
#
#
#
# Elastic Constant Matrix: (Units=GPa)
#
#
# Indices 1 2 3 4 5 6 
#
# 1 117.0979 -6.0254 46.8319 0.0000 0.0000 0.0000
# 2 -6.0254 14.1605 17.4117 0.0000 0.0000 0.0000
# 3 46.8319 17.4117 93.4585 0.0000 0.0000 0.0000
# 4 0.0000 0.0000 0.0000 13.8568 0.0000 0.0000
# 5 0.0000 0.0000 0.0000 0.0000 8.9585 0.0000
# 6 0.0000 0.0000 0.0000 0.0000 0.0000 31.1165
#
#
#
# Elastic Compliance Matrix: (Units=1/GPa)
#
#
# Indices 1 2 3 4 5 6 
#
# 1 0.013568 0.018333 -0.010215 0.000000 0.000000 0.000000
# 2 0.018333 0.116375 -0.030868 0.000000 0.000000 0.000000
# 3 -0.010215 -0.030868 0.021569 0.000000 0.000000 0.000000
# 4 0.000000 0.000000 0.000000 0.072167 0.000000 0.000000
# 5 0.000000 0.000000 0.000000 0.000000 0.111626 0.000000
# 6 0.000000 0.000000 0.000000 0.000000 0.000000 0.032137
#
#
# Mechanical properties :
#
#
# Convention : Reuss Voigt Hill
#
# Bulk Modulus (GPa) = 9.43270 37.90592 23.66931
# Shear Modulus (GPa) = 11.15377 21.88628 16.52002
#
# Velocity S-wave (km/s) = 2.43873 3.41616 2.96796
# Velocity P-wave (km/s) = 3.59994 5.98100 4.93619
#
# Compressibility (1/GPa) = 0.10601419
#
# Stress axis : x y z
#
# Youngs Moduli (GPa) = 73.70019 8.59292 46.36210
#
# Poissons Ratio (x) = -0.15754 0.47358
# Poissons Ratio (y) = -1.35118 1.43110
# Poissons Ratio (z) = 0.75283 0.26525
#
# Static dielectric constant tensor:
#      x y z
#    x 1.641520 0.000000 0.000000 
#    y 0.000000 1.641580 0.000000 
#    z 0.000000 0.000000 1.660130 
# 
# From -- ./inp_files/18138.got.cif
#   From: 2010.05.17/outbox.cif.g08.bks.cpg/sg56_10_cif.got.tgz:18138.got - 2010.06.03 13:42:01.
