data_PCOD9430413
_publ_section_title
;
Structure prediction by ZEFSAII (Michael W. Deem and Ramdas Pophale) SiO2 
 PCOD9430413
Probable space group: P C C N
;
_chemical_formula_sum "Si O2"
_cell_formula_units_Z 60
_cell_length_a 7.851001
_cell_length_b 19.425770
_cell_length_c 16.495738
_cell_angle_alpha 90.000000
_cell_angle_beta 90.000000
_cell_angle_gamma 90.000000
_cell_volume 2515.793700
_symmetry_space_group_name_H-M "P C C N"
_symmetry_group_IT_number 56
_symmetry_cell_setting 'orthorhombic'
loop_
_space_group_symop_operation_xyz
x,y,z
1/2-x,1/2-y,z
1/2+x,-y,1/2-z
-x,1/2+y,1/2-z
-x,-y,-z
1/2+x,1/2+y,-z
1/2-x,y,1/2+z
x,1/2-y,1/2+z
loop_
_atom_site_type_symbol
_atom_site_label
_atom_site_fract_x
_atom_site_fract_y
_atom_site_fract_z
Si Si1 0.812319 0.964875 0.488126
Si Si2 0.596162 0.627951 0.341488
Si Si3 0.788074 0.117154 0.949019
Si Si4 0.086288 0.371918 0.871491
Si Si5 0.722433 0.172389 0.616128
Si Si6 0.548315 0.438015 0.810190
Si Si7 0.750000 0.750000 0.735917
Si Si8 0.586002 0.433994 0.227709
O O1 0.803577 0.914842 0.409618
O O2 0.795220 0.912527 0.564142
O O3 0.708872 0.035843 0.474481
O O4 0.000000 0.000000 0.500000
O O5 0.407383 0.636654 0.379162
O O6 0.573699 0.581705 0.262605
O O7 0.654005 0.699472 0.300380
O O8 0.598711 0.137531 0.916375
O O9 0.920537 0.120659 0.875486
O O10 0.839094 0.162454 0.025006
O O11 0.151683 0.302976 0.825943
O O12 0.046757 0.425949 0.799888
O O13 0.750000 0.250000 0.638252
O O14 0.601516 0.137176 0.680653
O O15 0.470393 0.509837 0.836951
O O16 0.734302 0.447235 0.770709
#
# Coordination Sequence:
#
# PCOD9430413 Si02
#       8
#     8   8   8   8   8   8   4   8
#     4  10  19  41  69  93 127 175 222 270 348 396
#     4  11  23  43  64  95 134 177 224 278 337 409
#     4  10  22  41  69  97 131 177 222 277 345 400
#     4  10  22  42  62  96 132 178 221 275 339 407
#     4  11  23  42  63  90 133 183 221 265 341 416
#     4  10  22  40  67 103 130 170 225 287 334 391
#     4  12  28  38  66 100 134 184 236 278 334 410
#     4  10  23  39  70  96 134 174 222 282 342 399
#
# _framework density 23.849330999999999
#
# number of rings (size 3 to 8) (size 9 to 14) (size 15 to 20)
#    0.000    1.600    2.667    3.200    5.600    2.133 
#    0.000    1.333    0.000    0.000    0.000    0.000 
#    0.000    0.000    0.000    0.000    0.000    0.000 
#
# Total GULP energy -335073.100490 kJ/mol
# GULP energy per Si atom -5584.551675 kJ/mol
# Density = 2.379505 g / cm^3
# Si number density = 23.849331 Si / 1000 Ang^3
#
#
#
# Elastic Constant Matrix: (Units=GPa)
#
#
# Indices 1 2 3 4 5 6 
#
# 1 36.4564 6.5606 29.9216 0.0000 0.0000 0.0000
# 2 6.5606 90.2351 25.6152 0.0000 0.0000 0.0000
# 3 29.9216 25.6152 112.6035 0.0000 0.0000 0.0000
# 4 0.0000 0.0000 0.0000 44.5704 0.0000 0.0000
# 5 0.0000 0.0000 0.0000 0.0000 -0.6279 0.0000
# 6 0.0000 0.0000 0.0000 0.0000 0.0000 20.0221
#
#
#
# Elastic Compliance Matrix: (Units=1/GPa)
#
#
# Indices 1 2 3 4 5 6 
#
# 1 0.035082 0.000102 -0.009345 0.000000 0.000000 0.000000
# 2 0.000102 0.011848 -0.002722 0.000000 0.000000 0.000000
# 3 -0.009345 -0.002722 0.011983 0.000000 0.000000 0.000000
# 4 0.000000 0.000000 0.000000 0.022436 0.000000 0.000000
# 5 0.000000 0.000000 0.000000 0.000000 -1.592732 0.000000
# 6 0.000000 0.000000 0.000000 0.000000 0.000000 0.049945
#
#
# Mechanical properties :
#
#
# Convention : Reuss Voigt Hill
#
# Bulk Modulus (GPa) = 28.58625 40.38776 34.48700
# Shear Modulus (GPa) = -3.50669 24.60610 10.54970
#
# Velocity S-wave (km/s) = -1.21390 3.21554 2.10549
# Velocity P-wave (km/s) = 3.16978 5.54595 4.51692
#
# Compressibility (1/GPa) = 0.03498185
#
# Stress axis : x y z
#
# Youngs Moduli (GPa) = 28.50472 84.40593 83.44951
#
# Poissons Ratio (x) = -0.00863 0.77987
# Poissons Ratio (y) = -0.00291 0.22717
# Poissons Ratio (z) = 0.26639 0.22977
#
# Static dielectric constant tensor:
#      x y z
#    x 1.962370 0.000000 0.000000 
#    y 0.000000 1.952080 0.000000 
#    z 0.000000 0.000000 1.921540 
# 
# From -- ./inp_files/15123.got.cif
#   From: 2010.05.17/outbox.cif.g08.bks.cpg/sg56_8_cif.got.tgz:15123.got - 2010.06.03 13:42:01.
