data_PCOD9430532
_publ_section_title
;
Structure prediction by ZEFSAII (Michael W. Deem and Ramdas Pophale) SiO2 
 PCOD9430532
Probable space group: P C C N
;
_chemical_formula_sum "Si O2"
_cell_formula_units_Z 48
_cell_length_a 9.426669
_cell_length_b 13.684032
_cell_length_c 17.901495
_cell_angle_alpha 90.000000
_cell_angle_beta 90.000000
_cell_angle_gamma 90.000000
_cell_volume 2309.200488
_symmetry_space_group_name_H-M "P C C N"
_symmetry_group_IT_number 56
_symmetry_cell_setting 'orthorhombic'
loop_
_space_group_symop_operation_xyz
x,y,z
1/2-x,1/2-y,z
1/2+x,-y,1/2-z
-x,1/2+y,1/2-z
-x,-y,-z
1/2+x,1/2+y,-z
1/2-x,y,1/2+z
x,1/2-y,1/2+z
loop_
_atom_site_type_symbol
_atom_site_label
_atom_site_fract_x
_atom_site_fract_y
_atom_site_fract_z
Si Si1 0.091378 0.418564 0.412151
Si Si2 0.250000 0.250000 0.682185
Si Si3 0.250000 0.750000 0.288266
Si Si4 0.676810 0.559511 0.917399
Si Si5 0.088227 0.970431 0.668042
Si Si6 0.011054 0.250154 0.807386
Si Si7 0.217817 0.545346 0.812558
O O1 0.134431 0.412898 0.498401
O O2 0.056513 0.314119 0.376992
O O3 0.222755 0.465824 0.369287
O O4 0.956294 0.489733 0.395552
O O5 0.207199 0.343183 0.631461
O O6 0.121818 0.238875 0.740334
O O7 0.368561 0.712913 0.231450
O O8 0.221623 0.652721 0.334736
O O9 0.822473 0.498121 0.905530
O O10 0.205295 0.978900 0.734116
O O11 0.024761 0.861379 0.671083
O O12 0.952080 0.037997 0.684288
#
# Coordination Sequence:
#
# PCOD9430532 Si02
#       7
#     8   4   4   8   8   8   8
#     4  11  24  43  63  90 129 173 209 258 322 386
#     4  12  24  40  66  96 122 162 212 266 318 374
#     4  10  20  34  60  94 120 156 212 268 312 368
#     4  11  25  43  63  91 132 170 209 261 327 387
#     4  11  22  39  65  96 127 166 216 270 321 381
#     4  11  22  38  66  93 120 162 214 262 315 374
#     4  11  21  37  62  90 125 162 214 266 316 376
#
# _framework density 20.786415999999999
#
# number of rings (size 3 to 8) (size 9 to 14) (size 15 to 20)
#    0.000    1.000    0.000   10.000    0.000    2.667 
#    0.000    5.000    0.000    1.000    0.000    0.000 
#    0.000    0.000    0.000    0.000    0.000    0.000 
#
# Total GULP energy -267988.778782 kJ/mol
# GULP energy per Si atom -5583.099558 kJ/mol
# Density = 2.073910 g / cm^3
# Si number density = 20.786416 Si / 1000 Ang^3
#
#
#
# Elastic Constant Matrix: (Units=GPa)
#
#
# Indices 1 2 3 4 5 6 
#
# 1 142.1672 29.0737 61.6939 0.0000 0.0000 0.0000
# 2 29.0737 113.1524 59.9505 0.0000 0.0000 0.0000
# 3 61.6939 59.9505 97.7368 0.0000 0.0000 0.0000
# 4 0.0000 0.0000 0.0000 24.1877 0.0000 0.0000
# 5 0.0000 0.0000 0.0000 0.0000 31.9861 0.0000
# 6 0.0000 0.0000 0.0000 0.0000 0.0000 32.5010
#
#
#
# Elastic Compliance Matrix: (Units=1/GPa)
#
#
# Indices 1 2 3 4 5 6 
#
# 1 0.009783 0.001123 -0.006864 0.000000 0.000000 0.000000
# 2 0.001123 0.013221 -0.008819 0.000000 0.000000 0.000000
# 3 -0.006864 -0.008819 0.019974 0.000000 0.000000 0.000000
# 4 0.000000 0.000000 0.000000 0.041343 0.000000 0.000000
# 5 0.000000 0.000000 0.000000 0.000000 0.031264 0.000000
# 6 0.000000 0.000000 0.000000 0.000000 0.000000 0.030768
#
#
# Mechanical properties :
#
#
# Convention : Reuss Voigt Hill
#
# Bulk Modulus (GPa) = 72.15809 72.72140 72.43975
# Shear Modulus (GPa) = 27.76348 31.22418 29.49383
#
# Velocity S-wave (km/s) = 3.65863 3.87995 3.77091
# Velocity P-wave (km/s) = 7.25512 7.42516 7.34064
#
# Compressibility (1/GPa) = 0.01385846
#
# Stress axis : x y z
#
# Youngs Moduli (GPa) = 102.21777 75.63460 50.06565
#
# Poissons Ratio (x) = -0.08495 0.34366
# Poissons Ratio (y) = -0.11480 0.44152
# Poissons Ratio (z) = 0.70164 0.66701
#
# Static dielectric constant tensor:
#      x y z
#    x 1.689520 0.000000 0.000000 
#    y 0.000000 1.888470 0.000000 
#    z 0.000000 0.000000 1.736790 
# 
# From -- ./inp_files/14873.got.cif
#   From: 2010.05.17/outbox.cif.g08.bks.cpg/sg56_8_cif.got.tgz:14873.got - 2010.06.03 13:42:01.
