data_PCOD9430871
_publ_section_title
;
Structure prediction by ZEFSAII (Michael W. Deem and Ramdas Pophale) SiO2 
 PCOD9430871
Probable space group: P C C N
;
_chemical_formula_sum "Si O2"
_cell_formula_units_Z 28
_cell_length_a 5.068616
_cell_length_b 9.058056
_cell_length_c 25.428924
_cell_angle_alpha 90.000000
_cell_angle_beta 90.000000
_cell_angle_gamma 90.000000
_cell_volume 1167.487865
_symmetry_space_group_name_H-M "P C C N"
_symmetry_group_IT_number 56
_symmetry_cell_setting 'orthorhombic'
loop_
_space_group_symop_operation_xyz
x,y,z
1/2-x,1/2-y,z
1/2+x,-y,1/2-z
-x,1/2+y,1/2-z
-x,-y,-z
1/2+x,1/2+y,-z
1/2-x,y,1/2+z
x,1/2-y,1/2+z
loop_
_atom_site_type_symbol
_atom_site_label
_atom_site_fract_x
_atom_site_fract_y
_atom_site_fract_z
Si Si1 0.750000 0.250000 0.615819
Si Si2 0.036864 0.000599 0.062097
Si Si3 0.553697 0.556660 0.625829
Si Si4 0.162683 0.404950 0.761516
O O1 0.533635 0.166461 0.580535
O O2 0.605323 0.384982 0.643733
O O3 0.309287 0.945895 0.086489
O O4 0.810960 0.908042 0.091738
O O5 0.000000 0.000000 0.000000
O O6 0.540210 0.636330 0.681251
O O7 0.250000 0.250000 0.736135
O O8 0.429040 0.503609 0.766495
#
# Coordination Sequence:
#
# PCOD9430871 Si02
#       4
#     4   8   8   8
#     4   8  22  34  66  88 134 182 232 282 358 406
#     4  10  20  38  61  97 136 184 231 286 352 430
#     4  10  22  41  62  97 137 178 235 289 359 425
#     4  12  28  48  76 109 146 192 249 308 378 445
#
# _framework density 23.983117
#
# number of rings (size 3 to 8) (size 9 to 14) (size 15 to 20)
#    1.714    0.000    0.000    4.286    4.000    0.000 
#    5.143    0.000    0.000    0.000    0.000    0.000 
#    0.000    0.000    0.000    0.000    0.000    0.000 
#
# Total GULP energy -156229.059190 kJ/mol
# GULP energy per Si atom -5579.609257 kJ/mol
# Density = 2.392853 g / cm^3
# Si number density = 23.983117 Si / 1000 Ang^3
#
#
#
# Elastic Constant Matrix: (Units=GPa)
#
#
# Indices 1 2 3 4 5 6 
#
# 1 154.5673 13.9153 25.3061 0.0000 0.0000 0.0000
# 2 13.9153 91.4087 -6.1618 0.0000 0.0000 0.0000
# 3 25.3061 -6.1618 103.9495 0.0000 0.0000 0.0000
# 4 0.0000 0.0000 0.0000 -7.1910 0.0000 0.0000
# 5 0.0000 0.0000 0.0000 0.0000 262.8845 0.0000
# 6 0.0000 0.0000 0.0000 0.0000 0.0000 8.8256
#
#
#
# Elastic Compliance Matrix: (Units=1/GPa)
#
#
# Indices 1 2 3 4 5 6 
#
# 1 0.006859 -0.001161 -0.001739 0.000000 0.000000 0.000000
# 2 -0.001161 0.011180 0.000945 0.000000 0.000000 0.000000
# 3 -0.001739 0.000945 0.010099 0.000000 0.000000 0.000000
# 4 0.000000 0.000000 0.000000 -0.139062 0.000000 0.000000
# 5 0.000000 0.000000 0.000000 0.000000 0.003804 0.000000
# 6 0.000000 0.000000 0.000000 0.000000 0.000000 0.113307
#
#
# Mechanical properties :
#
#
# Convention : Reuss Voigt Hill
#
# Bulk Modulus (GPa) = 41.27171 46.22718 43.74945
# Shear Modulus (GPa) = 275.13076 74.02819 174.57948
#
# Velocity S-wave (km/s) = 10.72229 5.56182 8.54112
# Velocity P-wave (km/s) = 13.05895 7.78215 10.74937
#
# Compressibility (1/GPa) = 0.02422967
#
# Stress axis : x y z
#
# Youngs Moduli (GPa) = 145.79650 89.44224 99.01619
#
# Poissons Ratio (x) = 0.10387 0.17215
# Poissons Ratio (y) = 0.16932 -0.09362
# Poissons Ratio (z) = 0.25348 -0.08456
#
# Static dielectric constant tensor:
#      x y z
#    x 1.928450 0.000000 0.000000 
#    y 0.000000 2.040850 0.000000 
#    z 0.000000 0.000000 1.862390 
# 
# From -- ./inp_files/21430.got.cif
#   From: 2010.05.17/outbox.cif.g08.bks.cpg/sg56_11_cif.got.tgz:21430.got - 2010.06.03 13:42:01.
