data_PCOD9430486
_publ_section_title
;
Structure prediction by ZEFSAII (Michael W. Deem and Ramdas Pophale) SiO2 
 PCOD9430486
Probable space group: P C C N
;
_chemical_formula_sum "Si O2"
_cell_formula_units_Z 60
_cell_length_a 16.306247
_cell_length_b 7.823255
_cell_length_c 25.023065
_cell_angle_alpha 90.000000
_cell_angle_beta 90.000000
_cell_angle_gamma 90.000000
_cell_volume 3192.140564
_symmetry_space_group_name_H-M "P C C N"
_symmetry_group_IT_number 56
_symmetry_cell_setting 'orthorhombic'
loop_
_space_group_symop_operation_xyz
x,y,z
1/2-x,1/2-y,z
1/2+x,-y,1/2-z
-x,1/2+y,1/2-z
-x,-y,-z
1/2+x,1/2+y,-z
1/2-x,y,1/2+z
x,1/2-y,1/2+z
loop_
_atom_site_type_symbol
_atom_site_label
_atom_site_fract_x
_atom_site_fract_y
_atom_site_fract_z
Si Si1 0.431865 0.230244 0.687819
Si Si2 0.043012 0.459446 0.798265
Si Si3 0.750000 0.750000 0.283828
Si Si4 0.747327 0.555501 0.598183
Si Si5 0.983287 0.704837 0.429460
Si Si6 0.099733 0.083099 0.976006
Si Si7 0.728410 0.070631 0.209063
Si Si8 0.059687 0.423805 0.916908
O O1 0.465328 0.419761 0.696792
O O2 0.333739 0.227925 0.683739
O O3 0.473238 0.164961 0.633321
O O4 0.457399 0.136707 0.742355
O O5 0.130234 0.558406 0.798017
O O6 0.045511 0.365527 0.855368
O O7 0.742899 0.586032 0.245198
O O8 0.750000 0.750000 0.619879
O O9 0.811419 0.559011 0.550163
O O10 0.767776 0.442578 0.649851
O O11 0.655021 0.517715 0.579579
O O12 0.052094 0.588086 0.458146
O O13 0.903768 0.636763 0.461947
O O14 0.005216 0.908832 0.431558
O O15 0.054793 0.250639 0.950718
O O16 0.750000 0.250000 0.234557
#
# Coordination Sequence:
#
# PCOD9430486 Si02
#       8
#     8   8   4   8   8   8   8   8
#     4  10  22  38  57  82 117 151 188 233 274 353
#     4   9  21  34  55  90 106 144 190 224 289 333
#     4  10  22  40  52  80 122 152 184 228 280 340
#     4   9  18  32  53  86 108 137 181 230 290 322
#     4  10  22  38  54  84 110 150 195 218 286 337
#     4  10  21  35  59  80 113 148 180 245 278 326
#     4  10  20  33  56  84 114 143 178 237 288 329
#     4   9  19  37  55  84 113 139 185 237 278 333
#
# _framework density 18.796164000000001
#
# number of rings (size 3 to 8) (size 9 to 14) (size 15 to 20)
#    0.000    2.400    0.667    0.400   11.200    0.000 
#    3.600    0.000    0.000    0.000    0.000    0.000 
#    0.000    0.000    0.000    0.000    0.000    0.000 
#
# Total GULP energy -334006.231210 kJ/mol
# GULP energy per Si atom -5566.770520 kJ/mol
# Density = 1.875338 g / cm^3
# Si number density = 18.796164 Si / 1000 Ang^3
#
#
#
# Elastic Constant Matrix: (Units=GPa)
#
#
# Indices 1 2 3 4 5 6 
#
# 1 26.2693 -3.0444 27.8369 0.0000 0.0000 0.0000
# 2 -3.0444 65.2731 16.7163 0.0000 0.0000 0.0000
# 3 27.8369 16.7163 75.2023 0.0000 0.0000 0.0000
# 4 0.0000 0.0000 0.0000 11.4369 0.0000 0.0000
# 5 0.0000 0.0000 0.0000 0.0000 9.1332 0.0000
# 6 0.0000 0.0000 0.0000 0.0000 0.0000 10.3723
#
#
#
# Elastic Compliance Matrix: (Units=1/GPa)
#
#
# Indices 1 2 3 4 5 6 
#
# 1 0.068584 0.010286 -0.027674 0.000000 0.000000 0.000000
# 2 0.010286 0.017788 -0.007761 0.000000 0.000000 0.000000
# 3 -0.027674 -0.007761 0.025266 0.000000 0.000000 0.000000
# 4 0.000000 0.000000 0.000000 0.087436 0.000000 0.000000
# 5 0.000000 0.000000 0.000000 0.000000 0.109490 0.000000
# 6 0.000000 0.000000 0.000000 0.000000 0.000000 0.096411
#
#
# Mechanical properties :
#
#
# Convention : Reuss Voigt Hill
#
# Bulk Modulus (GPa) = 16.30249 27.75137 22.02693
# Shear Modulus (GPa) = 10.51038 14.53754 12.52396
#
# Velocity S-wave (km/s) = 2.36726 2.78408 2.58409
# Velocity P-wave (km/s) = 4.02045 5.01311 4.54397
#
# Compressibility (1/GPa) = 0.06134033
#
# Stress axis : x y z
#
# Youngs Moduli (GPa) = 14.58061 56.21866 39.57829
#
# Poissons Ratio (x) = -0.57827 1.09527
# Poissons Ratio (y) = -0.14998 0.30718
# Poissons Ratio (z) = 0.40350 0.43634
#
# Static dielectric constant tensor:
#      x y z
#    x 1.688720 0.000000 0.000000 
#    y 0.000000 1.532390 0.000000 
#    z 0.000000 0.000000 1.703430 
# 
# From -- ./inp_files/22473.got.cif
#   From: 2010.05.17/outbox.cif.g08.bks.cpg/sg56_12_cif.got.tgz:22473.got - 2010.06.03 13:42:01.
