data_PCOD9430361
_publ_section_title
;
Structure prediction by ZEFSAII (Michael W. Deem and Ramdas Pophale) SiO2 
 PCOD9430361
Probable space group: P C C N
;
_chemical_formula_sum "Si O2"
_cell_formula_units_Z 28
_cell_length_a 7.194472
_cell_length_b 6.266123
_cell_length_c 30.904543
_cell_angle_alpha 90.000000
_cell_angle_beta 90.000000
_cell_angle_gamma 90.000000
_cell_volume 1393.221501
_symmetry_space_group_name_H-M "P C C N"
_symmetry_group_IT_number 56
_symmetry_cell_setting 'orthorhombic'
loop_
_space_group_symop_operation_xyz
x,y,z
1/2-x,1/2-y,z
1/2+x,-y,1/2-z
-x,1/2+y,1/2-z
-x,-y,-z
1/2+x,1/2+y,-z
1/2-x,y,1/2+z
x,1/2-y,1/2+z
loop_
_atom_site_type_symbol
_atom_site_label
_atom_site_fract_x
_atom_site_fract_y
_atom_site_fract_z
Si Si1 0.250000 0.250000 0.513915
Si Si2 0.109006 0.946892 0.804289
Si Si3 0.380953 0.929232 0.942377
Si Si4 0.250000 0.250000 0.728835
Si Si5 0.250000 0.250000 0.877587
O O1 0.432562 0.307429 0.542243
O O2 0.264961 0.457805 0.482023
O O3 0.250000 0.750000 0.805292
O O4 0.901801 0.863283 0.800289
O O5 0.150911 0.083260 0.761058
O O6 0.142666 0.091448 0.845903
O O7 0.250000 0.750000 0.922659
O O8 0.393696 0.119624 0.907893
#
# Coordination Sequence:
#
# PCOD9430361 Si02
#       5
#     4   8   8   4   4
#     4   9  20  35  67  93 118 164 222 249 308 358
#     4  11  22  41  64  94 119 163 208 264 312 379
#     4  10  19  39  62  93 125 167 205 263 300 377
#     4  11  22  39  71  90 117 156 218 257 316 370
#     4  10  24  40  60  87 139 164 200 256 326 362
#
# _framework density 20.097306
#
# number of rings (size 3 to 8) (size 9 to 14) (size 15 to 20)
#    0.000    1.714    2.857    1.714    0.000    0.000 
#    0.000    8.571    0.000    0.000    0.000    0.000 
#    0.000    0.000    0.000    0.000    0.000    0.000 
#
# Total GULP energy -156109.141190 kJ/mol
# GULP energy per Si atom -5575.326471 kJ/mol
# Density = 2.005156 g / cm^3
# Si number density = 20.097306 Si / 1000 Ang^3
#
#
#
# Elastic Constant Matrix: (Units=GPa)
#
#
# Indices 1 2 3 4 5 6 
#
# 1 137.3500 68.6086 56.6488 0.0000 0.0000 0.0000
# 2 68.6086 107.2017 46.4343 0.0000 0.0000 0.0000
# 3 56.6488 46.4343 95.9613 0.0000 0.0000 0.0000
# 4 0.0000 0.0000 0.0000 11.3034 0.0000 0.0000
# 5 0.0000 0.0000 0.0000 0.0000 27.4848 0.0000
# 6 0.0000 0.0000 0.0000 0.0000 0.0000 44.8178
#
#
#
# Elastic Compliance Matrix: (Units=1/GPa)
#
#
# Indices 1 2 3 4 5 6 
#
# 1 0.011922 -0.005796 -0.004233 0.000000 0.000000 0.000000
# 2 -0.005796 0.014620 -0.003653 0.000000 0.000000 0.000000
# 3 -0.004233 -0.003653 0.014687 0.000000 0.000000 0.000000
# 4 0.000000 0.000000 0.000000 0.088469 0.000000 0.000000
# 5 0.000000 0.000000 0.000000 0.000000 0.036384 0.000000
# 6 0.000000 0.000000 0.000000 0.000000 0.000000 0.022313
#
#
# Mechanical properties :
#
#
# Convention : Reuss Voigt Hill
#
# Bulk Modulus (GPa) = 72.12429 75.98852 74.05640
# Shear Modulus (GPa) = 22.68801 27.97595 25.33198
#
# Velocity S-wave (km/s) = 3.36357 3.73503 3.55416
# Velocity P-wave (km/s) = 7.14494 7.51618 7.33291
#
# Compressibility (1/GPa) = 0.01386495
#
# Stress axis : x y z
#
# Youngs Moduli (GPa) = 83.87848 68.39921 68.08639
#
# Poissons Ratio (x) = 0.39647 0.28822
# Poissons Ratio (y) = 0.48620 0.24869
# Poissons Ratio (z) = 0.35506 0.24984
#
# Static dielectric constant tensor:
#      x y z
#    x 1.675330 0.000000 0.000000 
#    y 0.000000 1.716590 0.000000 
#    z 0.000000 0.000000 1.715180 
# 
# From -- ./inp_files/23034.got.cif
#   From: 2010.05.17/outbox.cif.g08.bks.cpg/sg56_12_cif.got.tgz:23034.got - 2010.06.03 13:42:01.
