data_PCOD9430834
_publ_section_title
;
Structure prediction by ZEFSAII (Michael W. Deem and Ramdas Pophale) SiO2 
 PCOD9430834
Probable space group: P C C N
;
_chemical_formula_sum "Si O2"
_cell_formula_units_Z 64
_cell_length_a 18.470727
_cell_length_b 8.128251
_cell_length_c 19.762525
_cell_angle_alpha 90.000000
_cell_angle_beta 90.000000
_cell_angle_gamma 90.000000
_cell_volume 2967.040865
_symmetry_space_group_name_H-M "P C C N"
_symmetry_group_IT_number 56
_symmetry_cell_setting 'orthorhombic'
loop_
_space_group_symop_operation_xyz
x,y,z
1/2-x,1/2-y,z
1/2+x,-y,1/2-z
-x,1/2+y,1/2-z
-x,-y,-z
1/2+x,1/2+y,-z
1/2-x,y,1/2+z
x,1/2-y,1/2+z
loop_
_atom_site_type_symbol
_atom_site_label
_atom_site_fract_x
_atom_site_fract_y
_atom_site_fract_z
Si Si1 0.536310 0.250421 0.265620
Si Si2 0.993837 0.362310 0.412219
Si Si3 0.848568 0.543345 0.624218
Si Si4 0.779089 0.063527 0.539743
Si Si5 0.401134 0.661918 0.364748
Si Si6 0.388433 0.396624 0.733008
Si Si7 0.819475 0.867940 0.414441
Si Si8 0.027570 0.240657 0.049072
O O1 0.541103 0.194973 0.342959
O O2 0.585354 0.141008 0.214845
O O3 0.565816 0.434492 0.260513
O O4 0.452476 0.237878 0.241570
O O5 0.080168 0.364636 0.401113
O O6 0.983729 0.252834 0.478577
O O7 0.972113 0.549113 0.429023
O O8 0.783107 0.550832 0.572121
O O9 0.872172 0.350097 0.627398
O O10 0.836611 0.603301 0.701068
O O11 0.750000 0.250000 0.540780
O O12 0.846067 0.054067 0.592253
O O13 0.797982 0.018256 0.463105
O O14 0.480253 0.656378 0.398217
O O15 0.346047 0.396057 0.662571
O O16 0.750000 0.750000 0.412977
O O17 0.890220 0.794892 0.451317
#
# Coordination Sequence:
#
# PCOD9430834 Si02
#       8
#     8   8   8   8   8   8   8   8
#     4  10  20  39  64  96 127 162 213 272 319 383
#     4   9  19  35  66  90 120 167 212 253 322 391
#     4   8  17  39  61  84 121 166 204 243 316 388
#     4  10  22  42  65  88 127 175 218 262 322 390
#     4   9  18  35  63  90 122 157 201 271 313 360
#     4  10  22  41  65  96 129 166 213 267 328 384
#     4  12  26  43  61  93 140 170 211 275 323 387
#     4  10  20  38  59  91 127 164 206 262 326 376
#
# _framework density 21.570312000000001
#
# number of rings (size 3 to 8) (size 9 to 14) (size 15 to 20)
#    0.000    2.250    1.250    1.500    1.750    2.500 
#    2.250    5.000    0.000    0.000    0.000    0.000 
#    0.000    0.000    0.000    0.000    0.000    0.000 
#
# Total GULP energy -357354.873121 kJ/mol
# GULP energy per Si atom -5583.669893 kJ/mol
# Density = 2.152122 g / cm^3
# Si number density = 21.570312 Si / 1000 Ang^3
#
#
#
# Elastic Constant Matrix: (Units=GPa)
#
#
# Indices 1 2 3 4 5 6 
#
# 1 71.5855 23.1500 14.9168 0.0000 0.0000 0.0000
# 2 23.1500 32.4521 20.7658 0.0000 0.0000 0.0000
# 3 14.9168 20.7658 131.1985 0.0000 0.0000 0.0000
# 4 0.0000 0.0000 0.0000 21.3603 0.0000 0.0000
# 5 0.0000 0.0000 0.0000 0.0000 28.0583 0.0000
# 6 0.0000 0.0000 0.0000 0.0000 0.0000 17.9938
#
#
#
# Elastic Compliance Matrix: (Units=1/GPa)
#
#
# Indices 1 2 3 4 5 6 
#
# 1 0.018158 -0.012943 -0.000016 0.000000 0.000000 0.000000
# 2 -0.012943 0.043513 -0.005416 0.000000 0.000000 0.000000
# 3 -0.000016 -0.005416 0.008481 0.000000 0.000000 0.000000
# 4 0.000000 0.000000 0.000000 0.046816 0.000000 0.000000
# 5 0.000000 0.000000 0.000000 0.000000 0.035640 0.000000
# 6 0.000000 0.000000 0.000000 0.000000 0.000000 0.055575
#
#
# Mechanical properties :
#
#
# Convention : Reuss Voigt Hill
#
# Bulk Modulus (GPa) = 29.93735 39.21125 34.57430
# Shear Modulus (GPa) = 19.52616 25.24272 22.38444
#
# Velocity S-wave (km/s) = 3.01197 3.42461 3.22490
# Velocity P-wave (km/s) = 5.09952 5.81851 5.47084
#
# Compressibility (1/GPa) = 0.03340308
#
# Stress axis : x y z
#
# Youngs Moduli (GPa) = 55.07117 22.98159 117.91052
#
# Poissons Ratio (x) = 0.29746 0.00188
# Poissons Ratio (y) = 0.71280 0.63855
# Poissons Ratio (z) = 0.00088 0.12446
#
# Static dielectric constant tensor:
#      x y z
#    x 1.767390 0.000000 0.000000 
#    y 0.000000 1.804220 0.000000 
#    z 0.000000 0.000000 1.831800 
# 
# From -- ./inp_files/19356.got.cif
#   From: 2010.05.17/outbox.cif.g08.bks.cpg/sg56_10_cif.got.tgz:19356.got - 2010.06.03 13:42:01.
