data_PCOD9430144
_publ_section_title
;
Structure prediction by ZEFSAII (Michael W. Deem and Ramdas Pophale) SiO2 
 PCOD9430144
Probable space group: P C C N
;
_chemical_formula_sum "Si O2"
_cell_formula_units_Z 48
_cell_length_a 13.028138
_cell_length_b 8.370759
_cell_length_c 19.560222
_cell_angle_alpha 90.000000
_cell_angle_beta 90.000000
_cell_angle_gamma 90.000000
_cell_volume 2133.147901
_symmetry_space_group_name_H-M "P C C N"
_symmetry_group_IT_number 56
_symmetry_cell_setting 'orthorhombic'
loop_
_space_group_symop_operation_xyz
x,y,z
1/2-x,1/2-y,z
1/2+x,-y,1/2-z
-x,1/2+y,1/2-z
-x,-y,-z
1/2+x,1/2+y,-z
1/2-x,y,1/2+z
x,1/2-y,1/2+z
loop_
_atom_site_type_symbol
_atom_site_label
_atom_site_fract_x
_atom_site_fract_y
_atom_site_fract_z
Si Si1 0.977299 0.887839 0.335032
Si Si2 0.498027 0.767567 0.199699
Si Si3 0.901754 0.638038 0.429108
Si Si4 0.782121 0.067509 0.674916
Si Si5 0.298843 0.575442 0.176896
Si Si6 0.893683 0.583709 0.586290
O O1 0.958729 0.757126 0.275425
O O2 0.098831 0.918869 0.345720
O O3 0.922314 0.814166 0.400081
O O4 0.943766 0.062943 0.311084
O O5 0.413692 0.629827 0.196846
O O6 0.573757 0.725009 0.138056
O O7 0.814740 0.543818 0.386090
O O8 0.877447 0.638536 0.509000
O O9 0.010833 0.542663 0.417865
O O10 0.750000 0.250000 0.685151
O O11 0.764078 0.996547 0.751197
O O12 0.707292 0.992406 0.619450
O O13 0.250000 0.750000 0.159230
#
# Coordination Sequence:
#
# PCOD9430144 Si02
#       6
#     8   8   8   8   8   8
#     4  11  21  38  63  92 123 168 214 268 318 378
#     4  10  22  37  64  90 124 164 215 263 324 383
#     4  10  21  40  61  93 128 165 213 255 329 385
#     4  10  19  34  64  90 122 164 216 259 305 376
#     4   9  20  37  63  92 122 166 214 261 307 384
#     4  10  21  39  62  91 128 168 209 264 320 389
#
# _framework density 22.501954999999999
#
# number of rings (size 3 to 8) (size 9 to 14) (size 15 to 20)
#    0.000    2.000    1.667    3.000    4.667    2.000 
#    3.000    0.833    3.667    0.000    0.000    0.000 
#    0.000    0.000    0.000    0.000    0.000    0.000 
#
# Total GULP energy -268026.409685 kJ/mol
# GULP energy per Si atom -5583.883535 kJ/mol
# Density = 2.245074 g / cm^3
# Si number density = 22.501955 Si / 1000 Ang^3
#
#
#
# Elastic Constant Matrix: (Units=GPa)
#
#
# Indices 1 2 3 4 5 6 
#
# 1 85.1240 19.1548 60.0484 0.0000 0.0000 0.0000
# 2 19.1548 99.4519 55.9586 0.0000 0.0000 0.0000
# 3 60.0484 55.9586 194.8194 0.0000 0.0000 0.0000
# 4 0.0000 0.0000 0.0000 23.7117 0.0000 0.0000
# 5 0.0000 0.0000 0.0000 0.0000 18.8818 0.0000
# 6 0.0000 0.0000 0.0000 0.0000 0.0000 29.5966
#
#
#
# Elastic Compliance Matrix: (Units=1/GPa)
#
#
# Indices 1 2 3 4 5 6 
#
# 1 0.015021 -0.000344 -0.004531 0.000000 0.000000 0.000000
# 2 -0.000344 0.012001 -0.003341 0.000000 0.000000 0.000000
# 3 -0.004531 -0.003341 0.007489 0.000000 0.000000 0.000000
# 4 0.000000 0.000000 0.000000 0.042173 0.000000 0.000000
# 5 0.000000 0.000000 0.000000 0.000000 0.052961 0.000000
# 6 0.000000 0.000000 0.000000 0.000000 0.000000 0.033788
#
#
# Mechanical properties :
#
#
# Convention : Reuss Voigt Hill
#
# Bulk Modulus (GPa) = 55.31043 72.19098 63.75070
# Shear Modulus (GPa) = 26.89720 30.72024 28.80872
#
# Velocity S-wave (km/s) = 3.46110 3.69890 3.58198
# Velocity P-wave (km/s) = 6.37228 7.09889 6.74538
#
# Compressibility (1/GPa) = 0.01807977
#
# Stress axis : x y z
#
# Youngs Moduli (GPa) = 66.57189 83.32412 133.52292
#
# Poissons Ratio (x) = 0.02863 0.60503
# Poissons Ratio (y) = 0.02287 0.44614
# Poissons Ratio (z) = 0.30166 0.27841
#
# Static dielectric constant tensor:
#      x y z
#    x 1.952340 0.000000 0.000000 
#    y 0.000000 1.841670 0.000000 
#    z 0.000000 0.000000 1.822670 
# 
# From -- ./inp_files/16147.got.cif
#   From: 2010.05.17/outbox.cif.g08.bks.cpg/sg56_9_cif.got.tgz:16147.got - 2010.06.03 13:42:01.
