data_PCOD9430279
_publ_section_title
;
Structure prediction by ZEFSAII (Michael W. Deem and Ramdas Pophale) SiO2 
 PCOD9430279
Probable space group: P C C N
;
_chemical_formula_sum "Si O2"
_cell_formula_units_Z 52
_cell_length_a 7.441870
_cell_length_b 10.704737
_cell_length_c 26.771541
_cell_angle_alpha 90.000000
_cell_angle_beta 90.000000
_cell_angle_gamma 90.000000
_cell_volume 2132.708262
_symmetry_space_group_name_H-M "P C C N"
_symmetry_group_IT_number 56
_symmetry_cell_setting 'orthorhombic'
loop_
_space_group_symop_operation_xyz
x,y,z
1/2-x,1/2-y,z
1/2+x,-y,1/2-z
-x,1/2+y,1/2-z
-x,-y,-z
1/2+x,1/2+y,-z
1/2-x,y,1/2+z
x,1/2-y,1/2+z
loop_
_atom_site_type_symbol
_atom_site_label
_atom_site_fract_x
_atom_site_fract_y
_atom_site_fract_z
Si Si1 0.471265 0.446115 0.132156
Si Si2 0.453262 0.700436 0.192003
Si Si3 0.363574 0.565020 0.038508
Si Si4 0.535453 0.213595 0.194793
Si Si5 0.558659 0.795122 0.090311
Si Si6 0.896825 0.067044 0.605315
Si Si7 0.250000 0.750000 0.960882
O O1 0.453593 0.562185 0.169550
O O2 0.344480 0.467143 0.083889
O O3 0.440707 0.325095 0.165336
O O4 0.679300 0.451934 0.111898
O O5 0.250000 0.750000 0.192968
O O6 0.524375 0.701289 0.248315
O O7 0.553451 0.783084 0.150378
O O8 0.431328 0.688439 0.068487
O O9 0.500000 0.500000 0.000000
O O10 0.240142 0.631116 0.997544
O O11 0.750000 0.250000 0.195140
O O12 0.523490 0.091175 0.160227
O O13 0.750000 0.750000 0.070756
O O14 0.530024 0.941221 0.080002
O O15 0.906629 0.200366 0.576380
#
# Coordination Sequence:
#
# PCOD9430279 Si02
#       7
#     8   8   8   8   8   8   4
#     4  10  19  37  61  86 124 161 208 250 302 384
#     4  10  22  37  60  94 126 164 204 257 322 370
#     4  11  21  37  61  87 117 163 206 258 313 365
#     4   9  19  36  61  91 119 165 207 253 303 380
#     4  11  22  38  62  91 125 160 211 257 301 381
#     4  11  19  40  62  91 119 162 214 256 302 383
#     4  12  22  38  64  88 120 168 208 254 330 374
#
# _framework density 24.382142999999999
#
# number of rings (size 3 to 8) (size 9 to 14) (size 15 to 20)
#    0.000    1.538    6.923    0.000    6.462    0.615 
#    0.000    0.000    0.000    0.000    0.000    0.000 
#    0.000    0.000    0.000    0.000    0.000    0.000 
#
# Total GULP energy -290009.143502 kJ/mol
# GULP energy per Si atom -5577.098913 kJ/mol
# Density = 2.432665 g / cm^3
# Si number density = 24.382143 Si / 1000 Ang^3
#
#
#
# Elastic Constant Matrix: (Units=GPa)
#
#
# Indices 1 2 3 4 5 6 
#
# 1 33.2078 -2.2991 2.8089 0.0000 0.0000 0.0000
# 2 -2.2991 130.5469 47.1615 0.0000 0.0000 0.0000
# 3 2.8089 47.1615 175.1194 0.0000 0.0000 0.0000
# 4 0.0000 0.0000 0.0000 29.3262 0.0000 0.0000
# 5 0.0000 0.0000 0.0000 0.0000 24.9720 0.0000
# 6 0.0000 0.0000 0.0000 0.0000 0.0000 29.2742
#
#
#
# Elastic Compliance Matrix: (Units=1/GPa)
#
#
# Indices 1 2 3 4 5 6 
#
# 1 0.030226 0.000784 -0.000696 0.000000 0.000000 0.000000
# 2 0.000784 0.008506 -0.002303 0.000000 0.000000 0.000000
# 3 -0.000696 -0.002303 0.006342 0.000000 0.000000 0.000000
# 4 0.000000 0.000000 0.000000 0.034099 0.000000 0.000000
# 5 0.000000 0.000000 0.000000 0.000000 0.040045 0.000000
# 6 0.000000 0.000000 0.000000 0.000000 0.000000 0.034160
#
#
# Mechanical properties :
#
#
# Convention : Reuss Voigt Hill
#
# Bulk Modulus (GPa) = 24.60425 48.24628 36.42526
# Shear Modulus (GPa) = 29.17886 36.12800 32.65343
#
# Velocity S-wave (km/s) = 3.46313 3.85351 3.66353
# Velocity P-wave (km/s) = 5.10921 6.29523 5.73297
#
# Compressibility (1/GPa) = 0.04064339
#
# Stress axis : x y z
#
# Youngs Moduli (GPa) = 33.08355 117.56424 157.68242
#
# Poissons Ratio (x) = -0.09214 0.10973
# Poissons Ratio (y) = -0.02593 0.36319
# Poissons Ratio (z) = 0.02302 0.27079
#
# Static dielectric constant tensor:
#      x y z
#    x 2.084080 0.000000 0.000000 
#    y 0.000000 1.989070 0.000000 
#    z 0.000000 0.000000 1.959720 
# 
# From -- ./inp_files/22038.got.cif
#   From: 2010.05.17/outbox.cif.g08.bks.cpg/sg56_12_cif.got.tgz:22038.got - 2010.06.03 13:42:01.
