data_PCOD9430762
_publ_section_title
;
Structure prediction by ZEFSAII (Michael W. Deem and Ramdas Pophale) SiO2 
 PCOD9430762
Probable space group: P C C N
;
_chemical_formula_sum "Si O2"
_cell_formula_units_Z 48
_cell_length_a 8.033447
_cell_length_b 17.914577
_cell_length_c 15.590435
_cell_angle_alpha 90.000000
_cell_angle_beta 90.000000
_cell_angle_gamma 90.000000
_cell_volume 2243.710001
_symmetry_space_group_name_H-M "P C C N"
_symmetry_group_IT_number 56
_symmetry_cell_setting 'orthorhombic'
loop_
_space_group_symop_operation_xyz
x,y,z
1/2-x,1/2-y,z
1/2+x,-y,1/2-z
-x,1/2+y,1/2-z
-x,-y,-z
1/2+x,1/2+y,-z
1/2-x,y,1/2+z
x,1/2-y,1/2+z
loop_
_atom_site_type_symbol
_atom_site_label
_atom_site_fract_x
_atom_site_fract_y
_atom_site_fract_z
Si Si1 0.206336 0.074599 0.766978
Si Si2 0.229974 0.337766 0.429095
Si Si3 0.403800 0.579939 0.013777
Si Si4 0.166521 0.331772 0.111751
Si Si5 0.809772 0.416820 0.299207
Si Si6 0.223058 0.664905 0.860465
O O1 0.287034 0.112630 0.849594
O O2 0.259587 0.118129 0.681330
O O3 0.010090 0.082586 0.787551
O O4 0.246141 0.989911 0.749146
O O5 0.250000 0.250000 0.409236
O O6 0.328125 0.357706 0.514417
O O7 0.042543 0.358693 0.458852
O O8 0.284683 0.577770 0.098223
O O9 0.500000 0.500000 0.000000
O O10 0.312663 0.609117 0.927745
O O11 0.250000 0.250000 0.114417
O O12 0.975585 0.339234 0.136062
O O13 0.733788 0.351293 0.239738
O O14 0.250000 0.750000 0.886524
#
# Coordination Sequence:
#
# PCOD9430762 Si02
#       6
#     8   8   8   8   8   8
#     4  10  21  38  58  83 118 155 194 246 301 357
#     4  10  20  37  61  87 116 155 201 248 300 362
#     4  11  23  43  65  89 125 166 205 255 311 367
#     4  10  21  37  58  87 118 155 201 246 299 360
#     4  10  23  39  60  89 118 156 204 247 304 370
#     4  11  23  40  62  89 122 159 201 254 310 368
#
# _framework density 21.393139999999999
#
# number of rings (size 3 to 8) (size 9 to 14) (size 15 to 20)
#    0.000    1.667    0.000    5.500    0.000    3.333 
#    0.000    7.500    0.000    0.000    0.000    0.000 
#    0.000    0.000    0.000    0.000    0.000    0.000 
#
# Total GULP energy -267642.495663 kJ/mol
# GULP energy per Si atom -5575.885326 kJ/mol
# Density = 2.134445 g / cm^3
# Si number density = 21.393140 Si / 1000 Ang^3
#
#
#
# Elastic Constant Matrix: (Units=GPa)
#
#
# Indices 1 2 3 4 5 6 
#
# 1 22.2501 14.6235 -3.0058 0.0000 0.0000 0.0000
# 2 14.6235 77.2633 42.6519 0.0000 0.0000 0.0000
# 3 -3.0058 42.6519 101.2809 0.0000 0.0000 0.0000
# 4 0.0000 0.0000 0.0000 20.2432 0.0000 0.0000
# 5 0.0000 0.0000 0.0000 0.0000 28.5753 0.0000
# 6 0.0000 0.0000 0.0000 0.0000 0.0000 24.4559
#
#
#
# Elastic Compliance Matrix: (Units=1/GPa)
#
#
# Indices 1 2 3 4 5 6 
#
# 1 0.055855 -0.014966 0.007960 0.000000 0.000000 0.000000
# 2 -0.014966 0.020873 -0.009234 0.000000 0.000000 0.000000
# 3 0.007960 -0.009234 0.013999 0.000000 0.000000 0.000000
# 4 0.000000 0.000000 0.000000 0.049399 0.000000 0.000000
# 5 0.000000 0.000000 0.000000 0.000000 0.034995 0.000000
# 6 0.000000 0.000000 0.000000 0.000000 0.000000 0.040890
#
#
# Mechanical properties :
#
#
# Convention : Reuss Voigt Hill
#
# Bulk Modulus (GPa) = 17.16841 34.37039 25.76940
# Shear Modulus (GPa) = 18.66324 24.42318 21.54321
#
# Velocity S-wave (km/s) = 2.95684 3.38248 3.17679
# Velocity P-wave (km/s) = 4.43844 5.59963 5.05250
#
# Compressibility (1/GPa) = 0.05824652
#
# Stress axis : x y z
#
# Youngs Moduli (GPa) = 17.90352 47.90900 71.43609
#
# Poissons Ratio (x) = 0.71700 -0.56864
# Poissons Ratio (y) = 0.26794 0.65966
# Poissons Ratio (z) = -0.14251 0.44240
#
# Static dielectric constant tensor:
#      x y z
#    x 2.808630 0.000000 0.000000 
#    y 0.000000 1.617060 0.000000 
#    z 0.000000 0.000000 1.902960 
# 
# From -- ./inp_files/10640.got.cif
#   From: 2010.05.17/outbox.cif.g08.bks.cpg/sg56_6_cif.got.tgz:10640.got - 2010.06.03 13:42:01.
