data_PCOD9430483
_publ_section_title
;
Structure prediction by ZEFSAII (Michael W. Deem and Ramdas Pophale) SiO2 
 PCOD9430483
Probable space group: P C C N
;
_chemical_formula_sum "Si O2"
_cell_formula_units_Z 44
_cell_length_a 8.478488
_cell_length_b 20.952683
_cell_length_c 12.536993
_cell_angle_alpha 90.000000
_cell_angle_beta 90.000000
_cell_angle_gamma 90.000000
_cell_volume 2227.160090
_symmetry_space_group_name_H-M "P C C N"
_symmetry_group_IT_number 56
_symmetry_cell_setting 'orthorhombic'
loop_
_space_group_symop_operation_xyz
x,y,z
1/2-x,1/2-y,z
1/2+x,-y,1/2-z
-x,1/2+y,1/2-z
-x,-y,-z
1/2+x,1/2+y,-z
1/2-x,y,1/2+z
x,1/2-y,1/2+z
loop_
_atom_site_type_symbol
_atom_site_label
_atom_site_fract_x
_atom_site_fract_y
_atom_site_fract_z
Si Si1 0.807158 0.560530 0.364147
Si Si2 0.213120 0.544069 0.983811
Si Si3 0.296279 0.630928 0.663927
Si Si4 0.943507 0.151151 0.107166
Si Si5 0.972560 0.451659 0.236822
Si Si6 0.250000 0.750000 0.514324
O O1 0.769823 0.523953 0.474442
O O2 0.936391 0.515437 0.304665
O O3 0.655089 0.561014 0.287197
O O4 0.875930 0.629708 0.390346
O O5 0.133333 0.574931 0.089418
O O6 0.352463 0.594306 0.956662
O O7 0.107755 0.542214 0.879415
O O8 0.385211 0.646210 0.771971
O O9 0.124353 0.604120 0.701421
O O10 0.300877 0.692919 0.590811
O O11 0.886497 0.217927 0.057859
#
# Coordination Sequence:
#
# PCOD9430483 Si02
#       6
#     8   8   8   8   8   4
#     4  11  20  33  54  86 121 148 178 225 287 348
#     4   9  18  33  54  84 119 150 177 217 281 351
#     4   9  19  36  56  80 107 146 192 234 280 331
#     4  10  20  34  56  81 107 145 191 233 276 330
#     4  10  20  33  54  85 121 149 177 226 286 348
#     4  10  20  36  60  76  98 144 202 244 268 320
#
# _framework density 19.756098999999999
#
# number of rings (size 3 to 8) (size 9 to 14) (size 15 to 20)
#    0.000    2.182    0.000    4.909    0.000    2.909 
#    0.000    0.000    0.000   24.000    0.000    0.000 
#    0.000    0.000    0.000    0.000    0.000    0.000 
#
# Total GULP energy -245422.677200 kJ/mol
# GULP energy per Si atom -5577.788118 kJ/mol
# Density = 1.971113 g / cm^3
# Si number density = 19.756099 Si / 1000 Ang^3
#
#
#
# Elastic Constant Matrix: (Units=GPa)
#
#
# Indices 1 2 3 4 5 6 
#
# 1 76.1632 47.4157 26.3184 0.0000 0.0000 0.0000
# 2 47.4157 103.0580 40.9645 0.0000 0.0000 0.0000
# 3 26.3184 40.9645 124.3566 0.0000 0.0000 0.0000
# 4 0.0000 0.0000 0.0000 32.4337 0.0000 0.0000
# 5 0.0000 0.0000 0.0000 0.0000 8.6097 0.0000
# 6 0.0000 0.0000 0.0000 0.0000 0.0000 24.4237
#
#
#
# Elastic Compliance Matrix: (Units=1/GPa)
#
#
# Indices 1 2 3 4 5 6 
#
# 1 0.018577 -0.008036 -0.001284 0.000000 0.000000 0.000000
# 2 -0.008036 0.014642 -0.003122 0.000000 0.000000 0.000000
# 3 -0.001284 -0.003122 0.009342 0.000000 0.000000 0.000000
# 4 0.000000 0.000000 0.000000 0.030832 0.000000 0.000000
# 5 0.000000 0.000000 0.000000 0.000000 0.116148 0.000000
# 6 0.000000 0.000000 0.000000 0.000000 0.000000 0.040944
#
#
# Mechanical properties :
#
#
# Convention : Reuss Voigt Hill
#
# Bulk Modulus (GPa) = 56.57979 59.21944 57.89962
# Shear Modulus (GPa) = 19.13796 25.68539 22.41168
#
# Velocity S-wave (km/s) = 3.11579 3.60964 3.37177
# Velocity P-wave (km/s) = 6.45333 6.88571 6.67302
#
# Compressibility (1/GPa) = 0.01767415
#
# Stress axis : x y z
#
# Youngs Moduli (GPa) = 53.83135 68.29749 107.04653
#
# Poissons Ratio (x) = 0.54886 0.13747
# Poissons Ratio (y) = 0.43261 0.33424
# Poissons Ratio (z) = 0.06913 0.21325
#
# Static dielectric constant tensor:
#      x y z
#    x 1.765370 0.000000 0.000000 
#    y 0.000000 1.723700 0.000000 
#    z 0.000000 0.000000 1.726140 
# 
# From -- ./inp_files/6359.got.cif
#   From: 2010.05.17/outbox.cif.g08.bks.cpg/sg56_4_cif.got.tgz:6359.got - 2010.06.03 13:42:01.
