data_PCOD9430730
_publ_section_title
;
Structure prediction by ZEFSAII (Michael W. Deem and Ramdas Pophale) SiO2 
 PCOD9430730
Probable space group: P C C N
;
_chemical_formula_sum "Si O2"
_cell_formula_units_Z 52
_cell_length_a 24.695961
_cell_length_b 8.758329
_cell_length_c 12.757303
_cell_angle_alpha 90.000000
_cell_angle_beta 90.000000
_cell_angle_gamma 90.000000
_cell_volume 2759.345335
_symmetry_space_group_name_H-M "P C C N"
_symmetry_group_IT_number 56
_symmetry_cell_setting 'orthorhombic'
loop_
_space_group_symop_operation_xyz
x,y,z
1/2-x,1/2-y,z
1/2+x,-y,1/2-z
-x,1/2+y,1/2-z
-x,-y,-z
1/2+x,1/2+y,-z
1/2-x,y,1/2+z
x,1/2-y,1/2+z
loop_
_atom_site_type_symbol
_atom_site_label
_atom_site_fract_x
_atom_site_fract_y
_atom_site_fract_z
Si Si1 0.825634 0.020465 0.136206
Si Si2 0.935067 0.499421 0.891418
Si Si3 0.250000 0.750000 0.737581
Si Si4 0.045752 0.989136 0.847042
Si Si5 0.497858 0.751216 0.510184
Si Si6 0.676062 0.662107 0.333256
Si Si7 0.211887 0.474845 0.599370
O O1 0.792661 0.155858 0.192621
O O2 0.890268 0.039045 0.136874
O O3 0.814967 0.873455 0.210439
O O4 0.805109 0.003683 0.018947
O O5 0.963784 0.494013 0.777389
O O6 0.944953 0.333971 0.943053
O O7 0.875148 0.562374 0.869278
O O8 0.962301 0.620737 0.968910
O O9 0.216891 0.629441 0.666323
O O10 0.015679 0.856929 0.911027
O O11 0.026274 0.145389 0.901667
O O12 0.728023 0.596678 0.393591
O O13 0.672952 0.842498 0.354002
#
# Coordination Sequence:
#
# PCOD9430730 Si02
#       7
#     8   8   4   8   8   8   8
#     4  10  21  37  56  80 113 148 187 229 279 331
#     4  10  20  38  57  82 112 141 187 236 279 336
#     4  10  22  36  54  84 114 148 190 228 272 334
#     4  10  21  37  56  81 111 146 185 231 284 338
#     4  10  21  36  58  81 108 146 185 231 287 336
#     4   9  21  37  57  82 110 146 190 231 276 337
#     4  10  20  37  57  80 115 149 182 230 277 329
#
# _framework density 18.845050000000001
#
# number of rings (size 3 to 8) (size 9 to 14) (size 15 to 20)
#    0.000    2.154    0.000    2.308    0.000    9.846 
#    0.000    7.692    0.000    0.000    0.000    0.000 
#    0.000    0.000    0.000    0.000    0.000    0.000 
#
# Total GULP energy -290016.838325 kJ/mol
# GULP energy per Si atom -5577.246891 kJ/mol
# Density = 1.880216 g / cm^3
# Si number density = 18.845050 Si / 1000 Ang^3
#
#
#
# Elastic Constant Matrix: (Units=GPa)
#
#
# Indices 1 2 3 4 5 6 
#
# 1 44.8429 16.7741 -8.5752 0.0000 0.0000 0.0000
# 2 16.7741 114.5299 46.8798 0.0000 0.0000 0.0000
# 3 -8.5752 46.8798 49.8299 0.0000 0.0000 0.0000
# 4 0.0000 0.0000 0.0000 13.6847 0.0000 0.0000
# 5 0.0000 0.0000 0.0000 0.0000 28.3408 0.0000
# 6 0.0000 0.0000 0.0000 0.0000 0.0000 5.1451
#
#
#
# Elastic Compliance Matrix: (Units=1/GPa)
#
#
# Indices 1 2 3 4 5 6 
#
# 1 0.028898 -0.010193 0.014563 0.000000 0.000000 0.000000
# 2 -0.010193 0.017795 -0.018496 0.000000 0.000000 0.000000
# 3 0.014563 -0.018496 0.039975 0.000000 0.000000 0.000000
# 4 0.000000 0.000000 0.000000 0.073074 0.000000 0.000000
# 5 0.000000 0.000000 0.000000 0.000000 0.035285 0.000000
# 6 0.000000 0.000000 0.000000 0.000000 0.000000 0.194360
#
#
# Mechanical properties :
#
#
# Convention : Reuss Voigt Hill
#
# Bulk Modulus (GPa) = 17.11872 35.48446 26.30159
# Shear Modulus (GPa) = 11.43874 19.70905 15.57389
#
# Velocity S-wave (km/s) = 2.46639 3.23746 2.87787
# Velocity P-wave (km/s) = 4.14903 5.73109 5.00299
#
# Compressibility (1/GPa) = 0.05841559
#
# Stress axis : x y z
#
# Youngs Moduli (GPa) = 34.60466 56.19576 25.01568
#
# Poissons Ratio (x) = 0.57282 -0.36430
# Poissons Ratio (y) = 0.35274 0.46268
# Poissons Ratio (z) = -0.50394 1.03937
#
# Static dielectric constant tensor:
#      x y z
#    x 1.614120 0.000000 0.000000 
#    y 0.000000 1.673840 0.000000 
#    z 0.000000 0.000000 1.639300 
# 
# From -- ./inp_files/6516.got.cif
#   From: 2010.05.17/outbox.cif.g08.bks.cpg/sg56_4_cif.got.tgz:6516.got - 2010.06.03 13:42:01.
