data_PCOD9430709
_publ_section_title
;
Structure prediction by ZEFSAII (Michael W. Deem and Ramdas Pophale) SiO2 
 PCOD9430709
Probable space group: P C C N
;
_chemical_formula_sum "Si O2"
_cell_formula_units_Z 60
_cell_length_a 9.162989
_cell_length_b 18.937003
_cell_length_c 17.369500
_cell_angle_alpha 90.000000
_cell_angle_beta 90.000000
_cell_angle_gamma 90.000000
_cell_volume 3013.947827
_symmetry_space_group_name_H-M "P C C N"
_symmetry_group_IT_number 56
_symmetry_cell_setting 'orthorhombic'
loop_
_space_group_symop_operation_xyz
x,y,z
1/2-x,1/2-y,z
1/2+x,-y,1/2-z
-x,1/2+y,1/2-z
-x,-y,-z
1/2+x,1/2+y,-z
1/2-x,y,1/2+z
x,1/2-y,1/2+z
loop_
_atom_site_type_symbol
_atom_site_label
_atom_site_fract_x
_atom_site_fract_y
_atom_site_fract_z
Si Si1 0.250000 0.250000 0.508289
Si Si2 0.535675 0.110289 0.393402
Si Si3 0.171161 0.917365 0.260788
Si Si4 0.529233 0.457860 0.309715
Si Si5 0.679882 0.360690 0.573937
Si Si6 0.283637 0.985871 0.042776
Si Si7 0.453427 0.789281 0.464600
Si Si8 0.201822 0.389873 0.919003
O O1 0.378243 0.215327 0.557251
O O2 0.311677 0.311982 0.454329
O O3 0.612459 0.124292 0.312738
O O4 0.623744 0.043706 0.431109
O O5 0.552515 0.176777 0.450436
O O6 0.363471 0.099075 0.383517
O O7 0.343438 0.929320 0.246120
O O8 0.132792 0.881319 0.341297
O O9 0.079745 0.990187 0.264987
O O10 0.621367 0.493310 0.380023
O O11 0.423354 0.405025 0.356830
O O12 0.658280 0.422859 0.512610
O O13 0.608648 0.289225 0.542833
O O14 0.851401 0.342057 0.581998
O O15 0.295118 0.054896 0.990273
#
# Coordination Sequence:
#
# PCOD9430709 Si02
#       8
#     4   8   8   8   8   8   8   8
#     4  10  22  36  60  92 120 156 206 266 320 348
#     4   9  21  39  61  92 126 164 202 257 326 367
#     4  11  23  39  61  95 129 168 204 260 327 379
#     4  11  23  38  59  95 130 165 209 259 327 373
#     4  10  20  39  64  89 127 163 217 256 309 372
#     4  10  20  36  64  94 117 166 215 266 302 367
#     4   9  20  40  60  89 120 163 209 258 298 377
#     4  11  20  38  62  93 124 165 212 260 302 380
#
# _framework density 19.907444000000002
#
# number of rings (size 3 to 8) (size 9 to 14) (size 15 to 20)
#    0.000    1.867    1.333    2.400    1.867    1.067 
#    4.800   14.667    0.000    0.800    0.000    0.000 
#    0.000    0.000    0.000    0.000    0.000    0.000 
#
# Total GULP energy -334626.807846 kJ/mol
# GULP energy per Si atom -5577.113464 kJ/mol
# Density = 1.986213 g / cm^3
# Si number density = 19.907444 Si / 1000 Ang^3
#
#
#
# Elastic Constant Matrix: (Units=GPa)
#
#
# Indices 1 2 3 4 5 6 
#
# 1 113.9522 13.6571 18.1492 0.0000 0.0000 0.0000
# 2 13.6571 72.5065 20.1601 0.0000 0.0000 0.0000
# 3 18.1492 20.1601 62.3488 0.0000 0.0000 0.0000
# 4 0.0000 0.0000 0.0000 11.7896 0.0000 0.0000
# 5 0.0000 0.0000 0.0000 0.0000 28.2701 0.0000
# 6 0.0000 0.0000 0.0000 0.0000 0.0000 21.6719
#
#
#
# Elastic Compliance Matrix: (Units=1/GPa)
#
#
# Indices 1 2 3 4 5 6 
#
# 1 0.009281 -0.001095 -0.002347 0.000000 0.000000 0.000000
# 2 -0.001095 0.015284 -0.004623 0.000000 0.000000 0.000000
# 3 -0.002347 -0.004623 0.018217 0.000000 0.000000 0.000000
# 4 0.000000 0.000000 0.000000 0.084821 0.000000 0.000000
# 5 0.000000 0.000000 0.000000 0.000000 0.035373 0.000000
# 6 0.000000 0.000000 0.000000 0.000000 0.000000 0.046143
#
#
# Mechanical properties :
#
#
# Convention : Reuss Voigt Hill
#
# Bulk Modulus (GPa) = 37.52383 39.19337 38.35860
# Shear Modulus (GPa) = 21.35541 25.46905 23.41223
#
# Velocity S-wave (km/s) = 3.27882 3.58071 3.43308
# Velocity P-wave (km/s) = 5.76405 6.06843 5.91820
#
# Compressibility (1/GPa) = 0.02664973
#
# Stress axis : x y z
#
# Youngs Moduli (GPa) = 107.74988 65.42956 54.89404
#
# Poissons Ratio (x) = 0.07167 0.12886
# Poissons Ratio (y) = 0.11803 0.25378
# Poissons Ratio (z) = 0.25293 0.30248
#
# Static dielectric constant tensor:
#      x y z
#    x 1.785820 0.000000 0.000000 
#    y 0.000000 1.696500 0.000000 
#    z 0.000000 0.000000 1.683380 
# 
# From -- ./inp_files/15094.got.cif
#   From: 2010.05.17/outbox.cif.g08.bks.cpg/sg56_8_cif.got.tgz:15094.got - 2010.06.03 13:42:01.
