data_PCOD9430315
_publ_section_title
;
Structure prediction by ZEFSAII (Michael W. Deem and Ramdas Pophale) SiO2 
 PCOD9430315
Probable space group: P C C N
;
_chemical_formula_sum "Si O2"
_cell_formula_units_Z 56
_cell_length_a 11.457881
_cell_length_b 14.101442
_cell_length_c 13.562005
_cell_angle_alpha 90.000000
_cell_angle_beta 90.000000
_cell_angle_gamma 90.000000
_cell_volume 2191.249011
_symmetry_space_group_name_H-M "P C C N"
_symmetry_group_IT_number 56
_symmetry_cell_setting 'orthorhombic'
loop_
_space_group_symop_operation_xyz
x,y,z
1/2-x,1/2-y,z
1/2+x,-y,1/2-z
-x,1/2+y,1/2-z
-x,-y,-z
1/2+x,1/2+y,-z
1/2-x,y,1/2+z
x,1/2-y,1/2+z
loop_
_atom_site_type_symbol
_atom_site_label
_atom_site_fract_x
_atom_site_fract_y
_atom_site_fract_z
Si Si1 0.750000 0.750000 0.751046
Si Si2 0.534000 0.019820 0.329234
Si Si3 0.750000 0.250000 0.514981
Si Si4 0.875046 0.898304 0.014937
Si Si5 0.005482 0.798023 0.467499
Si Si6 0.499081 0.162943 0.806860
Si Si7 0.824209 0.583667 0.890203
Si Si8 0.244863 0.623021 0.169215
O O1 0.880975 0.771589 0.705326
O O2 0.763761 0.657555 0.817804
O O3 0.419662 0.069410 0.377558
O O4 0.627906 0.095694 0.289328
O O5 0.586050 0.971695 0.429455
O O6 0.521943 0.932937 0.254519
O O7 0.868415 0.231902 0.569912
O O8 0.773754 0.335159 0.438727
O O9 0.928490 0.797078 0.982299
O O10 0.736292 0.900310 0.997610
O O11 0.013548 0.842727 0.575701
O O12 0.953033 0.877367 0.398591
O O13 0.639057 0.184320 0.782897
O O14 0.811671 0.480042 0.848867
#
# Coordination Sequence:
#
# PCOD9430315 Si02
#       8
#     4   8   4   8   8   8   8   8
#     4  12  22  42  64 100 144 170 238 304 350 414
#     4  10  20  41  67  99 133 175 232 289 346 426
#     4  10  22  40  60  90 130 180 224 274 340 422
#     4  10  19  37  72 101 127 179 228 279 355 420
#     4  11  22  39  68  97 135 181 234 277 359 423
#     4  11  25  37  63 101 136 182 227 291 359 418
#     4  11  22  42  72 103 139 178 235 307 344 428
#     4  10  22  43  64  92 137 183 222 292 357 409
#
# _framework density 25.5562
#
# number of rings (size 3 to 8) (size 9 to 14) (size 15 to 20)
#    0.000    1.429    5.714    0.000    2.000    4.571 
#    0.000    0.000    6.286    0.857    0.000    0.000 
#    0.000    0.000    0.000    0.000    0.000    0.000 
#
# Total GULP energy -312429.158076 kJ/mol
# GULP energy per Si atom -5579.092109 kJ/mol
# Density = 2.549803 g / cm^3
# Si number density = 25.556200 Si / 1000 Ang^3
#
#
#
# Elastic Constant Matrix: (Units=GPa)
#
#
# Indices 1 2 3 4 5 6 
#
# 1 168.1614 3.5711 48.8187 0.0000 0.0000 0.0000
# 2 3.5711 94.0908 28.5817 0.0000 0.0000 0.0000
# 3 48.8187 28.5817 66.4917 0.0000 0.0000 0.0000
# 4 0.0000 0.0000 0.0000 30.3661 0.0000 0.0000
# 5 0.0000 0.0000 0.0000 0.0000 5.3491 0.0000
# 6 0.0000 0.0000 0.0000 0.0000 0.0000 42.0138
#
#
#
# Elastic Compliance Matrix: (Units=1/GPa)
#
#
# Indices 1 2 3 4 5 6 
#
# 1 0.007775 0.001655 -0.006420 0.000000 0.000000 0.000000
# 2 0.001655 0.012577 -0.006621 0.000000 0.000000 0.000000
# 3 -0.006420 -0.006621 0.022599 0.000000 0.000000 0.000000
# 4 0.000000 0.000000 0.000000 0.032931 0.000000 0.000000
# 5 0.000000 0.000000 0.000000 0.000000 0.186946 0.000000
# 6 0.000000 0.000000 0.000000 0.000000 0.000000 0.023802
#
#
# Mechanical properties :
#
#
# Convention : Reuss Voigt Hill
#
# Bulk Modulus (GPa) = 49.55741 54.52078 52.03910
# Shear Modulus (GPa) = 15.81631 32.06399 23.94015
#
# Velocity S-wave (km/s) = 2.49044 3.54594 3.06398
# Velocity P-wave (km/s) = 5.26340 6.17616 5.73796
#
# Compressibility (1/GPa) = 0.02017862
#
# Stress axis : x y z
#
# Youngs Moduli (GPa) = 128.61145 79.51313 44.24895
#
# Poissons Ratio (x) = -0.13161 0.28409
# Poissons Ratio (y) = -0.21287 0.29299
# Poissons Ratio (z) = 0.82571 0.52648
#
# Static dielectric constant tensor:
#      x y z
#    x 2.266040 0.000000 0.000000 
#    y 0.000000 1.997020 0.000000 
#    z 0.000000 0.000000 2.008250 
# 
# From -- ./inp_files/11725.got.cif
#   From: 2010.05.17/outbox.cif.g08.bks.cpg/sg56_6_cif.got.tgz:11725.got - 2010.06.03 13:42:01.
