data_PCOD9430840
_publ_section_title
;
Structure prediction by ZEFSAII (Michael W. Deem and Ramdas Pophale) SiO2 
 PCOD9430840
Probable space group: P C C N
;
_chemical_formula_sum "Si O2"
_cell_formula_units_Z 56
_cell_length_a 9.471156
_cell_length_b 18.657079
_cell_length_c 16.309064
_cell_angle_alpha 90.000000
_cell_angle_beta 90.000000
_cell_angle_gamma 90.000000
_cell_volume 2881.878569
_symmetry_space_group_name_H-M "P C C N"
_symmetry_group_IT_number 56
_symmetry_cell_setting 'orthorhombic'
loop_
_space_group_symop_operation_xyz
x,y,z
1/2-x,1/2-y,z
1/2+x,-y,1/2-z
-x,1/2+y,1/2-z
-x,-y,-z
1/2+x,1/2+y,-z
1/2-x,y,1/2+z
x,1/2-y,1/2+z
loop_
_atom_site_type_symbol
_atom_site_label
_atom_site_fract_x
_atom_site_fract_y
_atom_site_fract_z
Si Si1 0.526018 0.098296 0.606161
Si Si2 0.081250 0.250346 0.541063
Si Si3 0.783747 0.376676 0.764449
Si Si4 0.230278 0.473691 0.137865
Si Si5 0.700744 0.051195 0.021726
Si Si6 0.870406 0.304637 0.923671
Si Si7 0.478817 0.878162 0.842253
O O1 0.474450 0.170778 0.562436
O O2 0.615792 0.119039 0.686087
O O3 0.389944 0.053348 0.632356
O O4 0.636163 0.055929 0.548680
O O5 0.250000 0.250000 0.544710
O O6 0.015325 0.192327 0.604626
O O7 0.019500 0.225853 0.453237
O O8 0.778422 0.453149 0.810848
O O9 0.847019 0.320458 0.828623
O O10 0.626449 0.359833 0.731730
O O11 0.181781 0.486990 0.042765
O O12 0.126453 0.415793 0.178233
O O13 0.660738 0.121432 0.969911
O O14 0.606722 0.062150 0.103048
O O15 0.750000 0.250000 0.952492
#
# Coordination Sequence:
#
# PCOD9430840 Si02
#       7
#     8   8   8   8   8   8   8
#     4  11  21  38  61  87 123 155 201 241 296 362
#     4  11  22  40  61  89 115 157 200 253 304 346
#     4  10  24  37  59  87 118 162 192 246 300 360
#     4  11  20  38  58  88 122 153 199 241 298 351
#     4   9  20  35  60  87 111 158 200 243 283 346
#     4  10  20  38  60  83 117 149 202 243 292 351
#     4  10  21  37  60  86 119 155 198 246 297 358
#
# _framework density 19.431768999999999
#
# number of rings (size 3 to 8) (size 9 to 14) (size 15 to 20)
#    0.000    1.714    2.857    1.714    2.000    0.000 
#    0.000    2.143    0.000    0.000    0.000    0.000 
#    0.000    0.000    0.000    0.000    0.000    0.000 
#
# Total GULP energy -312509.849402 kJ/mol
# GULP energy per Si atom -5580.533025 kJ/mol
# Density = 1.938754 g / cm^3
# Si number density = 19.431769 Si / 1000 Ang^3
#
#
#
# Elastic Constant Matrix: (Units=GPa)
#
#
# Indices 1 2 3 4 5 6 
#
# 1 93.5496 14.5106 27.1037 0.0000 0.0000 0.0000
# 2 14.5106 40.4707 6.3815 0.0000 0.0000 0.0000
# 3 27.1037 6.3815 76.2145 0.0000 0.0000 0.0000
# 4 0.0000 0.0000 0.0000 -2.0169 0.0000 0.0000
# 5 0.0000 0.0000 0.0000 0.0000 23.1983 0.0000
# 6 0.0000 0.0000 0.0000 0.0000 0.0000 26.0269
#
#
#
# Elastic Compliance Matrix: (Units=1/GPa)
#
#
# Indices 1 2 3 4 5 6 
#
# 1 0.012475 -0.003824 -0.004116 0.000000 0.000000 0.000000
# 2 -0.003824 0.026212 -0.000835 0.000000 0.000000 0.000000
# 3 -0.004116 -0.000835 0.014655 0.000000 0.000000 0.000000
# 4 0.000000 0.000000 0.000000 -0.495803 0.000000 0.000000
# 5 0.000000 0.000000 0.000000 0.000000 0.043107 0.000000
# 6 0.000000 0.000000 0.000000 0.000000 0.000000 0.038422
#
#
# Mechanical properties :
#
#
# Convention : Reuss Voigt Hill
#
# Bulk Modulus (GPa) = 27.93949 34.02516 30.98233
# Shear Modulus (GPa) = -15.08515 20.25758 2.58622
#
# Velocity S-wave (km/s) = -2.78926 3.23228 1.15491
# Velocity P-wave (km/s) = 2.00902 5.61055 4.21393
#
# Compressibility (1/GPa) = 0.03579163
#
# Stress axis : x y z
#
# Youngs Moduli (GPa) = 80.15875 38.15058 68.23781
#
# Poissons Ratio (x) = 0.14588 0.28089
# Poissons Ratio (y) = 0.30652 0.05697
# Poissons Ratio (z) = 0.32996 0.03185
#
# Static dielectric constant tensor:
#      x y z
#    x 1.672320 0.000000 0.000000 
#    y 0.000000 1.662810 0.000000 
#    z 0.000000 0.000000 1.704450 
# 
# From -- ./inp_files/15170.got.cif
#   From: 2010.05.17/outbox.cif.g08.bks.cpg/sg56_8_cif.got.tgz:15170.got - 2010.06.03 13:42:01.
