data_PCOD9430933
_publ_section_title
;
Structure prediction by ZEFSAII (Michael W. Deem and Ramdas Pophale) SiO2 
 PCOD9430933
Probable space group: P C C N
;
_chemical_formula_sum "Si O2"
_cell_formula_units_Z 48
_cell_length_a 8.506746
_cell_length_b 8.674983
_cell_length_c 28.292477
_cell_angle_alpha 90.000000
_cell_angle_beta 90.000000
_cell_angle_gamma 90.000000
_cell_volume 2087.868151
_symmetry_space_group_name_H-M "P C C N"
_symmetry_group_IT_number 56
_symmetry_cell_setting 'orthorhombic'
loop_
_space_group_symop_operation_xyz
x,y,z
1/2-x,1/2-y,z
1/2+x,-y,1/2-z
-x,1/2+y,1/2-z
-x,-y,-z
1/2+x,1/2+y,-z
1/2-x,y,1/2+z
x,1/2-y,1/2+z
loop_
_atom_site_type_symbol
_atom_site_label
_atom_site_fract_x
_atom_site_fract_y
_atom_site_fract_z
Si Si1 0.684596 0.569598 0.010884
Si Si2 0.111254 0.506080 0.387573
Si Si3 0.250000 0.250000 0.319620
Si Si4 0.732754 0.065380 0.814600
Si Si5 0.750000 0.250000 0.178537
Si Si6 0.433753 0.494661 0.261830
Si Si7 0.744551 0.433392 0.915549
O O1 0.750000 0.750000 0.013587
O O2 0.781492 0.505730 0.966037
O O3 0.500000 0.500000 0.000000
O O4 0.709372 0.502337 0.063307
O O5 0.164140 0.366935 0.354366
O O6 0.140388 0.656705 0.357263
O O7 0.931786 0.481768 0.401919
O O8 0.370318 0.341034 0.286691
O O9 0.750000 0.250000 0.815594
O O10 0.895312 0.001074 0.793484
O O11 0.669390 0.020988 0.866576
O O12 0.615098 0.005250 0.774698
O O13 0.850928 0.362639 0.211702
O O14 0.750000 0.250000 0.920892
#
# Coordination Sequence:
#
# PCOD9430933 Si02
#       7
#     8   8   4   8   4   8   8
#     4  10  22  43  67 101 135 178 228 286 347 418
#     4  10  21  42  68  97 135 170 223 281 338 406
#     4  10  20  38  66  94 132 180 224 266 352 394
#     4  11  25  43  64  97 137 174 228 273 344 399
#     4  10  24  42  68 100 134 170 232 280 342 406
#     4  11  25  41  68  98 135 182 226 284 335 409
#     4  10  23  42  67  92 138 180 225 276 341 405
#
# _framework density 22.989958000000001
#
# number of rings (size 3 to 8) (size 9 to 14) (size 15 to 20)
#    0.000    1.667    1.667    2.000    8.167    2.667 
#    1.500    3.333    0.000    0.000    0.000    0.000 
#    0.000    0.000    0.000    0.000    0.000    0.000 
#
# Total GULP energy -267818.664795 kJ/mol
# GULP energy per Si atom -5579.555517 kJ/mol
# Density = 2.293763 g / cm^3
# Si number density = 22.989958 Si / 1000 Ang^3
#
#
#
# Elastic Constant Matrix: (Units=GPa)
#
#
# Indices 1 2 3 4 5 6 
#
# 1 51.4623 22.5429 11.4803 0.0000 0.0000 0.0000
# 2 22.5429 61.0711 47.4762 0.0000 0.0000 0.0000
# 3 11.4803 47.4762 172.1057 0.0000 0.0000 0.0000
# 4 0.0000 0.0000 0.0000 20.9006 0.0000 0.0000
# 5 0.0000 0.0000 0.0000 0.0000 18.8545 0.0000
# 6 0.0000 0.0000 0.0000 0.0000 0.0000 16.1472
#
#
#
# Elastic Compliance Matrix: (Units=1/GPa)
#
#
# Indices 1 2 3 4 5 6 
#
# 1 0.023326 -0.009421 0.001043 0.000000 0.000000 0.000000
# 2 -0.009421 0.024649 -0.006171 0.000000 0.000000 0.000000
# 3 0.001043 -0.006171 0.007443 0.000000 0.000000 0.000000
# 4 0.000000 0.000000 0.000000 0.047846 0.000000 0.000000
# 5 0.000000 0.000000 0.000000 0.000000 0.053038 0.000000
# 6 0.000000 0.000000 0.000000 0.000000 0.000000 0.061930
#
#
# Mechanical properties :
#
#
# Convention : Reuss Voigt Hill
#
# Bulk Modulus (GPa) = 37.99413 49.73755 43.86584
# Shear Modulus (GPa) = 19.52334 24.72309 22.12321
#
# Velocity S-wave (km/s) = 2.91729 3.28287 3.10546
# Velocity P-wave (km/s) = 5.28296 6.00425 5.65512
#
# Compressibility (1/GPa) = 0.02631985
#
# Stress axis : x y z
#
# Youngs Moduli (GPa) = 42.87086 40.56915 134.35126
#
# Poissons Ratio (x) = 0.38220 -0.14011
# Poissons Ratio (y) = 0.40388 0.82911
# Poissons Ratio (z) = -0.04471 0.25036
#
# Static dielectric constant tensor:
#      x y z
#    x 2.020480 0.000000 0.000000 
#    y 0.000000 1.850830 0.000000 
#    z 0.000000 0.000000 1.909060 
# 
# From -- ./inp_files/23270.got.cif
#   From: 2010.05.17/outbox.cif.g08.bks.cpg/sg56_12_cif.got.tgz:23270.got - 2010.06.03 13:42:01.
