data_PCOD9430985
_publ_section_title
;
Structure prediction by ZEFSAII (Michael W. Deem and Ramdas Pophale) SiO2 
 PCOD9430985
Probable space group: P C C N
;
_chemical_formula_sum "Si O2"
_cell_formula_units_Z 28
_cell_length_a 17.722044
_cell_length_b 4.839904
_cell_length_c 15.741600
_cell_angle_alpha 90.000000
_cell_angle_beta 90.000000
_cell_angle_gamma 90.000000
_cell_volume 1350.204125
_symmetry_space_group_name_H-M "P C C N"
_symmetry_group_IT_number 56
_symmetry_cell_setting 'orthorhombic'
loop_
_space_group_symop_operation_xyz
x,y,z
1/2-x,1/2-y,z
1/2+x,-y,1/2-z
-x,1/2+y,1/2-z
-x,-y,-z
1/2+x,1/2+y,-z
1/2-x,y,1/2+z
x,1/2-y,1/2+z
loop_
_atom_site_type_symbol
_atom_site_label
_atom_site_fract_x
_atom_site_fract_y
_atom_site_fract_z
Si Si1 0.997754 0.777217 0.192855
Si Si2 0.101760 0.024280 0.558628
Si Si3 0.250000 0.250000 0.515790
Si Si4 0.395029 0.987892 0.451102
O O1 0.932891 0.909270 0.134312
O O2 0.968663 0.534419 0.254680
O O3 0.058796 0.621517 0.134133
O O4 0.095021 0.828500 0.475853
O O5 0.191134 0.072478 0.571245
O O6 0.071705 0.323027 0.528829
O O7 0.306563 0.066919 0.459034
#
# Coordination Sequence:
#
# PCOD9430985 Si02
#       4
#     8   8   4   8
#     4  12  24  38  60  95 132 165 201 265 330 376
#     4  10  20  39  64  91 117 160 223 252 305 365
#     4   8  22  34  72  84 114 162 224 254 296 368
#     4  10  20  39  64  89 116 166 217 259 298 372
#
# _framework density 20.737604000000001
#
# number of rings (size 3 to 8) (size 9 to 14) (size 15 to 20)
#    1.714    0.000    0.000    6.000    0.000    0.000 
#    0.000    1.429    0.000    0.000    0.000    0.000 
#    0.000    0.000    0.000    0.000    0.000    0.000 
#
# Total GULP energy -156122.688794 kJ/mol
# GULP energy per Si atom -5575.810314 kJ/mol
# Density = 2.069040 g / cm^3
# Si number density = 20.737604 Si / 1000 Ang^3
#
#
#
# Elastic Constant Matrix: (Units=GPa)
#
#
# Indices 1 2 3 4 5 6 
#
# 1 99.8777 -0.0756 14.9960 0.0000 0.0000 0.0000
# 2 -0.0756 103.6559 18.3906 0.0000 0.0000 0.0000
# 3 14.9960 18.3906 65.2174 0.0000 0.0000 0.0000
# 4 0.0000 0.0000 0.0000 34.9287 0.0000 0.0000
# 5 0.0000 0.0000 0.0000 0.0000 6.1728 0.0000
# 6 0.0000 0.0000 0.0000 0.0000 0.0000 1.1849
#
#
#
# Elastic Compliance Matrix: (Units=1/GPa)
#
#
# Indices 1 2 3 4 5 6 
#
# 1 0.010391 0.000454 -0.002517 0.000000 0.000000 0.000000
# 2 0.000454 0.010175 -0.002974 0.000000 0.000000 0.000000
# 3 -0.002517 -0.002974 0.016751 0.000000 0.000000 0.000000
# 4 0.000000 0.000000 0.000000 0.028630 0.000000 0.000000
# 5 0.000000 0.000000 0.000000 0.000000 0.162002 0.000000
# 6 0.000000 0.000000 0.000000 0.000000 0.000000 0.843988
#
#
# Mechanical properties :
#
#
# Convention : Reuss Voigt Hill
#
# Bulk Modulus (GPa) = 36.70689 37.26368 36.98528
# Shear Modulus (GPa) = 4.58257 24.15326 14.36791
#
# Velocity S-wave (km/s) = 1.48815 3.41648 2.63505
# Velocity P-wave (km/s) = 4.54883 5.79407 5.20880
#
# Compressibility (1/GPa) = 0.02724285
#
# Stress axis : x y z
#
# Youngs Moduli (GPa) = 96.24137 98.27782 59.69896
#
# Poissons Ratio (x) = -0.04464 0.15028
# Poissons Ratio (y) = -0.04371 0.17753
# Poissons Ratio (z) = 0.24227 0.29225
#
# Static dielectric constant tensor:
#      x y z
#    x 1.783870 0.000000 0.000000 
#    y 0.000000 1.759840 0.000000 
#    z 0.000000 0.000000 1.755060 
# 
# From -- ./inp_files/8125.got.cif
#   From: 2010.05.17/outbox.cif.g08.bks.cpg/sg56_5_cif.got.tgz:8125.got - 2010.06.03 13:42:01.
