data_PCOD9430520
_publ_section_title
;
Structure prediction by ZEFSAII (Michael W. Deem and Ramdas Pophale) SiO2 
 PCOD9430520
Probable space group: P C C N
;
_chemical_formula_sum "Si O2"
_cell_formula_units_Z 56
_cell_length_a 5.692327
_cell_length_b 16.145274
_cell_length_c 24.609814
_cell_angle_alpha 90.000000
_cell_angle_beta 90.000000
_cell_angle_gamma 90.000000
_cell_volume 2261.744754
_symmetry_space_group_name_H-M "P C C N"
_symmetry_group_IT_number 56
_symmetry_cell_setting 'orthorhombic'
loop_
_space_group_symop_operation_xyz
x,y,z
1/2-x,1/2-y,z
1/2+x,-y,1/2-z
-x,1/2+y,1/2-z
-x,-y,-z
1/2+x,1/2+y,-z
1/2-x,y,1/2+z
x,1/2-y,1/2+z
loop_
_atom_site_type_symbol
_atom_site_label
_atom_site_fract_x
_atom_site_fract_y
_atom_site_fract_z
Si Si1 0.787656 0.127846 0.099898
Si Si2 0.850209 0.575030 0.755932
Si Si3 0.343747 0.609310 0.779082
Si Si4 0.538166 0.019240 0.868294
Si Si5 0.994036 0.207755 0.379257
Si Si6 0.326146 0.042404 0.540352
Si Si7 0.956066 0.815508 0.493937
O O1 0.815585 0.152562 0.162564
O O2 0.628741 0.178686 0.057839
O O3 0.039303 0.113418 0.073896
O O4 0.664790 0.037468 0.105780
O O5 0.605974 0.624783 0.756807
O O6 0.843339 0.493207 0.717676
O O7 0.871173 0.532407 0.816084
O O8 0.096121 0.623260 0.747867
O O9 0.482122 0.113934 0.857754
O O10 0.736312 0.019606 0.914437
O O11 0.750000 0.250000 0.358859
O O12 0.250000 0.250000 0.369126
O O13 0.963016 0.203441 0.445077
O O14 0.136262 0.090363 0.505124
O O15 0.500000 0.000000 0.500000
O O16 0.750000 0.750000 0.484090
#
# Coordination Sequence:
#
# PCOD9430520 Si02
#       7
#     8   8   8   8   8   8   8
#     4  10  20  34  57  85 115 151 192 245 288 348
#     4   9  17  31  54  83 116 146 176 243 294 347
#     4   9  17  31  52  86 117 140 185 234 299 342
#     4  10  21  36  55  86 115 149 195 240 298 341
#     4  11  26  40  57  81 115 158 199 238 284 352
#     4  11  21  33  59  84 116 148 193 245 287 338
#     4  10  24  38  53  82 118 160 197 233 291 350
#
# _framework density 24.759647000000001
#
# number of rings (size 3 to 8) (size 9 to 14) (size 15 to 20)
#    0.000    2.000    1.429    1.714   10.000    2.286 
#    0.000    0.000    0.000    0.000    3.714    0.000 
#    0.000    0.000    0.000    0.000    0.000    0.000 
#
# Total GULP energy -312696.225875 kJ/mol
# GULP energy per Si atom -5583.861176 kJ/mol
# Density = 2.470329 g / cm^3
# Si number density = 24.759647 Si / 1000 Ang^3
#
#
#
# Elastic Constant Matrix: (Units=GPa)
#
#
# Indices 1 2 3 4 5 6 
#
# 1 149.3213 33.7245 30.8304 0.0000 0.0000 0.0000
# 2 33.7245 93.8911 21.1124 0.0000 0.0000 0.0000
# 3 30.8304 21.1124 95.3923 0.0000 0.0000 0.0000
# 4 0.0000 0.0000 0.0000 10.6356 0.0000 0.0000
# 5 0.0000 0.0000 0.0000 0.0000 22.1272 0.0000
# 6 0.0000 0.0000 0.0000 0.0000 0.0000 38.7404
#
#
#
# Elastic Compliance Matrix: (Units=1/GPa)
#
#
# Indices 1 2 3 4 5 6 
#
# 1 0.007619 -0.002297 -0.001954 0.000000 0.000000 0.000000
# 2 -0.002297 0.011901 -0.001891 0.000000 0.000000 0.000000
# 3 -0.001954 -0.001891 0.011533 0.000000 0.000000 0.000000
# 4 0.000000 0.000000 0.000000 0.094024 0.000000 0.000000
# 5 0.000000 0.000000 0.000000 0.000000 0.045193 0.000000
# 6 0.000000 0.000000 0.000000 0.000000 0.000000 0.025813
#
#
# Mechanical properties :
#
#
# Convention : Reuss Voigt Hill
#
# Bulk Modulus (GPa) = 53.28274 56.65992 54.97133
# Shear Modulus (GPa) = 23.29636 31.16311 27.22974
#
# Velocity S-wave (km/s) = 3.07074 3.55156 3.31986
# Velocity P-wave (km/s) = 5.84288 6.30490 6.07828
#
# Compressibility (1/GPa) = 0.01876781
#
# Stress axis : x y z
#
# Youngs Moduli (GPa) = 131.24585 84.02560 86.70624
#
# Poissons Ratio (x) = 0.19304 0.16943
# Poissons Ratio (y) = 0.30152 0.16400
# Poissons Ratio (z) = 0.25646 0.15893
#
# Static dielectric constant tensor:
#      x y z
#    x 2.031350 0.000000 0.000000 
#    y 0.000000 1.950190 0.000000 
#    z 0.000000 0.000000 2.026720 
# 
# From -- ./inp_files/22863.got.cif
#   From: 2010.05.17/outbox.cif.g08.bks.cpg/sg56_12_cif.got.tgz:22863.got - 2010.06.03 13:42:01.
