data_PCOD9430671
_publ_section_title
;
Structure prediction by ZEFSAII (Michael W. Deem and Ramdas Pophale) SiO2 
 PCOD9430671
Probable space group: P C C N
;
_chemical_formula_sum "Si O2"
_cell_formula_units_Z 52
_cell_length_a 9.398940
_cell_length_b 14.419026
_cell_length_c 19.823379
_cell_angle_alpha 90.000000
_cell_angle_beta 90.000000
_cell_angle_gamma 90.000000
_cell_volume 2686.534898
_symmetry_space_group_name_H-M "P C C N"
_symmetry_group_IT_number 56
_symmetry_cell_setting 'orthorhombic'
loop_
_space_group_symop_operation_xyz
x,y,z
1/2-x,1/2-y,z
1/2+x,-y,1/2-z
-x,1/2+y,1/2-z
-x,-y,-z
1/2+x,1/2+y,-z
1/2-x,y,1/2+z
x,1/2-y,1/2+z
loop_
_atom_site_type_symbol
_atom_site_label
_atom_site_fract_x
_atom_site_fract_y
_atom_site_fract_z
Si Si1 0.959206 0.678898 0.875615
Si Si2 0.250000 0.250000 0.514504
Si Si3 0.166553 0.440203 0.798266
Si Si4 0.750000 0.750000 0.760310
Si Si5 0.750000 0.250000 0.186521
Si Si6 0.693882 0.562932 0.551831
Si Si7 0.165329 0.584807 0.213561
Si Si8 0.125582 0.969355 0.575331
O O1 0.886290 0.736448 0.936453
O O2 0.871971 0.709096 0.809040
O O3 0.921271 0.571937 0.895487
O O4 0.122940 0.704078 0.858343
O O5 0.235146 0.341278 0.469390
O O6 0.198464 0.333241 0.785719
O O7 0.223523 0.467718 0.872180
O O8 0.240390 0.503504 0.743679
O O9 0.998232 0.446930 0.788623
O O10 0.687108 0.327924 0.237513
O O11 0.522152 0.578205 0.553650
O O12 0.715919 0.489886 0.491640
O O13 0.199326 0.590297 0.133748
#
# Coordination Sequence:
#
# PCOD9430671 Si02
#       8
#     8   4   8   4   4   8   8   8
#     4  10  20  36  60  88 121 156 196 246 307 365
#     4   9  19  36  60  88 116 158 202 244 302 372
#     4  11  22  37  62  91 121 156 201 257 301 362
#     4  11  19  36  58  92 116 154 198 250 296 364
#     4  12  22  36  56  94 122 154 204 258 306 360
#     4   9  18  33  60  85 113 154 205 238 297 366
#     4  11  23  36  59  89 121 157 202 254 310 358
#     4   9  18  37  58  82 115 161 198 238 301 371
#
# _framework density 19.355789000000001
#
# number of rings (size 3 to 8) (size 9 to 14) (size 15 to 20)
#    0.000    1.846    3.077    2.308    0.000    0.000 
#    0.000    0.000    0.000   48.923    0.000    0.000 
#    0.000    0.000    0.000    0.000    0.000    0.000 
#
# Total GULP energy -289845.411926 kJ/mol
# GULP energy per Si atom -5573.950229 kJ/mol
# Density = 1.931173 g / cm^3
# Si number density = 19.355789 Si / 1000 Ang^3
#
#
#
# Elastic Constant Matrix: (Units=GPa)
#
#
# Indices 1 2 3 4 5 6 
#
# 1 63.3021 16.6633 29.0800 0.0000 0.0000 0.0000
# 2 16.6633 49.5650 3.3056 0.0000 0.0000 0.0000
# 3 29.0800 3.3056 94.7919 0.0000 0.0000 0.0000
# 4 0.0000 0.0000 0.0000 -37.8335 0.0000 0.0000
# 5 0.0000 0.0000 0.0000 0.0000 22.0404 0.0000
# 6 0.0000 0.0000 0.0000 0.0000 0.0000 26.8411
#
#
#
# Elastic Compliance Matrix: (Units=1/GPa)
#
#
# Indices 1 2 3 4 5 6 
#
# 1 0.020231 -0.006403 -0.005983 0.000000 0.000000 0.000000
# 2 -0.006403 0.022249 0.001188 0.000000 0.000000 0.000000
# 3 -0.005983 0.001188 0.012344 0.000000 0.000000 0.000000
# 4 0.000000 0.000000 0.000000 -0.026432 0.000000 0.000000
# 5 0.000000 0.000000 0.000000 0.000000 0.045371 0.000000
# 6 0.000000 0.000000 0.000000 0.000000 0.000000 0.037256
#
#
# Mechanical properties :
#
#
# Convention : Reuss Voigt Hill
#
# Bulk Modulus (GPa) = 30.83701 33.97299 32.40500
# Shear Modulus (GPa) = 34.66834 12.78362 23.72598
#
# Velocity S-wave (km/s) = 4.23674 2.57272 3.50492
# Velocity P-wave (km/s) = 6.31661 5.13957 5.75824
#
# Compressibility (1/GPa) = 0.03242856
#
# Stress axis : x y z
#
# Youngs Moduli (GPa) = 49.42848 44.94637 81.01427
#
# Poissons Ratio (x) = 0.28777 0.48473
# Poissons Ratio (y) = 0.31647 -0.09627
# Poissons Ratio (z) = 0.29574 -0.05341
#
# Static dielectric constant tensor:
#      x y z
#    x 1.677510 0.000000 0.000000 
#    y 0.000000 1.684480 0.000000 
#    z 0.000000 0.000000 1.728740 
# 
# From -- ./inp_files/18181.got.cif
#   From: 2010.05.17/outbox.cif.g08.bks.cpg/sg56_10_cif.got.tgz:18181.got - 2010.06.03 13:42:01.
