data_PCOD9430649
_publ_section_title
;
Structure prediction by ZEFSAII (Michael W. Deem and Ramdas Pophale) SiO2 
 PCOD9430649
Probable space group: P C C N
;
_chemical_formula_sum "Si O2"
_cell_formula_units_Z 48
_cell_length_a 18.484218
_cell_length_b 6.755289
_cell_length_c 13.169742
_cell_angle_alpha 90.000000
_cell_angle_beta 90.000000
_cell_angle_gamma 90.000000
_cell_volume 1644.456093
_symmetry_space_group_name_H-M "P C C N"
_symmetry_group_IT_number 56
_symmetry_cell_setting 'orthorhombic'
loop_
_space_group_symop_operation_xyz
x,y,z
1/2-x,1/2-y,z
1/2+x,-y,1/2-z
-x,1/2+y,1/2-z
-x,-y,-z
1/2+x,1/2+y,-z
1/2-x,y,1/2+z
x,1/2-y,1/2+z
loop_
_atom_site_type_symbol
_atom_site_label
_atom_site_fract_x
_atom_site_fract_y
_atom_site_fract_z
Si Si1 0.842679 0.398418 0.997702
Si Si2 0.877498 0.986837 0.782837
Si Si3 0.068530 0.263572 0.057455
Si Si4 0.250000 0.250000 0.400201
Si Si5 0.012798 0.695433 0.241692
Si Si6 0.616193 0.500430 0.122111
Si Si7 0.250000 0.750000 0.687660
O O1 0.916407 0.514000 0.974644
O O2 0.791471 0.572615 0.041823
O O3 0.854874 0.203392 0.067572
O O4 0.805489 0.346310 0.891523
O O5 0.937107 0.152146 0.818328
O O6 0.803430 0.096144 0.754936
O O7 0.866113 0.834439 0.874234
O O8 0.934609 0.883095 0.705301
O O9 0.069505 0.116180 0.962538
O O10 0.005475 0.256408 0.140347
O O11 0.185122 0.366915 0.347369
O O12 0.071195 0.530157 0.274879
#
# Coordination Sequence:
#
# PCOD9430649 Si02
#       7
#     8   8   8   4   8   8   4
#     4  11  19  37  69 100 128 173 226 291 342 408
#     4  10  24  43  64  95 137 185 226 283 343 427
#     4   9  22  39  68 102 127 172 233 284 345 406
#     4  10  20  36  58 106 138 168 216 288 342 398
#     4  10  24  45  63  94 143 181 227 286 352 417
#     4  11  20  41  68 101 137 178 233 288 351 408
#     4  12  20  40  70  96 130 178 232 274 344 424
#
# _framework density 29.188983
#
# number of rings (size 3 to 8) (size 9 to 14) (size 15 to 20)
#    1.000    0.667    3.333    1.500    2.333    0.667 
#    9.000    0.000    0.000    0.000    0.000    0.000 
#    0.000    0.000    0.000    0.000    0.000    0.000 
#
# Total GULP energy -268209.676197 kJ/mol
# GULP energy per Si atom -5587.701587 kJ/mol
# Density = 2.912255 g / cm^3
# Si number density = 29.188983 Si / 1000 Ang^3
#
#
#
# Elastic Constant Matrix: (Units=GPa)
#
#
# Indices 1 2 3 4 5 6 
#
# 1 193.2424 60.5669 38.9562 0.0000 0.0000 0.0000
# 2 60.5669 171.1565 58.0361 0.0000 0.0000 0.0000
# 3 38.9562 58.0361 114.1951 0.0000 0.0000 0.0000
# 4 0.0000 0.0000 0.0000 47.2432 0.0000 0.0000
# 5 0.0000 0.0000 0.0000 0.0000 32.6359 0.0000
# 6 0.0000 0.0000 0.0000 0.0000 0.0000 68.8174
#
#
#
# Elastic Compliance Matrix: (Units=1/GPa)
#
#
# Indices 1 2 3 4 5 6 
#
# 1 0.005945 -0.001711 -0.001158 0.000000 0.000000 0.000000
# 2 -0.001711 0.007551 -0.003254 0.000000 0.000000 0.000000
# 3 -0.001158 -0.003254 0.010806 0.000000 0.000000 0.000000
# 4 0.000000 0.000000 0.000000 0.021167 0.000000 0.000000
# 5 0.000000 0.000000 0.000000 0.000000 0.030641 0.000000
# 6 0.000000 0.000000 0.000000 0.000000 0.000000 0.014531
#
#
# Mechanical properties :
#
#
# Convention : Reuss Voigt Hill
#
# Bulk Modulus (GPa) = 82.95209 88.19023 85.57116
# Shear Modulus (GPa) = 46.76983 51.14164 48.95573
#
# Velocity S-wave (km/s) = 4.00723 4.19033 4.09980
# Velocity P-wave (km/s) = 7.06337 7.32741 7.19660
#
# Compressibility (1/GPa) = 0.01205515
#
# Stress axis : x y z
#
# Youngs Moduli (GPa) = 168.22020 132.42526 92.54145
#
# Poissons Ratio (x) = 0.22655 0.10721
# Poissons Ratio (y) = 0.28779 0.30115
# Poissons Ratio (z) = 0.19488 0.43093
#
# Static dielectric constant tensor:
#      x y z
#    x 2.279520 0.000000 0.000000 
#    y 0.000000 2.891020 0.000000 
#    z 0.000000 0.000000 2.143350 
# 
# From -- ./inp_files/22495.got.cif
#   From: 2010.05.17/outbox.cif.g08.bks.cpg/sg56_12_cif.got.tgz:22495.got - 2010.06.03 13:42:01.
