data_PCOD9430129
_publ_section_title
;
Structure prediction by ZEFSAII (Michael W. Deem and Ramdas Pophale) SiO2 
 PCOD9430129
Probable space group: P C C N
;
_chemical_formula_sum "Si O2"
_cell_formula_units_Z 40
_cell_length_a 19.017709
_cell_length_b 6.417361
_cell_length_c 18.649005
_cell_angle_alpha 90.000000
_cell_angle_beta 90.000000
_cell_angle_gamma 90.000000
_cell_volume 2275.989917
_symmetry_space_group_name_H-M "P C C N"
_symmetry_group_IT_number 56
_symmetry_cell_setting 'orthorhombic'
loop_
_space_group_symop_operation_xyz
x,y,z
1/2-x,1/2-y,z
1/2+x,-y,1/2-z
-x,1/2+y,1/2-z
-x,-y,-z
1/2+x,1/2+y,-z
1/2-x,y,1/2+z
x,1/2-y,1/2+z
loop_
_atom_site_type_symbol
_atom_site_label
_atom_site_fract_x
_atom_site_fract_y
_atom_site_fract_z
Si Si1 0.079971 0.421945 0.487227
Si Si2 0.066875 0.427907 0.099061
Si Si3 0.330943 0.804767 0.596516
Si Si4 0.955791 0.761775 0.652040
Si Si5 0.579892 0.545296 0.796116
O O1 0.082635 0.202257 0.528101
O O2 0.132751 0.578542 0.528232
O O3 0.088129 0.381682 0.402642
O O4 0.000000 0.500000 0.500000
O O5 0.129506 0.588580 0.109923
O O6 0.997582 0.569488 0.103734
O O7 0.062102 0.254761 0.160476
O O8 0.250000 0.750000 0.586948
O O9 0.351787 0.948116 0.664984
O O10 0.016108 0.617737 0.689292
O O11 0.915422 0.887067 0.713749
#
# Coordination Sequence:
#
# PCOD9430129 Si02
#       5
#     8   8   8   8   8
#     4  11  20  33  57  94 112 146 200 249 307 344
#     4  10  19  34  59  82 118 148 185 250 293 349
#     4  10  23  40  57  83 116 165 204 235 296 372
#     4  11  19  32  54  92 117 138 191 250 308 341
#     4  10  20  32  57  88 114 153 189 241 307 358
#
# _framework density 17.574771999999999
#
# number of rings (size 3 to 8) (size 9 to 14) (size 15 to 20)
#    0.000    1.600    8.000    0.600    0.000    3.200 
#    0.000    0.000    0.000    7.200    0.000    0.000 
#    0.000    0.000    0.000    0.000    0.000    0.000 
#
# Total GULP energy -222865.457774 kJ/mol
# GULP energy per Si atom -5571.636444 kJ/mol
# Density = 1.753477 g / cm^3
# Si number density = 17.574772 Si / 1000 Ang^3
#
#
#
# Elastic Constant Matrix: (Units=GPa)
#
#
# Indices 1 2 3 4 5 6 
#
# 1 94.6143 31.2505 35.0286 0.0000 0.0000 0.0000
# 2 31.2505 88.9161 15.4458 0.0000 0.0000 0.0000
# 3 35.0286 15.4458 88.3969 0.0000 0.0000 0.0000
# 4 0.0000 0.0000 0.0000 27.8037 0.0000 0.0000
# 5 0.0000 0.0000 0.0000 0.0000 14.2986 0.0000
# 6 0.0000 0.0000 0.0000 0.0000 0.0000 18.1229
#
#
#
# Elastic Compliance Matrix: (Units=1/GPa)
#
#
# Indices 1 2 3 4 5 6 
#
# 1 0.013622 -0.003971 -0.004704 0.000000 0.000000 0.000000
# 2 -0.003971 0.012756 -0.000655 0.000000 0.000000 0.000000
# 3 -0.004704 -0.000655 0.013291 0.000000 0.000000 0.000000
# 4 0.000000 0.000000 0.000000 0.035966 0.000000 0.000000
# 5 0.000000 0.000000 0.000000 0.000000 0.069937 0.000000
# 6 0.000000 0.000000 0.000000 0.000000 0.000000 0.055179
#
#
# Mechanical properties :
#
#
# Convention : Reuss Voigt Hill
#
# Bulk Modulus (GPa) = 47.59877 48.37524 47.98701
# Shear Modulus (GPa) = 22.08334 24.72521 23.40428
#
# Velocity S-wave (km/s) = 3.54861 3.75488 3.65320
# Velocity P-wave (km/s) = 6.62816 6.81058 6.71999
#
# Compressibility (1/GPa) = 0.02100894
#
# Stress axis : x y z
#
# Youngs Moduli (GPa) = 73.40900 78.39511 75.23722
#
# Poissons Ratio (x) = 0.31127 0.35394
# Poissons Ratio (y) = 0.29147 0.04932
# Poissons Ratio (z) = 0.34534 0.05139
#
# Static dielectric constant tensor:
#      x y z
#    x 1.588030 0.000000 0.000000 
#    y 0.000000 1.614130 0.000000 
#    z 0.000000 0.000000 1.659740 
# 
# From -- ./inp_files/13908.got.cif
#   From: 2010.05.17/outbox.cif.g08.bks.cpg/sg56_7_cif.got.tgz:13908.got - 2010.06.03 13:42:01.
