data_PCOD9430884
_publ_section_title
;
Structure prediction by ZEFSAII (Michael W. Deem and Ramdas Pophale) SiO2 
 PCOD9430884
Probable space group: P C C N
;
_chemical_formula_sum "Si O2"
_cell_formula_units_Z 56
_cell_length_a 5.978308
_cell_length_b 27.331541
_cell_length_c 16.048604
_cell_angle_alpha 90.000000
_cell_angle_beta 90.000000
_cell_angle_gamma 90.000000
_cell_volume 2622.283641
_symmetry_space_group_name_H-M "P C C N"
_symmetry_group_IT_number 56
_symmetry_cell_setting 'orthorhombic'
loop_
_space_group_symop_operation_xyz
x,y,z
1/2-x,1/2-y,z
1/2+x,-y,1/2-z
-x,1/2+y,1/2-z
-x,-y,-z
1/2+x,1/2+y,-z
1/2-x,y,1/2+z
x,1/2-y,1/2+z
loop_
_atom_site_type_symbol
_atom_site_label
_atom_site_fract_x
_atom_site_fract_y
_atom_site_fract_z
Si Si1 0.873668 0.701251 0.499306
Si Si2 0.495785 0.868757 0.072861
Si Si3 0.869930 0.454279 0.823598
Si Si4 0.975258 0.115338 0.739626
Si Si5 0.852764 0.949322 0.840280
Si Si6 0.843056 0.298422 0.338246
Si Si7 0.838769 0.376725 0.580355
O O1 0.750000 0.750000 0.469304
O O2 0.703368 0.660269 0.534696
O O3 0.029828 0.716468 0.577094
O O4 0.022009 0.672957 0.432125
O O5 0.530821 0.919227 0.122551
O O6 0.366172 0.832120 0.135110
O O7 0.325064 0.880655 0.998003
O O8 0.648639 0.422336 0.802218
O O9 0.796323 0.504564 0.866187
O O10 0.985690 0.466306 0.735249
O O11 0.005273 0.166773 0.785673
O O12 0.802484 0.124314 0.664582
O O13 0.193628 0.091646 0.700424
O O14 0.996275 0.922966 0.911063
O O15 0.750000 0.250000 0.295305
#
# Coordination Sequence:
#
# PCOD9430884 Si02
#       7
#     8   8   8   8   8   8   8
#     4  11  21  40  66  86 122 163 203 247 312 367
#     4  10  21  40  60  90 121 159 206 250 301 367
#     4  10  21  36  67  89 118 163 205 254 308 362
#     4  10  21  40  59  87 127 153 205 254 304 363
#     4  11  20  40  62  91 122 165 206 254 315 364
#     4  10  20  38  62  91 114 153 202 257 299 363
#     4  10  24  39  58  88 127 163 200 254 303 374
#
# _framework density 21.355430999999999
#
# number of rings (size 3 to 8) (size 9 to 14) (size 15 to 20)
#    0.000    1.714    2.857    1.714    0.000    0.571 
#    5.143    2.857    0.000    0.000    0.000    0.000 
#    0.000    0.000    0.000    0.000    0.000    0.000 
#
# Total GULP energy -312941.735034 kJ/mol
# GULP energy per Si atom -5588.245268 kJ/mol
# Density = 2.130683 g / cm^3
# Si number density = 21.355431 Si / 1000 Ang^3
#
#
#
# Elastic Constant Matrix: (Units=GPa)
#
#
# Indices 1 2 3 4 5 6 
#
# 1 49.8258 15.3325 -3.9442 0.0000 0.0000 0.0000
# 2 15.3325 115.0580 28.3389 0.0000 0.0000 0.0000
# 3 -3.9442 28.3389 31.3104 0.0000 0.0000 0.0000
# 4 0.0000 0.0000 0.0000 28.0209 0.0000 0.0000
# 5 0.0000 0.0000 0.0000 0.0000 17.1128 0.0000
# 6 0.0000 0.0000 0.0000 0.0000 0.0000 29.1303
#
#
#
# Elastic Compliance Matrix: (Units=1/GPa)
#
#
# Indices 1 2 3 4 5 6 
#
# 1 0.022059 -0.004664 0.007000 0.000000 0.000000 0.000000
# 2 -0.004664 0.012171 -0.011603 0.000000 0.000000 0.000000
# 3 0.007000 -0.011603 0.043322 0.000000 0.000000 0.000000
# 4 0.000000 0.000000 0.000000 0.035688 0.000000 0.000000
# 5 0.000000 0.000000 0.000000 0.000000 0.058436 0.000000
# 6 0.000000 0.000000 0.000000 0.000000 0.000000 0.034328
#
#
# Mechanical properties :
#
#
# Convention : Reuss Voigt Hill
#
# Bulk Modulus (GPa) = 16.94397 30.62763 23.78580
# Shear Modulus (GPa) = 20.47417 25.28393 22.87905
#
# Velocity S-wave (km/s) = 3.09970 3.44460 3.27669
# Velocity P-wave (km/s) = 4.55657 5.49485 5.04756
#
# Compressibility (1/GPa) = 0.05901806
#
# Stress axis : x y z
#
# Youngs Moduli (GPa) = 45.33271 82.16524 23.08296
#
# Poissons Ratio (x) = 0.38319 -0.16158
# Poissons Ratio (y) = 0.21142 0.26783
# Poissons Ratio (z) = -0.31732 0.95337
#
# Static dielectric constant tensor:
#      x y z
#    x 1.789840 0.000000 0.000000 
#    y 0.000000 1.774790 0.000000 
#    z 0.000000 0.000000 1.756170 
# 
# From -- ./inp_files/9828.got.cif
#   From: 2010.05.17/outbox.cif.g08.bks.cpg/sg56_5_cif.got.tgz:9828.got - 2010.06.03 13:42:01.
