data_PCOD9430337
_publ_section_title
;
Structure prediction by ZEFSAII (Michael W. Deem and Ramdas Pophale) SiO2 
 PCOD9430337
Probable space group: P C C N
;
_chemical_formula_sum "Si O2"
_cell_formula_units_Z 40
_cell_length_a 8.703864
_cell_length_b 10.153948
_cell_length_c 18.308789
_cell_angle_alpha 90.000000
_cell_angle_beta 90.000000
_cell_angle_gamma 90.000000
_cell_volume 1618.104818
_symmetry_space_group_name_H-M "P C C N"
_symmetry_group_IT_number 56
_symmetry_cell_setting 'orthorhombic'
loop_
_space_group_symop_operation_xyz
x,y,z
1/2-x,1/2-y,z
1/2+x,-y,1/2-z
-x,1/2+y,1/2-z
-x,-y,-z
1/2+x,1/2+y,-z
1/2-x,y,1/2+z
x,1/2-y,1/2+z
loop_
_atom_site_type_symbol
_atom_site_label
_atom_site_fract_x
_atom_site_fract_y
_atom_site_fract_z
Si Si1 0.998810 0.832242 0.704196
Si Si2 0.710133 0.494920 0.188727
Si Si3 0.529005 0.298963 0.653680
Si Si4 0.542251 0.509477 0.916329
Si Si5 0.896108 0.466736 0.927668
O O1 0.127442 0.923301 0.744344
O O2 0.008037 0.710448 0.758949
O O3 0.032492 0.845689 0.618452
O O4 0.834876 0.901022 0.714341
O O5 0.587242 0.559246 0.133803
O O6 0.808287 0.379009 0.146571
O O7 0.484768 0.158594 0.616670
O O8 0.414846 0.400136 0.617927
O O9 0.713084 0.450502 0.921811
O O10 0.500000 0.500000 0.000000
O O11 0.000000 0.500000 0.000000
#
# Coordination Sequence:
#
# PCOD9430337 Si02
#       5
#     8   8   8   8   8
#     4  10  19  38  64  92 124 165 212 263 316 385
#     4  10  21  37  63  97 127 166 217 270 325 388
#     4  10  22  42  66  93 128 171 218 270 327 393
#     4  11  21  38  64  95 133 174 215 270 331 394
#     4  11  24  43  66  95 132 172 217 273 333 394
#
# _framework density 24.720278
#
# number of rings (size 3 to 8) (size 9 to 14) (size 15 to 20)
#    0.000    1.600    0.000    7.800    0.000    1.600 
#    0.000   14.000    0.000    9.600    0.000    0.000 
#    0.000    0.000    0.000    0.000    0.000    0.000 
#
# Total GULP energy -222995.894405 kJ/mol
# GULP energy per Si atom -5574.897360 kJ/mol
# Density = 2.466401 g / cm^3
# Si number density = 24.720278 Si / 1000 Ang^3
#
#
#
# Elastic Constant Matrix: (Units=GPa)
#
#
# Indices 1 2 3 4 5 6 
#
# 1 141.7961 -2.8225 28.1014 0.0000 0.0000 0.0000
# 2 -2.8225 67.0908 9.5229 0.0000 0.0000 0.0000
# 3 28.1014 9.5229 147.3181 0.0000 0.0000 0.0000
# 4 0.0000 0.0000 0.0000 31.3180 0.0000 0.0000
# 5 0.0000 0.0000 0.0000 0.0000 58.5095 0.0000
# 6 0.0000 0.0000 0.0000 0.0000 0.0000 31.3609
#
#
#
# Elastic Compliance Matrix: (Units=1/GPa)
#
#
# Indices 1 2 3 4 5 6 
#
# 1 0.007347 0.000513 -0.001435 0.000000 0.000000 0.000000
# 2 0.000513 0.015079 -0.001073 0.000000 0.000000 0.000000
# 3 -0.001435 -0.001073 0.007131 0.000000 0.000000 0.000000
# 4 0.000000 0.000000 0.000000 0.031931 0.000000 0.000000
# 5 0.000000 0.000000 0.000000 0.000000 0.017091 0.000000
# 6 0.000000 0.000000 0.000000 0.000000 0.000000 0.031887
#
#
# Mechanical properties :
#
#
# Convention : Reuss Voigt Hill
#
# Bulk Modulus (GPa) = 39.11128 47.31205 43.21166
# Shear Modulus (GPa) = 40.65801 45.66456 43.16129
#
# Velocity S-wave (km/s) = 4.05992 4.30263 4.18303
# Velocity P-wave (km/s) = 6.15086 6.62299 6.39129
#
# Compressibility (1/GPa) = 0.02556807
#
# Stress axis : x y z
#
# Youngs Moduli (GPa) = 136.11191 66.31754 140.23257
#
# Poissons Ratio (x) = -0.03400 0.20118
# Poissons Ratio (y) = -0.06979 0.15040
# Poissons Ratio (z) = 0.19526 0.07113
#
# Static dielectric constant tensor:
#      x y z
#    x 2.159880 0.000000 0.000000 
#    y 0.000000 2.078290 0.000000 
#    z 0.000000 0.000000 1.968160 
# 
# From -- ./inp_files/14450.got.cif
#   From: 2010.05.17/outbox.cif.g08.bks.cpg/sg56_8_cif.got.tgz:14450.got - 2010.06.03 13:42:01.
