data_PCOD9430635
_publ_section_title
;
Structure prediction by ZEFSAII (Michael W. Deem and Ramdas Pophale) SiO2 
 PCOD9430635
Probable space group: P C C N
;
_chemical_formula_sum "Si O2"
_cell_formula_units_Z 36
_cell_length_a 5.005952
_cell_length_b 13.158990
_cell_length_c 29.255689
_cell_angle_alpha 90.000000
_cell_angle_beta 90.000000
_cell_angle_gamma 90.000000
_cell_volume 1927.167968
_symmetry_space_group_name_H-M "P C C N"
_symmetry_group_IT_number 56
_symmetry_cell_setting 'orthorhombic'
loop_
_space_group_symop_operation_xyz
x,y,z
1/2-x,1/2-y,z
1/2+x,-y,1/2-z
-x,1/2+y,1/2-z
-x,-y,-z
1/2+x,1/2+y,-z
1/2-x,y,1/2+z
x,1/2-y,1/2+z
loop_
_atom_site_type_symbol
_atom_site_label
_atom_site_fract_x
_atom_site_fract_y
_atom_site_fract_z
Si Si1 0.961792 0.439455 0.232898
Si Si2 0.742252 0.864542 0.499504
Si Si3 0.730982 0.436698 0.552502
Si Si4 0.349327 0.637942 0.851037
Si Si5 0.750000 0.750000 0.284611
O O1 0.710959 0.484621 0.260761
O O2 0.852415 0.423055 0.181678
O O3 0.059917 0.324412 0.244418
O O4 0.750000 0.750000 0.515865
O O5 0.446986 0.890531 0.482232
O O6 0.951879 0.879677 0.457551
O O7 0.815582 0.946992 0.537857
O O8 0.860238 0.423282 0.602188
O O9 0.250000 0.750000 0.865340
O O10 0.591591 0.671572 0.817709
#
# Coordination Sequence:
#
# PCOD9430635 Si02
#       5
#     8   8   8   8   4
#     4  11  22  38  60  85 118 152 185 241 298 355
#     4  10  20  36  55  81 117 156 189 236 281 346
#     4  10  22  34  57  86 113 150 195 234 290 333
#     4  10  21  35  59  88 115 147 194 251 288 342
#     4  10  22  38  60  92 114 148 194 252 294 346
#
# _framework density 18.680261999999999
#
# number of rings (size 3 to 8) (size 9 to 14) (size 15 to 20)
#    0.000    1.778    2.222    2.000    7.778    0.000 
#    0.000    0.000    2.444    0.000    0.000    0.000 
#    0.000    0.000    0.000    0.000    0.000    0.000 
#
# Total GULP energy -200469.705208 kJ/mol
# GULP energy per Si atom -5568.602922 kJ/mol
# Density = 1.863774 g / cm^3
# Si number density = 18.680262 Si / 1000 Ang^3
#
#
#
# Elastic Constant Matrix: (Units=GPa)
#
#
# Indices 1 2 3 4 5 6 
#
# 1 98.5378 32.1367 11.5259 0.0000 0.0000 0.0000
# 2 32.1367 108.3901 52.3512 0.0000 0.0000 0.0000
# 3 11.5259 52.3512 56.5280 0.0000 0.0000 0.0000
# 4 0.0000 0.0000 0.0000 16.2555 0.0000 0.0000
# 5 0.0000 0.0000 0.0000 0.0000 12.9416 0.0000
# 6 0.0000 0.0000 0.0000 0.0000 0.0000 32.0868
#
#
#
# Elastic Compliance Matrix: (Units=1/GPa)
#
#
# Indices 1 2 3 4 5 6 
#
# 1 0.011300 -0.004048 0.001445 0.000000 0.000000 0.000000
# 2 -0.004048 0.018143 -0.015977 0.000000 0.000000 0.000000
# 3 0.001445 -0.015977 0.032192 0.000000 0.000000 0.000000
# 4 0.000000 0.000000 0.000000 0.061518 0.000000 0.000000
# 5 0.000000 0.000000 0.000000 0.000000 0.077270 0.000000
# 6 0.000000 0.000000 0.000000 0.000000 0.000000 0.031165
#
#
# Mechanical properties :
#
#
# Convention : Reuss Voigt Hill
#
# Bulk Modulus (GPa) = 40.85869 50.60927 45.73398
# Shear Modulus (GPa) = 18.05667 23.41958 20.73813
#
# Velocity S-wave (km/s) = 3.11242 3.54461 3.33552
# Velocity P-wave (km/s) = 5.90223 6.62598 6.27455
#
# Compressibility (1/GPa) = 0.02447460
#
# Stress axis : x y z
#
# Youngs Moduli (GPa) = 88.49851 55.11822 31.06363
#
# Poissons Ratio (x) = 0.22313 -0.04489
# Poissons Ratio (y) = 0.35826 0.49630
# Poissons Ratio (z) = -0.12789 0.88061
#
# Static dielectric constant tensor:
#      x y z
#    x 1.738610 0.000000 0.000000 
#    y 0.000000 1.667840 0.000000 
#    z 0.000000 0.000000 1.687850 
# 
# From -- ./inp_files/22771.got.cif
#   From: 2010.05.17/outbox.cif.g08.bks.cpg/sg56_12_cif.got.tgz:22771.got - 2010.06.03 13:42:01.
