data_PCOD9430087
_publ_section_title
;
Structure prediction by ZEFSAII (Michael W. Deem and Ramdas Pophale) SiO2 
 PCOD9430087
Probable space group: P C C N
;
_chemical_formula_sum "Si O2"
_cell_formula_units_Z 48
_cell_length_a 8.815762
_cell_length_b 15.918097
_cell_length_c 15.399321
_cell_angle_alpha 90.000000
_cell_angle_beta 90.000000
_cell_angle_gamma 90.000000
_cell_volume 2160.989097
_symmetry_space_group_name_H-M "P C C N"
_symmetry_group_IT_number 56
_symmetry_cell_setting 'orthorhombic'
loop_
_space_group_symop_operation_xyz
x,y,z
1/2-x,1/2-y,z
1/2+x,-y,1/2-z
-x,1/2+y,1/2-z
-x,-y,-z
1/2+x,1/2+y,-z
1/2-x,y,1/2+z
x,1/2-y,1/2+z
loop_
_atom_site_type_symbol
_atom_site_label
_atom_site_fract_x
_atom_site_fract_y
_atom_site_fract_z
Si Si1 0.250000 0.750000 0.228779
Si Si2 0.893506 0.910909 0.783067
Si Si3 0.750000 0.750000 0.194990
Si Si4 0.423291 0.856212 0.448647
Si Si5 0.075827 0.033699 0.697043
Si Si6 0.974816 0.360479 0.362324
Si Si7 0.583066 0.181756 0.106993
O O1 0.310248 0.678249 0.163607
O O2 0.118264 0.768420 0.301590
O O3 0.814926 0.824237 0.755155
O O4 0.754917 0.973034 0.803981
O O5 0.996405 0.898041 0.866847
O O6 0.988882 0.945903 0.701428
O O7 0.607922 0.710586 0.142946
O O8 0.462835 0.895104 0.540815
O O9 0.243433 0.851842 0.428976
O O10 0.473909 0.757558 0.452213
O O11 0.028064 0.073503 0.790086
O O12 0.020610 0.102201 0.627406
#
# Coordination Sequence:
#
# PCOD9430087 Si02
#       7
#     4   8   4   8   8   8   8
#     4   8  14  30  52  74 106 140 182 216 264 326
#     4  11  21  38  59  82 110 152 195 239 281 341
#     4  10  22  38  58  80 110 148 194 228 276 342
#     4  10  19  33  58  83 114 144 183 231 285 335
#     4  10  22  37  57  79 110 147 194 236 284 337
#     4  10  20  34  55  85 112 144 182 235 284 333
#     4   9  18  34  56  84 110 148 188 230 274 342
#
# _framework density 22.212050999999999
#
# number of rings (size 3 to 8) (size 9 to 14) (size 15 to 20)
#    0.000    2.333    0.000    6.000    0.000    4.000 
#    0.000    0.000    0.000    6.000    0.000    0.000 
#    0.000    0.000    0.000    0.000    0.000    0.000 
#
# Total GULP energy -267509.395732 kJ/mol
# GULP energy per Si atom -5573.112411 kJ/mol
# Density = 2.216150 g / cm^3
# Si number density = 22.212051 Si / 1000 Ang^3
#
#
#
# Elastic Constant Matrix: (Units=GPa)
#
#
# Indices 1 2 3 4 5 6 
#
# 1 57.9219 17.6725 -3.6341 0.0000 0.0000 0.0000
# 2 17.6725 51.7903 -4.3186 0.0000 0.0000 0.0000
# 3 -3.6341 -4.3186 36.2729 0.0000 0.0000 0.0000
# 4 0.0000 0.0000 0.0000 11.8188 0.0000 0.0000
# 5 0.0000 0.0000 0.0000 0.0000 14.6975 0.0000
# 6 0.0000 0.0000 0.0000 0.0000 0.0000 37.0092
#
#
#
# Elastic Compliance Matrix: (Units=1/GPa)
#
#
# Indices 1 2 3 4 5 6 
#
# 1 0.019319 -0.006495 0.001162 0.000000 0.000000 0.000000
# 2 -0.006495 0.021686 0.001931 0.000000 0.000000 0.000000
# 3 0.001162 0.001931 0.027915 0.000000 0.000000 0.000000
# 4 0.000000 0.000000 0.000000 0.084611 0.000000 0.000000
# 5 0.000000 0.000000 0.000000 0.000000 0.068039 0.000000
# 6 0.000000 0.000000 0.000000 0.000000 0.000000 0.027020
#
#
# Mechanical properties :
#
#
# Convention : Reuss Voigt Hill
#
# Bulk Modulus (GPa) = 16.09880 18.38052 17.23966
# Shear Modulus (GPa) = 18.10939 21.78948 19.94944
#
# Velocity S-wave (km/s) = 2.85844 3.13545 3.00014
# Velocity P-wave (km/s) = 4.26119 4.62613 4.44740
#
# Compressibility (1/GPa) = 0.06211645
#
# Stress axis : x y z
#
# Youngs Moduli (GPa) = 51.76154 46.11244 35.82287
#
# Poissons Ratio (x) = 0.29952 -0.04163
# Poissons Ratio (y) = 0.33621 -0.06918
# Poissons Ratio (z) = -0.06016 -0.08905
#
# Static dielectric constant tensor:
#      x y z
#    x 1.853530 0.000000 0.000000 
#    y 0.000000 1.917490 0.000000 
#    z 0.000000 0.000000 1.810310 
# 
# From -- ./inp_files/10733.got.cif
#   From: 2010.05.17/outbox.cif.g08.bks.cpg/sg56_6_cif.got.tgz:10733.got - 2010.06.03 13:42:01.
