data_PCOD9430171
_publ_section_title
;
Structure prediction by ZEFSAII (Michael W. Deem and Ramdas Pophale) SiO2 
 PCOD9430171
Probable space group: P C C N
;
_chemical_formula_sum "Si O2"
_cell_formula_units_Z 64
_cell_length_a 28.578984
_cell_length_b 17.530295
_cell_length_c 5.515453
_cell_angle_alpha 90.000000
_cell_angle_beta 90.000000
_cell_angle_gamma 90.000000
_cell_volume 2763.231034
_symmetry_space_group_name_H-M "P C C N"
_symmetry_group_IT_number 56
_symmetry_cell_setting 'orthorhombic'
loop_
_space_group_symop_operation_xyz
x,y,z
1/2-x,1/2-y,z
1/2+x,-y,1/2-z
-x,1/2+y,1/2-z
-x,-y,-z
1/2+x,1/2+y,-z
1/2-x,y,1/2+z
x,1/2-y,1/2+z
loop_
_atom_site_type_symbol
_atom_site_label
_atom_site_fract_x
_atom_site_fract_y
_atom_site_fract_z
Si Si1 0.802613 0.718099 0.209869
Si Si2 0.067370 0.945444 0.510061
Si Si3 0.737759 0.108547 0.685937
Si Si4 0.924533 0.283624 0.169945
Si Si5 0.966756 0.773105 0.880262
Si Si6 0.149494 0.984137 0.822139
Si Si7 0.522422 0.558855 0.812442
Si Si8 0.309395 0.461534 0.318528
O O1 0.750000 0.750000 0.212103
O O2 0.824870 0.751042 0.961076
O O3 0.796376 0.626820 0.205399
O O4 0.084224 0.873161 0.358916
O O5 0.016312 0.923403 0.607653
O O6 0.097595 0.961503 0.748021
O O7 0.063068 0.017859 0.336642
O O8 0.748654 0.147892 0.937705
O O9 0.683446 0.088548 0.677734
O O10 0.768293 0.027199 0.688883
O O11 0.905579 0.254478 0.424885
O O12 0.980379 0.260798 0.162864
O O13 0.944698 0.767043 0.613118
O O14 0.967268 0.862420 0.942314
O O15 0.158928 0.021819 0.081197
O O16 0.167024 0.029762 0.582646
O O17 0.500000 0.500000 0.000000
#
# Coordination Sequence:
#
# PCOD9430171 Si02
#       8
#     8   8   8   8   8   8   8   8
#     4  10  21  28  51  83 101 139 200 253 274 340
#     4  11  24  37  57  95 117 154 198 246 308 355
#     4   8  16  29  52  71 101 142 176 211 283 330
#     4  10  19  35  58  84 115 147 181 245 292 347
#     4  10  19  36  58  84 105 150 186 244 290 343
#     4  10  22  34  55  78 116 147 177 239 296 341
#     4  11  23  37  62  85 121 152 205 251 297 366
#     4  10  20  36  54  79 113 146 186 238 300 338
#
# _framework density 23.161293000000001
#
# number of rings (size 3 to 8) (size 9 to 14) (size 15 to 20)
#    0.000    2.000    2.500    2.250   14.000    0.000 
#    0.000    0.000    0.000    4.500    0.000    0.000 
#    0.000   27.000    0.000    0.000    0.000    0.000 
#
# Total GULP energy -357273.928623 kJ/mol
# GULP energy per Si atom -5582.405135 kJ/mol
# Density = 2.310858 g / cm^3
# Si number density = 23.161293 Si / 1000 Ang^3
#
#
#
# Elastic Constant Matrix: (Units=GPa)
#
#
# Indices 1 2 3 4 5 6 
#
# 1 33.6102 2.7107 14.4586 0.0000 0.0000 0.0000
# 2 2.7107 59.9004 -5.7154 0.0000 0.0000 0.0000
# 3 14.4586 -5.7154 166.8415 0.0000 0.0000 0.0000
# 4 0.0000 0.0000 0.0000 10.7898 0.0000 0.0000
# 5 0.0000 0.0000 0.0000 0.0000 28.9964 0.0000
# 6 0.0000 0.0000 0.0000 0.0000 0.0000 4.9658
#
#
#
# Elastic Compliance Matrix: (Units=1/GPa)
#
#
# Indices 1 2 3 4 5 6 
#
# 1 0.031070 -0.001668 -0.002750 0.000000 0.000000 0.000000
# 2 -0.001668 0.016839 0.000721 0.000000 0.000000 0.000000
# 3 -0.002750 0.000721 0.006257 0.000000 0.000000 0.000000
# 4 0.000000 0.000000 0.000000 0.092680 0.000000 0.000000
# 5 0.000000 0.000000 0.000000 0.000000 0.034487 0.000000
# 6 0.000000 0.000000 0.000000 0.000000 0.000000 0.201375
#
#
# Mechanical properties :
#
#
# Convention : Reuss Voigt Hill
#
# Bulk Modulus (GPa) = 21.38013 31.47330 26.42672
# Shear Modulus (GPa) = 12.32460 25.54362 18.93411
#
# Velocity S-wave (km/s) = 2.30928 3.32453 2.86228
# Velocity P-wave (km/s) = 4.04492 5.32494 4.72844
#
# Compressibility (1/GPa) = 0.04677240
#
# Stress axis : x y z
#
# Youngs Moduli (GPa) = 32.18502 59.38693 159.82816
#
# Poissons Ratio (x) = 0.09908 0.43948
# Poissons Ratio (y) = 0.05370 -0.11530
# Poissons Ratio (z) = 0.08850 -0.04284
#
# Static dielectric constant tensor:
#      x y z
#    x 1.888380 0.000000 0.000000 
#    y 0.000000 1.831290 0.000000 
#    z 0.000000 0.000000 1.973110 
# 
# From -- ./inp_files/1375.got.cif
#   From: 2010.05.17/outbox.cif.g08.bks.cpg/sg56_1_cif.got.tgz:1375.got - 2010.06.03 13:42:01.
