data_PCOD9430729
_publ_section_title
;
Structure prediction by ZEFSAII (Michael W. Deem and Ramdas Pophale) SiO2 
 PCOD9430729
Probable space group: P C C N
;
_chemical_formula_sum "Si O2"
_cell_formula_units_Z 52
_cell_length_a 11.092071
_cell_length_b 9.258073
_cell_length_c 26.315245
_cell_angle_alpha 90.000000
_cell_angle_beta 90.000000
_cell_angle_gamma 90.000000
_cell_volume 2702.344167
_symmetry_space_group_name_H-M "P C C N"
_symmetry_group_IT_number 56
_symmetry_cell_setting 'orthorhombic'
loop_
_space_group_symop_operation_xyz
x,y,z
1/2-x,1/2-y,z
1/2+x,-y,1/2-z
-x,1/2+y,1/2-z
-x,-y,-z
1/2+x,1/2+y,-z
1/2-x,y,1/2+z
x,1/2-y,1/2+z
loop_
_atom_site_type_symbol
_atom_site_label
_atom_site_fract_x
_atom_site_fract_y
_atom_site_fract_z
Si Si1 0.750000 0.250000 0.866156
Si Si2 0.172286 0.549004 0.544133
Si Si3 0.630272 0.103008 0.771264
Si Si4 0.663547 0.886536 0.023915
Si Si5 0.350148 0.875408 0.891056
Si Si6 0.386529 0.579825 0.274842
Si Si7 0.983301 0.208173 0.031805
O O1 0.684110 0.361124 0.904449
O O2 0.660820 0.160722 0.828505
O O3 0.293349 0.469717 0.526725
O O4 0.134430 0.647130 0.496009
O O5 0.070618 0.424962 0.544672
O O6 0.605162 0.251040 0.740262
O O7 0.758557 0.035385 0.751842
O O8 0.512242 0.003363 0.763912
O O9 0.750000 0.750000 0.032162
O O10 0.674046 0.992684 0.071002
O O11 0.537317 0.815232 0.010452
O O12 0.250000 0.750000 0.889425
O O13 0.369065 0.931528 0.834905
O O14 0.461896 0.794456 0.916937
#
# Coordination Sequence:
#
# PCOD9430729 Si02
#       7
#     4   8   8   8   8   8   8
#     4  10  22  38  64  92 124 168 214 256 326 382
#     4  10  20  37  56  89 130 170 200 254 304 366
#     4  10  24  47  66  95 127 159 213 282 326 390
#     4  10  22  38  55  92 134 163 212 248 297 378
#     4  12  21  39  64  89 121 167 209 261 318 373
#     4  10  24  46  67  93 126 161 212 271 332 387
#     4  10  22  35  58  88 131 168 208 251 297 374
#
# _framework density 19.242552
#
# number of rings (size 3 to 8) (size 9 to 14) (size 15 to 20)
#    0.000    1.846    3.077    1.385    4.308    3.077 
#    2.769    0.000    0.000    0.000    0.000    0.000 
#    0.000    0.000    0.000    0.000    0.000    0.000 
#
# Total GULP energy -289829.877902 kJ/mol
# GULP energy per Si atom -5573.651498 kJ/mol
# Density = 1.919876 g / cm^3
# Si number density = 19.242552 Si / 1000 Ang^3
#
#
#
# Elastic Constant Matrix: (Units=GPa)
#
#
# Indices 1 2 3 4 5 6 
#
# 1 110.4552 60.6605 33.3498 0.0000 0.0000 0.0000
# 2 60.6605 78.8179 34.2336 0.0000 0.0000 0.0000
# 3 33.3498 34.2336 116.0853 0.0000 0.0000 0.0000
# 4 0.0000 0.0000 0.0000 24.3559 0.0000 0.0000
# 5 0.0000 0.0000 0.0000 0.0000 19.9082 0.0000
# 6 0.0000 0.0000 0.0000 0.0000 0.0000 36.2815
#
#
#
# Elastic Compliance Matrix: (Units=1/GPa)
#
#
# Indices 1 2 3 4 5 6 
#
# 1 0.015802 -0.011687 -0.001093 0.000000 0.000000 0.000000
# 2 -0.011687 0.023194 -0.003483 0.000000 0.000000 0.000000
# 3 -0.001093 -0.003483 0.009955 0.000000 0.000000 0.000000
# 4 0.000000 0.000000 0.000000 0.041058 0.000000 0.000000
# 5 0.000000 0.000000 0.000000 0.000000 0.050231 0.000000
# 6 0.000000 0.000000 0.000000 0.000000 0.000000 0.027562
#
#
# Mechanical properties :
#
#
# Convention : Reuss Voigt Hill
#
# Bulk Modulus (GPa) = 60.87671 62.42735 61.65203
# Shear Modulus (GPa) = 24.29511 27.91673 26.10592
#
# Velocity S-wave (km/s) = 3.55712 3.81304 3.68730
# Velocity P-wave (km/s) = 6.96965 7.20406 7.08783
#
# Compressibility (1/GPa) = 0.01642664
#
# Stress axis : x y z
#
# Youngs Moduli (GPa) = 63.28465 43.11379 100.44737
#
# Poissons Ratio (x) = 0.50385 0.10981
# Poissons Ratio (y) = 0.73958 0.34982
# Poissons Ratio (z) = 0.06918 0.15015
#
# Static dielectric constant tensor:
#      x y z
#    x 1.716300 0.000000 0.000000 
#    y 0.000000 1.681870 0.000000 
#    z 0.000000 0.000000 1.644030 
# 
# From -- ./inp_files/22268.got.cif
#   From: 2010.05.17/outbox.cif.g08.bks.cpg/sg56_12_cif.got.tgz:22268.got - 2010.06.03 13:42:01.
