data_PCOD9430609
_publ_section_title
;
Structure prediction by ZEFSAII (Michael W. Deem and Ramdas Pophale) SiO2 
 PCOD9430609
Probable space group: P C C N
;
_chemical_formula_sum "Si O2"
_cell_formula_units_Z 64
_cell_length_a 26.522192
_cell_length_b 19.427635
_cell_length_c 5.113196
_cell_angle_alpha 90.000000
_cell_angle_beta 90.000000
_cell_angle_gamma 90.000000
_cell_volume 2634.643091
_symmetry_space_group_name_H-M "P C C N"
_symmetry_group_IT_number 56
_symmetry_cell_setting 'orthorhombic'
loop_
_space_group_symop_operation_xyz
x,y,z
1/2-x,1/2-y,z
1/2+x,-y,1/2-z
-x,1/2+y,1/2-z
-x,-y,-z
1/2+x,1/2+y,-z
1/2-x,y,1/2+z
x,1/2-y,1/2+z
loop_
_atom_site_type_symbol
_atom_site_label
_atom_site_fract_x
_atom_site_fract_y
_atom_site_fract_z
Si Si1 0.009435 0.711339 0.281440
Si Si2 0.770799 0.325178 0.626808
Si Si3 0.491304 0.079639 0.073929
Si Si4 0.087144 0.571667 0.644492
Si Si5 0.117632 0.425561 0.909853
Si Si6 0.610804 0.712073 0.884039
Si Si7 0.143143 0.887748 0.631601
Si Si8 0.284463 0.018378 0.142865
O O1 0.031096 0.764339 0.061720
O O2 0.950008 0.718642 0.356357
O O3 0.009640 0.637626 0.132189
O O4 0.750000 0.250000 0.564785
O O5 0.732374 0.358066 0.839285
O O6 0.825912 0.324382 0.750670
O O7 0.527552 0.084454 0.323887
O O8 0.431285 0.089378 0.092982
O O9 0.500000 0.000000 0.000000
O O10 0.103277 0.495532 0.749997
O O11 0.115843 0.619187 0.856895
O O12 0.105515 0.584847 0.354004
O O13 0.123331 0.364102 0.706555
O O14 0.168644 0.432565 0.072787
O O15 0.629457 0.734205 0.165868
O O16 0.186705 0.945511 0.621630
O O17 0.241124 0.025388 0.924500
#
# Coordination Sequence:
#
# PCOD9430609 Si02
#       8
#     8   8   8   8   8   8   8   8
#     4   9  18  34  57  81 116 156 206 251 296 370
#     4  10  20  35  60  85 111 153 209 258 304 368
#     4   9  19  40  64  93 126 167 214 265 324 389
#     4  10  22  37  60  89 125 162 199 260 324 374
#     4   9  20  39  61  91 123 156 206 259 311 378
#     4   9  18  32  55  84 110 151 196 238 286 351
#     4  11  21  38  59  86 121 157 203 257 313 374
#     4  11  22  37  59  88 117 152 194 247 310 362
#
# _framework density 24.291717999999999
#
# number of rings (size 3 to 8) (size 9 to 14) (size 15 to 20)
#    0.000    2.250    0.000    3.000    0.000    4.000 
#    0.000   25.625   16.500    2.250    0.000    0.000 
#    0.000    0.000    0.000    0.000    0.000    0.000 
#
# Total GULP energy -357544.518425 kJ/mol
# GULP energy per Si atom -5586.633100 kJ/mol
# Density = 2.423643 g / cm^3
# Si number density = 24.291718 Si / 1000 Ang^3
#
#
#
# Elastic Constant Matrix: (Units=GPa)
#
#
# Indices 1 2 3 4 5 6 
#
# 1 91.6865 21.6962 12.0190 0.0000 0.0000 0.0000
# 2 21.6962 73.0396 8.8659 0.0000 0.0000 0.0000
# 3 12.0190 8.8659 87.7724 0.0000 0.0000 0.0000
# 4 0.0000 0.0000 0.0000 20.4933 0.0000 0.0000
# 5 0.0000 0.0000 0.0000 0.0000 33.1809 0.0000
# 6 0.0000 0.0000 0.0000 0.0000 0.0000 24.8304
#
#
#
# Elastic Compliance Matrix: (Units=1/GPa)
#
#
# Indices 1 2 3 4 5 6 
#
# 1 0.011873 -0.003371 -0.001285 0.000000 0.000000 0.000000
# 2 -0.003371 0.014818 -0.001035 0.000000 0.000000 0.000000
# 3 -0.001285 -0.001035 0.011674 0.000000 0.000000 0.000000
# 4 0.000000 0.000000 0.000000 0.048796 0.000000 0.000000
# 5 0.000000 0.000000 0.000000 0.000000 0.030138 0.000000
# 6 0.000000 0.000000 0.000000 0.000000 0.000000 0.040273
#
#
# Mechanical properties :
#
#
# Convention : Reuss Voigt Hill
#
# Bulk Modulus (GPa) = 37.06161 37.51782 37.28972
# Shear Modulus (GPa) = 28.09797 29.69542 28.89669
#
# Velocity S-wave (km/s) = 3.40470 3.50015 3.45276
# Velocity P-wave (km/s) = 5.54491 5.64030 5.59281
#
# Compressibility (1/GPa) = 0.02698210
#
# Stress axis : x y z
#
# Youngs Moduli (GPa) = 84.22571 67.48484 85.66282
#
# Poissons Ratio (x) = 0.22748 0.11010
# Poissons Ratio (y) = 0.28391 0.08868
# Poissons Ratio (z) = 0.10826 0.06986
#
# Static dielectric constant tensor:
#      x y z
#    x 1.968570 0.000000 0.000000 
#    y 0.000000 2.071520 0.000000 
#    z 0.000000 0.000000 1.995450 
# 
# From -- ./inp_files/1278.got.cif
#   From: 2010.05.17/outbox.cif.g08.bks.cpg/sg56_1_cif.got.tgz:1278.got - 2010.06.03 13:42:01.
