data_PCOD9430311
_publ_section_title
;
Structure prediction by ZEFSAII (Michael W. Deem and Ramdas Pophale) SiO2 
 PCOD9430311
Probable space group: P C C N
;
_chemical_formula_sum "Si O2"
_cell_formula_units_Z 52
_cell_length_a 10.714483
_cell_length_b 7.659407
_cell_length_c 26.892512
_cell_angle_alpha 90.000000
_cell_angle_beta 90.000000
_cell_angle_gamma 90.000000
_cell_volume 2206.976651
_symmetry_space_group_name_H-M "P C C N"
_symmetry_group_IT_number 56
_symmetry_cell_setting 'orthorhombic'
loop_
_space_group_symop_operation_xyz
x,y,z
1/2-x,1/2-y,z
1/2+x,-y,1/2-z
-x,1/2+y,1/2-z
-x,-y,-z
1/2+x,1/2+y,-z
1/2-x,y,1/2+z
x,1/2-y,1/2+z
loop_
_atom_site_type_symbol
_atom_site_label
_atom_site_fract_x
_atom_site_fract_y
_atom_site_fract_z
Si Si1 0.988015 0.792159 0.671785
Si Si2 0.784644 0.419483 0.885620
Si Si3 0.250000 0.250000 0.982750
Si Si4 0.319655 0.503348 0.399172
Si Si5 0.964830 0.866451 0.456372
Si Si6 0.250000 0.750000 0.314647
Si Si7 0.250000 0.250000 0.174741
Si Si8 0.498243 0.365865 0.733954
O O1 0.128359 0.811297 0.652737
O O2 0.899897 0.844122 0.626024
O O3 0.974296 0.627943 0.707119
O O4 0.970792 0.945261 0.711909
O O5 0.750000 0.250000 0.918824
O O6 0.873237 0.536090 0.919156
O O7 0.712806 0.575419 0.857027
O O8 0.244989 0.416564 0.946344
O O9 0.374255 0.270666 0.016600
O O10 0.412145 0.652684 0.422312
O O11 0.247593 0.587093 0.353194
O O12 0.000000 0.000000 0.500000
O O13 0.374649 0.735843 0.281477
O O14 0.127950 0.303127 0.206299
#
# Coordination Sequence:
#
# PCOD9430311 Si02
#       8
#     8   8   4   8   8   4   4   8
#     4   9  21  36  58  87 125 165 205 261 314 366
#     4  10  21  38  65  87 122 168 208 259 324 376
#     4  10  19  37  68  84 114 166 200 253 331 382
#     4   9  20  39  59  84 125 163 199 263 323 372
#     4   9  19  39  59  84 123 150 198 270 317 368
#     4  10  22  40  58  92 130 166 206 260 314 370
#     4  10  23  41  58  94 128 166 214 265 307 376
#     4  10  22  37  60  89 129 168 209 265 306 371
#
# _framework density 23.561647000000001
#
# number of rings (size 3 to 8) (size 9 to 14) (size 15 to 20)
#    0.000    2.462    0.000    1.385    3.231    5.538 
#   11.077    0.769    0.000    0.000    0.000    0.000 
#    0.000    0.000    0.000    0.000    0.000    0.000 
#
# Total GULP energy -289537.255782 kJ/mol
# GULP energy per Si atom -5568.024150 kJ/mol
# Density = 2.350802 g / cm^3
# Si number density = 23.561647 Si / 1000 Ang^3
#
#
#
# Elastic Constant Matrix: (Units=GPa)
#
#
# Indices 1 2 3 4 5 6 
#
# 1 83.1267 15.3015 25.8382 0.0000 0.0000 0.0000
# 2 15.3015 43.2015 -6.0013 0.0000 0.0000 0.0000
# 3 25.8382 -6.0013 83.2302 0.0000 0.0000 0.0000
# 4 0.0000 0.0000 0.0000 -0.3146 0.0000 0.0000
# 5 0.0000 0.0000 0.0000 0.0000 17.1129 0.0000
# 6 0.0000 0.0000 0.0000 0.0000 0.0000 16.4362
#
#
#
# Elastic Compliance Matrix: (Units=1/GPa)
#
#
# Indices 1 2 3 4 5 6 
#
# 1 0.014659 -0.005883 -0.004975 0.000000 0.000000 0.000000
# 2 -0.005883 0.025743 0.003683 0.000000 0.000000 0.000000
# 3 -0.004975 0.003683 0.013825 0.000000 0.000000 0.000000
# 4 0.000000 0.000000 0.000000 -3.178717 0.000000 0.000000
# 5 0.000000 0.000000 0.000000 0.000000 0.058435 0.000000
# 6 0.000000 0.000000 0.000000 0.000000 0.000000 0.060841
#
#
# Mechanical properties :
#
#
# Convention : Reuss Voigt Hill
#
# Bulk Modulus (GPa) = 25.07817 31.09280 28.08549
# Shear Modulus (GPa) = -1.67922 18.27489 8.29783
#
# Velocity S-wave (km/s) = -0.84513 2.78802 1.87867
# Velocity P-wave (km/s) = 3.11680 4.85686 4.08066
#
# Compressibility (1/GPa) = 0.03987532
#
# Stress axis : x y z
#
# Youngs Moduli (GPa) = 68.21664 38.84601 72.33342
#
# Poissons Ratio (x) = 0.22854 0.35986
# Poissons Ratio (y) = 0.40133 -0.26637
# Poissons Ratio (z) = 0.33938 -0.14305
#
# Static dielectric constant tensor:
#      x y z
#    x 2.027770 0.000000 0.000000 
#    y 0.000000 2.547860 0.000000 
#    z 0.000000 0.000000 1.802370 
# 
# From -- ./inp_files/22300.got.cif
#   From: 2010.05.17/outbox.cif.g08.bks.cpg/sg56_12_cif.got.tgz:22300.got - 2010.06.03 13:42:01.
