data_PCOD9430332
_publ_section_title
;
Structure prediction by ZEFSAII (Michael W. Deem and Ramdas Pophale) SiO2 
 PCOD9430332
Probable space group: P C C N
;
_chemical_formula_sum "Si O2"
_cell_formula_units_Z 48
_cell_length_a 9.946847
_cell_length_b 13.958124
_cell_length_c 18.126383
_cell_angle_alpha 90.000000
_cell_angle_beta 90.000000
_cell_angle_gamma 90.000000
_cell_volume 2516.654759
_symmetry_space_group_name_H-M "P C C N"
_symmetry_group_IT_number 56
_symmetry_cell_setting 'orthorhombic'
loop_
_space_group_symop_operation_xyz
x,y,z
1/2-x,1/2-y,z
1/2+x,-y,1/2-z
-x,1/2+y,1/2-z
-x,-y,-z
1/2+x,1/2+y,-z
1/2-x,y,1/2+z
x,1/2-y,1/2+z
loop_
_atom_site_type_symbol
_atom_site_label
_atom_site_fract_x
_atom_site_fract_y
_atom_site_fract_z
Si Si1 0.933030 0.595268 0.964939
Si Si2 0.794224 0.535569 0.690416
Si Si3 0.434990 0.341561 0.376216
Si Si4 0.801781 0.029408 0.357004
Si Si5 0.158259 0.657622 0.850414
Si Si6 0.940750 0.354062 0.318601
O O1 0.808550 0.553103 0.918502
O O2 0.037336 0.643866 0.908287
O O3 0.905744 0.659114 0.036346
O O4 0.000000 0.500000 0.000000
O O5 0.697201 0.620936 0.664774
O O6 0.777693 0.516565 0.777276
O O7 0.746675 0.439520 0.648964
O O8 0.947985 0.563010 0.677978
O O9 0.553144 0.418682 0.358239
O O10 0.491945 0.241270 0.349272
O O11 0.688730 0.110698 0.364152
O O12 0.250000 0.750000 0.865315
O O13 0.101753 0.663647 0.766585
#
# Coordination Sequence:
#
# PCOD9430332 Si02
#       6
#     8   8   8   8   8   8
#     4  10  20  40  64  89 128 166 208 265 327 368
#     4  11  20  39  63  89 129 165 203 269 314 375
#     4  11  22  39  65  90 127 168 212 260 322 382
#     4  10  19  38  63  92 121 166 214 256 312 373
#     4  11  22  38  67  96 124 167 226 257 313 393
#     4  11  22  37  66  95 123 165 219 261 312 384
#
# _framework density 19.072937
#
# number of rings (size 3 to 8) (size 9 to 14) (size 15 to 20)
#    0.000    1.333    5.000    4.000    0.000    2.667 
#    0.000    0.833   11.000    0.000    0.000    0.000 
#    0.000    0.000    0.000    0.000    0.000    0.000 
#
# Total GULP energy -267954.944654 kJ/mol
# GULP energy per Si atom -5582.394680 kJ/mol
# Density = 1.902953 g / cm^3
# Si number density = 19.072937 Si / 1000 Ang^3
#
#
#
# Elastic Constant Matrix: (Units=GPa)
#
#
# Indices 1 2 3 4 5 6 
#
# 1 69.7418 17.3651 20.7347 0.0000 0.0000 0.0000
# 2 17.3651 63.6883 37.4086 0.0000 0.0000 0.0000
# 3 20.7347 37.4086 98.2281 0.0000 0.0000 0.0000
# 4 0.0000 0.0000 0.0000 8.0937 0.0000 0.0000
# 5 0.0000 0.0000 0.0000 0.0000 13.5888 0.0000
# 6 0.0000 0.0000 0.0000 0.0000 0.0000 29.0314
#
#
#
# Elastic Compliance Matrix: (Units=1/GPa)
#
#
# Indices 1 2 3 4 5 6 
#
# 1 0.015735 -0.003013 -0.002174 0.000000 0.000000 0.000000
# 2 -0.003013 0.020803 -0.007286 0.000000 0.000000 0.000000
# 3 -0.002174 -0.007286 0.013414 0.000000 0.000000 0.000000
# 4 0.000000 0.000000 0.000000 0.123553 0.000000 0.000000
# 5 0.000000 0.000000 0.000000 0.000000 0.073590 0.000000
# 6 0.000000 0.000000 0.000000 0.000000 0.000000 0.034446
#
#
# Mechanical properties :
#
#
# Convention : Reuss Voigt Hill
#
# Bulk Modulus (GPa) = 39.99215 42.51945 41.25580
# Shear Modulus (GPa) = 15.88192 20.55276 18.21734
#
# Velocity S-wave (km/s) = 2.88877 3.28622 3.09389
# Velocity P-wave (km/s) = 5.66923 6.06139 5.86859
#
# Compressibility (1/GPa) = 0.02500491
#
# Stress axis : x y z
#
# Youngs Moduli (GPa) = 63.55166 48.07026 74.54812
#
# Poissons Ratio (x) = 0.14486 0.16206
# Poissons Ratio (y) = 0.19151 0.54318
# Poissons Ratio (z) = 0.13815 0.35026
#
# Static dielectric constant tensor:
#      x y z
#    x 1.666170 0.000000 0.000000 
#    y 0.000000 1.683970 0.000000 
#    z 0.000000 0.000000 1.668140 
# 
# From -- ./inp_files/14846.got.cif
#   From: 2010.05.17/outbox.cif.g08.bks.cpg/sg56_8_cif.got.tgz:14846.got - 2010.06.03 13:42:01.
