data_PCOD9430130
_publ_section_title
;
Structure prediction by ZEFSAII (Michael W. Deem and Ramdas Pophale) SiO2 
 PCOD9430130
Probable space group: P C C N
;
_chemical_formula_sum "Si O2"
_cell_formula_units_Z 64
_cell_length_a 13.471751
_cell_length_b 12.198405
_cell_length_c 22.630046
_cell_angle_alpha 90.000000
_cell_angle_beta 90.000000
_cell_angle_gamma 90.000000
_cell_volume 3718.883145
_symmetry_space_group_name_H-M "P C C N"
_symmetry_group_IT_number 56
_symmetry_cell_setting 'orthorhombic'
loop_
_space_group_symop_operation_xyz
x,y,z
1/2-x,1/2-y,z
1/2+x,-y,1/2-z
-x,1/2+y,1/2-z
-x,-y,-z
1/2+x,1/2+y,-z
1/2-x,y,1/2+z
x,1/2-y,1/2+z
loop_
_atom_site_type_symbol
_atom_site_label
_atom_site_fract_x
_atom_site_fract_y
_atom_site_fract_z
Si Si1 0.761681 0.510366 0.708122
Si Si2 0.394879 0.469966 0.972412
Si Si3 0.211839 0.127097 0.084556
Si Si4 0.458890 0.209933 0.671511
Si Si5 0.332553 0.837770 0.384682
Si Si6 0.853794 0.802993 0.126370
Si Si7 0.130039 0.046853 0.671450
Si Si8 0.047473 0.110243 0.301525
O O1 0.790221 0.402281 0.672361
O O2 0.819461 0.610039 0.675913
O O3 0.798623 0.512984 0.774783
O O4 0.645473 0.535154 0.703487
O O5 0.351815 0.572233 0.935467
O O6 0.404018 0.370242 0.925978
O O7 0.500000 0.500000 0.000000
O O8 0.326197 0.431121 0.026016
O O9 0.250000 0.250000 0.071366
O O10 0.123019 0.144247 0.132558
O O11 0.301431 0.060115 0.114178
O O12 0.561627 0.211945 0.635209
O O13 0.415955 0.331830 0.681788
O O14 0.474724 0.153092 0.735174
O O15 0.250000 0.750000 0.402771
O O16 0.750000 0.750000 0.104727
O O17 0.921514 0.711651 0.156867
O O18 0.042002 0.959184 0.671380
#
# Coordination Sequence:
#
# PCOD9430130 Si02
#       8
#     8   8   8   8   8   8   8   8
#     4  10  19  34  59  87 119 158 196 237 295 369
#     4  11  22  42  64  83 113 160 212 241 287 365
#     4  10  22  39  62  87 115 155 208 252 297 348
#     4  11  20  35  61  87 121 159 197 241 297 372
#     4  11  23  40  58  87 124 163 196 247 313 355
#     4   9  20  36  62  85 112 153 199 243 287 345
#     4  11  21  34  57  92 123 153 196 250 302 351
#     4  11  20  35  58  91 124 150 197 248 298 362
#
# _framework density 17.209467
#
# number of rings (size 3 to 8) (size 9 to 14) (size 15 to 20)
#    0.000    1.500    5.000    1.125    0.000    0.000 
#    2.250    0.000    0.000    5.250    0.000    0.000 
#    0.000    0.000    0.000    0.000    0.000    0.000 
#
# Total GULP energy -357260.133368 kJ/mol
# GULP energy per Si atom -5582.189584 kJ/mol
# Density = 1.717030 g / cm^3
# Si number density = 17.209467 Si / 1000 Ang^3
#
#
#
# Elastic Constant Matrix: (Units=GPa)
#
#
# Indices 1 2 3 4 5 6 
#
# 1 107.6891 35.7990 52.9985 0.0000 0.0000 0.0000
# 2 35.7990 55.5744 38.7985 0.0000 0.0000 0.0000
# 3 52.9985 38.7985 105.3492 0.0000 0.0000 0.0000
# 4 0.0000 0.0000 0.0000 18.1459 0.0000 0.0000
# 5 0.0000 0.0000 0.0000 0.0000 21.9462 0.0000
# 6 0.0000 0.0000 0.0000 0.0000 0.0000 34.5747
#
#
#
# Elastic Compliance Matrix: (Units=1/GPa)
#
#
# Indices 1 2 3 4 5 6 
#
# 1 0.013404 -0.005286 -0.004796 0.000000 0.000000 0.000000
# 2 -0.005286 0.026306 -0.007029 0.000000 0.000000 0.000000
# 3 -0.004796 -0.007029 0.014494 0.000000 0.000000 0.000000
# 4 0.000000 0.000000 0.000000 0.055109 0.000000 0.000000
# 5 0.000000 0.000000 0.000000 0.000000 0.045566 0.000000
# 6 0.000000 0.000000 0.000000 0.000000 0.000000 0.028923
#
#
# Mechanical properties :
#
#
# Convention : Reuss Voigt Hill
#
# Bulk Modulus (GPa) = 50.04666 58.20052 54.12359
# Shear Modulus (GPa) = 22.25351 24.33446 23.29399
#
# Velocity S-wave (km/s) = 3.59987 3.76442 3.68306
# Velocity P-wave (km/s) = 6.81342 7.26545 7.04307
#
# Compressibility (1/GPa) = 0.01998136
#
# Stress axis : x y z
#
# Youngs Moduli (GPa) = 74.60696 38.01431 68.99458
#
# Poissons Ratio (x) = 0.20093 0.33093
# Poissons Ratio (y) = 0.39434 0.48497
# Poissons Ratio (z) = 0.35785 0.26720
#
# Static dielectric constant tensor:
#      x y z
#    x 1.573910 0.000000 0.000000 
#    y 0.000000 1.574350 0.000000 
#    z 0.000000 0.000000 1.558850 
# 
# From -- ./inp_files/21022.got.cif
#   From: 2010.05.17/outbox.cif.g08.bks.cpg/sg56_11_cif.got.tgz:21022.got - 2010.06.03 13:42:01.
