data_PCOD9430894
_publ_section_title
;
Structure prediction by ZEFSAII (Michael W. Deem and Ramdas Pophale) SiO2 
 PCOD9430894
Probable space group: P C C N
;
_chemical_formula_sum "Si O2"
_cell_formula_units_Z 48
_cell_length_a 17.448015
_cell_length_b 8.067493
_cell_length_c 14.346610
_cell_angle_alpha 90.000000
_cell_angle_beta 90.000000
_cell_angle_gamma 90.000000
_cell_volume 2019.453771
_symmetry_space_group_name_H-M "P C C N"
_symmetry_group_IT_number 56
_symmetry_cell_setting 'orthorhombic'
loop_
_space_group_symop_operation_xyz
x,y,z
1/2-x,1/2-y,z
1/2+x,-y,1/2-z
-x,1/2+y,1/2-z
-x,-y,-z
1/2+x,1/2+y,-z
1/2-x,y,1/2+z
x,1/2-y,1/2+z
loop_
_atom_site_type_symbol
_atom_site_label
_atom_site_fract_x
_atom_site_fract_y
_atom_site_fract_z
Si Si1 0.838472 0.986776 0.274484
Si Si2 0.587778 0.669454 0.562595
Si Si3 0.408711 0.326032 0.120955
Si Si4 0.161528 0.513224 0.774484
Si Si5 0.587778 0.169453 0.937405
Si Si6 0.408711 0.826032 0.379045
O O1 0.862767 0.818939 0.325972
O O2 0.750000 1.000000 0.250000
O O3 0.860402 0.128856 0.349534
O O4 0.886975 0.013464 0.180140
O O5 0.611200 0.808946 0.488047
O O6 0.639598 0.628856 0.650465
O O7 0.500000 0.697831 0.593389
O O8 0.587041 0.500000 0.500000
O O9 0.386975 0.486536 0.180140
O O10 0.500000 0.296406 0.126676
O O11 0.137234 0.681061 0.825972
O O12 0.611201 0.308946 0.011953
#
# Coordination Sequence:
#
# PCOD9430894 Si02
#       6
#     8   8   8   8   8   8
#     4  11  21  36  57  89 124 152 193 248 306 358
#     4   8  16  34  59  81 108 153 199 236 284 350
#     4  10  20  38  63  86 115 160 206 244 290 356
#     4  11  21  36  57  89 124 152 193 248 306 358
#     4   8  16  34  59  81 108 153 199 236 284 350
#     4  10  20  38  63  86 115 160 206 244 290 356
#
# _framework density 23.768802000000001
#
# number of rings (size 3 to 8) (size 9 to 14) (size 15 to 20)
#    0.000    2.333    0.000    6.000    0.000    0.000 
#    0.000   21.667    0.000    6.000    0.000    0.000 
#    0.000    0.000    0.000    0.000    0.000    0.000 
#
# Total GULP energy -268593.431903 kJ/mol
# GULP energy per Si atom -5595.696498 kJ/mol
# Density = 2.371470 g / cm^3
# Si number density = 23.768802 Si / 1000 Ang^3
#
#
#
# Elastic Constant Matrix: (Units=GPa)
#
#
# Indices 1 2 3 4 5 6 
#
# 1 128.3900 14.5018 87.9656 0.0000 0.0000 0.0000
# 2 14.5018 73.9623 25.3382 0.0000 0.0000 0.0000
# 3 87.9656 25.3382 178.2911 0.0000 0.0000 0.0000
# 4 0.0000 0.0000 0.0000 41.0704 0.0000 0.0000
# 5 0.0000 0.0000 0.0000 0.0000 -98.9224 0.0000
# 6 0.0000 0.0000 0.0000 0.0000 0.0000 19.5428
#
#
#
# Elastic Compliance Matrix: (Units=1/GPa)
#
#
# Indices 1 2 3 4 5 6 
#
# 1 0.011774 -0.000335 -0.005762 0.000000 0.000000 0.000000
# 2 -0.000335 0.014222 -0.001856 0.000000 0.000000 0.000000
# 3 -0.005762 -0.001856 0.008715 0.000000 0.000000 0.000000
# 4 0.000000 0.000000 0.000000 0.024348 0.000000 0.000000
# 5 0.000000 0.000000 0.000000 0.000000 -0.010109 0.000000
# 6 0.000000 0.000000 0.000000 0.000000 0.000000 0.051170
#
#
# Mechanical properties :
#
#
# Convention : Reuss Voigt Hill
#
# Bulk Modulus (GPa) = 53.17290 70.69496 61.93393
# Shear Modulus (GPa) = 40.88510 9.19400 25.03955
#
# Velocity S-wave (km/s) = 4.15193 1.96888 3.24923
# Velocity P-wave (km/s) = 6.73826 5.91405 6.33956
#
# Compressibility (1/GPa) = 0.01880657
#
# Stress axis : x y z
#
# Youngs Moduli (GPa) = 84.93251 70.31418 114.74184
#
# Poissons Ratio (x) = 0.02354 0.66109
# Poissons Ratio (y) = 0.02843 0.21296
# Poissons Ratio (z) = 0.48934 0.13050
#
# Static dielectric constant tensor:
#      x y z
#    x 1.789720 0.000000 0.000000 
#    y 0.000000 2.057150 0.000000 
#    z 0.000000 0.000000 1.901590 
# 
# From -- ./inp_files/12674.got.cif
#   From: 2010.05.17/outbox.cif.g08.bks.cpg/sg56_7_cif.got.tgz:12674.got - 2010.06.03 13:42:01.
