data_PCOD9430976
_publ_section_title
;
Structure prediction by ZEFSAII (Michael W. Deem and Ramdas Pophale) SiO2 
 PCOD9430976
Probable space group: P C C N
;
_chemical_formula_sum "Si O2"
_cell_formula_units_Z 40
_cell_length_a 10.346010
_cell_length_b 8.440676
_cell_length_c 19.315458
_cell_angle_alpha 90.000000
_cell_angle_beta 90.000000
_cell_angle_gamma 90.000000
_cell_volume 1686.767149
_symmetry_space_group_name_H-M "P C C N"
_symmetry_group_IT_number 56
_symmetry_cell_setting 'orthorhombic'
loop_
_space_group_symop_operation_xyz
x,y,z
1/2-x,1/2-y,z
1/2+x,-y,1/2-z
-x,1/2+y,1/2-z
-x,-y,-z
1/2+x,1/2+y,-z
1/2-x,y,1/2+z
x,1/2-y,1/2+z
loop_
_atom_site_type_symbol
_atom_site_label
_atom_site_fract_x
_atom_site_fract_y
_atom_site_fract_z
Si Si1 0.466783 0.048554 0.635500
Si Si2 0.252692 0.436568 0.398510
Si Si3 0.735537 0.436834 0.453675
Si Si4 0.875073 0.631901 0.837782
Si Si5 0.713589 0.432047 0.742589
O O1 0.605735 0.986538 0.616189
O O2 0.370379 0.020294 0.570044
O O3 0.393212 0.957588 0.697775
O O4 0.481825 0.233066 0.657677
O O5 0.250000 0.250000 0.409779
O O6 0.296841 0.524517 0.467572
O O7 0.327839 0.486005 0.328904
O O8 0.750000 0.250000 0.442367
O O9 0.630602 0.514231 0.402486
O O10 0.750000 0.750000 0.842378
O O11 0.839992 0.527613 0.771230
O O12 0.750000 0.250000 0.735123
#
# Coordination Sequence:
#
# PCOD9430976 Si02
#       5
#     8   8   8   8   8
#     4  10  21  40  64  86 119 168 204 249 322 379
#     4  12  24  39  60  91 125 161 212 266 308 372
#     4  10  20  39  62  91 123 156 204 260 315 382
#     4   8  16  36  61  82 113 159 200 241 304 380
#     4  10  21  38  59  90 122 158 205 256 311 379
#
# _framework density 23.714001
#
# number of rings (size 3 to 8) (size 9 to 14) (size 15 to 20)
#    0.000    2.400    0.000    7.200    0.000    3.200 
#    0.000    8.000    0.000    0.000    0.000    0.000 
#    0.000    0.000    0.000    0.000    0.000    0.000 
#
# Total GULP energy -223751.438031 kJ/mol
# GULP energy per Si atom -5593.785951 kJ/mol
# Density = 2.366003 g / cm^3
# Si number density = 23.714001 Si / 1000 Ang^3
#
#
#
# Elastic Constant Matrix: (Units=GPa)
#
#
# Indices 1 2 3 4 5 6 
#
# 1 46.6965 15.8387 2.4673 0.0000 0.0000 0.0000
# 2 15.8387 171.6132 16.1014 0.0000 0.0000 0.0000
# 3 2.4673 16.1014 146.8861 0.0000 0.0000 0.0000
# 4 0.0000 0.0000 0.0000 43.5705 0.0000 0.0000
# 5 0.0000 0.0000 0.0000 0.0000 15.8076 0.0000
# 6 0.0000 0.0000 0.0000 0.0000 0.0000 36.5552
#
#
#
# Elastic Compliance Matrix: (Units=1/GPa)
#
#
# Indices 1 2 3 4 5 6 
#
# 1 0.022110 -0.002027 -0.000149 0.000000 0.000000 0.000000
# 2 -0.002027 0.006073 -0.000632 0.000000 0.000000 0.000000
# 3 -0.000149 -0.000632 0.006880 0.000000 0.000000 0.000000
# 4 0.000000 0.000000 0.000000 0.022951 0.000000 0.000000
# 5 0.000000 0.000000 0.000000 0.000000 0.063261 0.000000
# 6 0.000000 0.000000 0.000000 0.000000 0.000000 0.027356
#
#
# Mechanical properties :
#
#
# Convention : Reuss Voigt Hill
#
# Bulk Modulus (GPa) = 33.95801 48.22341 41.09071
# Shear Modulus (GPa) = 30.47618 41.23920 35.85769
#
# Velocity S-wave (km/s) = 3.58880 4.17468 3.89278
# Velocity P-wave (km/s) = 5.61458 6.60431 6.12945
#
# Compressibility (1/GPa) = 0.02944814
#
# Stress axis : x y z
#
# Youngs Moduli (GPa) = 45.22809 164.65320 145.35414
#
# Poissons Ratio (x) = 0.33369 0.02169
# Poissons Ratio (y) = 0.09166 0.09182
# Poissons Ratio (z) = 0.00675 0.10401
#
# Static dielectric constant tensor:
#      x y z
#    x 2.038360 0.000000 0.000000 
#    y 0.000000 1.877180 0.000000 
#    z 0.000000 0.000000 1.895710 
# 
# From -- ./inp_files/15392.got.cif
#   From: 2010.05.17/outbox.cif.g08.bks.cpg/sg56_8_cif.got.tgz:15392.got - 2010.06.03 13:42:01.
