data_PCOD9430594
_publ_section_title
;
Structure prediction by ZEFSAII (Michael W. Deem and Ramdas Pophale) SiO2 
 PCOD9430594
Probable space group: P C C N
;
_chemical_formula_sum "Si O2"
_cell_formula_units_Z 48
_cell_length_a 8.084147
_cell_length_b 15.369181
_cell_length_c 19.266308
_cell_angle_alpha 90.000000
_cell_angle_beta 90.000000
_cell_angle_gamma 90.000000
_cell_volume 2393.775546
_symmetry_space_group_name_H-M "P C C N"
_symmetry_group_IT_number 56
_symmetry_cell_setting 'orthorhombic'
loop_
_space_group_symop_operation_xyz
x,y,z
1/2-x,1/2-y,z
1/2+x,-y,1/2-z
-x,1/2+y,1/2-z
-x,-y,-z
1/2+x,1/2+y,-z
1/2-x,y,1/2+z
x,1/2-y,1/2+z
loop_
_atom_site_type_symbol
_atom_site_label
_atom_site_fract_x
_atom_site_fract_y
_atom_site_fract_z
Si Si1 0.467458 0.108600 0.550576
Si Si2 0.872978 0.171091 0.395543
Si Si3 0.076351 0.405568 0.016454
Si Si4 0.061890 0.218244 0.792783
Si Si5 0.553902 0.722844 0.366374
Si Si6 0.066860 0.926332 0.103394
O O1 0.274639 0.100466 0.525614
O O2 0.517014 0.193873 0.592975
O O3 0.558703 0.103041 0.477249
O O4 0.493804 0.024945 0.599563
O O5 0.750000 0.250000 0.416856
O O6 0.760369 0.087144 0.380423
O O7 0.010543 0.153719 0.453287
O O8 0.955162 0.204908 0.325864
O O9 0.016064 0.361615 0.087668
O O10 0.000000 0.500000 0.000000
O O11 0.250000 0.250000 0.794864
O O12 0.010084 0.205952 0.713171
O O13 0.030964 0.135462 0.843312
O O14 0.750000 0.750000 0.366896
#
# Coordination Sequence:
#
# PCOD9430594 Si02
#       6
#     8   8   8   8   8   8
#     4  10  20  38  62  87 117 157 198 248 296 353
#     4  10  20  35  58  87 116 153 195 243 296 354
#     4  11  20  37  63  90 118 150 201 252 295 353
#     4  10  20  38  58  81 117 161 198 239 300 360
#     4   9  20  37  58  85 117 156 197 239 294 356
#     4  10  20  36  59  85 119 152 198 247 297 352
#
# _framework density 20.052005000000001
#
# number of rings (size 3 to 8) (size 9 to 14) (size 15 to 20)
#    0.000    2.000    1.667    3.000    0.000    1.333 
#    3.000    7.500    0.000    0.000    0.000    0.000 
#    0.000    0.000    0.000    0.000    0.000    0.000 
#
# Total GULP energy -267632.831914 kJ/mol
# GULP energy per Si atom -5575.683998 kJ/mol
# Density = 2.000637 g / cm^3
# Si number density = 20.052005 Si / 1000 Ang^3
#
#
#
# Elastic Constant Matrix: (Units=GPa)
#
#
# Indices 1 2 3 4 5 6 
#
# 1 34.6258 20.1992 23.3455 0.0000 0.0000 0.0000
# 2 20.1992 100.8039 73.7012 0.0000 0.0000 0.0000
# 3 23.3455 73.7012 143.6172 0.0000 0.0000 0.0000
# 4 0.0000 0.0000 0.0000 7.9815 0.0000 0.0000
# 5 0.0000 0.0000 0.0000 0.0000 16.7665 0.0000
# 6 0.0000 0.0000 0.0000 0.0000 0.0000 23.0532
#
#
#
# Elastic Compliance Matrix: (Units=1/GPa)
#
#
# Indices 1 2 3 4 5 6 
#
# 1 0.033604 -0.004385 -0.003212 0.000000 0.000000 0.000000
# 2 -0.004385 0.016450 -0.007729 0.000000 0.000000 0.000000
# 3 -0.003212 -0.007729 0.011451 0.000000 0.000000 0.000000
# 4 0.000000 0.000000 0.000000 0.125290 0.000000 0.000000
# 5 0.000000 0.000000 0.000000 0.000000 0.059643 0.000000
# 6 0.000000 0.000000 0.000000 0.000000 0.000000 0.043378
#
#
# Mechanical properties :
#
#
# Convention : Reuss Voigt Hill
#
# Bulk Modulus (GPa) = 32.41178 57.05985 44.73581
# Shear Modulus (GPa) = 15.11706 20.34697 17.73201
#
# Velocity S-wave (km/s) = 2.74869 3.18891 2.97695
# Velocity P-wave (km/s) = 5.12569 6.48664 5.84591
#
# Compressibility (1/GPa) = 0.03085298
#
# Stress axis : x y z
#
# Youngs Moduli (GPa) = 29.75839 60.79117 87.32578
#
# Poissons Ratio (x) = 0.26658 0.28050
# Poissons Ratio (y) = 0.13049 0.67493
# Poissons Ratio (z) = 0.09559 0.46985
#
# Static dielectric constant tensor:
#      x y z
#    x 1.778110 0.000000 0.000000 
#    y 0.000000 1.762600 0.000000 
#    z 0.000000 0.000000 1.704170 
# 
# From -- ./inp_files/14779.got.cif
#   From: 2010.05.17/outbox.cif.g08.bks.cpg/sg56_8_cif.got.tgz:14779.got - 2010.06.03 13:42:01.
