data_PCOD9430492
_publ_section_title
;
Structure prediction by ZEFSAII (Michael W. Deem and Ramdas Pophale) SiO2 
 PCOD9430492
Probable space group: P C C N
;
_chemical_formula_sum "Si O2"
_cell_formula_units_Z 48
_cell_length_a 5.163683
_cell_length_b 22.244036
_cell_length_c 20.456749
_cell_angle_alpha 90.000000
_cell_angle_beta 90.000000
_cell_angle_gamma 90.000000
_cell_volume 2349.685727
_symmetry_space_group_name_H-M "P C C N"
_symmetry_group_IT_number 56
_symmetry_cell_setting 'orthorhombic'
loop_
_space_group_symop_operation_xyz
x,y,z
1/2-x,1/2-y,z
1/2+x,-y,1/2-z
-x,1/2+y,1/2-z
-x,-y,-z
1/2+x,1/2+y,-z
1/2-x,y,1/2+z
x,1/2-y,1/2+z
loop_
_atom_site_type_symbol
_atom_site_label
_atom_site_fract_x
_atom_site_fract_y
_atom_site_fract_z
Si Si1 0.863811 0.885544 0.979807
Si Si2 0.726361 0.055012 0.687337
Si Si3 0.629497 0.315277 0.500446
Si Si4 0.223609 0.418457 0.256590
Si Si5 0.931196 0.886697 0.610054
Si Si6 0.077433 0.011193 0.574742
O O1 0.642956 0.834324 0.966357
O O2 0.792181 0.900871 0.055784
O O3 0.149069 0.860615 0.976295
O O4 0.812610 0.943104 0.935109
O O5 0.447422 0.083154 0.701831
O O6 0.941846 0.092743 0.727381
O O7 0.858076 0.043645 0.617413
O O8 0.712799 0.987371 0.717149
O O9 0.750000 0.250000 0.509218
O O10 0.574889 0.330910 0.423890
O O11 0.312211 0.379924 0.318919
O O12 0.113935 0.946215 0.608203
O O13 0.000000 0.000000 0.500000
#
# Coordination Sequence:
#
# PCOD9430492 Si02
#       6
#     8   8   8   8   8   8
#     4   9  20  32  51  74 103 131 165 206 260 306
#     4   9  18  29  45  67 100 136 162 193 236 301
#     4  10  20  34  50  75  99 131 171 214 260 303
#     4   9  17  30  44  68  99 131 163 194 242 290
#     4   8  19  31  52  75 104 132 164 211 258 310
#     4   9  17  36  47  80 107 141 165 207 255 320
#
# _framework density 20.428263000000001
#
# number of rings (size 3 to 8) (size 9 to 14) (size 15 to 20)
#    1.000    2.000    0.000    0.500    2.333    2.000 
#    9.000    0.000    0.000    0.000    0.000    7.000 
#    0.000    0.000    0.000    0.000    0.000    0.000 
#
# Total GULP energy -267301.961209 kJ/mol
# GULP energy per Si atom -5568.790859 kJ/mol
# Density = 2.038177 g / cm^3
# Si number density = 20.428263 Si / 1000 Ang^3
#
#
#
# Elastic Constant Matrix: (Units=GPa)
#
#
# Indices 1 2 3 4 5 6 
#
# 1 70.2527 -6.1805 7.4248 0.0000 0.0000 0.0000
# 2 -6.1805 22.2573 -1.9152 0.0000 0.0000 0.0000
# 3 7.4248 -1.9152 66.3956 0.0000 0.0000 0.0000
# 4 0.0000 0.0000 0.0000 3.8573 0.0000 0.0000
# 5 0.0000 0.0000 0.0000 0.0000 22.0079 0.0000
# 6 0.0000 0.0000 0.0000 0.0000 0.0000 9.3839
#
#
#
# Elastic Compliance Matrix: (Units=1/GPa)
#
#
# Indices 1 2 3 4 5 6 
#
# 1 0.014745 0.003962 -0.001535 0.000000 0.000000 0.000000
# 2 0.003962 0.046106 0.000887 0.000000 0.000000 0.000000
# 3 -0.001535 0.000887 0.015258 0.000000 0.000000 0.000000
# 4 0.000000 0.000000 0.000000 0.259251 0.000000 0.000000
# 5 0.000000 0.000000 0.000000 0.000000 0.045438 0.000000
# 6 0.000000 0.000000 0.000000 0.000000 0.000000 0.106565
#
#
# Mechanical properties :
#
#
# Convention : Reuss Voigt Hill
#
# Bulk Modulus (GPa) = 12.08625 17.50709 14.79667
# Shear Modulus (GPa) = 9.83644 17.68824 13.76234
#
# Velocity S-wave (km/s) = 2.19672 2.94576 2.59837
# Velocity P-wave (km/s) = 3.51616 4.48984 4.03249
#
# Compressibility (1/GPa) = 0.08273865
#
# Stress axis : x y z
#
# Youngs Moduli (GPa) = 67.81907 21.68927 65.53751
#
# Poissons Ratio (x) = -0.08594 0.10057
# Poissons Ratio (y) = -0.26873 -0.05812
# Poissons Ratio (z) = 0.10408 -0.01923
#
# Static dielectric constant tensor:
#      x y z
#    x 1.785800 0.000000 0.000000 
#    y 0.000000 1.739950 0.000000 
#    z 0.000000 0.000000 1.788600 
# 
# From -- ./inp_files/17673.got.cif
#   From: 2010.05.17/outbox.cif.g08.bks.cpg/sg56_9_cif.got.tgz:17673.got - 2010.06.03 13:42:01.
