data_PCOD9430926
_publ_section_title
;
Structure prediction by ZEFSAII (Michael W. Deem and Ramdas Pophale) SiO2 
 PCOD9430926
Probable space group: P C C N
;
_chemical_formula_sum "Si O2"
_cell_formula_units_Z 44
_cell_length_a 6.488595
_cell_length_b 12.449100
_cell_length_c 25.654044
_cell_angle_alpha 90.000000
_cell_angle_beta 90.000000
_cell_angle_gamma 90.000000
_cell_volume 2072.261022
_symmetry_space_group_name_H-M "P C C N"
_symmetry_group_IT_number 56
_symmetry_cell_setting 'orthorhombic'
loop_
_space_group_symop_operation_xyz
x,y,z
1/2-x,1/2-y,z
1/2+x,-y,1/2-z
-x,1/2+y,1/2-z
-x,-y,-z
1/2+x,1/2+y,-z
1/2-x,y,1/2+z
x,1/2-y,1/2+z
loop_
_atom_site_type_symbol
_atom_site_label
_atom_site_fract_x
_atom_site_fract_y
_atom_site_fract_z
Si Si1 0.055157 0.401409 0.309484
Si Si2 0.361104 0.854080 0.397293
Si Si3 0.362745 0.591105 0.298142
Si Si4 0.752598 0.943994 0.369508
Si Si5 0.750000 0.750000 0.605571
Si Si6 0.574681 0.960848 0.056242
O O1 0.264890 0.469111 0.294082
O O2 0.104226 0.312675 0.352955
O O3 0.931828 0.365750 0.257828
O O4 0.901778 0.484733 0.336301
O O5 0.250000 0.750000 0.420428
O O6 0.305271 0.854883 0.335550
O O7 0.606487 0.861135 0.400182
O O8 0.254237 0.958728 0.422694
O O9 0.570499 0.600254 0.332175
O O10 0.875836 0.019194 0.408406
O O11 0.850352 0.840636 0.568588
O O12 0.500000 0.000000 0.000000
#
# Coordination Sequence:
#
# PCOD9430926 Si02
#       6
#     8   8   8   8   4   8
#     4  11  21  39  65  99 143 177 224 276 343 421
#     4  10  23  44  64 100 134 181 235 278 345 431
#     4  10  20  38  65  98 135 182 219 267 339 415
#     4  10  20  42  67  91 136 178 227 284 342 418
#     4  12  24  46  66 108 138 176 246 296 340 430
#     4  11  26  47  69  98 134 178 238 303 358 413
#
# _framework density 21.232844
#
# number of rings (size 3 to 8) (size 9 to 14) (size 15 to 20)
#    0.000    1.455    7.273    0.000    0.000    7.273 
#    6.545    0.000    0.000    0.000    0.000    0.000 
#    0.000    0.000    0.000    0.000    0.000    0.000 
#
# Total GULP energy -245182.444564 kJ/mol
# GULP energy per Si atom -5572.328286 kJ/mol
# Density = 2.118452 g / cm^3
# Si number density = 21.232844 Si / 1000 Ang^3
#
#
#
# Elastic Constant Matrix: (Units=GPa)
#
#
# Indices 1 2 3 4 5 6 
#
# 1 117.6863 38.5403 22.0123 0.0000 0.0000 0.0000
# 2 38.5403 110.2520 32.6172 0.0000 0.0000 0.0000
# 3 22.0123 32.6172 113.6005 0.0000 0.0000 0.0000
# 4 0.0000 0.0000 0.0000 12.9472 0.0000 0.0000
# 5 0.0000 0.0000 0.0000 0.0000 4.9192 0.0000
# 6 0.0000 0.0000 0.0000 0.0000 0.0000 21.5062
#
#
#
# Elastic Compliance Matrix: (Units=1/GPa)
#
#
# Indices 1 2 3 4 5 6 
#
# 1 0.009696 -0.003097 -0.000990 0.000000 0.000000 0.000000
# 2 -0.003097 0.010901 -0.002530 0.000000 0.000000 0.000000
# 3 -0.000990 -0.002530 0.009721 0.000000 0.000000 0.000000
# 4 0.000000 0.000000 0.000000 0.077237 0.000000 0.000000
# 5 0.000000 0.000000 0.000000 0.000000 0.203283 0.000000
# 6 0.000000 0.000000 0.000000 0.000000 0.000000 0.046498
#
#
# Mechanical properties :
#
#
# Convention : Reuss Voigt Hill
#
# Bulk Modulus (GPa) = 58.52831 58.65316 58.59073
# Shear Modulus (GPa) = 13.28852 24.43245 18.86048
#
# Velocity S-wave (km/s) = 2.50441 3.39586 2.98362
# Velocity P-wave (km/s) = 5.99896 6.56198 6.28678
#
# Compressibility (1/GPa) = 0.01708575
#
# Stress axis : x y z
#
# Youngs Moduli (GPa) = 103.13087 91.73399 102.87065
#
# Poissons Ratio (x) = 0.28408 0.10181
# Poissons Ratio (y) = 0.31937 0.26025
# Poissons Ratio (z) = 0.10207 0.23208
#
# Static dielectric constant tensor:
#      x y z
#    x 1.816810 0.000000 0.000000 
#    y 0.000000 1.867640 0.000000 
#    z 0.000000 0.000000 1.994010 
# 
# From -- ./inp_files/21629.got.cif
#   From: 2010.05.17/outbox.cif.g08.bks.cpg/sg56_11_cif.got.tgz:21629.got - 2010.06.03 13:42:01.
