data_PCOD9430077
_publ_section_title
;
Structure prediction by ZEFSAII (Michael W. Deem and Ramdas Pophale) SiO2 
 PCOD9430077
Probable space group: P C C N
;
_chemical_formula_sum "Si O2"
_cell_formula_units_Z 32
_cell_length_a 5.060369
_cell_length_b 18.015477
_cell_length_c 17.340087
_cell_angle_alpha 90.000000
_cell_angle_beta 90.000000
_cell_angle_gamma 90.000000
_cell_volume 1580.808361
_symmetry_space_group_name_H-M "P C C N"
_symmetry_group_IT_number 56
_symmetry_cell_setting 'orthorhombic'
loop_
_space_group_symop_operation_xyz
x,y,z
1/2-x,1/2-y,z
1/2+x,-y,1/2-z
-x,1/2+y,1/2-z
-x,-y,-z
1/2+x,1/2+y,-z
1/2-x,y,1/2+z
x,1/2-y,1/2+z
loop_
_atom_site_type_symbol
_atom_site_label
_atom_site_fract_x
_atom_site_fract_y
_atom_site_fract_z
Si Si1 0.234400 0.381289 0.371855
Si Si2 0.879566 0.952622 0.771482
Si Si3 0.645486 0.461513 0.071203
Si Si4 0.215147 0.666877 0.035226
O O1 0.268362 0.384875 0.279800
O O2 0.297628 0.467658 0.394153
O O3 0.453028 0.333660 0.413916
O O4 0.953640 0.358506 0.407601
O O5 0.947774 0.936882 0.860527
O O6 0.656690 0.016510 0.763304
O O7 0.500000 0.500000 0.000000
O O8 0.797939 0.392590 0.034215
O O9 0.250000 0.750000 0.005476
#
# Coordination Sequence:
#
# PCOD9430077 Si02
#       4
#     8   8   8   8
#     4  10  20  37  57  82 113 150 189 232 282 338
#     4  10  19  33  56  86 112 141 185 238 282 330
#     4   9  19  35  59  85 109 141 188 235 280 329
#     4  11  22  37  57  83 114 152 190 233 283 337
#
# _framework density 20.242809000000001
#
# number of rings (size 3 to 8) (size 9 to 14) (size 15 to 20)
#    0.000    2.000    0.000    6.000    0.000    6.000 
#    0.000    1.250    0.000   12.000    0.000    0.000 
#    0.000    0.000    0.000    0.000    0.000    0.000 
#
# Total GULP energy -178358.852393 kJ/mol
# GULP energy per Si atom -5573.714137 kJ/mol
# Density = 2.019674 g / cm^3
# Si number density = 20.242809 Si / 1000 Ang^3
#
#
#
# Elastic Constant Matrix: (Units=GPa)
#
#
# Indices 1 2 3 4 5 6 
#
# 1 66.1958 -26.8478 3.7238 0.0000 0.0000 0.0000
# 2 -26.8478 64.3630 -9.0546 0.0000 0.0000 0.0000
# 3 3.7238 -9.0546 103.5286 0.0000 0.0000 0.0000
# 4 0.0000 0.0000 0.0000 12.6941 0.0000 0.0000
# 5 0.0000 0.0000 0.0000 0.0000 25.9011 0.0000
# 6 0.0000 0.0000 0.0000 0.0000 0.0000 19.0153
#
#
#
# Elastic Compliance Matrix: (Units=1/GPa)
#
#
# Indices 1 2 3 4 5 6 
#
# 1 0.018183 0.007586 0.000009 0.000000 0.000000 0.000000
# 2 0.007586 0.018895 0.001380 0.000000 0.000000 0.000000
# 3 0.000009 0.001380 0.009779 0.000000 0.000000 0.000000
# 4 0.000000 0.000000 0.000000 0.078777 0.000000 0.000000
# 5 0.000000 0.000000 0.000000 0.000000 0.038608 0.000000
# 6 0.000000 0.000000 0.000000 0.000000 0.000000 0.052589
#
#
# Mechanical properties :
#
#
# Convention : Reuss Voigt Hill
#
# Bulk Modulus (GPa) = 15.43019 18.85893 17.14456
# Shear Modulus (GPa) = 22.67731 29.27316 25.97523
#
# Velocity S-wave (km/s) = 3.35067 3.80689 3.58604
# Velocity P-wave (km/s) = 4.75483 5.35348 5.06301
#
# Compressibility (1/GPa) = 0.06480800
#
# Stress axis : x y z
#
# Youngs Moduli (GPa) = 54.99675 52.92313 102.25479
#
# Poissons Ratio (x) = -0.40147 -0.00097
# Poissons Ratio (y) = -0.41720 -0.14108
# Poissons Ratio (z) = -0.00052 -0.07302
#
# Static dielectric constant tensor:
#      x y z
#    x 1.727020 0.000000 0.000000 
#    y 0.000000 1.740570 0.000000 
#    z 0.000000 0.000000 1.829520 
# 
# From -- ./inp_files/12473.got.cif
#   From: 2010.05.17/outbox.cif.g08.bks.cpg/sg56_7_cif.got.tgz:12473.got - 2010.06.03 13:42:01.
