data_PCOD9430156
_publ_section_title
;
Structure prediction by ZEFSAII (Michael W. Deem and Ramdas Pophale) SiO2 
 PCOD9430156
Probable space group: P C C N
;
_chemical_formula_sum "Si O2"
_cell_formula_units_Z 48
_cell_length_a 7.975345
_cell_length_b 14.810956
_cell_length_c 15.745518
_cell_angle_alpha 90.000000
_cell_angle_beta 90.000000
_cell_angle_gamma 90.000000
_cell_volume 1859.899696
_symmetry_space_group_name_H-M "P C C N"
_symmetry_group_IT_number 56
_symmetry_cell_setting 'orthorhombic'
loop_
_space_group_symop_operation_xyz
x,y,z
1/2-x,1/2-y,z
1/2+x,-y,1/2-z
-x,1/2+y,1/2-z
-x,-y,-z
1/2+x,1/2+y,-z
1/2-x,y,1/2+z
x,1/2-y,1/2+z
loop_
_atom_site_type_symbol
_atom_site_label
_atom_site_fract_x
_atom_site_fract_y
_atom_site_fract_z
Si Si1 0.312707 0.013892 0.538221
Si Si2 0.855761 0.439662 0.189938
Si Si3 0.697805 0.147780 0.369729
Si Si4 0.496422 0.415061 0.194556
Si Si5 0.146073 0.174961 0.946618
Si Si6 0.551029 0.237107 0.107413
O O1 0.348101 0.055859 0.630810
O O2 0.240740 0.093117 0.480672
O O3 0.500000 0.000000 0.500000
O O4 0.225867 0.919135 0.558837
O O5 0.788942 0.387064 0.274534
O O6 0.669867 0.453432 0.152682
O O7 0.962091 0.366937 0.136750
O O8 0.950669 0.529750 0.219986
O O9 0.750000 0.250000 0.378770
O O10 0.500782 0.142281 0.387398
O O11 0.507076 0.306632 0.184688
O O12 0.250000 0.250000 0.899365
O O13 0.056599 0.225259 0.027870
O O14 0.750000 0.250000 0.089309
#
# Coordination Sequence:
#
# PCOD9430156 Si02
#       6
#     8   8   8   8   8   8
#     4   8  17  34  53  73 103 141 175 214 265 317
#     4  10  20  35  54  81 108 139 179 222 267 323
#     4  10  19  35  56  77 108 147 178 213 271 333
#     4   9  18  33  54  77 106 138 174 219 269 319
#     4  10  20  35  54  79 106 138 182 230 270 311
#     4   9  18  34  54  75 103 141 181 218 266 329
#
# _framework density 25.807843999999999
#
# number of rings (size 3 to 8) (size 9 to 14) (size 15 to 20)
#    0.000    2.667    0.000    2.000    0.000    5.333 
#    0.000   11.667    0.000    0.000    0.000    0.000 
#    0.000    0.000    0.000    0.000    0.000    0.000 
#
# Total GULP energy -267944.849239 kJ/mol
# GULP energy per Si atom -5582.184359 kJ/mol
# Density = 2.574910 g / cm^3
# Si number density = 25.807844 Si / 1000 Ang^3
#
#
#
# Elastic Constant Matrix: (Units=GPa)
#
#
# Indices 1 2 3 4 5 6 
#
# 1 48.2379 25.7071 3.2953 0.0000 0.0000 0.0000
# 2 25.7071 98.2099 19.9169 0.0000 0.0000 0.0000
# 3 3.2953 19.9169 59.4760 0.0000 0.0000 0.0000
# 4 0.0000 0.0000 0.0000 -6.3193 0.0000 0.0000
# 5 0.0000 0.0000 0.0000 0.0000 17.3420 0.0000
# 6 0.0000 0.0000 0.0000 0.0000 0.0000 42.1310
#
#
#
# Elastic Compliance Matrix: (Units=1/GPa)
#
#
# Indices 1 2 3 4 5 6 
#
# 1 0.024130 -0.006485 0.000835 0.000000 0.000000 0.000000
# 2 -0.006485 0.012667 -0.003883 0.000000 0.000000 0.000000
# 3 0.000835 -0.003883 0.018067 0.000000 0.000000 0.000000
# 4 0.000000 0.000000 0.000000 -0.158246 0.000000 0.000000
# 5 0.000000 0.000000 0.000000 0.000000 0.057664 0.000000
# 6 0.000000 0.000000 0.000000 0.000000 0.000000 0.023735
#
#
# Mechanical properties :
#
#
# Convention : Reuss Voigt Hill
#
# Bulk Modulus (GPa) = 27.93441 33.75138 30.84289
# Shear Modulus (GPa) = 554.53535 21.09770 287.81653
#
# Velocity S-wave (km/s) = 14.67438 2.86228 10.57190
# Velocity P-wave (km/s) = 17.26163 4.90203 12.68846
#
# Compressibility (1/GPa) = 0.03579815
#
# Stress axis : x y z
#
# Youngs Moduli (GPa) = 41.44252 78.94357 55.34827
#
# Poissons Ratio (x) = 0.51198 -0.04621
# Poissons Ratio (y) = 0.26877 0.21489
# Poissons Ratio (z) = -0.03460 0.30651
#
# Static dielectric constant tensor:
#      x y z
#    x 2.106620 0.000000 0.000000 
#    y 0.000000 2.140760 0.000000 
#    z 0.000000 0.000000 2.065570 
# 
# From -- ./inp_files/18074.got.cif
#   From: 2010.05.17/outbox.cif.g08.bks.cpg/sg56_10_cif.got.tgz:18074.got - 2010.06.03 13:42:01.
