data_PCOD9430757
_publ_section_title
;
Structure prediction by ZEFSAII (Michael W. Deem and Ramdas Pophale) SiO2 
 PCOD9430757
Probable space group: P C C N
;
_chemical_formula_sum "Si O2"
_cell_formula_units_Z 40
_cell_length_a 8.792325
_cell_length_b 18.305949
_cell_length_c 10.249907
_cell_angle_alpha 90.000000
_cell_angle_beta 90.000000
_cell_angle_gamma 90.000000
_cell_volume 1649.741525
_symmetry_space_group_name_H-M "P C C N"
_symmetry_group_IT_number 56
_symmetry_cell_setting 'orthorhombic'
loop_
_space_group_symop_operation_xyz
x,y,z
1/2-x,1/2-y,z
1/2+x,-y,1/2-z
-x,1/2+y,1/2-z
-x,-y,-z
1/2+x,1/2+y,-z
1/2-x,y,1/2+z
x,1/2-y,1/2+z
loop_
_atom_site_type_symbol
_atom_site_label
_atom_site_fract_x
_atom_site_fract_y
_atom_site_fract_z
Si Si1 0.844116 0.674907 0.442018
Si Si2 0.139823 0.521787 0.142317
Si Si3 0.909333 0.270645 0.981477
Si Si4 0.632553 0.422144 0.632272
Si Si5 0.366705 0.134706 0.836656
O O1 0.750000 0.750000 0.421608
O O2 0.775530 0.635615 0.567320
O O3 0.823882 0.629602 0.312327
O O4 0.018272 0.699353 0.452736
O O5 0.259878 0.552484 0.247728
O O6 0.041952 0.447596 0.159919
O O7 0.994263 0.575429 0.141022
O O8 0.198324 0.534504 0.994952
O O9 0.750000 0.250000 0.918792
O O10 0.881001 0.337191 0.084211
O O11 0.037414 0.292751 0.875899
#
# Coordination Sequence:
#
# PCOD9430757 Si02
#       5
#     8   8   8   8   8
#     4  10  20  37  60  88 122 162 204 251 311 376
#     4  10  23  44  64  92 126 163 218 265 317 380
#     4  10  21  38  61  92 128 160 204 260 320 379
#     4  10  23  42  65  93 127 168 212 267 320 379
#     4  10  22  39  61  89 122 163 209 258 311 376
#
# _framework density 24.246221999999999
#
# number of rings (size 3 to 8) (size 9 to 14) (size 15 to 20)
#    0.000    2.000    0.000    3.000    0.000   11.200 
#    0.000   16.000    0.000    0.000    0.000    0.000 
#    0.000    0.000    0.000    0.000    0.000    0.000 
#
# Total GULP energy -223314.151194 kJ/mol
# GULP energy per Si atom -5582.853780 kJ/mol
# Density = 2.419104 g / cm^3
# Si number density = 24.246222 Si / 1000 Ang^3
#
#
#
# Elastic Constant Matrix: (Units=GPa)
#
#
# Indices 1 2 3 4 5 6 
#
# 1 126.3434 26.2163 67.5458 0.0000 0.0000 0.0000
# 2 26.2163 35.1333 3.7845 0.0000 0.0000 0.0000
# 3 67.5458 3.7845 130.7525 0.0000 0.0000 0.0000
# 4 0.0000 0.0000 0.0000 13.3257 0.0000 0.0000
# 5 0.0000 0.0000 0.0000 0.0000 34.5511 0.0000
# 6 0.0000 0.0000 0.0000 0.0000 0.0000 31.3507
#
#
#
# Elastic Compliance Matrix: (Units=1/GPa)
#
#
# Indices 1 2 3 4 5 6 
#
# 1 0.013397 -0.009280 -0.006652 0.000000 0.000000 0.000000
# 2 -0.009280 0.034981 0.003782 0.000000 0.000000 0.000000
# 3 -0.006652 0.003782 0.010975 0.000000 0.000000 0.000000
# 4 0.000000 0.000000 0.000000 0.075043 0.000000 0.000000
# 5 0.000000 0.000000 0.000000 0.000000 0.028943 0.000000
# 6 0.000000 0.000000 0.000000 0.000000 0.000000 0.031897
#
#
# Mechanical properties :
#
#
# Convention : Reuss Voigt Hill
#
# Bulk Modulus (GPa) = 28.52984 54.14693 41.33839
# Shear Modulus (GPa) = 21.62435 28.82433 25.22434
#
# Velocity S-wave (km/s) = 2.98965 3.45166 3.22893
# Velocity P-wave (km/s) = 4.86925 6.18594 5.56666
#
# Compressibility (1/GPa) = 0.03505102
#
# Stress axis : x y z
#
# Youngs Moduli (GPa) = 74.64375 28.58733 91.11578
#
# Poissons Ratio (x) = 0.26530 0.60612
# Poissons Ratio (y) = 0.69271 -0.34456
# Poissons Ratio (z) = 0.49654 -0.10811
#
# Static dielectric constant tensor:
#      x y z
#    x 1.916710 0.000000 0.000000 
#    y 0.000000 2.167080 0.000000 
#    z 0.000000 0.000000 1.998710 
# 
# From -- ./inp_files/6307.got.cif
#   From: 2010.05.17/outbox.cif.g08.bks.cpg/sg56_4_cif.got.tgz:6307.got - 2010.06.03 13:42:01.
