data_PCOD9430960
_publ_section_title
;
Structure prediction by ZEFSAII (Michael W. Deem and Ramdas Pophale) SiO2 
 PCOD9430960
Probable space group: P C C N
;
_chemical_formula_sum "Si O2"
_cell_formula_units_Z 60
_cell_length_a 17.443416
_cell_length_b 11.238752
_cell_length_c 13.249873
_cell_angle_alpha 90.000000
_cell_angle_beta 90.000000
_cell_angle_gamma 90.000000
_cell_volume 2597.534603
_symmetry_space_group_name_H-M "P C C N"
_symmetry_group_IT_number 56
_symmetry_cell_setting 'orthorhombic'
loop_
_space_group_symop_operation_xyz
x,y,z
1/2-x,1/2-y,z
1/2+x,-y,1/2-z
-x,1/2+y,1/2-z
-x,-y,-z
1/2+x,1/2+y,-z
1/2-x,y,1/2+z
x,1/2-y,1/2+z
loop_
_atom_site_type_symbol
_atom_site_label
_atom_site_fract_x
_atom_site_fract_y
_atom_site_fract_z
Si Si1 0.619923 0.591582 0.758382
Si Si2 0.348008 0.644035 0.531157
Si Si3 0.750000 0.250000 0.798018
Si Si4 0.499615 0.069052 0.355143
Si Si5 0.733695 0.056426 0.161468
Si Si6 0.398185 0.855995 0.389806
Si Si7 0.016444 0.160175 0.430206
Si Si8 0.958274 0.692751 0.841274
O O1 0.581231 0.491705 0.830155
O O2 0.703894 0.556990 0.721132
O O3 0.568717 0.603135 0.655943
O O4 0.608921 0.716433 0.812850
O O5 0.297996 0.666237 0.629012
O O6 0.303268 0.565363 0.449218
O O7 0.362703 0.772366 0.476857
O O8 0.432322 0.603389 0.561843
O O9 0.800350 0.168261 0.724578
O O10 0.496523 0.199741 0.403414
O O11 0.463645 0.092418 0.243489
O O12 0.449270 0.971806 0.414511
O O13 0.823275 0.085090 0.160385
O O14 0.461261 0.770418 0.334999
O O15 0.048922 0.156531 0.543027
#
# Coordination Sequence:
#
# PCOD9430960 Si02
#       8
#     8   8   4   8   8   8   8   8
#     4  10  22  38  60  91 120 158 209 245 310 364
#     4  11  22  37  58  91 121 152 200 240 312 363
#     4  12  22  34  62  84 124 156 182 248 316 358
#     4  10  21  36  61  86 116 162 205 246 302 365
#     4  12  23  39  57  91 127 153 192 259 302 363
#     4  10  20  39  58  85 125 151 198 255 303 356
#     4  10  22  39  61  82 124 159 198 265 287 357
#     4   9  21  39  59  87 119 159 209 245 298 367
#
# _framework density 23.098827
#
# number of rings (size 3 to 8) (size 9 to 14) (size 15 to 20)
#    0.000    1.600    2.667    2.400    5.600    8.000 
#    0.000    2.667    0.000    1.600    0.000    0.000 
#    0.000    0.000    0.000    0.000    0.000    0.000 
#
# Total GULP energy -335231.595725 kJ/mol
# GULP energy per Si atom -5587.193262 kJ/mol
# Density = 2.304625 g / cm^3
# Si number density = 23.098827 Si / 1000 Ang^3
#
#
#
# Elastic Constant Matrix: (Units=GPa)
#
#
# Indices 1 2 3 4 5 6 
#
# 1 78.7996 19.4443 10.7845 0.0000 0.0000 0.0000
# 2 19.4443 65.9890 3.5815 0.0000 0.0000 0.0000
# 3 10.7845 3.5815 88.6412 0.0000 0.0000 0.0000
# 4 0.0000 0.0000 0.0000 -1.2517 0.0000 0.0000
# 5 0.0000 0.0000 0.0000 0.0000 23.2101 0.0000
# 6 0.0000 0.0000 0.0000 0.0000 0.0000 24.8723
#
#
#
# Elastic Compliance Matrix: (Units=1/GPa)
#
#
# Indices 1 2 3 4 5 6 
#
# 1 0.013889 -0.004010 -0.001528 0.000000 0.000000 0.000000
# 2 -0.004010 0.016345 -0.000173 0.000000 0.000000 0.000000
# 3 -0.001528 -0.000173 0.011474 0.000000 0.000000 0.000000
# 4 0.000000 0.000000 0.000000 -0.798922 0.000000 0.000000
# 5 0.000000 0.000000 0.000000 0.000000 0.043085 0.000000
# 6 0.000000 0.000000 0.000000 0.000000 0.000000 0.040205
#
#
# Mechanical properties :
#
#
# Convention : Reuss Voigt Hill
#
# Bulk Modulus (GPa) = 33.01621 33.45007 33.23314
# Shear Modulus (GPa) = -7.66392 22.67409 7.50508
#
# Velocity S-wave (km/s) = -1.82348 3.13647 1.80449
# Velocity P-wave (km/s) = 3.14500 5.25636 4.33130
#
# Compressibility (1/GPa) = 0.03028815
#
# Stress axis : x y z
#
# Youngs Moduli (GPa) = 71.99995 61.18122 87.15141
#
# Poissons Ratio (x) = 0.24531 0.13315
# Poissons Ratio (y) = 0.28869 0.01504
# Poissons Ratio (z) = 0.11000 0.01056
#
# Static dielectric constant tensor:
#      x y z
#    x 1.881990 0.000000 0.000000 
#    y 0.000000 1.889870 0.000000 
#    z 0.000000 0.000000 1.898720 
# 
# From -- ./inp_files/12816.got.cif
#   From: 2010.05.17/outbox.cif.g08.bks.cpg/sg56_7_cif.got.tgz:12816.got - 2010.06.03 13:42:01.
