data_PCOD9430325
_publ_section_title
;
Structure prediction by ZEFSAII (Michael W. Deem and Ramdas Pophale) SiO2 
 PCOD9430325
Probable space group: P C C N
;
_chemical_formula_sum "Si O2"
_cell_formula_units_Z 48
_cell_length_a 10.520354
_cell_length_b 8.669021
_cell_length_c 24.340420
_cell_angle_alpha 90.000000
_cell_angle_beta 90.000000
_cell_angle_gamma 90.000000
_cell_volume 2219.874776
_symmetry_space_group_name_H-M "P C C N"
_symmetry_group_IT_number 56
_symmetry_cell_setting 'orthorhombic'
loop_
_space_group_symop_operation_xyz
x,y,z
1/2-x,1/2-y,z
1/2+x,-y,1/2-z
-x,1/2+y,1/2-z
-x,-y,-z
1/2+x,1/2+y,-z
1/2-x,y,1/2+z
x,1/2-y,1/2+z
loop_
_atom_site_type_symbol
_atom_site_label
_atom_site_fract_x
_atom_site_fract_y
_atom_site_fract_z
Si Si1 0.319013 0.017957 0.736740
Si Si2 0.417268 0.584030 0.129868
Si Si3 0.082802 0.842666 0.541220
Si Si4 0.802288 0.579819 0.024489
Si Si5 0.561058 0.653942 0.234567
Si Si6 0.065127 0.901491 0.951237
O O1 0.386428 0.184940 0.742962
O O2 0.177193 0.033270 0.759164
O O3 0.310447 0.966715 0.672942
O O4 0.426844 0.902166 0.760814
O O5 0.385232 0.713160 0.085280
O O6 0.524045 0.657715 0.170259
O O7 0.475877 0.433591 0.100286
O O8 0.081669 0.762118 0.480460
O O9 0.940013 0.899610 0.551335
O O10 0.175440 0.986202 0.532206
O O11 0.750000 0.750000 0.014108
O O12 0.699761 0.483765 0.058713
O O13 0.000000 0.000000 0.000000
#
# Coordination Sequence:
#
# PCOD9430325 Si02
#       6
#     8   8   8   8   8   8
#     4   9  20  40  65  95 128 168 223 290 333 400
#     4   9  20  39  66  89 132 176 220 272 348 402
#     4  10  22  39  63  95 135 178 217 265 338 402
#     4  11  20  36  63  91 136 171 217 272 313 392
#     4   9  20  40  66  93 130 170 224 287 338 398
#     4  10  19  38  61  90 135 172 214 264 325 409
#
# _framework density 21.62284
#
# number of rings (size 3 to 8) (size 9 to 14) (size 15 to 20)
#    1.000    1.333    3.333    0.500    0.000    3.333 
#    0.000   20.000    0.000    0.000    0.000    0.000 
#    0.000    0.000    0.000    0.000    0.000    0.000 
#
# Total GULP energy -267381.377306 kJ/mol
# GULP energy per Si atom -5570.445361 kJ/mol
# Density = 2.157362 g / cm^3
# Si number density = 21.622840 Si / 1000 Ang^3
#
#
#
# Elastic Constant Matrix: (Units=GPa)
#
#
# Indices 1 2 3 4 5 6 
#
# 1 77.4451 -1.4968 0.8651 0.0000 0.0000 0.0000
# 2 -1.4968 51.6123 10.2115 0.0000 0.0000 0.0000
# 3 0.8651 10.2115 56.6273 0.0000 0.0000 0.0000
# 4 0.0000 0.0000 0.0000 0.8271 0.0000 0.0000
# 5 0.0000 0.0000 0.0000 0.0000 -22.8453 0.0000
# 6 0.0000 0.0000 0.0000 0.0000 0.0000 41.6070
#
#
#
# Elastic Compliance Matrix: (Units=1/GPa)
#
#
# Indices 1 2 3 4 5 6 
#
# 1 0.012924 0.000429 -0.000275 0.000000 0.000000 0.000000
# 2 0.000429 0.020106 -0.003632 0.000000 0.000000 0.000000
# 3 -0.000275 -0.003632 0.018319 0.000000 0.000000 0.000000
# 4 0.000000 0.000000 0.000000 1.209002 0.000000 0.000000
# 5 0.000000 0.000000 0.000000 0.000000 -0.043773 0.000000
# 6 0.000000 0.000000 0.000000 0.000000 0.000000 0.024034
#
#
# Mechanical properties :
#
#
# Convention : Reuss Voigt Hill
#
# Bulk Modulus (GPa) = 22.52623 22.76047 22.64335
# Shear Modulus (GPa) = 3.96082 15.65810 9.80946
#
# Velocity S-wave (km/s) = 1.35490 2.69392 2.13224
# Velocity P-wave (km/s) = 3.59000 4.49725 4.06899
#
# Compressibility (1/GPa) = 0.04439270
#
# Stress axis : x y z
#
# Youngs Moduli (GPa) = 77.37703 49.73562 54.58956
#
# Poissons Ratio (x) = -0.02134 0.01500
# Poissons Ratio (y) = -0.03321 0.19828
# Poissons Ratio (z) = 0.02126 0.18065
#
# Static dielectric constant tensor:
#      x y z
#    x 1.825330 0.000000 0.000000 
#    y 0.000000 1.845280 0.000000 
#    z 0.000000 0.000000 1.780700 
# 
# From -- ./inp_files/20913.got.cif
#   From: 2010.05.17/outbox.cif.g08.bks.cpg/sg56_11_cif.got.tgz:20913.got - 2010.06.03 13:42:01.
