data_PCOD9430250
_publ_section_title
;
Structure prediction by ZEFSAII (Michael W. Deem and Ramdas Pophale) SiO2 
 PCOD9430250
Probable space group: P C C N
;
_chemical_formula_sum "Si O2"
_cell_formula_units_Z 48
_cell_length_a 9.127168
_cell_length_b 10.306403
_cell_length_c 23.415223
_cell_angle_alpha 90.000000
_cell_angle_beta 90.000000
_cell_angle_gamma 90.000000
_cell_volume 2202.629558
_symmetry_space_group_name_H-M "P C C N"
_symmetry_group_IT_number 56
_symmetry_cell_setting 'orthorhombic'
loop_
_space_group_symop_operation_xyz
x,y,z
1/2-x,1/2-y,z
1/2+x,-y,1/2-z
-x,1/2+y,1/2-z
-x,-y,-z
1/2+x,1/2+y,-z
1/2-x,y,1/2+z
x,1/2-y,1/2+z
loop_
_atom_site_type_symbol
_atom_site_label
_atom_site_fract_x
_atom_site_fract_y
_atom_site_fract_z
Si Si1 0.387281 0.592079 0.257477
Si Si2 0.219398 0.478925 0.647763
Si Si3 0.597415 0.191593 0.528573
Si Si4 0.975647 0.721277 0.852256
Si Si5 0.967953 0.912239 0.073757
Si Si6 0.813171 0.886299 0.193044
O O1 0.288879 0.579372 0.200547
O O2 0.413125 0.712761 0.299215
O O3 0.549274 0.570523 0.231410
O O4 0.318156 0.486140 0.299465
O O5 0.376237 0.409094 0.642930
O O6 0.118818 0.350967 0.658818
O O7 0.132478 0.546702 0.595451
O O8 0.750000 0.250000 0.509687
O O9 0.548782 0.261897 0.586331
O O10 0.484837 0.193398 0.475789
O O11 0.604680 0.040436 0.546698
O O12 0.876693 0.873962 0.129393
O O13 0.750000 0.750000 0.213630
#
# Coordination Sequence:
#
# PCOD9430250 Si02
#       6
#     8   8   8   8   8   8
#     4  11  20  36  66  93 131 164 211 269 321 408
#     4   9  19  37  59  92 128 167 208 262 333 390
#     4  10  20  40  64  92 121 170 230 276 320 393
#     4  10  19  36  64  91 123 172 216 260 330 396
#     4   9  21  41  62  88 132 167 215 281 322 384
#     4  11  23  42  62  96 134 171 213 267 338 400
#
# _framework density 21.792134000000001
#
# number of rings (size 3 to 8) (size 9 to 14) (size 15 to 20)
#    0.000    2.000    1.667    2.000    0.000    0.000 
#   12.000    6.667    0.000    0.000    0.000    0.000 
#    0.000    0.000    0.000    0.000    0.000    0.000 
#
# Total GULP energy -267689.230136 kJ/mol
# GULP energy per Si atom -5576.858961 kJ/mol
# Density = 2.174253 g / cm^3
# Si number density = 21.792134 Si / 1000 Ang^3
#
#
#
# Elastic Constant Matrix: (Units=GPa)
#
#
# Indices 1 2 3 4 5 6 
#
# 1 81.6537 25.9764 27.6151 0.0000 0.0000 0.0000
# 2 25.9764 25.7794 25.5248 0.0000 0.0000 0.0000
# 3 27.6151 25.5248 114.8235 0.0000 0.0000 0.0000
# 4 0.0000 0.0000 0.0000 36.9936 0.0000 0.0000
# 5 0.0000 0.0000 0.0000 0.0000 31.3107 0.0000
# 6 0.0000 0.0000 0.0000 0.0000 0.0000 27.2617
#
#
#
# Elastic Compliance Matrix: (Units=1/GPa)
#
#
# Indices 1 2 3 4 5 6 
#
# 1 0.018038 -0.017798 -0.000382 0.000000 0.000000 0.000000
# 2 -0.017798 0.067299 -0.010680 0.000000 0.000000 0.000000
# 3 -0.000382 -0.010680 0.011175 0.000000 0.000000 0.000000
# 4 0.000000 0.000000 0.000000 0.027032 0.000000 0.000000
# 5 0.000000 0.000000 0.000000 0.000000 0.031938 0.000000
# 6 0.000000 0.000000 0.000000 0.000000 0.000000 0.036682
#
#
# Mechanical properties :
#
#
# Convention : Reuss Voigt Hill
#
# Bulk Modulus (GPa) = 25.77792 42.27658 34.02725
# Shear Modulus (GPa) = 19.02495 28.65589 23.84042
#
# Velocity S-wave (km/s) = 2.95789 3.63018 3.31114
# Velocity P-wave (km/s) = 4.84976 6.08383 5.50151
#
# Compressibility (1/GPa) = 0.03879290
#
# Stress axis : x y z
#
# Youngs Moduli (GPa) = 55.43873 14.85907 89.48599
#
# Poissons Ratio (x) = 0.26446 0.03416
# Poissons Ratio (y) = 0.98669 0.95570
# Poissons Ratio (z) = 0.02116 0.15869
#
# Static dielectric constant tensor:
#      x y z
#    x 1.833350 0.000000 0.000000 
#    y 0.000000 1.815980 0.000000 
#    z 0.000000 0.000000 1.848820 
# 
# From -- ./inp_files/20465.got.cif
#   From: 2010.05.17/outbox.cif.g08.bks.cpg/sg56_11_cif.got.tgz:20465.got - 2010.06.03 13:42:01.
