data_PCOD9430288
_publ_section_title
;
Structure prediction by ZEFSAII (Michael W. Deem and Ramdas Pophale) SiO2 
 PCOD9430288
Probable space group: P C C N
;
_chemical_formula_sum "Si O2"
_cell_formula_units_Z 56
_cell_length_a 9.175276
_cell_length_b 19.868218
_cell_length_c 14.076385
_cell_angle_alpha 90.000000
_cell_angle_beta 90.000000
_cell_angle_gamma 90.000000
_cell_volume 2566.074082
_symmetry_space_group_name_H-M "P C C N"
_symmetry_group_IT_number 56
_symmetry_cell_setting 'orthorhombic'
loop_
_space_group_symop_operation_xyz
x,y,z
1/2-x,1/2-y,z
1/2+x,-y,1/2-z
-x,1/2+y,1/2-z
-x,-y,-z
1/2+x,1/2+y,-z
1/2-x,y,1/2+z
x,1/2-y,1/2+z
loop_
_atom_site_type_symbol
_atom_site_label
_atom_site_fract_x
_atom_site_fract_y
_atom_site_fract_z
Si Si1 0.886247 0.299064 0.581824
Si Si2 0.817147 0.085179 0.532656
Si Si3 0.705321 0.457061 0.330486
Si Si4 0.061150 0.305380 0.976462
Si Si5 0.981638 0.841054 0.732207
Si Si6 0.289816 0.327243 0.663783
Si Si7 0.988507 0.430820 0.219850
O O1 0.750000 0.250000 0.571080
O O2 0.829800 0.373952 0.558717
O O3 0.007187 0.267556 0.512635
O O4 0.938263 0.294706 0.690441
O O5 0.799730 0.035584 0.444452
O O6 0.891742 0.054636 0.625500
O O7 0.930715 0.142278 0.497829
O O8 0.601982 0.394947 0.299366
O O9 0.870742 0.440997 0.301635
O O10 0.624947 0.519101 0.280544
O O11 0.082819 0.308758 0.864028
O O12 0.185755 0.328751 0.050063
O O13 0.846459 0.868458 0.794449
O O14 0.250000 0.250000 0.687864
O O15 0.437802 0.357371 0.708595
#
# Coordination Sequence:
#
# PCOD9430288 Si02
#       7
#     8   8   8   8   8   8   8
#     4  10  19  37  62  96 129 165 218 265 319 394
#     4   9  20  39  64  91 126 167 213 269 323 377
#     4  11  23  42  69  96 127 177 221 269 330 389
#     4   9  21  38  57  90 130 170 207 258 330 383
#     4  11  22  39  65  90 127 174 217 266 324 385
#     4  11  23  41  61  94 133 173 210 271 327 385
#     4  11  23  43  65  94 133 168 222 272 324 397
#
# _framework density 21.823219999999999
#
# number of rings (size 3 to 8) (size 9 to 14) (size 15 to 20)
#    0.000    1.714    2.857    1.286    0.000    4.571 
#    2.571    0.714    0.000    0.000    0.000    0.000 
#    0.000    0.000    0.000    0.000    0.000    0.000 
#
# Total GULP energy -312296.622301 kJ/mol
# GULP energy per Si atom -5576.725398 kJ/mol
# Density = 2.177355 g / cm^3
# Si number density = 21.823220 Si / 1000 Ang^3
#
#
#
# Elastic Constant Matrix: (Units=GPa)
#
#
# Indices 1 2 3 4 5 6 
#
# 1 62.9408 8.7339 16.5072 0.0000 0.0000 0.0000
# 2 8.7339 45.6239 -0.9986 0.0000 0.0000 0.0000
# 3 16.5072 -0.9986 85.7346 0.0000 0.0000 0.0000
# 4 0.0000 0.0000 0.0000 15.3418 0.0000 0.0000
# 5 0.0000 0.0000 0.0000 0.0000 27.1842 0.0000
# 6 0.0000 0.0000 0.0000 0.0000 0.0000 32.5634
#
#
#
# Elastic Compliance Matrix: (Units=1/GPa)
#
#
# Indices 1 2 3 4 5 6 
#
# 1 0.017237 -0.003373 -0.003358 0.000000 0.000000 0.000000
# 2 -0.003373 0.022584 0.000912 0.000000 0.000000 0.000000
# 3 -0.003358 0.000912 0.012321 0.000000 0.000000 0.000000
# 4 0.000000 0.000000 0.000000 0.065182 0.000000 0.000000
# 5 0.000000 0.000000 0.000000 0.000000 0.036786 0.000000
# 6 0.000000 0.000000 0.000000 0.000000 0.000000 0.030709
#
#
# Mechanical properties :
#
#
# Convention : Reuss Voigt Hill
#
# Bulk Modulus (GPa) = 24.68863 26.97604 25.83233
# Shear Modulus (GPa) = 23.81433 26.35499 25.08466
#
# Velocity S-wave (km/s) = 3.30697 3.47891 3.39403
# Velocity P-wave (km/s) = 5.09107 5.34089 5.21747
#
# Compressibility (1/GPa) = 0.04050447
#
# Stress axis : x y z
#
# Youngs Moduli (GPa) = 58.01573 44.27909 81.16180
#
# Poissons Ratio (x) = 0.14936 0.27254
# Poissons Ratio (y) = 0.19570 -0.07406
# Poissons Ratio (z) = 0.19482 -0.04040
#
# Static dielectric constant tensor:
#      x y z
#    x 1.843860 0.000000 0.000000 
#    y 0.000000 1.859280 0.000000 
#    z 0.000000 0.000000 1.795250 
# 
# From -- ./inp_files/10869.got.cif
#   From: 2010.05.17/outbox.cif.g08.bks.cpg/sg56_6_cif.got.tgz:10869.got - 2010.06.03 13:42:01.
