data_PCOD9430889
_publ_section_title
;
Structure prediction by ZEFSAII (Michael W. Deem and Ramdas Pophale) SiO2 
 PCOD9430889
Probable space group: P C C N
;
_chemical_formula_sum "Si O2"
_cell_formula_units_Z 44
_cell_length_a 11.144147
_cell_length_b 23.331028
_cell_length_c 8.101455
_cell_angle_alpha 90.000000
_cell_angle_beta 90.000000
_cell_angle_gamma 90.000000
_cell_volume 2106.413993
_symmetry_space_group_name_H-M "P C C N"
_symmetry_group_IT_number 56
_symmetry_cell_setting 'orthorhombic'
loop_
_space_group_symop_operation_xyz
x,y,z
1/2-x,1/2-y,z
1/2+x,-y,1/2-z
-x,1/2+y,1/2-z
-x,-y,-z
1/2+x,1/2+y,-z
1/2-x,y,1/2+z
x,1/2-y,1/2+z
loop_
_atom_site_type_symbol
_atom_site_label
_atom_site_fract_x
_atom_site_fract_y
_atom_site_fract_z
Si Si1 0.356179 0.566063 0.520283
Si Si2 0.621517 0.829357 0.388201
Si Si3 0.986544 0.041384 0.797161
Si Si4 0.250000 0.250000 0.866227
Si Si5 0.380584 0.611686 0.890313
Si Si6 0.686711 0.542440 0.961380
O O1 0.462996 0.562284 0.387060
O O2 0.383762 0.583568 0.707360
O O3 0.260126 0.610517 0.438601
O O4 0.293986 0.503103 0.528203
O O5 0.652569 0.785132 0.531522
O O6 0.679869 0.798454 0.233363
O O7 0.478784 0.838368 0.373728
O O8 0.689032 0.890364 0.420335
O O9 0.122336 0.037162 0.858826
O O10 0.931041 0.080801 0.943253
O O11 0.908876 0.984172 0.830181
#
# Coordination Sequence:
#
# PCOD9430889 Si02
#       6
#     8   8   8   4   8   8
#     4  11  19  36  62  98 142 172 198 245 311 411
#     4  10  23  44  66  91 119 165 219 277 326 364
#     4   9  19  36  54  93 141 169 204 241 291 405
#     4  10  24  48  68  84 116 158 228 292 322 360
#     4  10  20  38  62  95 132 169 206 250 315 388
#     4   9  19  35  59  93 134 166 210 250 305 392
#
# _framework density 20.888580999999999
#
# number of rings (size 3 to 8) (size 9 to 14) (size 15 to 20)
#    0.000    2.182    3.636    1.091    2.545    0.000 
#   13.091   18.182    0.000    3.273    0.000    0.000 
#    0.000    0.000    0.000    0.000    0.000    0.000 
#
# Total GULP energy -245077.952218 kJ/mol
# GULP energy per Si atom -5569.953459 kJ/mol
# Density = 2.084104 g / cm^3
# Si number density = 20.888581 Si / 1000 Ang^3
#
#
#
# Elastic Constant Matrix: (Units=GPa)
#
#
# Indices 1 2 3 4 5 6 
#
# 1 86.8553 38.0761 41.5072 0.0000 0.0000 0.0000
# 2 38.0761 99.9048 41.4042 0.0000 0.0000 0.0000
# 3 41.5072 41.4042 137.7811 0.0000 0.0000 0.0000
# 4 0.0000 0.0000 0.0000 9.3832 0.0000 0.0000
# 5 0.0000 0.0000 0.0000 0.0000 37.5436 0.0000
# 6 0.0000 0.0000 0.0000 0.0000 0.0000 38.8083
#
#
#
# Elastic Compliance Matrix: (Units=1/GPa)
#
#
# Indices 1 2 3 4 5 6 
#
# 1 0.014957 -0.004378 -0.003190 0.000000 0.000000 0.000000
# 2 -0.004378 0.012715 -0.002502 0.000000 0.000000 0.000000
# 3 -0.003190 -0.002502 0.008971 0.000000 0.000000 0.000000
# 4 0.000000 0.000000 0.000000 0.106574 0.000000 0.000000
# 5 0.000000 0.000000 0.000000 0.000000 0.026636 0.000000
# 6 0.000000 0.000000 0.000000 0.000000 0.000000 0.025768
#
#
# Mechanical properties :
#
#
# Convention : Reuss Voigt Hill
#
# Bulk Modulus (GPa) = 60.59844 62.94625 61.77235
# Shear Modulus (GPa) = 22.59758 30.71725 26.65741
#
# Velocity S-wave (km/s) = 3.29266 3.83891 3.57623
# Velocity P-wave (km/s) = 6.59764 7.06040 6.83294
#
# Compressibility (1/GPa) = 0.01650207
#
# Stress axis : x y z
#
# Youngs Moduli (GPa) = 66.85631 78.64613 111.47258
#
# Poissons Ratio (x) = 0.34435 0.35562
# Poissons Ratio (y) = 0.29273 0.27890
# Poissons Ratio (z) = 0.21329 0.19677
#
# Static dielectric constant tensor:
#      x y z
#    x 1.838570 0.000000 0.000000 
#    y 0.000000 1.758010 0.000000 
#    z 0.000000 0.000000 1.783740 
# 
# From -- ./inp_files/2752.got.cif
#   From: 2010.05.17/outbox.cif.g08.bks.cpg/sg56_2_cif.got.tgz:2752.got - 2010.06.03 13:42:01.
