data_PCOD9430980
_publ_section_title
;
Structure prediction by ZEFSAII (Michael W. Deem and Ramdas Pophale) SiO2 
 PCOD9430980
Probable space group: P C C N
;
_chemical_formula_sum "Si O2"
_cell_formula_units_Z 60
_cell_length_a 20.749904
_cell_length_b 11.390369
_cell_length_c 12.429338
_cell_angle_alpha 90.000000
_cell_angle_beta 90.000000
_cell_angle_gamma 90.000000
_cell_volume 2937.662393
_symmetry_space_group_name_H-M "P C C N"
_symmetry_group_IT_number 56
_symmetry_cell_setting 'orthorhombic'
loop_
_space_group_symop_operation_xyz
x,y,z
1/2-x,1/2-y,z
1/2+x,-y,1/2-z
-x,1/2+y,1/2-z
-x,-y,-z
1/2+x,1/2+y,-z
1/2-x,y,1/2+z
x,1/2-y,1/2+z
loop_
_atom_site_type_symbol
_atom_site_label
_atom_site_fract_x
_atom_site_fract_y
_atom_site_fract_z
Si Si1 0.712928 0.965030 0.417949
Si Si2 0.452390 0.826686 0.455725
Si Si3 0.846346 0.906751 0.146794
Si Si4 0.018350 0.415473 0.097098
Si Si5 0.991353 0.942934 0.162974
Si Si6 0.675778 0.216288 0.445917
Si Si7 0.652461 0.463217 0.356539
Si Si8 0.250000 0.250000 0.729565
O O1 0.677122 0.934485 0.527829
O O2 0.716106 0.852339 0.340739
O O3 0.683070 0.091320 0.384090
O O4 0.788643 0.993523 0.430158
O O5 0.497074 0.713818 0.438567
O O6 0.464207 0.885653 0.572636
O O7 0.376126 0.798498 0.457775
O O8 0.474436 0.923720 0.369907
O O9 0.921969 0.879914 0.150612
O O10 0.804797 0.803152 0.195810
O O11 0.832780 0.012195 0.231422
O O12 0.986014 0.436024 0.214308
O O13 0.092244 0.452821 0.118447
O O14 0.000000 0.500000 0.000000
O O15 0.750000 0.250000 0.476185
O O16 0.646257 0.325297 0.378902
#
# Coordination Sequence:
#
# PCOD9430980 Si02
#       8
#     8   8   8   8   8   8   8   4
#     4  10  20  39  64  89 129 169 208 266 329 387
#     4  11  23  44  69  96 134 173 222 276 333 407
#     4  10  20  39  63  87 129 169 209 275 324 382
#     4  11  23  41  69  93 133 177 219 278 331 399
#     4  10  25  42  64  98 132 175 221 275 338 393
#     4  10  20  41  68  91 131 164 212 273 336 392
#     4   9  21  40  61  97 125 164 217 266 325 391
#     4  10  22  36  62  94 126 170 226 268 322 400
#
# _framework density 20.424401
#
# number of rings (size 3 to 8) (size 9 to 14) (size 15 to 20)
#    0.000    1.867    2.667    0.400    1.867    4.267 
#    0.000   14.000    0.000    0.000    0.000    0.000 
#    0.000    0.000    0.000    0.000    0.000    0.000 
#
# Total GULP energy -334393.104064 kJ/mol
# GULP energy per Si atom -5573.218401 kJ/mol
# Density = 2.037791 g / cm^3
# Si number density = 20.424401 Si / 1000 Ang^3
#
#
#
# Elastic Constant Matrix: (Units=GPa)
#
#
# Indices 1 2 3 4 5 6 
#
# 1 76.9181 33.6353 8.2891 0.0000 0.0000 0.0000
# 2 33.6353 132.2809 6.3775 0.0000 0.0000 0.0000
# 3 8.2891 6.3775 47.9844 0.0000 0.0000 0.0000
# 4 0.0000 0.0000 0.0000 10.1188 0.0000 0.0000
# 5 0.0000 0.0000 0.0000 0.0000 24.9874 0.0000
# 6 0.0000 0.0000 0.0000 0.0000 0.0000 28.7500
#
#
#
# Elastic Compliance Matrix: (Units=1/GPa)
#
#
# Indices 1 2 3 4 5 6 
#
# 1 0.014829 -0.003671 -0.002074 0.000000 0.000000 0.000000
# 2 -0.003671 0.008517 -0.000498 0.000000 0.000000 0.000000
# 3 -0.002074 -0.000498 0.021265 0.000000 0.000000 0.000000
# 4 0.000000 0.000000 0.000000 0.098826 0.000000 0.000000
# 5 0.000000 0.000000 0.000000 0.000000 0.040020 0.000000
# 6 0.000000 0.000000 0.000000 0.000000 0.000000 0.034783
#
#
# Mechanical properties :
#
#
# Convention : Reuss Voigt Hill
#
# Bulk Modulus (GPa) = 31.12732 39.30968 35.21850
# Shear Modulus (GPa) = 20.70966 26.69668 23.70317
#
# Velocity S-wave (km/s) = 3.18774 3.61930 3.41035
# Velocity P-wave (km/s) = 5.36864 6.06251 5.72609
#
# Compressibility (1/GPa) = 0.03212612
#
# Stress axis : x y z
#
# Youngs Moduli (GPa) = 67.43319 117.41173 47.02666
#
# Poissons Ratio (x) = 0.43099 0.09753
# Poissons Ratio (y) = 0.24753 0.02341
# Poissons Ratio (z) = 0.13985 0.05846
#
# Static dielectric constant tensor:
#      x y z
#    x 1.770420 0.000000 0.000000 
#    y 0.000000 1.794890 0.000000 
#    z 0.000000 0.000000 1.735910 
# 
# From -- ./inp_files/8697.got.cif
#   From: 2010.05.17/outbox.cif.g08.bks.cpg/sg56_5_cif.got.tgz:8697.got - 2010.06.03 13:42:01.
