data_PCOD9430541
_publ_section_title
;
Structure prediction by ZEFSAII (Michael W. Deem and Ramdas Pophale) SiO2 
 PCOD9430541
Probable space group: P C C N
;
_chemical_formula_sum "Si O2"
_cell_formula_units_Z 40
_cell_length_a 20.701771
_cell_length_b 9.747023
_cell_length_c 8.920663
_cell_angle_alpha 90.000000
_cell_angle_beta 90.000000
_cell_angle_gamma 90.000000
_cell_volume 1800.017072
_symmetry_space_group_name_H-M "P C C N"
_symmetry_group_IT_number 56
_symmetry_cell_setting 'orthorhombic'
loop_
_space_group_symop_operation_xyz
x,y,z
1/2-x,1/2-y,z
1/2+x,-y,1/2-z
-x,1/2+y,1/2-z
-x,-y,-z
1/2+x,1/2+y,-z
1/2-x,y,1/2+z
x,1/2-y,1/2+z
loop_
_atom_site_type_symbol
_atom_site_label
_atom_site_fract_x
_atom_site_fract_y
_atom_site_fract_z
Si Si1 0.686771 0.914740 0.504336
Si Si2 0.442216 0.907751 0.431970
Si Si3 0.250000 0.250000 0.726604
Si Si4 0.808192 0.415453 0.984775
Si Si5 0.750000 0.250000 0.250275
Si Si6 0.554221 0.402396 0.430274
O O1 0.714844 0.854775 0.658768
O O2 0.689449 0.795878 0.379436
O O3 0.624698 0.010342 0.528672
O O4 0.747325 0.997111 0.437805
O O5 0.448904 0.898438 0.250951
O O6 0.445053 0.753294 0.501625
O O7 0.500000 0.000000 0.500000
O O8 0.785565 0.354499 0.140957
O O9 0.806866 0.300295 0.857334
O O10 0.878752 0.473285 0.983067
O O11 0.500000 0.500000 0.500000
#
# Coordination Sequence:
#
# PCOD9430541 Si02
#       6
#     8   8   4   8   4   8
#     4  11  24  43  69 101 139 182 233 286 351 420
#     4  12  28  48  71 102 141 189 238 291 356 428
#     4  10  24  42  68 104 140 182 232 294 352 414
#     4  11  21  39  66  98 132 174 226 285 346 409
#     4  10  20  34  66 102 132 166 224 290 346 408
#     4  12  27  47  71 104 143 187 238 295 355 419
#
# _framework density 22.222011999999999
#
# number of rings (size 3 to 8) (size 9 to 14) (size 15 to 20)
#    0.000    0.800    0.000    8.400    0.000   11.200 
#    0.000    0.000    0.000    0.000    0.000    0.000 
#    0.000    0.000    0.000    0.000    0.000    0.000 
#
# Total GULP energy -223209.849136 kJ/mol
# GULP energy per Si atom -5580.246228 kJ/mol
# Density = 2.217143 g / cm^3
# Si number density = 22.222012 Si / 1000 Ang^3
#
#
#
# Elastic Constant Matrix: (Units=GPa)
#
#
# Indices 1 2 3 4 5 6 
#
# 1 195.1846 67.9574 62.3467 0.0000 0.0000 0.0000
# 2 67.9574 106.0700 70.4976 0.0000 0.0000 0.0000
# 3 62.3467 70.4976 174.3428 0.0000 0.0000 0.0000
# 4 0.0000 0.0000 0.0000 43.5463 0.0000 0.0000
# 5 0.0000 0.0000 0.0000 0.0000 -8.3673 0.0000
# 6 0.0000 0.0000 0.0000 0.0000 0.0000 45.3553
#
#
#
# Elastic Compliance Matrix: (Units=1/GPa)
#
#
# Indices 1 2 3 4 5 6 
#
# 1 0.006697 -0.003691 -0.000902 0.000000 0.000000 0.000000
# 2 -0.003691 0.014927 -0.004716 0.000000 0.000000 0.000000
# 3 -0.000902 -0.004716 0.007965 0.000000 0.000000 0.000000
# 4 0.000000 0.000000 0.000000 0.022964 0.000000 0.000000
# 5 0.000000 0.000000 0.000000 0.000000 -0.119513 0.000000
# 6 0.000000 0.000000 0.000000 0.000000 0.000000 0.022048
#
#
# Mechanical properties :
#
#
# Convention : Reuss Voigt Hill
#
# Bulk Modulus (GPa) = 91.15176 97.46677 94.30926
# Shear Modulus (GPa) = -220.87956 34.42657 -93.22650
#
# Velocity S-wave (km/s) = -9.98061 3.94027 -6.48409
# Velocity P-wave (km/s) = 9.57648 8.04094 3.67779
#
# Compressibility (1/GPa) = 0.01097071
#
# Stress axis : x y z
#
# Youngs Moduli (GPa) = 149.33022 66.99428 125.54144
#
# Poissons Ratio (x) = 0.24725 0.11329
# Poissons Ratio (y) = 0.55112 0.59205
# Poissons Ratio (z) = 0.13476 0.31594
#
# Static dielectric constant tensor:
#      x y z
#    x 1.839240 0.000000 0.000000 
#    y 0.000000 1.903990 0.000000 
#    z 0.000000 0.000000 1.784070 
# 
# From -- ./inp_files/2610.got.cif
#   From: 2010.05.17/outbox.cif.g08.bks.cpg/sg56_2_cif.got.tgz:2610.got - 2010.06.03 13:42:01.
