data_PCOD9430275
_publ_section_title
;
Structure prediction by ZEFSAII (Michael W. Deem and Ramdas Pophale) SiO2 
 PCOD9430275
Probable space group: P C C N
;
_chemical_formula_sum "Si O2"
_cell_formula_units_Z 48
_cell_length_a 11.818086
_cell_length_b 13.002106
_cell_length_c 11.982889
_cell_angle_alpha 90.000000
_cell_angle_beta 90.000000
_cell_angle_gamma 90.000000
_cell_volume 1841.290806
_symmetry_space_group_name_H-M "P C C N"
_symmetry_group_IT_number 56
_symmetry_cell_setting 'orthorhombic'
loop_
_space_group_symop_operation_xyz
x,y,z
1/2-x,1/2-y,z
1/2+x,-y,1/2-z
-x,1/2+y,1/2-z
-x,-y,-z
1/2+x,1/2+y,-z
1/2-x,y,1/2+z
x,1/2-y,1/2+z
loop_
_atom_site_type_symbol
_atom_site_label
_atom_site_fract_x
_atom_site_fract_y
_atom_site_fract_z
Si Si1 0.376779 0.215375 0.104767
Si Si2 0.187845 0.016060 0.513820
Si Si3 0.083717 0.438337 0.640235
Si Si4 0.036369 0.628217 0.156233
Si Si5 0.979532 0.355208 0.311293
Si Si6 0.252634 0.637007 0.825326
O O1 0.250000 0.250000 0.635876
O O2 0.362542 0.131600 0.006502
O O3 0.439187 0.324876 0.089641
O O4 0.433770 0.156178 0.208311
O O5 0.291316 0.031321 0.600078
O O6 0.090795 0.942158 0.562183
O O7 0.239851 0.956328 0.410002
O O8 0.006787 0.539465 0.620710
O O9 0.067703 0.417927 0.773165
O O10 0.017972 0.746877 0.126387
O O11 0.135222 0.629655 0.251674
O O12 0.855819 0.362223 0.255384
O O13 0.250000 0.750000 0.883605
#
# Coordination Sequence:
#
# PCOD9430275 Si02
#       6
#     8   8   8   8   8   8
#     4   9  20  37  59  85 122 162 197 245 308 373
#     4  11  21  37  63  84 121 161 199 248 311 361
#     4  10  20  36  65  82 117 165 196 245 312 364
#     4  10  21  38  58  90 121 151 199 256 305 358
#     4  10  19  37  60  91 117 153 204 258 300 361
#     4  10  23  36  58  93 120 151 203 262 305 360
#
# _framework density 26.068667999999999
#
# number of rings (size 3 to 8) (size 9 to 14) (size 15 to 20)
#    0.000    2.000    3.333    0.000    2.333    1.333 
#    0.000    0.000   11.000    0.000    0.000    0.000 
#    0.000    0.000    0.000    0.000    0.000    0.000 
#
# Total GULP energy -268604.875673 kJ/mol
# GULP energy per Si atom -5595.934910 kJ/mol
# Density = 2.600933 g / cm^3
# Si number density = 26.068668 Si / 1000 Ang^3
#
#
#
# Elastic Constant Matrix: (Units=GPa)
#
#
# Indices 1 2 3 4 5 6 
#
# 1 78.0404 30.3970 43.2386 0.0000 0.0000 0.0000
# 2 30.3970 250.3102 60.8965 0.0000 0.0000 0.0000
# 3 43.2386 60.8965 71.0787 0.0000 0.0000 0.0000
# 4 0.0000 0.0000 0.0000 45.5384 0.0000 0.0000
# 5 0.0000 0.0000 0.0000 0.0000 26.5799 0.0000
# 6 0.0000 0.0000 0.0000 0.0000 0.0000 51.4036
#
#
#
# Elastic Compliance Matrix: (Units=1/GPa)
#
#
# Indices 1 2 3 4 5 6 
#
# 1 0.019412 0.000651 -0.012367 0.000000 0.000000 0.000000
# 2 0.000651 0.005069 -0.004739 0.000000 0.000000 0.000000
# 3 -0.012367 -0.004739 0.025652 0.000000 0.000000 0.000000
# 4 0.000000 0.000000 0.000000 0.021959 0.000000 0.000000
# 5 0.000000 0.000000 0.000000 0.000000 0.037622 0.000000
# 6 0.000000 0.000000 0.000000 0.000000 0.000000 0.019454
#
#
# Mechanical properties :
#
#
# Convention : Reuss Voigt Hill
#
# Bulk Modulus (GPa) = 58.05828 74.27705 66.16767
# Shear Modulus (GPa) = 29.79408 42.36420 36.07914
#
# Velocity S-wave (km/s) = 3.38436 4.03563 3.72426
# Velocity P-wave (km/s) = 6.13119 7.09012 6.62802
#
# Compressibility (1/GPa) = 0.01722407
#
# Stress axis : x y z
#
# Youngs Moduli (GPa) = 51.51448 197.28316 38.98348
#
# Poissons Ratio (x) = -0.12849 0.48210
# Poissons Ratio (y) = -0.03355 0.18474
# Poissons Ratio (z) = 0.63706 0.93491
#
# Static dielectric constant tensor:
#      x y z
#    x 2.008010 0.000000 0.000000 
#    y 0.000000 2.093280 0.000000 
#    z 0.000000 0.000000 2.064910 
# 
# From -- ./inp_files/12196.got.cif
#   From: 2010.05.17/outbox.cif.g08.bks.cpg/sg56_7_cif.got.tgz:12196.got - 2010.06.03 13:42:01.
