data_PCOD9430791
_publ_section_title
;
Structure prediction by ZEFSAII (Michael W. Deem and Ramdas Pophale) SiO2 
 PCOD9430791
Probable space group: P C C N
;
_chemical_formula_sum "Si O2"
_cell_formula_units_Z 60
_cell_length_a 11.435950
_cell_length_b 19.853519
_cell_length_c 13.321636
_cell_angle_alpha 90.000000
_cell_angle_beta 90.000000
_cell_angle_gamma 90.000000
_cell_volume 3024.595534
_symmetry_space_group_name_H-M "P C C N"
_symmetry_group_IT_number 56
_symmetry_cell_setting 'orthorhombic'
loop_
_space_group_symop_operation_xyz
x,y,z
1/2-x,1/2-y,z
1/2+x,-y,1/2-z
-x,1/2+y,1/2-z
-x,-y,-z
1/2+x,1/2+y,-z
1/2-x,y,1/2+z
x,1/2-y,1/2+z
loop_
_atom_site_type_symbol
_atom_site_label
_atom_site_fract_x
_atom_site_fract_y
_atom_site_fract_z
Si Si1 0.676960 0.144490 0.197091
Si Si2 0.750000 0.250000 0.540415
Si Si3 0.875969 0.468200 0.039667
Si Si4 0.713900 0.905931 0.586370
Si Si5 0.921838 0.836553 0.238870
Si Si6 0.847364 0.348608 0.885102
Si Si7 0.096196 0.188781 0.306069
Si Si8 0.221425 0.323797 0.603100
O O1 0.755962 0.187598 0.118833
O O2 0.631652 0.076444 0.141986
O O3 0.552618 0.177457 0.224708
O O4 0.748451 0.143350 0.300513
O O5 0.661733 0.283853 0.459855
O O6 0.779204 0.525008 0.060984
O O7 0.843718 0.414880 0.953473
O O8 0.000000 0.500000 0.000000
O O9 0.607025 0.899192 0.665320
O O10 0.812512 0.857139 0.634356
O O11 0.680614 0.874088 0.480767
O O12 0.889432 0.768673 0.177317
O O13 0.838487 0.845074 0.335935
O O14 0.970294 0.339119 0.831577
O O15 0.124907 0.182564 0.188765
O O16 0.250000 0.250000 0.560897
#
# Coordination Sequence:
#
# PCOD9430791 Si02
#       8
#     8   4   8   8   8   8   8   8
#     4  11  24  43  64  96 130 170 217 268 330 387
#     4  10  22  40  68  94 124 166 218 266 324 388
#     4  11  24  43  65  90 125 183 223 259 324 395
#     4  11  21  40  61  93 128 166 221 261 324 397
#     4  10  21  37  63  93 126 164 206 275 328 384
#     4  11  23  43  65  96 130 169 219 270 325 394
#     4  10  20  37  63  94 127 164 210 270 332 387
#     4   9  19  35  59  93 123 161 206 259 332 382
#
# _framework density 19.837364000000001
#
# number of rings (size 3 to 8) (size 9 to 14) (size 15 to 20)
#    0.000    1.600    1.333    4.800    1.867    3.200 
#   12.000    0.667    0.000    0.000    0.000    0.000 
#    0.000    0.000    0.000    0.000    0.000    0.000 
#
# Total GULP energy -334099.440862 kJ/mol
# GULP energy per Si atom -5568.324014 kJ/mol
# Density = 1.979221 g / cm^3
# Si number density = 19.837364 Si / 1000 Ang^3
#
#
#
# Elastic Constant Matrix: (Units=GPa)
#
#
# Indices 1 2 3 4 5 6 
#
# 1 54.0899 13.0882 23.4735 0.0000 0.0000 0.0000
# 2 13.0882 80.3878 24.9302 0.0000 0.0000 0.0000
# 3 23.4735 24.9302 78.2826 0.0000 0.0000 0.0000
# 4 0.0000 0.0000 0.0000 12.4340 0.0000 0.0000
# 5 0.0000 0.0000 0.0000 0.0000 -6.2305 0.0000
# 6 0.0000 0.0000 0.0000 0.0000 0.0000 26.4653
#
#
#
# Elastic Compliance Matrix: (Units=1/GPa)
#
#
# Indices 1 2 3 4 5 6 
#
# 1 0.021452 -0.001662 -0.005903 0.000000 0.000000 0.000000
# 2 -0.001662 0.013932 -0.003938 0.000000 0.000000 0.000000
# 3 -0.005903 -0.003938 0.015799 0.000000 0.000000 0.000000
# 4 0.000000 0.000000 0.000000 0.080425 0.000000 0.000000
# 5 0.000000 0.000000 0.000000 0.000000 -0.160501 0.000000
# 6 0.000000 0.000000 0.000000 0.000000 0.000000 0.037785
#
#
# Mechanical properties :
#
#
# Convention : Reuss Voigt Hill
#
# Bulk Modulus (GPa) = 35.49246 37.30488 36.39867
# Shear Modulus (GPa) = 121.09758 16.61833 68.85795
#
# Velocity S-wave (km/s) = 7.82162 2.89749 5.89802
# Velocity P-wave (km/s) = 9.97501 5.48089 8.04801
#
# Compressibility (1/GPa) = 0.02817500
#
# Stress axis : x y z
#
# Youngs Moduli (GPa) = 46.61644 71.77884 63.29690
#
# Poissons Ratio (x) = 0.11929 0.37365
# Poissons Ratio (y) = 0.07747 0.24929
# Poissons Ratio (z) = 0.27518 0.28269
#
# Static dielectric constant tensor:
#      x y z
#    x 1.727050 0.000000 0.000000 
#    y 0.000000 1.758620 0.000000 
#    z 0.000000 0.000000 1.726310 
# 
# From -- ./inp_files/7323.got.cif
#   From: 2010.05.17/outbox.cif.g08.bks.cpg/sg56_4_cif.got.tgz:7323.got - 2010.06.03 13:42:01.
