data_PCOD9430484
_publ_section_title
;
Structure prediction by ZEFSAII (Michael W. Deem and Ramdas Pophale) SiO2 
 PCOD9430484
Probable space group: P C C N
;
_chemical_formula_sum "Si O2"
_cell_formula_units_Z 32
_cell_length_a 20.722368
_cell_length_b 6.654375
_cell_length_c 7.601510
_cell_angle_alpha 90.000000
_cell_angle_beta 90.000000
_cell_angle_gamma 90.000000
_cell_volume 1048.205718
_symmetry_space_group_name_H-M "P C C N"
_symmetry_group_IT_number 56
_symmetry_cell_setting 'orthorhombic'
loop_
_space_group_symop_operation_xyz
x,y,z
1/2-x,1/2-y,z
1/2+x,-y,1/2-z
-x,1/2+y,1/2-z
-x,-y,-z
1/2+x,1/2+y,-z
1/2-x,y,1/2+z
x,1/2-y,1/2+z
loop_
_atom_site_type_symbol
_atom_site_label
_atom_site_fract_x
_atom_site_fract_y
_atom_site_fract_z
Si Si1 0.729170 0.484891 0.067645
Si Si2 0.975672 0.943998 0.302260
Si Si3 0.403257 0.612572 0.047590
Si Si4 0.648736 0.935567 0.913545
O O1 0.750000 0.250000 0.061980
O O2 0.695567 0.522790 0.251902
O O3 0.667246 0.492968 0.935499
O O4 0.796060 0.609190 0.053724
O O5 0.914580 0.804870 0.364788
O O6 0.041018 0.894823 0.195781
O O7 0.000000 0.000000 0.500000
O O8 0.937227 0.046857 0.135616
O O9 0.382832 0.848220 0.039618
#
# Coordination Sequence:
#
# PCOD9430484 Si02
#       4
#     8   8   8   8
#     4   9  17  29  52  79 109 144 171 219 286 328
#     4  10  22  33  52  76 112 150 185 213 270 337
#     4   9  20  37  48  78 117 142 183 227 269 330
#     4  10  20  33  55  83 117 147 176 225 279 333
#
# _framework density 30.528358999999998
#
# number of rings (size 3 to 8) (size 9 to 14) (size 15 to 20)
#    0.000    2.500    0.000    2.250   14.000    0.000 
#    0.000    0.000    0.000    0.000    0.000    1.750 
#    0.000    0.000    0.000    0.000    0.000    0.000 
#
# Total GULP energy -178524.394952 kJ/mol
# GULP energy per Si atom -5578.887342 kJ/mol
# Density = 3.045888 g / cm^3
# Si number density = 30.528359 Si / 1000 Ang^3
#
#
#
# Elastic Constant Matrix: (Units=GPa)
#
#
# Indices 1 2 3 4 5 6 
#
# 1 324.6097 71.4843 134.8288 0.0000 0.0000 0.0000
# 2 71.4843 68.0922 44.7898 0.0000 0.0000 0.0000
# 3 134.8288 44.7898 216.5933 0.0000 0.0000 0.0000
# 4 0.0000 0.0000 0.0000 21.3563 0.0000 0.0000
# 5 0.0000 0.0000 0.0000 0.0000 84.7642 0.0000
# 6 0.0000 0.0000 0.0000 0.0000 0.0000 13.6069
#
#
#
# Elastic Compliance Matrix: (Units=1/GPa)
#
#
# Indices 1 2 3 4 5 6 
#
# 1 0.004799 -0.003557 -0.002252 0.000000 0.000000 0.000000
# 2 -0.003557 0.019635 -0.001846 0.000000 0.000000 0.000000
# 3 -0.002252 -0.001846 0.006401 0.000000 0.000000 0.000000
# 4 0.000000 0.000000 0.000000 0.046825 0.000000 0.000000
# 5 0.000000 0.000000 0.000000 0.000000 0.011797 0.000000
# 6 0.000000 0.000000 0.000000 0.000000 0.000000 0.073492
#
#
# Mechanical properties :
#
#
# Convention : Reuss Voigt Hill
#
# Bulk Modulus (GPa) = 64.41532 123.50011 93.95771
# Shear Modulus (GPa) = 27.25785 47.82497 37.54141
#
# Velocity S-wave (km/s) = 2.99133 3.96229 3.51054
# Velocity P-wave (km/s) = 5.75124 7.84060 6.87575
#
# Compressibility (1/GPa) = 0.01552426
#
# Stress axis : x y z
#
# Youngs Moduli (GPa) = 208.36217 50.93067 156.23674
#
# Poissons Ratio (x) = 0.18117 0.35184
# Poissons Ratio (y) = 0.74117 0.28841
# Poissons Ratio (z) = 0.46923 0.09402
#
# Static dielectric constant tensor:
#      x y z
#    x 2.538630 0.000000 0.000000 
#    y 0.000000 3.177960 0.000000 
#    z 0.000000 0.000000 2.351070 
# 
# From -- ./inp_files/3865.got.cif
#   From: 2010.05.17/outbox.cif.g08.bks.cpg/sg56_2_cif.got.tgz:3865.got - 2010.06.03 13:42:01.
