data_PCOD9430199
_publ_section_title
;
Structure prediction by ZEFSAII (Michael W. Deem and Ramdas Pophale) SiO2 
 PCOD9430199
Probable space group: P C C N
;
_chemical_formula_sum "Si O2"
_cell_formula_units_Z 52
_cell_length_a 28.227253
_cell_length_b 5.054960
_cell_length_c 18.788793
_cell_angle_alpha 90.000000
_cell_angle_beta 90.000000
_cell_angle_gamma 90.000000
_cell_volume 2680.928434
_symmetry_space_group_name_H-M "P C C N"
_symmetry_group_IT_number 56
_symmetry_cell_setting 'orthorhombic'
loop_
_space_group_symop_operation_xyz
x,y,z
1/2-x,1/2-y,z
1/2+x,-y,1/2-z
-x,1/2+y,1/2-z
-x,-y,-z
1/2+x,1/2+y,-z
1/2-x,y,1/2+z
x,1/2-y,1/2+z
loop_
_atom_site_type_symbol
_atom_site_label
_atom_site_fract_x
_atom_site_fract_y
_atom_site_fract_z
Si Si1 0.346373 0.400014 0.149450
Si Si2 0.610935 0.951211 0.963654
Si Si3 0.750000 0.750000 0.346658
Si Si4 0.937117 0.432223 0.266328
Si Si5 0.054707 0.551401 0.482686
Si Si6 0.202647 0.825830 0.544765
Si Si7 0.539493 0.939708 0.677789
O O1 0.371022 0.139296 0.114768
O O2 0.297495 0.346134 0.191965
O O3 0.387617 0.526354 0.195138
O O4 0.326119 0.590271 0.085663
O O5 0.661386 0.028512 0.998312
O O6 0.585836 0.693374 0.992207
O O7 0.574887 0.190209 0.977634
O O8 0.727220 0.521823 0.397073
O O9 0.940981 0.138109 0.236871
O O10 0.982246 0.465796 0.318814
O O11 0.945814 0.645393 0.202682
O O12 0.057620 0.545036 0.397375
O O13 0.000000 0.500000 0.500000
O O14 0.250000 0.750000 0.502029
#
# Coordination Sequence:
#
# PCOD9430199 Si02
#       7
#     8   8   4   8   8   8   8
#     4  10  19  35  60  91 119 148 192 240 305 347
#     4  11  22  35  58  90 117 156 188 237 302 353
#     4   8  18  30  56  92 120 142 186 244 298 348
#     4  10  22  38  60  79 116 155 193 241 284 347
#     4  12  24  39  57  85 121 159 198 249 284 349
#     4   9  18  35  56  92 120 142 188 245 302 355
#     4  10  23  39  54  84 113 156 200 233 284 342
#
# _framework density 19.396267000000002
#
# number of rings (size 3 to 8) (size 9 to 14) (size 15 to 20)
#    0.000    1.846    1.538    2.308    4.308    2.462 
#    0.000    0.000    0.000    0.000    8.000    0.000 
#    0.000    0.000    0.000    0.000    0.000    0.000 
#
# Total GULP energy -289575.209050 kJ/mol
# GULP energy per Si atom -5568.754020 kJ/mol
# Density = 1.935212 g / cm^3
# Si number density = 19.396267 Si / 1000 Ang^3
#
#
#
# Elastic Constant Matrix: (Units=GPa)
#
#
# Indices 1 2 3 4 5 6 
#
# 1 163.1304 20.0122 33.4615 0.0000 0.0000 0.0000
# 2 20.0122 87.8225 5.3430 0.0000 0.0000 0.0000
# 3 33.4615 5.3430 25.4853 0.0000 0.0000 0.0000
# 4 0.0000 0.0000 0.0000 11.7419 0.0000 0.0000
# 5 0.0000 0.0000 0.0000 0.0000 19.2278 0.0000
# 6 0.0000 0.0000 0.0000 0.0000 0.0000 38.0058
#
#
#
# Elastic Compliance Matrix: (Units=1/GPa)
#
#
# Indices 1 2 3 4 5 6 
#
# 1 0.008529 -0.001279 -0.010930 0.000000 0.000000 0.000000
# 2 -0.001279 0.011725 -0.000780 0.000000 0.000000 0.000000
# 3 -0.010930 -0.000780 0.053753 0.000000 0.000000 0.000000
# 4 0.000000 0.000000 0.000000 0.085165 0.000000 0.000000
# 5 0.000000 0.000000 0.000000 0.000000 0.052008 0.000000
# 6 0.000000 0.000000 0.000000 0.000000 0.000000 0.026312
#
#
# Mechanical properties :
#
#
# Convention : Reuss Voigt Hill
#
# Bulk Modulus (GPa) = 20.82009 43.78572 32.30291
# Shear Modulus (GPa) = 17.89043 28.30318 23.09681
#
# Velocity S-wave (km/s) = 3.04034 3.82410 3.45452
# Velocity P-wave (km/s) = 4.80440 6.49012 5.70981
#
# Compressibility (1/GPa) = 0.04803053
#
# Stress axis : x y z
#
# Youngs Moduli (GPa) = 117.24818 85.28514 18.60369
#
# Poissons Ratio (x) = 0.10904 0.20334
# Poissons Ratio (y) = 0.14990 0.01450
# Poissons Ratio (z) = 1.28154 0.06648
#
# Static dielectric constant tensor:
#      x y z
#    x 1.752320 0.000000 0.000000 
#    y 0.000000 1.779520 0.000000 
#    z 0.000000 0.000000 1.699050 
# 
# From -- ./inp_files/14078.got.cif
#   From: 2010.05.17/outbox.cif.g08.bks.cpg/sg56_8_cif.got.tgz:14078.got - 2010.06.03 13:42:01.
