data_PCOD9430784
_publ_section_title
;
Structure prediction by ZEFSAII (Michael W. Deem and Ramdas Pophale) SiO2 
 PCOD9430784
Probable space group: P C C N
;
_chemical_formula_sum "Si O2"
_cell_formula_units_Z 48
_cell_length_a 5.157902
_cell_length_b 16.979166
_cell_length_c 22.244631
_cell_angle_alpha 90.000000
_cell_angle_beta 90.000000
_cell_angle_gamma 90.000000
_cell_volume 1948.115252
_symmetry_space_group_name_H-M "P C C N"
_symmetry_group_IT_number 56
_symmetry_cell_setting 'orthorhombic'
loop_
_space_group_symop_operation_xyz
x,y,z
1/2-x,1/2-y,z
1/2+x,-y,1/2-z
-x,1/2+y,1/2-z
-x,-y,-z
1/2+x,1/2+y,-z
1/2-x,y,1/2+z
x,1/2-y,1/2+z
loop_
_atom_site_type_symbol
_atom_site_label
_atom_site_fract_x
_atom_site_fract_y
_atom_site_fract_z
Si Si1 0.533488 0.646380 0.397440
Si Si2 0.093753 0.374951 0.508434
Si Si3 0.242940 0.499512 0.934647
Si Si4 0.250000 0.750000 0.299032
Si Si5 0.548073 0.045194 0.320778
Si Si6 0.455661 0.108879 0.762592
Si Si7 0.750000 0.250000 0.503114
O O1 0.824749 0.650220 0.423375
O O2 0.457018 0.554047 0.397759
O O3 0.434241 0.692097 0.339183
O O4 0.393944 0.691245 0.451936
O O5 0.320063 0.422143 0.473748
O O6 0.875002 0.439350 0.520071
O O7 0.971660 0.302008 0.472765
O O8 0.455059 0.468157 0.887950
O O9 0.440870 0.808492 0.262865
O O10 0.830775 0.081182 0.311269
O O11 0.332752 0.101504 0.289194
O O12 0.534624 0.959487 0.288502
#
# Coordination Sequence:
#
# PCOD9430784 Si02
#       7
#     8   8   8   4   8   8   4
#     4  10  20  37  62  96 124 160 212 282 343 387
#     4  10  21  37  62  94 135 166 226 270 335 413
#     4  10  21  38  63  97 122 177 223 274 335 418
#     4  11  22  42  67 102 124 165 222 288 351 384
#     4  10  22  43  64  95 131 175 216 273 340 399
#     4  10  23  42  65  94 130 168 225 278 332 403
#     4   9  20  38  49  90 130 165 202 262 329 392
#
# _framework density 24.639199999999999
#
# number of rings (size 3 to 8) (size 9 to 14) (size 15 to 20)
#    0.000    2.000    1.667    1.000    2.333    2.000 
#    9.000    0.833    3.667    0.000    0.000    0.000 
#    0.000    0.000    0.000    0.000    0.000    0.000 
#
# Total GULP energy -268016.739163 kJ/mol
# GULP energy per Si atom -5583.682066 kJ/mol
# Density = 2.458312 g / cm^3
# Si number density = 24.639200 Si / 1000 Ang^3
#
#
#
# Elastic Constant Matrix: (Units=GPa)
#
#
# Indices 1 2 3 4 5 6 
#
# 1 78.4709 33.4411 2.8420 0.0000 0.0000 0.0000
# 2 33.4411 148.4379 30.6782 0.0000 0.0000 0.0000
# 3 2.8420 30.6782 59.0806 0.0000 0.0000 0.0000
# 4 0.0000 0.0000 0.0000 35.5982 0.0000 0.0000
# 5 0.0000 0.0000 0.0000 0.0000 17.9911 0.0000
# 6 0.0000 0.0000 0.0000 0.0000 0.0000 21.3578
#
#
#
# Elastic Compliance Matrix: (Units=1/GPa)
#
#
# Indices 1 2 3 4 5 6 
#
# 1 0.014160 -0.003416 0.001093 0.000000 0.000000 0.000000
# 2 -0.003416 0.008371 -0.004182 0.000000 0.000000 0.000000
# 3 0.001093 -0.004182 0.019045 0.000000 0.000000 0.000000
# 4 0.000000 0.000000 0.000000 0.028091 0.000000 0.000000
# 5 0.000000 0.000000 0.000000 0.000000 0.055583 0.000000
# 6 0.000000 0.000000 0.000000 0.000000 0.000000 0.046821
#
#
# Mechanical properties :
#
#
# Convention : Reuss Voigt Hill
#
# Bulk Modulus (GPa) = 35.00846 46.65688 40.83267
# Shear Modulus (GPa) = 25.69325 29.59131 27.64228
#
# Velocity S-wave (km/s) = 3.23271 3.46928 3.35308
# Velocity P-wave (km/s) = 5.30784 5.91820 5.62131
#
# Compressibility (1/GPa) = 0.02856453
#
# Stress axis : x y z
#
# Youngs Moduli (GPa) = 70.62311 119.46403 52.50682
#
# Poissons Ratio (x) = 0.40806 -0.05737
# Poissons Ratio (y) = 0.24123 0.21960
# Poissons Ratio (z) = -0.07716 0.49963
#
# Static dielectric constant tensor:
#      x y z
#    x 2.199790 0.000000 0.000000 
#    y 0.000000 1.987160 0.000000 
#    z 0.000000 0.000000 1.962190 
# 
# From -- ./inp_files/20089.got.cif
#   From: 2010.05.17/outbox.cif.g08.bks.cpg/sg56_11_cif.got.tgz:20089.got - 2010.06.03 13:42:01.
