data_PCOD9430747
_publ_section_title
;
Structure prediction by ZEFSAII (Michael W. Deem and Ramdas Pophale) SiO2 
 PCOD9430747
Probable space group: P C C N
;
_chemical_formula_sum "Si O2"
_cell_formula_units_Z 36
_cell_length_a 11.696946
_cell_length_b 14.186464
_cell_length_c 8.591366
_cell_angle_alpha 90.000000
_cell_angle_beta 90.000000
_cell_angle_gamma 90.000000
_cell_volume 1425.636697
_symmetry_space_group_name_H-M "P C C N"
_symmetry_group_IT_number 56
_symmetry_cell_setting 'orthorhombic'
loop_
_space_group_symop_operation_xyz
x,y,z
1/2-x,1/2-y,z
1/2+x,-y,1/2-z
-x,1/2+y,1/2-z
-x,-y,-z
1/2+x,1/2+y,-z
1/2-x,y,1/2+z
x,1/2-y,1/2+z
loop_
_atom_site_type_symbol
_atom_site_label
_atom_site_fract_x
_atom_site_fract_y
_atom_site_fract_z
Si Si1 0.817358 0.103290 0.120300
Si Si2 0.250000 0.250000 0.092650
Si Si3 0.377792 0.534709 0.190931
Si Si4 0.105369 0.157990 0.353522
Si Si5 0.916015 0.300332 0.100815
O O1 0.877686 0.038180 0.994017
O O2 0.894151 0.194015 0.156577
O O3 0.705214 0.154792 0.045248
O O4 0.756096 0.046212 0.256696
O O5 0.148226 0.219033 0.207021
O O6 0.289324 0.165821 0.978138
O O7 0.419805 0.444578 0.284507
O O8 0.441214 0.627576 0.257689
O O9 0.003528 0.193750 0.461047
#
# Coordination Sequence:
#
# PCOD9430747 Si02
#       5
#     8   4   8   8   8
#     4   9  21  33  59  94 121 147 190 249 298 359
#     4  10  26  40  60  80 116 160 208 246 288 350
#     4  10  20  37  59  89 121 151 197 241 297 356
#     4  11  22  43  61  83 116 165 203 245 294 359
#     4   9  22  34  64  86 122 154 191 242 311 355
#
# _framework density 25.251873
#
# number of rings (size 3 to 8) (size 9 to 14) (size 15 to 20)
#    1.333    0.889    0.000    2.000    9.333    0.000 
#    0.000    0.000    0.000    6.667    0.000    0.000 
#    0.000    0.000    0.000    0.000    0.000    0.000 
#
# Total GULP energy -201079.202882 kJ/mol
# GULP energy per Si atom -5585.533413 kJ/mol
# Density = 2.519440 g / cm^3
# Si number density = 25.251873 Si / 1000 Ang^3
#
#
#
# Elastic Constant Matrix: (Units=GPa)
#
#
# Indices 1 2 3 4 5 6 
#
# 1 60.1406 5.2565 1.7392 0.0000 0.0000 0.0000
# 2 5.2565 66.2650 -6.1534 0.0000 0.0000 0.0000
# 3 1.7392 -6.1534 72.1391 0.0000 0.0000 0.0000
# 4 0.0000 0.0000 0.0000 31.0373 0.0000 0.0000
# 5 0.0000 0.0000 0.0000 0.0000 28.9957 0.0000
# 6 0.0000 0.0000 0.0000 0.0000 0.0000 36.8111
#
#
#
# Elastic Compliance Matrix: (Units=1/GPa)
#
#
# Indices 1 2 3 4 5 6 
#
# 1 0.016763 -0.001378 -0.000522 0.000000 0.000000 0.000000
# 2 -0.001378 0.015325 0.001340 0.000000 0.000000 0.000000
# 3 -0.000522 0.001340 0.013989 0.000000 0.000000 0.000000
# 4 0.000000 0.000000 0.000000 0.032219 0.000000 0.000000
# 5 0.000000 0.000000 0.000000 0.000000 0.034488 0.000000
# 6 0.000000 0.000000 0.000000 0.000000 0.000000 0.027166
#
#
# Mechanical properties :
#
#
# Convention : Reuss Voigt Hill
#
# Bulk Modulus (GPa) = 22.24298 22.24771 22.24535
# Shear Modulus (GPa) = 32.04002 32.54899 32.29451
#
# Velocity S-wave (km/s) = 3.56591 3.59412 3.58004
# Velocity P-wave (km/s) = 5.07758 5.10422 5.09092
#
# Compressibility (1/GPa) = 0.04495800
#
# Stress axis : x y z
#
# Youngs Moduli (GPa) = 59.65431 65.25401 71.48463
#
# Poissons Ratio (x) = 0.08993 0.03729
# Poissons Ratio (y) = 0.08222 -0.09582
# Poissons Ratio (z) = 0.03112 -0.08747
#
# Static dielectric constant tensor:
#      x y z
#    x 2.120630 0.000000 0.000000 
#    y 0.000000 1.964560 0.000000 
#    z 0.000000 0.000000 1.942930 
# 
# From -- ./inp_files/3165.got.cif
#   From: 2010.05.17/outbox.cif.g08.bks.cpg/sg56_2_cif.got.tgz:3165.got - 2010.06.03 13:42:01.
