data_PCOD9430351
_publ_section_title
;
Structure prediction by ZEFSAII (Michael W. Deem and Ramdas Pophale) SiO2 
 PCOD9430351
Probable space group: P C C N
;
_chemical_formula_sum "Si O2"
_cell_formula_units_Z 40
_cell_length_a 15.849242
_cell_length_b 8.395573
_cell_length_c 11.833390
_cell_angle_alpha 90.000000
_cell_angle_beta 90.000000
_cell_angle_gamma 90.000000
_cell_volume 1574.591914
_symmetry_space_group_name_H-M "P C C N"
_symmetry_group_IT_number 56
_symmetry_cell_setting 'orthorhombic'
loop_
_space_group_symop_operation_xyz
x,y,z
1/2-x,1/2-y,z
1/2+x,-y,1/2-z
-x,1/2+y,1/2-z
-x,-y,-z
1/2+x,1/2+y,-z
1/2-x,y,1/2+z
x,1/2-y,1/2+z
loop_
_atom_site_type_symbol
_atom_site_label
_atom_site_fract_x
_atom_site_fract_y
_atom_site_fract_z
Si Si1 0.159336 0.335439 0.553485
Si Si2 0.158767 0.671029 0.957253
Si Si3 0.596248 0.537523 0.339745
Si Si4 0.775841 0.063087 0.763874
Si Si5 0.061019 0.981265 0.892837
O O1 0.250000 0.250000 0.548149
O O2 0.168419 0.489307 0.635454
O O3 0.129821 0.387918 0.431194
O O4 0.093197 0.210956 0.606065
O O5 0.250000 0.750000 0.989136
O O6 0.107444 0.590513 0.059432
O O7 0.181251 0.546017 0.858304
O O8 0.104090 0.809505 0.901740
O O9 0.687497 0.524998 0.279584
O O10 0.532729 0.508441 0.236323
O O11 0.750000 0.250000 0.770928
O O12 0.000000 0.000000 0.000000
#
# Coordination Sequence:
#
# PCOD9430351 Si02
#       5
#     8   8   8   8   8
#     4  10  24  41  69  98 140 174 236 287 339 403
#     4  11  22  41  72  98 132 175 243 280 335 414
#     4  11  23  40  67  97 133 179 224 285 347 393
#     4  10  19  38  69 101 126 172 229 287 335 401
#     4  12  27  44  66 101 144 180 227 284 352 422
#
# _framework density 25.403407999999999
#
# number of rings (size 3 to 8) (size 9 to 14) (size 15 to 20)
#    0.000    1.200    4.000    4.200    2.800    2.400 
#    0.000    1.000    0.000    0.000    0.000    0.000 
#    0.000    0.000    0.000    0.000    0.000    0.000 
#
# Total GULP energy -223709.524367 kJ/mol
# GULP energy per Si atom -5592.738109 kJ/mol
# Density = 2.534559 g / cm^3
# Si number density = 25.403408 Si / 1000 Ang^3
#
#
#
# Elastic Constant Matrix: (Units=GPa)
#
#
# Indices 1 2 3 4 5 6 
#
# 1 38.7311 2.4382 -14.8266 0.0000 0.0000 0.0000
# 2 2.4382 103.9165 45.4432 0.0000 0.0000 0.0000
# 3 -14.8266 45.4432 140.4197 0.0000 0.0000 0.0000
# 4 0.0000 0.0000 0.0000 24.0352 0.0000 0.0000
# 5 0.0000 0.0000 0.0000 0.0000 32.3426 0.0000
# 6 0.0000 0.0000 0.0000 0.0000 0.0000 7.1298
#
#
#
# Elastic Compliance Matrix: (Units=1/GPa)
#
#
# Indices 1 2 3 4 5 6 
#
# 1 0.027338 -0.002218 0.003604 0.000000 0.000000 0.000000
# 2 -0.002218 0.011389 -0.003920 0.000000 0.000000 0.000000
# 3 0.003604 -0.003920 0.008771 0.000000 0.000000 0.000000
# 4 0.000000 0.000000 0.000000 0.041606 0.000000 0.000000
# 5 0.000000 0.000000 0.000000 0.000000 0.030919 0.000000
# 6 0.000000 0.000000 0.000000 0.000000 0.000000 0.140255
#
#
# Mechanical properties :
#
#
# Convention : Reuss Voigt Hill
#
# Bulk Modulus (GPa) = 23.56726 38.79742 31.18234
# Shear Modulus (GPa) = 17.88978 29.36903 23.62940
#
# Velocity S-wave (km/s) = 2.65661 3.40384 3.05317
# Velocity P-wave (km/s) = 4.32521 5.54562 4.97299
#
# Compressibility (1/GPa) = 0.04243174
#
# Stress axis : x y z
#
# Youngs Moduli (GPa) = 36.57861 87.80097 114.01607
#
# Poissons Ratio (x) = 0.19471 -0.41095
# Poissons Ratio (y) = 0.08112 0.44695
# Poissons Ratio (z) = -0.13184 0.34418
#
# Static dielectric constant tensor:
#      x y z
#    x 2.153240 0.000000 0.000000 
#    y 0.000000 2.000150 0.000000 
#    z 0.000000 0.000000 2.060690 
# 
# From -- ./inp_files/6329.got.cif
#   From: 2010.05.17/outbox.cif.g08.bks.cpg/sg56_4_cif.got.tgz:6329.got - 2010.06.03 13:42:01.
