data_PCOD9430126
_publ_section_title
;
Structure prediction by ZEFSAII (Michael W. Deem and Ramdas Pophale) SiO2 
 PCOD9430126
Probable space group: P C C N
;
_chemical_formula_sum "Si O2"
_cell_formula_units_Z 60
_cell_length_a 8.412003
_cell_length_b 17.533017
_cell_length_c 22.797207
_cell_angle_alpha 90.000000
_cell_angle_beta 90.000000
_cell_angle_gamma 90.000000
_cell_volume 3362.309715
_symmetry_space_group_name_H-M "P C C N"
_symmetry_group_IT_number 56
_symmetry_cell_setting 'orthorhombic'
loop_
_space_group_symop_operation_xyz
x,y,z
1/2-x,1/2-y,z
1/2+x,-y,1/2-z
-x,1/2+y,1/2-z
-x,-y,-z
1/2+x,1/2+y,-z
1/2-x,y,1/2+z
x,1/2-y,1/2+z
loop_
_atom_site_type_symbol
_atom_site_label
_atom_site_fract_x
_atom_site_fract_y
_atom_site_fract_z
Si Si1 0.049548 0.924150 0.173944
Si Si2 0.243221 0.004159 0.376313
Si Si3 0.688556 0.336483 0.938901
Si Si4 0.939643 0.376782 0.561014
Si Si5 0.545130 0.374907 0.693831
Si Si6 0.250000 0.750000 0.866612
Si Si7 0.235310 0.431749 0.634789
Si Si8 0.950802 0.456786 0.942335
O O1 0.120215 0.871503 0.121741
O O2 0.058973 0.885119 0.236795
O O3 0.869368 0.946820 0.159143
O O4 0.141098 0.005944 0.173906
O O5 0.110189 0.056555 0.405711
O O6 0.342636 0.954986 0.424577
O O7 0.148879 0.942657 0.336595
O O8 0.750000 0.250000 0.934439
O O9 0.847280 0.383370 0.954741
O O10 0.566421 0.355876 0.992173
O O11 0.843815 0.309658 0.593121
O O12 0.108334 0.387461 0.594011
O O13 0.625056 0.297130 0.672085
O O14 0.363111 0.383204 0.671517
O O15 0.340533 0.484654 0.592796
O O16 0.000000 0.500000 0.000000
#
# Coordination Sequence:
#
# PCOD9430126 Si02
#       8
#     8   8   8   8   8   4   8   8
#     4  10  21  36  60  84 118 150 193 239 294 352
#     4   9  19  35  61  86 109 148 198 251 284 331
#     4  11  23  36  57  85 124 161 186 235 301 362
#     4  10  19  37  57  87 112 143 198 239 293 339
#     4  10  20  38  58  85 117 151 198 238 295 344
#     4  10  22  36  58  80 112 160 188 242 284 348
#     4   9  21  34  60  88 104 147 194 251 285 329
#     4  10  19  34  58  85 114 147 194 241 288 344
#
# _framework density 17.844874999999998
#
# number of rings (size 3 to 8) (size 9 to 14) (size 15 to 20)
#    0.000    2.133    2.000    0.800    2.800    2.133 
#    0.000    2.000    2.933    0.000    0.000    0.000 
#    0.000    0.000    0.000    0.000    0.000    0.000 
#
# Total GULP energy -334565.133123 kJ/mol
# GULP energy per Si atom -5576.085552 kJ/mol
# Density = 1.780426 g / cm^3
# Si number density = 17.844875 Si / 1000 Ang^3
#
#
#
# Elastic Constant Matrix: (Units=GPa)
#
#
# Indices 1 2 3 4 5 6 
#
# 1 107.9028 28.7984 33.1494 0.0000 0.0000 0.0000
# 2 28.7984 71.9682 25.4839 0.0000 0.0000 0.0000
# 3 33.1494 25.4839 85.0561 0.0000 0.0000 0.0000
# 4 0.0000 0.0000 0.0000 12.3475 0.0000 0.0000
# 5 0.0000 0.0000 0.0000 0.0000 15.6027 0.0000
# 6 0.0000 0.0000 0.0000 0.0000 0.0000 22.6178
#
#
#
# Elastic Compliance Matrix: (Units=1/GPa)
#
#
# Indices 1 2 3 4 5 6 
#
# 1 0.011179 -0.003278 -0.003375 0.000000 0.000000 0.000000
# 2 -0.003278 0.016506 -0.003668 0.000000 0.000000 0.000000
# 3 -0.003375 -0.003668 0.014171 0.000000 0.000000 0.000000
# 4 0.000000 0.000000 0.000000 0.080988 0.000000 0.000000
# 5 0.000000 0.000000 0.000000 0.000000 0.064092 0.000000
# 6 0.000000 0.000000 0.000000 0.000000 0.000000 0.044213
#
#
# Mechanical properties :
#
#
# Convention : Reuss Voigt Hill
#
# Bulk Modulus (GPa) = 47.13758 48.86561 48.00160
# Shear Modulus (GPa) = 19.31534 21.94663 20.63099
#
# Velocity S-wave (km/s) = 3.29356 3.51073 3.40388
# Velocity P-wave (km/s) = 6.39812 6.62395 6.51201
#
# Compressibility (1/GPa) = 0.02121449
#
# Stress axis : x y z
#
# Youngs Moduli (GPa) = 89.45047 60.58550 70.56651
#
# Poissons Ratio (x) = 0.19863 0.23814
# Poissons Ratio (y) = 0.29326 0.25881
# Poissons Ratio (z) = 0.30187 0.22220
#
# Static dielectric constant tensor:
#      x y z
#    x 1.512610 0.000000 0.000000 
#    y 0.000000 1.579060 0.000000 
#    z 0.000000 0.000000 1.617400 
# 
# From -- ./inp_files/20623.got.cif
#   From: 2010.05.17/outbox.cif.g08.bks.cpg/sg56_11_cif.got.tgz:20623.got - 2010.06.03 13:42:01.
