data_PCOD9430057
_publ_section_title
;
Structure prediction by ZEFSAII (Michael W. Deem and Ramdas Pophale) SiO2 
 PCOD9430057
Probable space group: P C C N
;
_chemical_formula_sum "Si O2"
_cell_formula_units_Z 48
_cell_length_a 5.027705
_cell_length_b 13.720718
_cell_length_c 30.487651
_cell_angle_alpha 90.000000
_cell_angle_beta 90.000000
_cell_angle_gamma 90.000000
_cell_volume 2103.151656
_symmetry_space_group_name_H-M "P C C N"
_symmetry_group_IT_number 56
_symmetry_cell_setting 'orthorhombic'
loop_
_space_group_symop_operation_xyz
x,y,z
1/2-x,1/2-y,z
1/2+x,-y,1/2-z
-x,1/2+y,1/2-z
-x,-y,-z
1/2+x,1/2+y,-z
1/2-x,y,1/2+z
x,1/2-y,1/2+z
loop_
_atom_site_type_symbol
_atom_site_label
_atom_site_fract_x
_atom_site_fract_y
_atom_site_fract_z
Si Si1 0.065227 0.444344 0.156532
Si Si2 0.505684 0.815029 0.571660
Si Si3 0.306067 0.431645 0.748575
Si Si4 0.238949 0.630888 0.486866
Si Si5 0.434001 0.074742 0.340726
Si Si6 0.259616 0.366769 0.563314
O O1 0.129066 0.385762 0.201346
O O2 0.263352 0.537469 0.159217
O O3 0.139321 0.394547 0.111165
O O4 0.764445 0.482187 0.157051
O O5 0.250000 0.750000 0.583784
O O6 0.389821 0.886981 0.534379
O O7 0.610703 0.864420 0.615583
O O8 0.750000 0.750000 0.553314
O O9 0.510484 0.524192 0.750831
O O10 0.366152 0.376367 0.793877
O O11 0.250000 0.750000 0.486598
O O12 0.530099 0.597253 0.473185
O O13 0.033700 0.599390 0.449434
O O14 0.250000 0.250000 0.561351
#
# Coordination Sequence:
#
# PCOD9430057 Si02
#       6
#     8   8   8   8   8   8
#     4  10  19  34  54  78 105 137 172 211 256 308
#     4  11  21  36  56  77 101 136 176 215 256 306
#     4   8  16  31  52  72  99 137 170 197 248 317
#     4   9  18  33  51  71  99 138 174 201 249 317
#     4  10  20  35  54  78 104 135 173 214 257 307
#     4  10  19  33  53  76 102 135 173 210 249 301
#
# _framework density 22.822892
#
# number of rings (size 3 to 8) (size 9 to 14) (size 15 to 20)
#    0.000    2.333    0.000    4.500    0.000    0.000 
#    0.000    5.833    0.000    3.000    0.000    0.000 
#    0.000    0.000    0.000    0.000    0.000    0.000 
#
# Total GULP energy -267970.716208 kJ/mol
# GULP energy per Si atom -5582.723254 kJ/mol
# Density = 2.277095 g / cm^3
# Si number density = 22.822892 Si / 1000 Ang^3
#
#
#
# Elastic Constant Matrix: (Units=GPa)
#
#
# Indices 1 2 3 4 5 6 
#
# 1 96.6695 6.7023 12.7455 0.0000 0.0000 0.0000
# 2 6.7023 33.3322 21.4325 0.0000 0.0000 0.0000
# 3 12.7455 21.4325 192.0104 0.0000 0.0000 0.0000
# 4 0.0000 0.0000 0.0000 42.1969 0.0000 0.0000
# 5 0.0000 0.0000 0.0000 0.0000 37.4415 0.0000
# 6 0.0000 0.0000 0.0000 0.0000 0.0000 11.2534
#
#
#
# Elastic Compliance Matrix: (Units=1/GPa)
#
#
# Indices 1 2 3 4 5 6 
#
# 1 0.010535 -0.001798 -0.000499 0.000000 0.000000 0.000000
# 2 -0.001798 0.032628 -0.003523 0.000000 0.000000 0.000000
# 3 -0.000499 -0.003523 0.005634 0.000000 0.000000 0.000000
# 4 0.000000 0.000000 0.000000 0.023698 0.000000 0.000000
# 5 0.000000 0.000000 0.000000 0.000000 0.026708 0.000000
# 6 0.000000 0.000000 0.000000 0.000000 0.000000 0.088862
#
#
# Mechanical properties :
#
#
# Convention : Reuss Voigt Hill
#
# Bulk Modulus (GPa) = 26.91146 44.86364 35.88755
# Shear Modulus (GPa) = 23.57490 36.92047 30.24768
#
# Velocity S-wave (km/s) = 3.21744 4.02642 3.64445
# Velocity P-wave (km/s) = 5.06158 6.42776 5.78514
#
# Compressibility (1/GPa) = 0.03715889
#
# Stress axis : x y z
#
# Youngs Moduli (GPa) = 94.92259 30.64899 177.48269
#
# Poissons Ratio (x) = 0.05510 0.08850
# Poissons Ratio (y) = 0.17064 0.62520
# Poissons Ratio (z) = 0.04733 0.10796
#
# Static dielectric constant tensor:
#      x y z
#    x 1.817940 0.000000 0.000000 
#    y 0.000000 1.852960 0.000000 
#    z 0.000000 0.000000 1.936520 
# 
# From -- ./inp_files/22836.got.cif
#   From: 2010.05.17/outbox.cif.g08.bks.cpg/sg56_12_cif.got.tgz:22836.got - 2010.06.03 13:42:01.
