data_PCOD9430394
_publ_section_title
;
Structure prediction by ZEFSAII (Michael W. Deem and Ramdas Pophale) SiO2 
 PCOD9430394
Probable space group: P C C N
;
_chemical_formula_sum "Si O2"
_cell_formula_units_Z 48
_cell_length_a 9.585074
_cell_length_b 10.906870
_cell_length_c 19.372230
_cell_angle_alpha 90.000000
_cell_angle_beta 90.000000
_cell_angle_gamma 90.000000
_cell_volume 2025.234064
_symmetry_space_group_name_H-M "P C C N"
_symmetry_group_IT_number 56
_symmetry_cell_setting 'orthorhombic'
loop_
_space_group_symop_operation_xyz
x,y,z
1/2-x,1/2-y,z
1/2+x,-y,1/2-z
-x,1/2+y,1/2-z
-x,-y,-z
1/2+x,1/2+y,-z
1/2-x,y,1/2+z
x,1/2-y,1/2+z
loop_
_atom_site_type_symbol
_atom_site_label
_atom_site_fract_x
_atom_site_fract_y
_atom_site_fract_z
Si Si1 0.617874 0.169323 0.888291
Si Si2 0.912122 0.251170 0.636582
Si Si3 0.271992 0.443642 0.540433
Si Si4 0.544181 0.707326 0.003094
Si Si5 0.645229 0.923917 0.306140
Si Si6 0.550112 0.544097 0.288757
O O1 0.750000 0.250000 0.870104
O O2 0.654725 0.074455 0.951923
O O3 0.572077 0.089255 0.823454
O O4 0.509142 0.261327 0.921669
O O5 0.750000 0.250000 0.655727
O O6 0.930907 0.300291 0.558418
O O7 0.020410 0.326532 0.684758
O O8 0.976005 0.117214 0.649144
O O9 0.138729 0.414224 0.493520
O O10 0.368997 0.328082 0.521995
O O11 0.205146 0.432713 0.616724
O O12 0.795412 0.906646 0.267968
O O13 0.562454 0.036263 0.272151
#
# Coordination Sequence:
#
# PCOD9430394 Si02
#       6
#     8   8   8   8   8   8
#     4  11  23  38  63  97 133 172 208 273 342 389
#     4  11  21  37  65  95 120 171 230 265 321 403
#     4   9  20  38  67  87 127 172 217 268 322 385
#     4  10  19  40  66  90 124 171 221 264 323 396
#     4  10  21  39  62  93 123 173 216 270 323 390
#     4  11  23  40  65  93 135 168 215 281 336 386
#
# _framework density 23.700966000000001
#
# number of rings (size 3 to 8) (size 9 to 14) (size 15 to 20)
#    0.000    1.667    3.333    2.500    0.000    4.000 
#    0.000    1.667   22.000    0.000    0.000    0.000 
#    0.000    0.000    0.000    0.000    0.000    0.000 
#
# Total GULP energy -267542.903627 kJ/mol
# GULP energy per Si atom -5573.810492 kJ/mol
# Density = 2.364702 g / cm^3
# Si number density = 23.700966 Si / 1000 Ang^3
#
#
#
# Elastic Constant Matrix: (Units=GPa)
#
#
# Indices 1 2 3 4 5 6 
#
# 1 162.0857 10.3308 28.1364 0.0000 0.0000 0.0000
# 2 10.3308 20.7172 14.4441 0.0000 0.0000 0.0000
# 3 28.1364 14.4441 51.0747 0.0000 0.0000 0.0000
# 4 0.0000 0.0000 0.0000 31.0571 0.0000 0.0000
# 5 0.0000 0.0000 0.0000 0.0000 17.4197 0.0000
# 6 0.0000 0.0000 0.0000 0.0000 0.0000 51.9025
#
#
#
# Elastic Compliance Matrix: (Units=1/GPa)
#
#
# Indices 1 2 3 4 5 6 
#
# 1 0.006838 -0.000976 -0.003491 0.000000 0.000000 0.000000
# 2 -0.000976 0.060263 -0.016505 0.000000 0.000000 0.000000
# 3 -0.003491 -0.016505 0.026170 0.000000 0.000000 0.000000
# 4 0.000000 0.000000 0.000000 0.032199 0.000000 0.000000
# 5 0.000000 0.000000 0.000000 0.000000 0.057406 0.000000
# 6 0.000000 0.000000 0.000000 0.000000 0.000000 0.019267
#
#
# Mechanical properties :
#
#
# Convention : Reuss Voigt Hill
#
# Bulk Modulus (GPa) = 19.48281 37.74446 28.61364
# Shear Modulus (GPa) = 19.14277 32.14029 25.64153
#
# Velocity S-wave (km/s) = 2.84505 3.68649 3.29276
# Velocity P-wave (km/s) = 4.36240 5.83782 5.15319
#
# Compressibility (1/GPa) = 0.05132729
#
# Stress axis : x y z
#
# Youngs Moduli (GPa) = 146.24703 16.59388 38.21184
#
# Poissons Ratio (x) = 0.01619 0.13339
# Poissons Ratio (y) = 0.14272 0.63069
# Poissons Ratio (z) = 0.51053 0.27388
#
# Static dielectric constant tensor:
#      x y z
#    x 1.981110 0.000000 0.000000 
#    y 0.000000 1.995500 0.000000 
#    z 0.000000 0.000000 1.856340 
# 
# From -- ./inp_files/20505.got.cif
#   From: 2010.05.17/outbox.cif.g08.bks.cpg/sg56_11_cif.got.tgz:20505.got - 2010.06.03 13:42:01.
