data_PCOD9430019
_publ_section_title
;
Structure prediction by ZEFSAII (Michael W. Deem and Ramdas Pophale) SiO2 
 PCOD9430019
Probable space group: P C C N
;
_chemical_formula_sum "Si O2"
_cell_formula_units_Z 64
_cell_length_a 20.193461
_cell_length_b 27.793312
_cell_length_c 5.329659
_cell_angle_alpha 90.000000
_cell_angle_beta 90.000000
_cell_angle_gamma 90.000000
_cell_volume 2991.234669
_symmetry_space_group_name_H-M "P C C N"
_symmetry_group_IT_number 56
_symmetry_cell_setting 'orthorhombic'
loop_
_space_group_symop_operation_xyz
x,y,z
1/2-x,1/2-y,z
1/2+x,-y,1/2-z
-x,1/2+y,1/2-z
-x,-y,-z
1/2+x,1/2+y,-z
1/2-x,y,1/2+z
x,1/2-y,1/2+z
loop_
_atom_site_type_symbol
_atom_site_label
_atom_site_fract_x
_atom_site_fract_y
_atom_site_fract_z
Si Si1 0.045973 0.051017 0.778129
Si Si2 0.788938 0.016120 0.763385
Si Si3 0.586455 0.045571 0.937500
Si Si4 0.711390 0.599472 0.815635
Si Si5 0.521229 0.120334 0.663373
Si Si6 0.860446 0.737280 0.919439
Si Si7 0.901763 0.634612 0.013972
Si Si8 0.009830 0.723890 0.494014
O O1 0.981524 0.047429 0.599201
O O2 0.098355 0.087726 0.657704
O O3 0.019173 0.076516 0.029089
O O4 0.079768 0.998944 0.758989
O O5 0.765584 0.029021 0.046112
O O6 0.855544 0.036861 0.637316
O O7 0.797114 0.958182 0.785787
O O8 0.585543 0.094828 0.778620
O O9 0.741433 0.612668 0.081921
O O10 0.642767 0.624888 0.755778
O O11 0.526644 0.167248 0.490522
O O12 0.476230 0.140543 0.889521
O O13 0.824966 0.759109 0.683653
O O14 0.877805 0.681916 0.880069
O O15 0.930054 0.766300 0.966913
O O16 0.035006 0.752233 0.736777
#
# Coordination Sequence:
#
# PCOD9430019 Si02
#       8
#     8   8   8   8   8   8   8   8
#     4  10  21  35  53  83 124 153 186 234 301 357
#     4  10  22  40  62  78 110 161 204 242 277 330
#     4  10  22  37  51  89 122 154 194 237 294 354
#     4  10  23  39  55  79 103 144 203 255 281 332
#     4  11  22  32  59  86 118 160 181 239 298 368
#     4  10  19  32  52  80 104 140 189 232 286 356
#     4  11  21  34  58  79 108 152 194 240 300 348
#     4  10  19  35  53  81 115 146 192 227 282 355
#
# _framework density 21.395845999999999
#
# number of rings (size 3 to 8) (size 9 to 14) (size 15 to 20)
#    0.000    1.750    3.750    1.875    5.250    1.000 
#    0.000    0.000    0.000    2.250    0.000    0.000 
#    0.000    3.000    0.000    0.000    0.000    0.000 
#
# Total GULP energy -357450.908472 kJ/mol
# GULP energy per Si atom -5585.170445 kJ/mol
# Density = 2.134715 g / cm^3
# Si number density = 21.395846 Si / 1000 Ang^3
#
#
#
# Elastic Constant Matrix: (Units=GPa)
#
#
# Indices 1 2 3 4 5 6 
#
# 1 40.0037 30.6954 6.9568 0.0000 0.0000 0.0000
# 2 30.6954 75.4918 23.0327 0.0000 0.0000 0.0000
# 3 6.9568 23.0327 92.0423 0.0000 0.0000 0.0000
# 4 0.0000 0.0000 0.0000 15.8893 0.0000 0.0000
# 5 0.0000 0.0000 0.0000 0.0000 22.6684 0.0000
# 6 0.0000 0.0000 0.0000 0.0000 0.0000 6.0772
#
#
#
# Elastic Compliance Matrix: (Units=1/GPa)
#
#
# Indices 1 2 3 4 5 6 
#
# 1 0.036424 -0.015125 0.001032 0.000000 0.000000 0.000000
# 2 -0.015125 0.020622 -0.004017 0.000000 0.000000 0.000000
# 3 0.001032 -0.004017 0.011792 0.000000 0.000000 0.000000
# 4 0.000000 0.000000 0.000000 0.062936 0.000000 0.000000
# 5 0.000000 0.000000 0.000000 0.000000 0.044114 0.000000
# 6 0.000000 0.000000 0.000000 0.000000 0.000000 0.164549
#
#
# Mechanical properties :
#
#
# Convention : Reuss Voigt Hill
#
# Bulk Modulus (GPa) = 30.65891 36.54531 33.60211
# Shear Modulus (GPa) = 12.90225 18.71717 15.80971
#
# Velocity S-wave (km/s) = 2.45832 2.96092 2.72125
# Velocity P-wave (km/s) = 4.73479 5.36722 5.06089
#
# Compressibility (1/GPa) = 0.03261695
#
# Stress axis : x y z
#
# Youngs Moduli (GPa) = 27.45461 48.49181 84.80423
#
# Poissons Ratio (x) = 0.73344 -0.08751
# Poissons Ratio (y) = 0.41525 0.34068
# Poissons Ratio (z) = -0.02833 0.19481
#
# Static dielectric constant tensor:
#      x y z
#    x 1.788620 0.000000 0.000000 
#    y 0.000000 1.798470 0.000000 
#    z 0.000000 0.000000 1.881830 
# 
# From -- ./inp_files/962.got.cif
#   From: 2010.05.17/outbox.cif.g08.bks.cpg/sg56_1_cif.got.tgz:962.got - 2010.06.03 13:42:01.
