data_PCOD9430287
_publ_section_title
;
Structure prediction by ZEFSAII (Michael W. Deem and Ramdas Pophale) SiO2 
 PCOD9430287
Probable space group: P C C N
;
_chemical_formula_sum "Si O2"
_cell_formula_units_Z 60
_cell_length_a 9.475090
_cell_length_b 25.498489
_cell_length_c 10.796757
_cell_angle_alpha 90.000000
_cell_angle_beta 90.000000
_cell_angle_gamma 90.000000
_cell_volume 2608.501654
_symmetry_space_group_name_H-M "P C C N"
_symmetry_group_IT_number 56
_symmetry_cell_setting 'orthorhombic'
loop_
_space_group_symop_operation_xyz
x,y,z
1/2-x,1/2-y,z
1/2+x,-y,1/2-z
-x,1/2+y,1/2-z
-x,-y,-z
1/2+x,1/2+y,-z
1/2-x,y,1/2+z
x,1/2-y,1/2+z
loop_
_atom_site_type_symbol
_atom_site_label
_atom_site_fract_x
_atom_site_fract_y
_atom_site_fract_z
Si Si1 0.212623 0.142287 0.813005
Si Si2 0.276250 0.463036 0.975145
Si Si3 0.674134 0.347175 0.710731
Si Si4 0.513285 0.017769 0.684453
Si Si5 0.250000 0.750000 0.935949
Si Si6 0.523200 0.325855 0.949922
Si Si7 0.990883 0.132987 0.223713
Si Si8 0.529767 0.924077 0.869353
O O1 0.373162 0.157153 0.787465
O O2 0.142041 0.119029 0.686758
O O3 0.124278 0.187086 0.883047
O O4 0.203749 0.091730 0.903063
O O5 0.385650 0.473162 0.087700
O O6 0.119271 0.456514 0.029253
O O7 0.334650 0.507253 0.880640
O O8 0.660391 0.290316 0.648401
O O9 0.593138 0.358246 0.838083
O O10 0.836415 0.346818 0.749836
O O11 0.611596 0.389298 0.612337
O O12 0.513413 0.071884 0.757116
O O13 0.489209 0.967580 0.768364
O O14 0.364467 0.718588 0.016233
O O15 0.497789 0.357650 0.075760
#
# Coordination Sequence:
#
# PCOD9430287 Si02
#       8
#     8   8   8   8   4   8   8   8
#     4  10  19  37  62  90 125 175 219 274 335 396
#     4  10  20  37  60  87 134 181 226 277 330 394
#     4  10  24  40  67  99 130 173 227 284 358 416
#     4  10  21  35  60  91 137 184 223 278 337 392
#     4  10  22  44  72  98 130 166 220 294 352 434
#     4  10  21  42  69  95 129 171 215 282 350 409
#     4  11  22  38  64 100 138 179 229 280 336 408
#     4  10  21  36  61  91 130 177 230 280 330 413
#
# _framework density 23.001709000000002
#
# number of rings (size 3 to 8) (size 9 to 14) (size 15 to 20)
#    0.000    1.867    2.667    0.400    3.733    2.133 
#    0.000    1.333    0.000   51.200    0.000    0.000 
#    0.000    0.000    0.000    0.000    0.000    0.000 
#
# Total GULP energy -334479.423306 kJ/mol
# GULP energy per Si atom -5574.657055 kJ/mol
# Density = 2.294936 g / cm^3
# Si number density = 23.001709 Si / 1000 Ang^3
#
#
#
# Elastic Constant Matrix: (Units=GPa)
#
#
# Indices 1 2 3 4 5 6 
#
# 1 137.6271 28.7410 48.7468 0.0000 0.0000 0.0000
# 2 28.7410 60.9516 13.4465 0.0000 0.0000 0.0000
# 3 48.7468 13.4465 60.1103 0.0000 0.0000 0.0000
# 4 0.0000 0.0000 0.0000 19.9792 0.0000 0.0000
# 5 0.0000 0.0000 0.0000 0.0000 37.2073 0.0000
# 6 0.0000 0.0000 0.0000 0.0000 0.0000 27.0650
#
#
#
# Elastic Compliance Matrix: (Units=1/GPa)
#
#
# Indices 1 2 3 4 5 6 
#
# 1 0.010799 -0.003324 -0.008014 0.000000 0.000000 0.000000
# 2 -0.003324 0.018281 -0.001394 0.000000 0.000000 0.000000
# 3 -0.008014 -0.001394 0.023447 0.000000 0.000000 0.000000
# 4 0.000000 0.000000 0.000000 0.050052 0.000000 0.000000
# 5 0.000000 0.000000 0.000000 0.000000 0.026876 0.000000
# 6 0.000000 0.000000 0.000000 0.000000 0.000000 0.036948
#
#
# Mechanical properties :
#
#
# Convention : Reuss Voigt Hill
#
# Bulk Modulus (GPa) = 36.95004 48.95085 42.95044
# Shear Modulus (GPa) = 24.88960 28.03395 26.46178
#
# Velocity S-wave (km/s) = 3.29306 3.49489 3.39547
# Velocity P-wave (km/s) = 5.52792 6.13296 5.83829
#
# Compressibility (1/GPa) = 0.02706357
#
# Stress axis : x y z
#
# Youngs Moduli (GPa) = 92.60506 54.70051 42.65019
#
# Poissons Ratio (x) = 0.18183 0.34178
# Poissons Ratio (y) = 0.30782 0.05945
# Poissons Ratio (z) = 0.74210 0.07624
#
# Static dielectric constant tensor:
#      x y z
#    x 1.943440 0.000000 0.000000 
#    y 0.000000 1.843400 0.000000 
#    z 0.000000 0.000000 1.932530 
# 
# From -- ./inp_files/6563.got.cif
#   From: 2010.05.17/outbox.cif.g08.bks.cpg/sg56_4_cif.got.tgz:6563.got - 2010.06.03 13:42:01.
