data_PCOD9430371
_publ_section_title
;
Structure prediction by ZEFSAII (Michael W. Deem and Ramdas Pophale) SiO2 
 PCOD9430371
Probable space group: P C C N
;
_chemical_formula_sum "Si O2"
_cell_formula_units_Z 40
_cell_length_a 8.079077
_cell_length_b 11.624602
_cell_length_c 18.778054
_cell_angle_alpha 90.000000
_cell_angle_beta 90.000000
_cell_angle_gamma 90.000000
_cell_volume 1763.560746
_symmetry_space_group_name_H-M "P C C N"
_symmetry_group_IT_number 56
_symmetry_cell_setting 'orthorhombic'
loop_
_space_group_symop_operation_xyz
x,y,z
1/2-x,1/2-y,z
1/2+x,-y,1/2-z
-x,1/2+y,1/2-z
-x,-y,-z
1/2+x,1/2+y,-z
1/2-x,y,1/2+z
x,1/2-y,1/2+z
loop_
_atom_site_type_symbol
_atom_site_label
_atom_site_fract_x
_atom_site_fract_y
_atom_site_fract_z
Si Si1 0.852806 0.905523 0.087341
Si Si2 0.299544 0.625717 0.398994
Si Si3 0.823784 0.950735 0.720652
Si Si4 0.158726 0.631247 0.187874
Si Si5 0.994352 0.318791 0.958989
O O1 0.817881 0.888747 0.172589
O O2 0.987021 0.817626 0.058060
O O3 0.678710 0.869432 0.050445
O O4 0.856077 0.043224 0.079108
O O5 0.250000 0.750000 0.372216
O O6 0.377486 0.551382 0.335514
O O7 0.415809 0.648864 0.466303
O O8 0.114451 0.869481 0.604728
O O9 0.984508 0.874150 0.730346
O O10 0.759225 0.019009 0.788093
O O11 0.250000 0.750000 0.202753
#
# Coordination Sequence:
#
# PCOD9430371 Si02
#       5
#     8   8   8   8   8
#     4   8  20  37  62  91 125 169 214 272 318 375
#     4  10  20  38  61  91 130 167 207 280 318 378
#     4   9  23  42  61  91 133 165 215 275 319 381
#     4  11  23  40  67  91 125 173 218 259 325 394
#     4  10  19  39  65  91 126 172 225 256 328 393
#
# _framework density 22.681386
#
# number of rings (size 3 to 8) (size 9 to 14) (size 15 to 20)
#    1.200    1.200    0.000    1.800    2.800    0.800 
#    0.000    2.000    0.000    0.000    0.000    0.000 
#    0.000    0.000    0.000    0.000    0.000    0.000 
#
# Total GULP energy -223094.123293 kJ/mol
# GULP energy per Si atom -5577.353082 kJ/mol
# Density = 2.262976 g / cm^3
# Si number density = 22.681386 Si / 1000 Ang^3
#
#
#
# Elastic Constant Matrix: (Units=GPa)
#
#
# Indices 1 2 3 4 5 6 
#
# 1 49.4116 17.5690 44.1745 0.0000 0.0000 0.0000
# 2 17.5690 114.8336 21.6078 0.0000 0.0000 0.0000
# 3 44.1745 21.6078 80.1256 0.0000 0.0000 0.0000
# 4 0.0000 0.0000 0.0000 25.2581 0.0000 0.0000
# 5 0.0000 0.0000 0.0000 0.0000 22.4195 0.0000
# 6 0.0000 0.0000 0.0000 0.0000 0.0000 49.6260
#
#
#
# Elastic Compliance Matrix: (Units=1/GPa)
#
#
# Indices 1 2 3 4 5 6 
#
# 1 0.040381 -0.002095 -0.021698 0.000000 0.000000 0.000000
# 2 -0.002095 0.009282 -0.001348 0.000000 0.000000 0.000000
# 3 -0.021698 -0.001348 0.024806 0.000000 0.000000 0.000000
# 4 0.000000 0.000000 0.000000 0.039591 0.000000 0.000000
# 5 0.000000 0.000000 0.000000 0.000000 0.044604 0.000000
# 6 0.000000 0.000000 0.000000 0.000000 0.000000 0.020151
#
#
# Mechanical properties :
#
#
# Convention : Reuss Voigt Hill
#
# Bulk Modulus (GPa) = 41.34337 45.67483 43.50910
# Shear Modulus (GPa) = 21.08273 30.19533 25.63903
#
# Velocity S-wave (km/s) = 3.05211 3.65263 3.36579
# Velocity P-wave (km/s) = 5.53967 6.16200 5.85910
#
# Compressibility (1/GPa) = 0.02418767
#
# Stress axis : x y z
#
# Youngs Moduli (GPa) = 24.76398 107.72967 40.31245
#
# Poissons Ratio (x) = 0.22573 0.87469
# Poissons Ratio (y) = 0.05189 0.05434
# Poissons Ratio (z) = 0.53732 0.14522
#
# Static dielectric constant tensor:
#      x y z
#    x 1.897690 0.000000 0.000000 
#    y 0.000000 1.904640 0.000000 
#    z 0.000000 0.000000 1.830640 
# 
# From -- ./inp_files/14416.got.cif
#   From: 2010.05.17/outbox.cif.g08.bks.cpg/sg56_8_cif.got.tgz:14416.got - 2010.06.03 13:42:01.
