data_PCOD9430685
_publ_section_title
;
Structure prediction by ZEFSAII (Michael W. Deem and Ramdas Pophale) SiO2 
 PCOD9430685
Probable space group: P C C N
;
_chemical_formula_sum "Si O2"
_cell_formula_units_Z 60
_cell_length_a 9.009025
_cell_length_b 12.602513
_cell_length_c 27.835637
_cell_angle_alpha 90.000000
_cell_angle_beta 90.000000
_cell_angle_gamma 90.000000
_cell_volume 3160.356755
_symmetry_space_group_name_H-M "P C C N"
_symmetry_group_IT_number 56
_symmetry_cell_setting 'orthorhombic'
loop_
_space_group_symop_operation_xyz
x,y,z
1/2-x,1/2-y,z
1/2+x,-y,1/2-z
-x,1/2+y,1/2-z
-x,-y,-z
1/2+x,1/2+y,-z
1/2-x,y,1/2+z
x,1/2-y,1/2+z
loop_
_atom_site_type_symbol
_atom_site_label
_atom_site_fract_x
_atom_site_fract_y
_atom_site_fract_z
Si Si1 0.978652 0.102631 0.779433
Si Si2 0.750000 0.750000 0.596803
Si Si3 0.599771 0.527697 0.430984
Si Si4 0.443311 0.185048 0.815188
Si Si5 0.244560 0.632024 0.140224
Si Si6 0.242486 0.526648 0.799028
Si Si7 0.808011 0.368908 0.097737
Si Si8 0.198196 0.057213 0.466915
O O1 0.891370 0.105990 0.830021
O O2 0.857771 0.092794 0.737723
O O3 0.059660 0.216877 0.778634
O O4 0.094973 0.006093 0.780284
O O5 0.884402 0.773734 0.633129
O O6 0.724678 0.850219 0.562657
O O7 0.699399 0.463120 0.394234
O O8 0.487881 0.614231 0.407346
O O9 0.477142 0.444261 0.451928
O O10 0.695338 0.567577 0.476017
O O11 0.610527 0.145708 0.821788
O O12 0.340981 0.085969 0.803740
O O13 0.250000 0.750000 0.116911
O O14 0.241053 0.581158 0.851294
O O15 0.750000 0.250000 0.093652
O O16 0.749153 0.444314 0.054460
#
# Coordination Sequence:
#
# PCOD9430685 Si02
#       8
#     8   4   8   8   8   8   8   8
#     4  11  25  36  62  90 123 158 215 262 317 378
#     4  12  16  36  68  90 118 156 220 262 324 354
#     4   9  18  39  56  89 123 165 206 254 315 378
#     4  11  19  39  63  88 117 161 209 264 311 374
#     4  10  20  36  62  89 119 164 212 263 308 378
#     4  12  22  39  60  90 127 164 207 267 316 378
#     4  10  20  36  62  86 123 166 207 248 323 383
#     4   9  19  33  62  91 119 160 208 256 319 372
#
# _framework density 18.985199000000001
#
# number of rings (size 3 to 8) (size 9 to 14) (size 15 to 20)
#    0.800    0.800    5.333    0.800    0.000    3.200 
#    0.000    1.333    0.000    4.800    0.000    0.000 
#    0.000    0.000    0.000    0.000    0.000    0.000 
#
# Total GULP energy -334213.926764 kJ/mol
# GULP energy per Si atom -5570.232113 kJ/mol
# Density = 1.894199 g / cm^3
# Si number density = 18.985199 Si / 1000 Ang^3
#
#
#
# Elastic Constant Matrix: (Units=GPa)
#
#
# Indices 1 2 3 4 5 6 
#
# 1 41.0868 28.4141 12.0259 0.0000 0.0000 0.0000
# 2 28.4141 101.3182 34.8138 0.0000 0.0000 0.0000
# 3 12.0259 34.8138 64.0724 0.0000 0.0000 0.0000
# 4 0.0000 0.0000 0.0000 18.5754 0.0000 0.0000
# 5 0.0000 0.0000 0.0000 0.0000 18.4586 0.0000
# 6 0.0000 0.0000 0.0000 0.0000 0.0000 32.3408
#
#
#
# Elastic Compliance Matrix: (Units=1/GPa)
#
#
# Indices 1 2 3 4 5 6 
#
# 1 0.030285 -0.008041 -0.001315 0.000000 0.000000 0.000000
# 2 -0.008041 0.014271 -0.006245 0.000000 0.000000 0.000000
# 3 -0.001315 -0.006245 0.019247 0.000000 0.000000 0.000000
# 4 0.000000 0.000000 0.000000 0.053835 0.000000 0.000000
# 5 0.000000 0.000000 0.000000 0.000000 0.054175 0.000000
# 6 0.000000 0.000000 0.000000 0.000000 0.000000 0.030921
#
#
# Mechanical properties :
#
#
# Convention : Reuss Voigt Hill
#
# Bulk Modulus (GPa) = 30.67424 39.66502 35.16963
# Shear Modulus (GPa) = 20.42463 22.62318 21.52391
#
# Velocity S-wave (km/s) = 3.28353 3.45573 3.37073
# Velocity P-wave (km/s) = 5.52878 6.07130 5.80638
#
# Compressibility (1/GPa) = 0.03260065
#
# Stress axis : x y z
#
# Youngs Moduli (GPa) = 33.02000 70.07320 51.95548
#
# Poissons Ratio (x) = 0.56348 0.06832
# Poissons Ratio (y) = 0.26552 0.32445
# Poissons Ratio (z) = 0.04342 0.43759
#
# Static dielectric constant tensor:
#      x y z
#    x 1.697800 0.000000 0.000000 
#    y 0.000000 1.681740 0.000000 
#    z 0.000000 0.000000 1.667920 
# 
# From -- ./inp_files/23345.got.cif
#   From: 2010.05.17/outbox.cif.g08.bks.cpg/sg56_12_cif.got.tgz:23345.got - 2010.06.03 13:42:01.
