data_PCOD9430340
_publ_section_title
;
Structure prediction by ZEFSAII (Michael W. Deem and Ramdas Pophale) SiO2 
 PCOD9430340
Probable space group: P C C N
;
_chemical_formula_sum "Si O2"
_cell_formula_units_Z 64
_cell_length_a 8.408610
_cell_length_b 20.066603
_cell_length_c 19.526544
_cell_angle_alpha 90.000000
_cell_angle_beta 90.000000
_cell_angle_gamma 90.000000
_cell_volume 3294.757482
_symmetry_space_group_name_H-M "P C C N"
_symmetry_group_IT_number 56
_symmetry_cell_setting 'orthorhombic'
loop_
_space_group_symop_operation_xyz
x,y,z
1/2-x,1/2-y,z
1/2+x,-y,1/2-z
-x,1/2+y,1/2-z
-x,-y,-z
1/2+x,1/2+y,-z
1/2-x,y,1/2+z
x,1/2-y,1/2+z
loop_
_atom_site_type_symbol
_atom_site_label
_atom_site_fract_x
_atom_site_fract_y
_atom_site_fract_z
Si Si1 0.168737 0.500648 0.106119
Si Si2 0.164486 0.532439 0.471554
Si Si3 0.815961 0.541966 0.153534
Si Si4 0.250412 0.675038 0.412409
Si Si5 0.713992 0.682294 0.712589
Si Si6 0.065621 0.370917 0.173709
Si Si7 0.638936 0.186307 0.734766
Si Si8 0.667618 0.057345 0.273073
O O1 0.159540 0.423009 0.126478
O O2 0.311906 0.534234 0.149488
O O3 0.999416 0.531409 0.129947
O O4 0.203144 0.512748 0.027394
O O5 0.208307 0.496868 0.400497
O O6 0.189085 0.612183 0.457145
O O7 0.000000 0.500000 0.500000
O O8 0.771801 0.618092 0.164968
O O9 0.793276 0.506123 0.226471
O O10 0.250000 0.750000 0.444156
O O11 0.421235 0.658141 0.373825
O O12 0.134471 0.681236 0.347149
O O13 0.750000 0.750000 0.673529
O O14 0.821251 0.676667 0.781850
O O15 0.533721 0.689701 0.735429
O O16 0.986559 0.413465 0.235802
O O17 0.750000 0.250000 0.751629
O O18 0.712570 0.118149 0.762263
#
# Coordination Sequence:
#
# PCOD9430340 Si02
#       8
#     8   8   8   8   8   8   8   8
#     4  11  22  40  65  91 123 168 208 264 320 382
#     4  12  27  41  65  94 128 174 221 273 320 400
#     4  11  23  41  63  90 129 162 209 266 322 386
#     4  10  21  43  64  88 130 172 217 268 324 395
#     4  12  23  36  64 100 130 164 210 270 329 379
#     4  10  22  37  67  95 125 164 208 278 313 393
#     4  10  20  38  62  93 130 162 205 260 324 382
#     4  10  19  38  65  92 120 158 205 262 324 374
#
# _framework density 19.424797000000002
#
# number of rings (size 3 to 8) (size 9 to 14) (size 15 to 20)
#    0.000    1.250    6.250    2.625    3.500    0.000 
#    0.000    1.875    0.000    0.000    0.000    0.000 
#    0.000    0.000    0.000    0.000    0.000    0.000 
#
# Total GULP energy -356751.715570 kJ/mol
# GULP energy per Si atom -5574.245556 kJ/mol
# Density = 1.938059 g / cm^3
# Si number density = 19.424797 Si / 1000 Ang^3
#
#
#
# Elastic Constant Matrix: (Units=GPa)
#
#
# Indices 1 2 3 4 5 6 
#
# 1 65.3233 22.9558 2.4566 0.0000 0.0000 0.0000
# 2 22.9558 143.6291 5.1587 0.0000 0.0000 0.0000
# 3 2.4566 5.1587 20.3662 0.0000 0.0000 0.0000
# 4 0.0000 0.0000 0.0000 27.4973 0.0000 0.0000
# 5 0.0000 0.0000 0.0000 0.0000 41.2142 0.0000
# 6 0.0000 0.0000 0.0000 0.0000 0.0000 27.9794
#
#
#
# Elastic Compliance Matrix: (Units=1/GPa)
#
#
# Indices 1 2 3 4 5 6 
#
# 1 0.016254 -0.002551 -0.001315 0.000000 0.000000 0.000000
# 2 -0.002551 0.007427 -0.001573 0.000000 0.000000 0.000000
# 3 -0.001315 -0.001573 0.049658 0.000000 0.000000 0.000000
# 4 0.000000 0.000000 0.000000 0.036367 0.000000 0.000000
# 5 0.000000 0.000000 0.000000 0.000000 0.024264 0.000000
# 6 0.000000 0.000000 0.000000 0.000000 0.000000 0.035741
#
#
# Mechanical properties :
#
#
# Convention : Reuss Voigt Hill
#
# Bulk Modulus (GPa) = 16.00984 32.27342 24.14163
# Shear Modulus (GPa) = 24.82522 32.58799 28.70661
#
# Velocity S-wave (km/s) = 3.57881 4.10036 3.84843
# Velocity P-wave (km/s) = 5.03359 6.25043 5.67472
#
# Compressibility (1/GPa) = 0.06246158
#
# Stress axis : x y z
#
# Youngs Moduli (GPa) = 61.52239 134.65193 20.13771
#
# Poissons Ratio (x) = 0.34345 0.02647
# Poissons Ratio (y) = 0.15692 0.03169
# Poissons Ratio (z) = 0.08087 0.21187
#
# Static dielectric constant tensor:
#      x y z
#    x 1.757930 0.000000 0.000000 
#    y 0.000000 1.737360 0.000000 
#    z 0.000000 0.000000 1.638750 
# 
# From -- ./inp_files/15244.got.cif
#   From: 2010.05.17/outbox.cif.g08.bks.cpg/sg56_8_cif.got.tgz:15244.got - 2010.06.03 13:42:01.
