data_PCOD9430190
_publ_section_title
;
Structure prediction by ZEFSAII (Michael W. Deem and Ramdas Pophale) SiO2 
 PCOD9430190
Probable space group: P C C N
;
_chemical_formula_sum "Si O2"
_cell_formula_units_Z 56
_cell_length_a 8.715821
_cell_length_b 19.348963
_cell_length_c 17.947718
_cell_angle_alpha 90.000000
_cell_angle_beta 90.000000
_cell_angle_gamma 90.000000
_cell_volume 3026.740819
_symmetry_space_group_name_H-M "P C C N"
_symmetry_group_IT_number 56
_symmetry_cell_setting 'orthorhombic'
loop_
_space_group_symop_operation_xyz
x,y,z
1/2-x,1/2-y,z
1/2+x,-y,1/2-z
-x,1/2+y,1/2-z
-x,-y,-z
1/2+x,1/2+y,-z
1/2-x,y,1/2+z
x,1/2-y,1/2+z
loop_
_atom_site_type_symbol
_atom_site_label
_atom_site_fract_x
_atom_site_fract_y
_atom_site_fract_z
Si Si1 0.326450 0.557753 0.380390
Si Si2 0.829398 0.130020 0.253741
Si Si3 0.101875 0.212458 0.294284
Si Si4 0.942523 0.340192 0.358943
Si Si5 0.864319 0.448627 0.473072
Si Si6 0.722239 0.919003 0.695901
Si Si7 0.338386 0.488635 0.659102
O O1 0.264215 0.613213 0.320784
O O2 0.255873 0.568321 0.461583
O O3 0.254992 0.485284 0.352847
O O4 0.508962 0.546922 0.373265
O O5 0.718294 0.162355 0.316244
O O6 0.969653 0.182197 0.241900
O O7 0.881089 0.056397 0.290512
O O8 0.250000 0.250000 0.258337
O O9 0.173373 0.144176 0.330982
O O10 0.026519 0.266913 0.350994
O O11 0.927036 0.376776 0.438515
O O12 0.047758 0.394183 0.312551
O O13 0.772977 0.486032 0.405934
O O14 0.000000 0.500000 0.500000
O O15 0.745929 0.938418 0.782205
#
# Coordination Sequence:
#
# PCOD9430190 Si02
#       7
#     8   8   8   8   8   8   8
#     4  11  20  35  58  88 128 152 193 257 318 359
#     4  10  20  34  62  87 117 152 204 259 302 356
#     4  10  21  35  59  84 115 154 205 259 299 371
#     4  10  20  38  56  86 116 160 208 249 303 370
#     4  11  23  35  58  90 126 162 195 252 315 376
#     4  10  19  35  59  91 113 152 202 261 308 351
#     4  10  21  35  59  92 122 152 198 258 315 366
#
# _framework density 18.501750000000001
#
# number of rings (size 3 to 8) (size 9 to 14) (size 15 to 20)
#    0.000    1.714    4.286    0.857    2.000    0.000 
#    0.000    0.000    0.000   12.857    0.000    0.000 
#    0.000    0.000    0.000    0.000    0.000    0.000 
#
# Total GULP energy -312156.189990 kJ/mol
# GULP energy per Si atom -5574.217678 kJ/mol
# Density = 1.845964 g / cm^3
# Si number density = 18.501750 Si / 1000 Ang^3
#
#
#
# Elastic Constant Matrix: (Units=GPa)
#
#
# Indices 1 2 3 4 5 6 
#
# 1 89.2469 41.5885 27.4843 0.0000 0.0000 0.0000
# 2 41.5885 86.4741 34.1308 0.0000 0.0000 0.0000
# 3 27.4843 34.1308 98.7847 0.0000 0.0000 0.0000
# 4 0.0000 0.0000 0.0000 15.3377 0.0000 0.0000
# 5 0.0000 0.0000 0.0000 0.0000 25.9970 0.0000
# 6 0.0000 0.0000 0.0000 0.0000 0.0000 40.9395
#
#
#
# Elastic Compliance Matrix: (Units=1/GPa)
#
#
# Indices 1 2 3 4 5 6 
#
# 1 0.014747 -0.006337 -0.001913 0.000000 0.000000 0.000000
# 2 -0.006337 0.016113 -0.003804 0.000000 0.000000 0.000000
# 3 -0.001913 -0.003804 0.011970 0.000000 0.000000 0.000000
# 4 0.000000 0.000000 0.000000 0.065199 0.000000 0.000000
# 5 0.000000 0.000000 0.000000 0.000000 0.038466 0.000000
# 6 0.000000 0.000000 0.000000 0.000000 0.000000 0.024426
#
#
# Mechanical properties :
#
#
# Convention : Reuss Voigt Hill
#
# Bulk Modulus (GPa) = 53.41671 53.43477 53.42574
# Shear Modulus (GPa) = 24.84208 27.87498 26.35853
#
# Velocity S-wave (km/s) = 3.66825 3.88572 3.77855
# Velocity P-wave (km/s) = 6.84655 7.00538 6.92642
#
# Compressibility (1/GPa) = 0.01872073
#
# Stress axis : x y z
#
# Youngs Moduli (GPa) = 67.80921 62.05998 83.54383
#
# Poissons Ratio (x) = 0.39329 0.15986
# Poissons Ratio (y) = 0.42972 0.31781
# Poissons Ratio (z) = 0.12975 0.23608
#
# Static dielectric constant tensor:
#      x y z
#    x 1.698070 0.000000 0.000000 
#    y 0.000000 1.666410 0.000000 
#    z 0.000000 0.000000 1.603900 
# 
# From -- ./inp_files/15179.got.cif
#   From: 2010.05.17/outbox.cif.g08.bks.cpg/sg56_8_cif.got.tgz:15179.got - 2010.06.03 13:42:01.
