data_PCOD9430916
_publ_section_title
;
Structure prediction by ZEFSAII (Michael W. Deem and Ramdas Pophale) SiO2 
 PCOD9430916
Probable space group: P C C N
;
_chemical_formula_sum "Si O2"
_cell_formula_units_Z 40
_cell_length_a 11.880267
_cell_length_b 9.335140
_cell_length_c 14.309235
_cell_angle_alpha 90.000000
_cell_angle_beta 90.000000
_cell_angle_gamma 90.000000
_cell_volume 1586.950764
_symmetry_space_group_name_H-M "P C C N"
_symmetry_group_IT_number 56
_symmetry_cell_setting 'orthorhombic'
loop_
_space_group_symop_operation_xyz
x,y,z
1/2-x,1/2-y,z
1/2+x,-y,1/2-z
-x,1/2+y,1/2-z
-x,-y,-z
1/2+x,1/2+y,-z
1/2-x,y,1/2+z
x,1/2-y,1/2+z
loop_
_atom_site_type_symbol
_atom_site_label
_atom_site_fract_x
_atom_site_fract_y
_atom_site_fract_z
Si Si1 0.154377 0.109253 0.469976
Si Si2 0.465388 0.636235 0.195032
Si Si3 0.362283 0.337732 0.246891
Si Si4 0.616922 0.502197 0.056398
Si Si5 0.080943 0.713544 0.004025
O O1 0.145958 0.141070 0.359368
O O2 0.052719 0.196151 0.516238
O O3 0.287752 0.102587 0.488223
O O4 0.125214 0.944192 0.490295
O O5 0.383385 0.502114 0.214333
O O6 0.522634 0.744584 0.269061
O O7 0.579832 0.561063 0.155802
O O8 0.412362 0.732085 0.111855
O O9 0.250000 0.250000 0.215162
O O10 0.500000 0.500000 0.000000
O O11 0.643052 0.334710 0.055445
#
# Coordination Sequence:
#
# PCOD9430916 Si02
#       5
#     8   8   8   8   8
#     4  10  20  41  71  93 135 184 223 282 352 402
#     4  10  23  42  65 101 134 172 236 280 344 421
#     4  11  23  45  69  97 140 190 225 282 353 419
#     4  10  20  38  64  95 130 171 229 279 330 411
#     4   9  21  39  66 103 130 168 232 289 336 407
#
# _framework density 25.205572
#
# number of rings (size 3 to 8) (size 9 to 14) (size 15 to 20)
#    0.000    2.000    2.000    0.600    2.800    0.000 
#    7.200    7.000    0.000    0.000    0.000    0.000 
#    0.000    0.000    0.000    0.000    0.000    0.000 
#
# Total GULP energy -223049.840807 kJ/mol
# GULP energy per Si atom -5576.246020 kJ/mol
# Density = 2.514820 g / cm^3
# Si number density = 25.205572 Si / 1000 Ang^3
#
#
#
# Elastic Constant Matrix: (Units=GPa)
#
#
# Indices 1 2 3 4 5 6 
#
# 1 129.1809 38.7141 13.2141 0.0000 0.0000 0.0000
# 2 38.7141 146.1101 28.4162 0.0000 0.0000 0.0000
# 3 13.2141 28.4162 52.6613 0.0000 0.0000 0.0000
# 4 0.0000 0.0000 0.0000 46.2983 0.0000 0.0000
# 5 0.0000 0.0000 0.0000 0.0000 14.9254 0.0000
# 6 0.0000 0.0000 0.0000 0.0000 0.0000 73.6272
#
#
#
# Elastic Compliance Matrix: (Units=1/GPa)
#
#
# Indices 1 2 3 4 5 6 
#
# 1 0.008458 -0.002043 -0.001020 0.000000 0.000000 0.000000
# 2 -0.002043 0.008140 -0.003880 0.000000 0.000000 0.000000
# 3 -0.001020 -0.003880 0.021339 0.000000 0.000000 0.000000
# 4 0.000000 0.000000 0.000000 0.021599 0.000000 0.000000
# 5 0.000000 0.000000 0.000000 0.000000 0.067000 0.000000
# 6 0.000000 0.000000 0.000000 0.000000 0.000000 0.013582
#
#
# Mechanical properties :
#
#
# Convention : Reuss Voigt Hill
#
# Bulk Modulus (GPa) = 41.57756 54.29345 47.93551
# Shear Modulus (GPa) = 30.86055 43.47737 37.16896
#
# Velocity S-wave (km/s) = 3.50287 4.15771 3.84426
# Velocity P-wave (km/s) = 5.73510 6.68100 6.22604
#
# Compressibility (1/GPa) = 0.02405143
#
# Stress axis : x y z
#
# Youngs Moduli (GPa) = 118.23734 122.85126 46.86307
#
# Poissons Ratio (x) = 0.25093 0.04780
# Poissons Ratio (y) = 0.24151 0.18182
# Poissons Ratio (z) = 0.12061 0.47664
#
# Static dielectric constant tensor:
#      x y z
#    x 2.109770 0.000000 0.000000 
#    y 0.000000 2.158010 0.000000 
#    z 0.000000 0.000000 2.032280 
# 
# From -- ./inp_files/15414.got.cif
#   From: 2010.05.17/outbox.cif.g08.bks.cpg/sg56_8_cif.got.tgz:15414.got - 2010.06.03 13:42:01.
