data_PCOD9430665
_publ_section_title
;
Structure prediction by ZEFSAII (Michael W. Deem and Ramdas Pophale) SiO2 
 PCOD9430665
Probable space group: P C C N
;
_chemical_formula_sum "Si O2"
_cell_formula_units_Z 64
_cell_length_a 12.181086
_cell_length_b 8.076170
_cell_length_c 30.374035
_cell_angle_alpha 90.000000
_cell_angle_beta 90.000000
_cell_angle_gamma 90.000000
_cell_volume 2988.091902
_symmetry_space_group_name_H-M "P C C N"
_symmetry_group_IT_number 56
_symmetry_cell_setting 'orthorhombic'
loop_
_space_group_symop_operation_xyz
x,y,z
1/2-x,1/2-y,z
1/2+x,-y,1/2-z
-x,1/2+y,1/2-z
-x,-y,-z
1/2+x,1/2+y,-z
1/2-x,y,1/2+z
x,1/2-y,1/2+z
loop_
_atom_site_type_symbol
_atom_site_label
_atom_site_fract_x
_atom_site_fract_y
_atom_site_fract_z
Si Si1 0.801173 0.932444 0.315537
Si Si2 0.710833 0.440147 0.071468
Si Si3 0.347763 0.387234 0.590676
Si Si4 0.483400 0.578693 0.103090
Si Si5 0.435376 0.454987 0.388239
Si Si6 0.705938 0.064861 0.469676
Si Si7 0.514927 0.564072 0.710320
Si Si8 0.092972 0.578331 0.701115
O O1 0.750000 0.750000 0.313349
O O2 0.819970 0.991531 0.365629
O O3 0.723098 0.067757 0.295109
O O4 0.917940 0.930929 0.293398
O O5 0.750000 0.250000 0.076733
O O6 0.600550 0.489886 0.096967
O O7 0.818735 0.538977 0.087388
O O8 0.680767 0.469255 0.020266
O O9 0.250000 0.250000 0.595277
O O10 0.480838 0.396973 0.595406
O O11 0.312314 0.460547 0.544567
O O12 0.506671 0.777055 0.102502
O O13 0.395343 0.537154 0.064321
O O14 0.436097 0.525339 0.150918
O O15 0.417359 0.463588 0.335072
O O16 0.750000 0.250000 0.464904
O O17 0.462362 0.744974 0.706580
O O18 0.560214 0.539143 0.758705
#
# Coordination Sequence:
#
# PCOD9430665 Si02
#       8
#     8   8   8   8   8   8   8   8
#     4  10  20  36  59  89 125 159 209 265 316 376
#     4  11  27  42  62  96 132 172 214 268 325 385
#     4  10  21  36  65  96 123 163 211 271 314 372
#     4  11  23  43  70  89 130 176 214 263 326 392
#     4  10  23  44  64  91 133 174 214 259 329 392
#     4  11  22  43  66  97 125 163 217 270 322 386
#     4  10  23  38  62  95 122 169 213 264 321 384
#     4  11  22  39  65  92 126 168 214 264 320 382
#
# _framework density 21.418351000000001
#
# number of rings (size 3 to 8) (size 9 to 14) (size 15 to 20)
#    0.000    1.500    2.500    1.875    1.750    4.500 
#    0.000    1.250    0.000    0.000    0.000    0.000 
#    0.000    0.000    0.000    0.000    0.000    0.000 
#
# Total GULP energy -356437.968076 kJ/mol
# GULP energy per Si atom -5569.343251 kJ/mol
# Density = 2.136960 g / cm^3
# Si number density = 21.418351 Si / 1000 Ang^3
#
#
#
# Elastic Constant Matrix: (Units=GPa)
#
#
# Indices 1 2 3 4 5 6 
#
# 1 101.5769 17.9693 48.7683 0.0000 0.0000 0.0000
# 2 17.9693 47.8739 29.2062 0.0000 0.0000 0.0000
# 3 48.7683 29.2062 89.3339 0.0000 0.0000 0.0000
# 4 0.0000 0.0000 0.0000 14.3357 0.0000 0.0000
# 5 0.0000 0.0000 0.0000 0.0000 90.2092 0.0000
# 6 0.0000 0.0000 0.0000 0.0000 0.0000 29.1308
#
#
#
# Elastic Compliance Matrix: (Units=1/GPa)
#
#
# Indices 1 2 3 4 5 6 
#
# 1 0.013361 -0.000706 -0.007063 0.000000 0.000000 0.000000
# 2 -0.000706 0.026130 -0.008157 0.000000 0.000000 0.000000
# 3 -0.007063 -0.008157 0.017716 0.000000 0.000000 0.000000
# 4 0.000000 0.000000 0.000000 0.069756 0.000000 0.000000
# 5 0.000000 0.000000 0.000000 0.000000 0.011085 0.000000
# 6 0.000000 0.000000 0.000000 0.000000 0.000000 0.034328
#
#
# Mechanical properties :
#
#
# Convention : Reuss Voigt Hill
#
# Bulk Modulus (GPa) = 39.44070 47.85247 43.64658
# Shear Modulus (GPa) = 23.50954 36.25788 29.88371
#
# Velocity S-wave (km/s) = 3.31665 4.11888 3.73934
# Velocity P-wave (km/s) = 5.75511 6.70899 6.25027
#
# Compressibility (1/GPa) = 0.02535452
#
# Stress axis : x y z
#
# Youngs Moduli (GPa) = 74.84681 38.27076 56.44459
#
# Poissons Ratio (x) = 0.02702 0.39866
# Poissons Ratio (y) = 0.05285 0.46043
# Poissons Ratio (z) = 0.52863 0.31218
#
# Static dielectric constant tensor:
#      x y z
#    x 1.838060 0.000000 0.000000 
#    y 0.000000 1.971190 0.000000 
#    z 0.000000 0.000000 1.808520 
# 
# From -- ./inp_files/23524.got.cif
#   From: 2010.05.17/outbox.cif.g08.bks.cpg/sg56_12_cif.got.tgz:23524.got - 2010.06.03 13:42:01.
