data_PCOD9430670
_publ_section_title
;
Structure prediction by ZEFSAII (Michael W. Deem and Ramdas Pophale) SiO2 
 PCOD9430670
Probable space group: P C C N
;
_chemical_formula_sum "Si O2"
_cell_formula_units_Z 48
_cell_length_a 17.792075
_cell_length_b 6.812577
_cell_length_c 18.184718
_cell_angle_alpha 90.000000
_cell_angle_beta 90.000000
_cell_angle_gamma 90.000000
_cell_volume 2204.167503
_symmetry_space_group_name_H-M "P C C N"
_symmetry_group_IT_number 56
_symmetry_cell_setting 'orthorhombic'
loop_
_space_group_symop_operation_xyz
x,y,z
1/2-x,1/2-y,z
1/2+x,-y,1/2-z
-x,1/2+y,1/2-z
-x,-y,-z
1/2+x,1/2+y,-z
1/2-x,y,1/2+z
x,1/2-y,1/2+z
loop_
_atom_site_type_symbol
_atom_site_label
_atom_site_fract_x
_atom_site_fract_y
_atom_site_fract_z
Si Si1 0.037926 0.309689 0.338264
Si Si2 0.024319 0.591737 0.923043
Si Si3 0.328921 0.148014 0.755555
Si Si4 0.408266 0.065535 0.617335
Si Si5 0.651133 0.564537 0.044581
Si Si6 0.185209 0.520082 0.910545
O O1 0.957912 0.412216 0.335027
O O2 0.098040 0.283944 0.273297
O O3 0.082157 0.439099 0.398745
O O4 0.023891 0.089537 0.366463
O O5 0.964172 0.751924 0.897841
O O6 0.112613 0.647022 0.933865
O O7 0.000000 0.500000 0.000000
O O8 0.250000 0.250000 0.766947
O O9 0.338176 0.097200 0.670873
O O10 0.324781 0.990406 0.821826
O O11 0.377492 0.012359 0.536664
O O12 0.727545 0.453867 0.068539
O O13 0.669272 0.801453 0.054141
#
# Coordination Sequence:
#
# PCOD9430670 Si02
#       6
#     8   8   8   8   8   8
#     4  10  22  40  59  85 128 151 196 253 297 353
#     4  10  20  36  60  88 119 152 197 249 298 348
#     4  10  21  38  60  87 119 165 198 235 308 364
#     4  12  23  34  66  95 109 159 211 244 294 357
#     4   9  17  35  61  80 115 155 196 241 296 351
#     4   9  17  37  55  81 122 156 187 245 299 351
#
# _framework density 21.776928000000002
#
# number of rings (size 3 to 8) (size 9 to 14) (size 15 to 20)
#    0.000    2.333    6.667    0.500    7.000    0.000 
#    0.000    0.833    0.000    7.000    0.000    0.000 
#    0.000    0.000    0.000    0.000    0.000    0.000 
#
# Total GULP energy -267334.841690 kJ/mol
# GULP energy per Si atom -5569.475869 kJ/mol
# Density = 2.172736 g / cm^3
# Si number density = 21.776928 Si / 1000 Ang^3
#
#
#
# Elastic Constant Matrix: (Units=GPa)
#
#
# Indices 1 2 3 4 5 6 
#
# 1 70.6371 13.1175 20.8673 0.0000 0.0000 0.0000
# 2 13.1175 51.8578 -4.7853 0.0000 0.0000 0.0000
# 3 20.8673 -4.7853 72.0180 0.0000 0.0000 0.0000
# 4 0.0000 0.0000 0.0000 9.3330 0.0000 0.0000
# 5 0.0000 0.0000 0.0000 0.0000 23.9692 0.0000
# 6 0.0000 0.0000 0.0000 0.0000 0.0000 26.2328
#
#
#
# Elastic Compliance Matrix: (Units=1/GPa)
#
#
# Indices 1 2 3 4 5 6 
#
# 1 0.016526 -0.004651 -0.005098 0.000000 0.000000 0.000000
# 2 -0.004651 0.020711 0.002724 0.000000 0.000000 0.000000
# 3 -0.005098 0.002724 0.015543 0.000000 0.000000 0.000000
# 4 0.000000 0.000000 0.000000 0.107147 0.000000 0.000000
# 5 0.000000 0.000000 0.000000 0.000000 0.041720 0.000000
# 6 0.000000 0.000000 0.000000 0.000000 0.000000 0.038120
#
#
# Mechanical properties :
#
#
# Convention : Reuss Voigt Hill
#
# Bulk Modulus (GPa) = 25.81849 28.10131 26.95990
# Shear Modulus (GPa) = 18.74567 22.92790 20.83679
#
# Velocity S-wave (km/s) = 2.93713 3.24829 3.09662
# Velocity P-wave (km/s) = 4.83569 5.19622 5.01919
#
# Compressibility (1/GPa) = 0.03873193
#
# Stress axis : x y z
#
# Youngs Moduli (GPa) = 60.50911 48.28295 64.33582
#
# Poissons Ratio (x) = 0.22455 0.32796
# Poissons Ratio (y) = 0.28141 -0.17524
# Poissons Ratio (z) = 0.30845 -0.13151
#
# Static dielectric constant tensor:
#      x y z
#    x 1.870760 0.000000 0.000000 
#    y 0.000000 2.191980 0.000000 
#    z 0.000000 0.000000 1.766580 
# 
# From -- ./inp_files/18982.got.cif
#   From: 2010.05.17/outbox.cif.g08.bks.cpg/sg56_10_cif.got.tgz:18982.got - 2010.06.03 13:42:01.
