data_PCOD9430740
_publ_section_title
;
Structure prediction by ZEFSAII (Michael W. Deem and Ramdas Pophale) SiO2 
 PCOD9430740
Probable space group: P C C N
;
_chemical_formula_sum "Si O2"
_cell_formula_units_Z 48
_cell_length_a 17.963192
_cell_length_b 13.287845
_cell_length_c 9.075502
_cell_angle_alpha 90.000000
_cell_angle_beta 90.000000
_cell_angle_gamma 90.000000
_cell_volume 2166.250731
_symmetry_space_group_name_H-M "P C C N"
_symmetry_group_IT_number 56
_symmetry_cell_setting 'orthorhombic'
loop_
_space_group_symop_operation_xyz
x,y,z
1/2-x,1/2-y,z
1/2+x,-y,1/2-z
-x,1/2+y,1/2-z
-x,-y,-z
1/2+x,1/2+y,-z
1/2-x,y,1/2+z
x,1/2-y,1/2+z
loop_
_atom_site_type_symbol
_atom_site_label
_atom_site_fract_x
_atom_site_fract_y
_atom_site_fract_z
Si Si1 0.501093 0.811627 0.256077
Si Si2 0.876667 0.463556 0.744208
Si Si3 0.282883 0.150693 0.515136
Si Si4 0.581482 0.536820 0.546394
Si Si5 0.711695 0.512124 0.713256
Si Si6 0.556985 0.860410 0.581876
O O1 0.560017 0.869821 0.150540
O O2 0.520781 0.833805 0.425229
O O3 0.511287 0.696330 0.209005
O O4 0.420380 0.860619 0.224937
O O5 0.789543 0.451817 0.706646
O O6 0.926673 0.523681 0.624479
O O7 0.878600 0.537331 0.887041
O O8 0.250000 0.250000 0.588776
O O9 0.299652 0.060429 0.627550
O O10 0.227162 0.106450 0.394687
O O11 0.358528 0.178701 0.432584
O O12 0.500000 0.500000 0.500000
O O13 0.635753 0.467524 0.647139
#
# Coordination Sequence:
#
# PCOD9430740 Si02
#       6
#     8   8   8   8   8   8
#     4  11  22  39  60  91 128 166 214 258 328 385
#     4  10  23  39  59  91 126 170 216 261 323 391
#     4  11  22  31  53  86 128 166 197 244 327 401
#     4  10  20  37  58  86 126 162 206 258 322 384
#     4  11  20  36  55  85 127 162 206 255 318 393
#     4  11  23  36  60  87 130 168 210 267 321 390
#
# _framework density 22.158097999999999
#
# number of rings (size 3 to 8) (size 9 to 14) (size 15 to 20)
#    0.000    1.333    3.333    3.000    4.667    0.000 
#    0.000    0.000    0.000    0.000    0.000   37.333 
#    0.000    0.000    0.000    0.000    0.000    0.000 
#
# Total GULP energy -267619.586355 kJ/mol
# GULP energy per Si atom -5575.408049 kJ/mol
# Density = 2.210767 g / cm^3
# Si number density = 22.158098 Si / 1000 Ang^3
#
#
#
# Elastic Constant Matrix: (Units=GPa)
#
#
# Indices 1 2 3 4 5 6 
#
# 1 136.5328 33.3898 8.1844 0.0000 0.0000 0.0000
# 2 33.3898 35.5652 1.1144 0.0000 0.0000 0.0000
# 3 8.1844 1.1144 79.5314 0.0000 0.0000 0.0000
# 4 0.0000 0.0000 0.0000 15.7224 0.0000 0.0000
# 5 0.0000 0.0000 0.0000 0.0000 36.9547 0.0000
# 6 0.0000 0.0000 0.0000 0.0000 0.0000 22.8897
#
#
#
# Elastic Compliance Matrix: (Units=1/GPa)
#
#
# Indices 1 2 3 4 5 6 
#
# 1 0.009565 -0.008953 -0.000859 0.000000 0.000000 0.000000
# 2 -0.008953 0.036510 0.000410 0.000000 0.000000 0.000000
# 3 -0.000859 0.000410 0.012656 0.000000 0.000000 0.000000
# 4 0.000000 0.000000 0.000000 0.063603 0.000000 0.000000
# 5 0.000000 0.000000 0.000000 0.000000 0.027060 0.000000
# 6 0.000000 0.000000 0.000000 0.000000 0.000000 0.043688
#
#
# Mechanical properties :
#
#
# Convention : Reuss Voigt Hill
#
# Bulk Modulus (GPa) = 25.04572 37.44516 31.24544
# Shear Modulus (GPa) = 22.20280 29.04276 25.62278
#
# Velocity S-wave (km/s) = 3.16890 3.62430 3.40422
# Velocity P-wave (km/s) = 4.97162 5.86939 5.43906
#
# Compressibility (1/GPa) = 0.03992698
#
# Stress axis : x y z
#
# Youngs Moduli (GPa) = 104.54443 27.38961 79.01210
#
# Poissons Ratio (x) = 0.24523 0.06786
# Poissons Ratio (y) = 0.93602 -0.03238
# Poissons Ratio (z) = 0.08979 -0.01122
#
# Static dielectric constant tensor:
#      x y z
#    x 1.898680 0.000000 0.000000 
#    y 0.000000 1.866390 0.000000 
#    z 0.000000 0.000000 1.853250 
# 
# From -- ./inp_files/3996.got.cif
#   From: 2010.05.17/outbox.cif.g08.bks.cpg/sg56_2_cif.got.tgz:3996.got - 2010.06.03 13:42:01.
