data_PCOD9430138
_publ_section_title
;
Structure prediction by ZEFSAII (Michael W. Deem and Ramdas Pophale) SiO2 
 PCOD9430138
Probable space group: P C C N
;
_chemical_formula_sum "Si O2"
_cell_formula_units_Z 52
_cell_length_a 7.902195
_cell_length_b 14.380104
_cell_length_c 22.015745
_cell_angle_alpha 90.000000
_cell_angle_beta 90.000000
_cell_angle_gamma 90.000000
_cell_volume 2501.745664
_symmetry_space_group_name_H-M "P C C N"
_symmetry_group_IT_number 56
_symmetry_cell_setting 'orthorhombic'
loop_
_space_group_symop_operation_xyz
x,y,z
1/2-x,1/2-y,z
1/2+x,-y,1/2-z
-x,1/2+y,1/2-z
-x,-y,-z
1/2+x,1/2+y,-z
1/2-x,y,1/2+z
x,1/2-y,1/2+z
loop_
_atom_site_type_symbol
_atom_site_label
_atom_site_fract_x
_atom_site_fract_y
_atom_site_fract_z
Si Si1 0.541007 0.146610 0.828825
Si Si2 0.060275 0.787092 0.414097
Si Si3 0.870820 0.454554 0.170114
Si Si4 0.397667 0.188973 0.382203
Si Si5 0.750000 0.750000 0.502147
Si Si6 0.492137 0.858688 0.308303
Si Si7 0.102043 0.549975 0.692473
O O1 0.538893 0.230138 0.876765
O O2 0.505503 0.180881 0.759734
O O3 0.724468 0.100855 0.823065
O O4 0.412169 0.062068 0.843554
O O5 0.250000 0.750000 0.432926
O O6 0.070742 0.889103 0.384605
O O7 0.006988 0.719640 0.358551
O O8 0.910576 0.781705 0.463052
O O9 0.680215 0.418766 0.182839
O O10 0.951298 0.437900 0.237074
O O11 0.250000 0.250000 0.349562
O O12 0.326143 0.175165 0.449719
O O13 0.464480 0.098490 0.350097
O O14 0.628880 0.939813 0.316310
#
# Coordination Sequence:
#
# PCOD9430138 Si02
#       7
#     8   8   8   8   4   8   8
#     4  10  19  34  60  93 120 150 187 238 313 371
#     4  10  21  41  64  82 121 159 199 254 298 336
#     4   9  19  35  59  92 124 147 186 241 306 373
#     4  10  22  39  55  75 123 151 196 254 281 336
#     4  10  26  42  60  84 112 162 228 244 272 354
#     4   9  19  35  59  92 124 147 186 241 306 373
#     4  10  19  34  60  93 120 150 187 238 313 371
#
# _framework density 20.785485999999999
#
# number of rings (size 3 to 8) (size 9 to 14) (size 15 to 20)
#    0.462    1.846    0.000    2.308    2.154    4.923 
#    2.769    1.538    0.000    0.000    0.000    0.000 
#    0.000    0.000    0.000    0.000    0.000    0.000 
#
# Total GULP energy -289746.802360 kJ/mol
# GULP energy per Si atom -5572.053892 kJ/mol
# Density = 2.073818 g / cm^3
# Si number density = 20.785486 Si / 1000 Ang^3
#
#
#
# Elastic Constant Matrix: (Units=GPa)
#
#
# Indices 1 2 3 4 5 6 
#
# 1 69.7367 4.6143 38.6243 0.0000 0.0000 0.0000
# 2 4.6143 59.4419 28.3115 0.0000 0.0000 0.0000
# 3 38.6243 28.3115 84.3154 0.0000 0.0000 0.0000
# 4 0.0000 0.0000 0.0000 7.0599 0.0000 0.0000
# 5 0.0000 0.0000 0.0000 0.0000 59.1044 0.0000
# 6 0.0000 0.0000 0.0000 0.0000 0.0000 27.6220
#
#
#
# Elastic Compliance Matrix: (Units=1/GPa)
#
#
# Indices 1 2 3 4 5 6 
#
# 1 0.019745 0.003304 -0.010154 0.000000 0.000000 0.000000
# 2 0.003304 0.020579 -0.008423 0.000000 0.000000 0.000000
# 3 -0.010154 -0.008423 0.019340 0.000000 0.000000 0.000000
# 4 0.000000 0.000000 0.000000 0.141646 0.000000 0.000000
# 5 0.000000 0.000000 0.000000 0.000000 0.016919 0.000000
# 6 0.000000 0.000000 0.000000 0.000000 0.000000 0.036203
#
#
# Mechanical properties :
#
#
# Convention : Reuss Voigt Hill
#
# Bulk Modulus (GPa) = 34.34539 39.62157 36.98348
# Shear Modulus (GPa) = 16.96723 28.22017 22.59370
#
# Velocity S-wave (km/s) = 2.86020 3.68868 3.30054
# Velocity P-wave (km/s) = 5.24092 6.10289 5.68826
#
# Compressibility (1/GPa) = 0.02911599
#
# Stress axis : x y z
#
# Youngs Moduli (GPa) = 50.64523 48.59409 51.70553
#
# Poissons Ratio (x) = -0.16054 0.52504
# Poissons Ratio (y) = -0.16732 0.43553
# Poissons Ratio (z) = 0.51427 0.40932
#
# Static dielectric constant tensor:
#      x y z
#    x 1.945260 0.000000 0.000000 
#    y 0.000000 1.784090 0.000000 
#    z 0.000000 0.000000 1.719380 
# 
# From -- ./inp_files/20589.got.cif
#   From: 2010.05.17/outbox.cif.g08.bks.cpg/sg56_11_cif.got.tgz:20589.got - 2010.06.03 13:42:01.
