data_PCOD9430787
_publ_section_title
;
Structure prediction by ZEFSAII (Michael W. Deem and Ramdas Pophale) SiO2 
 PCOD9430787
Probable space group: P C C N
;
_chemical_formula_sum "Si O2"
_cell_formula_units_Z 48
_cell_length_a 7.342637
_cell_length_b 15.542724
_cell_length_c 18.762632
_cell_angle_alpha 90.000000
_cell_angle_beta 90.000000
_cell_angle_gamma 90.000000
_cell_volume 2141.277503
_symmetry_space_group_name_H-M "P C C N"
_symmetry_group_IT_number 56
_symmetry_cell_setting 'orthorhombic'
loop_
_space_group_symop_operation_xyz
x,y,z
1/2-x,1/2-y,z
1/2+x,-y,1/2-z
-x,1/2+y,1/2-z
-x,-y,-z
1/2+x,1/2+y,-z
1/2-x,y,1/2+z
x,1/2-y,1/2+z
loop_
_atom_site_type_symbol
_atom_site_label
_atom_site_fract_x
_atom_site_fract_y
_atom_site_fract_z
Si Si1 0.099785 0.191760 0.913185
Si Si2 0.668299 0.657020 0.843717
Si Si3 0.221736 0.983879 0.197362
Si Si4 0.583976 0.190481 0.792506
Si Si5 0.197230 0.012928 0.856293
Si Si6 0.425331 0.591147 0.970958
O O1 0.250000 0.250000 0.952735
O O2 0.215388 0.109857 0.884178
O O3 0.020216 0.249219 0.849106
O O4 0.935645 0.155164 0.962071
O O5 0.750000 0.750000 0.850715
O O6 0.799932 0.575736 0.828496
O O7 0.540353 0.663699 0.773835
O O8 0.559731 0.635326 0.914900
O O9 0.331997 0.898567 0.177161
O O10 0.019062 0.984589 0.164777
O O11 0.208147 0.988650 0.282847
O O12 0.750000 0.250000 0.765932
O O13 0.234075 0.943393 0.918776
O O14 0.500000 0.500000 0.000000
#
# Coordination Sequence:
#
# PCOD9430787 Si02
#       6
#     8   8   8   8   8   8
#     4  11  22  37  61  88 119 164 215 248 305 379
#     4  11  23  40  66  93 124 165 214 261 315 376
#     4  11  20  37  60  91 122 157 200 258 316 360
#     4  12  23  37  62  96 126 158 207 271 315 364
#     4  10  20  37  63  87 124 162 203 256 315 365
#     4   9  20  39  62  85 123 171 203 250 316 374
#
# _framework density 22.416523000000002
#
# number of rings (size 3 to 8) (size 9 to 14) (size 15 to 20)
#    0.000    1.333    5.000    3.000    0.000    0.000 
#    0.000    0.833    0.000    5.000    0.000    0.000 
#    0.000    0.000    0.000    0.000    0.000    0.000 
#
# Total GULP energy -267697.002561 kJ/mol
# GULP energy per Si atom -5577.020887 kJ/mol
# Density = 2.236550 g / cm^3
# Si number density = 22.416523 Si / 1000 Ang^3
#
#
#
# Elastic Constant Matrix: (Units=GPa)
#
#
# Indices 1 2 3 4 5 6 
#
# 1 34.2528 30.6093 9.1689 0.0000 0.0000 0.0000
# 2 30.6093 169.3396 36.2306 0.0000 0.0000 0.0000
# 3 9.1689 36.2306 115.1282 0.0000 0.0000 0.0000
# 4 0.0000 0.0000 0.0000 32.4618 0.0000 0.0000
# 5 0.0000 0.0000 0.0000 0.0000 17.0682 0.0000
# 6 0.0000 0.0000 0.0000 0.0000 0.0000 25.6532
#
#
#
# Elastic Compliance Matrix: (Units=1/GPa)
#
#
# Indices 1 2 3 4 5 6 
#
# 1 0.034897 -0.006126 -0.000851 0.000000 0.000000 0.000000
# 2 -0.006126 0.007407 -0.001843 0.000000 0.000000 0.000000
# 3 -0.000851 -0.001843 0.009334 0.000000 0.000000 0.000000
# 4 0.000000 0.000000 0.000000 0.030805 0.000000 0.000000
# 5 0.000000 0.000000 0.000000 0.000000 0.058588 0.000000
# 6 0.000000 0.000000 0.000000 0.000000 0.000000 0.038981
#
#
# Mechanical properties :
#
#
# Convention : Reuss Voigt Hill
#
# Bulk Modulus (GPa) = 29.41438 52.30426 40.85932
# Shear Modulus (GPa) = 23.92511 31.21744 27.57128
#
# Velocity S-wave (km/s) = 3.27050 3.73582 3.51087
# Velocity P-wave (km/s) = 5.23562 6.48012 5.89083
#
# Compressibility (1/GPa) = 0.03399698
#
# Stress axis : x y z
#
# Youngs Moduli (GPa) = 28.65599 135.00964 107.13759
#
# Poissons Ratio (x) = 0.82702 0.09122
# Poissons Ratio (y) = 0.17554 0.19746
# Poissons Ratio (z) = 0.02440 0.24883
#
# Static dielectric constant tensor:
#      x y z
#    x 1.892580 0.000000 0.000000 
#    y 0.000000 1.902030 0.000000 
#    z 0.000000 0.000000 1.841500 
# 
# From -- ./inp_files/18094.got.cif
#   From: 2010.05.17/outbox.cif.g08.bks.cpg/sg56_10_cif.got.tgz:18094.got - 2010.06.03 13:42:01.
