data_PCOD9430241
_publ_section_title
;
Structure prediction by ZEFSAII (Michael W. Deem and Ramdas Pophale) SiO2 
 PCOD9430241
Probable space group: P C C N
;
_chemical_formula_sum "Si O2"
_cell_formula_units_Z 32
_cell_length_a 16.464000
_cell_length_b 4.844332
_cell_length_c 19.602309
_cell_angle_alpha 90.000000
_cell_angle_beta 90.000000
_cell_angle_gamma 90.000000
_cell_volume 1563.422967
_symmetry_space_group_name_H-M "P C C N"
_symmetry_group_IT_number 56
_symmetry_cell_setting 'orthorhombic'
loop_
_space_group_symop_operation_xyz
x,y,z
1/2-x,1/2-y,z
1/2+x,-y,1/2-z
-x,1/2+y,1/2-z
-x,-y,-z
1/2+x,1/2+y,-z
1/2-x,y,1/2+z
x,1/2-y,1/2+z
loop_
_atom_site_type_symbol
_atom_site_label
_atom_site_fract_x
_atom_site_fract_y
_atom_site_fract_z
Si Si1 0.466990 0.719129 0.913532
Si Si2 0.076458 0.714828 0.063481
Si Si3 0.552569 0.430674 0.731491
Si Si4 0.805393 0.488276 0.330926
O O1 0.498718 0.406811 0.917332
O O2 0.426982 0.812067 0.843018
O O3 0.549169 0.905239 0.918927
O O4 0.415635 0.771299 0.981706
O O5 0.151118 0.840742 0.104765
O O6 0.484956 0.669432 0.728412
O O7 0.625239 0.555248 0.775865
O O8 0.750000 0.250000 0.298742
O O9 0.750000 0.750000 0.348237
#
# Coordination Sequence:
#
# PCOD9430241 Si02
#       4
#     8   8   8   8
#     4  10  19  36  62  89 114 149 216 265 297 347
#     4  10  20  36  60  88 117 156 205 262 306 367
#     4  12  21  38  63  91 121 163 212 263 303 371
#     4  12  24  38  58  92 131 168 200 255 329 380
#
# _framework density 20.467908999999999
#
# number of rings (size 3 to 8) (size 9 to 14) (size 15 to 20)
#    0.000    1.000    5.000    3.000    0.000    0.000 
#    0.000    1.250    0.000    3.000    0.000    0.000 
#    0.000    0.000    0.000    0.000    0.000    0.000 
#
# Total GULP energy -178737.491219 kJ/mol
# GULP energy per Si atom -5585.546601 kJ/mol
# Density = 2.042132 g / cm^3
# Si number density = 20.467909 Si / 1000 Ang^3
#
#
#
# Elastic Constant Matrix: (Units=GPa)
#
#
# Indices 1 2 3 4 5 6 
#
# 1 60.4830 4.8816 31.1884 0.0000 0.0000 0.0000
# 2 4.8816 78.8881 3.2254 0.0000 0.0000 0.0000
# 3 31.1884 3.2254 159.1119 0.0000 0.0000 0.0000
# 4 0.0000 0.0000 0.0000 29.0848 0.0000 0.0000
# 5 0.0000 0.0000 0.0000 0.0000 11.1621 0.0000
# 6 0.0000 0.0000 0.0000 0.0000 0.0000 41.6426
#
#
#
# Elastic Compliance Matrix: (Units=1/GPa)
#
#
# Indices 1 2 3 4 5 6 
#
# 1 0.018470 -0.000996 -0.003600 0.000000 0.000000 0.000000
# 2 -0.000996 0.012740 -0.000063 0.000000 0.000000 0.000000
# 3 -0.003600 -0.000063 0.006992 0.000000 0.000000 0.000000
# 4 0.000000 0.000000 0.000000 0.034382 0.000000 0.000000
# 5 0.000000 0.000000 0.000000 0.000000 0.089589 0.000000
# 6 0.000000 0.000000 0.000000 0.000000 0.000000 0.024014
#
#
# Mechanical properties :
#
#
# Convention : Reuss Voigt Hill
#
# Bulk Modulus (GPa) = 34.62068 41.89704 38.25886
# Shear Modulus (GPa) = 24.37433 33.65707 29.01570
#
# Velocity S-wave (km/s) = 3.45462 4.05950 3.76921
# Velocity P-wave (km/s) = 5.73270 6.51819 6.13802
#
# Compressibility (1/GPa) = 0.02888447
#
# Stress axis : x y z
#
# Youngs Moduli (GPa) = 54.14048 78.49057 143.02303
#
# Poissons Ratio (x) = 0.07816 0.51493
# Poissons Ratio (y) = 0.05391 0.00902
# Poissons Ratio (z) = 0.19492 0.00495
#
# Static dielectric constant tensor:
#      x y z
#    x 1.793760 0.000000 0.000000 
#    y 0.000000 1.726850 0.000000 
#    z 0.000000 0.000000 1.766390 
# 
# From -- ./inp_files/15963.got.cif
#   From: 2010.05.17/outbox.cif.g08.bks.cpg/sg56_8_cif.got.tgz:15963.got - 2010.06.03 13:42:01.
