data_PCOD9430390
_publ_section_title
;
Structure prediction by ZEFSAII (Michael W. Deem and Ramdas Pophale) SiO2 
 PCOD9430390
Probable space group: P C C N
;
_chemical_formula_sum "Si O2"
_cell_formula_units_Z 44
_cell_length_a 8.869802
_cell_length_b 9.419702
_cell_length_c 22.236602
_cell_angle_alpha 90.000000
_cell_angle_beta 90.000000
_cell_angle_gamma 90.000000
_cell_volume 1857.887924
_symmetry_space_group_name_H-M "P C C N"
_symmetry_group_IT_number 56
_symmetry_cell_setting 'orthorhombic'
loop_
_space_group_symop_operation_xyz
x,y,z
1/2-x,1/2-y,z
1/2+x,-y,1/2-z
-x,1/2+y,1/2-z
-x,-y,-z
1/2+x,1/2+y,-z
1/2-x,y,1/2+z
x,1/2-y,1/2+z
loop_
_atom_site_type_symbol
_atom_site_label
_atom_site_fract_x
_atom_site_fract_y
_atom_site_fract_z
Si Si1 0.651422 0.056968 0.052974
Si Si2 0.078550 0.229572 0.484652
Si Si3 0.669063 0.099972 0.430664
Si Si4 0.540685 0.308380 0.255515
Si Si5 0.163622 0.969902 0.198289
Si Si6 0.250000 0.750000 0.850450
O O1 0.523906 0.175050 0.039414
O O2 0.743025 0.052971 0.990444
O O3 0.746635 0.112497 0.107791
O O4 0.579433 0.903863 0.061440
O O5 0.250000 0.250000 0.501590
O O6 0.998246 0.360151 0.452628
O O7 0.750000 0.250000 0.413394
O O8 0.671753 0.000130 0.372939
O O9 0.395236 0.402168 0.240008
O O10 0.546955 0.164612 0.294900
O O11 0.673641 0.410923 0.280883
O O12 0.605242 0.253566 0.191770
#
# Coordination Sequence:
#
# PCOD9430390 Si02
#       6
#     8   8   8   8   8   4
#     4  10  21  40  59  87 134 156 199 251 307 369
#     4  10  22  35  57  95 119 163 202 244 299 365
#     4  10  19  40  64  84 123 171 196 249 307 371
#     4  10  24  41  67  88 125 160 208 265 311 367
#     4  10  22  45  62  93 119 168 213 256 316 363
#     4  10  20  40  62  88 118 166 196 250 314 360
#
# _framework density 23.682805999999999
#
# number of rings (size 3 to 8) (size 9 to 14) (size 15 to 20)
#    0.000    2.182    4.545    0.000    2.545    5.818 
#    6.545    0.000    0.000    0.000    0.000    0.000 
#    0.000    0.000    0.000    0.000    0.000    0.000 
#
# Total GULP energy -245808.993501 kJ/mol
# GULP energy per Si atom -5586.568034 kJ/mol
# Density = 2.362890 g / cm^3
# Si number density = 23.682806 Si / 1000 Ang^3
#
#
#
# Elastic Constant Matrix: (Units=GPa)
#
#
# Indices 1 2 3 4 5 6 
#
# 1 70.6687 1.7304 26.1446 0.0000 0.0000 0.0000
# 2 1.7304 31.8332 8.3219 0.0000 0.0000 0.0000
# 3 26.1446 8.3219 92.5198 0.0000 0.0000 0.0000
# 4 0.0000 0.0000 0.0000 7.8672 0.0000 0.0000
# 5 0.0000 0.0000 0.0000 0.0000 7.3465 0.0000
# 6 0.0000 0.0000 0.0000 0.0000 0.0000 41.5832
#
#
#
# Elastic Compliance Matrix: (Units=1/GPa)
#
#
# Indices 1 2 3 4 5 6 
#
# 1 0.015806 0.000316 -0.004495 0.000000 0.000000 0.000000
# 2 0.000316 0.032177 -0.002983 0.000000 0.000000 0.000000
# 3 -0.004495 -0.002983 0.012347 0.000000 0.000000 0.000000
# 4 0.000000 0.000000 0.000000 0.127110 0.000000 0.000000
# 5 0.000000 0.000000 0.000000 0.000000 0.136118 0.000000
# 6 0.000000 0.000000 0.000000 0.000000 0.000000 0.024048
#
#
# Mechanical properties :
#
#
# Convention : Reuss Voigt Hill
#
# Bulk Modulus (GPa) = 21.73703 29.71282 25.72493
# Shear Modulus (GPa) = 13.25326 21.94770 17.60048
#
# Velocity S-wave (km/s) = 2.36819 3.04754 2.72908
# Velocity P-wave (km/s) = 4.08363 4.99567 4.56250
#
# Compressibility (1/GPa) = 0.04600443
#
# Stress axis : x y z
#
# Youngs Moduli (GPa) = 63.26827 31.07856 80.99117
#
# Poissons Ratio (x) = -0.00982 0.36404
# Poissons Ratio (y) = -0.01999 0.24163
# Poissons Ratio (z) = 0.28438 0.09272
#
# Static dielectric constant tensor:
#      x y z
#    x 1.937480 0.000000 0.000000 
#    y 0.000000 2.012510 0.000000 
#    z 0.000000 0.000000 1.877220 
# 
# From -- ./inp_files/20441.got.cif
#   From: 2010.05.17/outbox.cif.g08.bks.cpg/sg56_11_cif.got.tgz:20441.got - 2010.06.03 13:42:01.
