data_PCOD9430344
_publ_section_title
;
Structure prediction by ZEFSAII (Michael W. Deem and Ramdas Pophale) SiO2 
 PCOD9430344
Probable space group: P C C N
;
_chemical_formula_sum "Si O2"
_cell_formula_units_Z 56
_cell_length_a 9.390078
_cell_length_b 16.299851
_cell_length_c 14.171582
_cell_angle_alpha 90.000000
_cell_angle_beta 90.000000
_cell_angle_gamma 90.000000
_cell_volume 2169.058016
_symmetry_space_group_name_H-M "P C C N"
_symmetry_group_IT_number 56
_symmetry_cell_setting 'orthorhombic'
loop_
_space_group_symop_operation_xyz
x,y,z
1/2-x,1/2-y,z
1/2+x,-y,1/2-z
-x,1/2+y,1/2-z
-x,-y,-z
1/2+x,1/2+y,-z
1/2-x,y,1/2+z
x,1/2-y,1/2+z
loop_
_atom_site_type_symbol
_atom_site_label
_atom_site_fract_x
_atom_site_fract_y
_atom_site_fract_z
Si Si1 0.888711 0.594070 0.891689
Si Si2 0.903806 0.780662 0.232278
Si Si3 0.258609 0.371696 0.924887
Si Si4 0.357541 0.521164 0.190741
Si Si5 0.736181 0.347273 0.930034
Si Si6 0.513249 0.383276 0.291025
Si Si7 0.707773 0.051382 0.100664
O O1 0.936308 0.644256 0.799884
O O2 0.758215 0.537990 0.857937
O O3 0.036346 0.549238 0.919951
O O4 0.821850 0.647483 0.977194
O O5 0.750000 0.750000 0.268676
O O6 0.870411 0.809393 0.123630
O O7 0.017401 0.708674 0.250678
O O8 0.138204 0.377369 0.844397
O O9 0.290528 0.469294 0.932649
O O10 0.383907 0.598462 0.122893
O O11 0.485938 0.460617 0.222544
O O12 0.287348 0.556560 0.286871
O O13 0.750000 0.250000 0.920019
O O14 0.872303 0.383656 0.873937
O O15 0.736587 0.373587 0.038784
#
# Coordination Sequence:
#
# PCOD9430344 Si02
#       7
#     8   8   8   8   8   8   8
#     4  12  20  37  73  98 130 192 231 294 365 430
#     4  10  21  38  61 103 142 169 233 305 354 420
#     4  10  19  38  65  97 129 175 237 291 346 443
#     4  11  23  41  73 103 135 185 240 297 353 443
#     4  12  27  48  72 101 148 196 245 306 369 433
#     4  10  22  46  64 104 141 181 239 294 363 434
#     4  11  23  41  68  98 132 185 241 280 369 437
#
# _framework density 25.81766
#
# number of rings (size 3 to 8) (size 9 to 14) (size 15 to 20)
#    0.000    1.143    7.143    2.143    2.000    2.286 
#    0.000    0.000    3.143    5.143    0.000    0.000 
#    0.000    0.000    0.000    0.000    0.000    0.000 
#
# Total GULP energy -312610.277692 kJ/mol
# GULP energy per Si atom -5582.326387 kJ/mol
# Density = 2.575890 g / cm^3
# Si number density = 25.817660 Si / 1000 Ang^3
#
#
#
# Elastic Constant Matrix: (Units=GPa)
#
#
# Indices 1 2 3 4 5 6 
#
# 1 61.4231 22.8733 2.1533 0.0000 0.0000 0.0000
# 2 22.8733 162.2870 50.3351 0.0000 0.0000 0.0000
# 3 2.1533 50.3351 144.0959 0.0000 0.0000 0.0000
# 4 0.0000 0.0000 0.0000 52.4189 0.0000 0.0000
# 5 0.0000 0.0000 0.0000 0.0000 17.8323 0.0000
# 6 0.0000 0.0000 0.0000 0.0000 0.0000 27.9990
#
#
#
# Elastic Compliance Matrix: (Units=1/GPa)
#
#
# Indices 1 2 3 4 5 6 
#
# 1 0.017239 -0.002635 0.000663 0.000000 0.000000 0.000000
# 2 -0.002635 0.007314 -0.002515 0.000000 0.000000 0.000000
# 3 0.000663 -0.002515 0.007809 0.000000 0.000000 0.000000
# 4 0.000000 0.000000 0.000000 0.019077 0.000000 0.000000
# 5 0.000000 0.000000 0.000000 0.000000 0.056078 0.000000
# 6 0.000000 0.000000 0.000000 0.000000 0.000000 0.035716
#
#
# Mechanical properties :
#
#
# Convention : Reuss Voigt Hill
#
# Bulk Modulus (GPa) = 42.76185 57.61437 50.18811
# Shear Modulus (GPa) = 31.24964 39.14633 35.19799
#
# Velocity S-wave (km/s) = 3.48285 3.89814 3.69634
# Velocity P-wave (km/s) = 5.72474 6.52879 6.13994
#
# Compressibility (1/GPa) = 0.02338533
#
# Stress axis : x y z
#
# Youngs Moduli (GPa) = 58.00918 136.73306 128.06439
#
# Poissons Ratio (x) = 0.36033 -0.08490
# Poissons Ratio (y) = 0.15287 0.32213
# Poissons Ratio (z) = -0.03846 0.34393
#
# Static dielectric constant tensor:
#      x y z
#    x 2.155400 0.000000 0.000000 
#    y 0.000000 2.292190 0.000000 
#    z 0.000000 0.000000 2.007340 
# 
# From -- ./inp_files/11667.got.cif
#   From: 2010.05.17/outbox.cif.g08.bks.cpg/sg56_6_cif.got.tgz:11667.got - 2010.06.03 13:42:01.
