data_PCOD9430438
_publ_section_title
;
Structure prediction by ZEFSAII (Michael W. Deem and Ramdas Pophale) SiO2 
 PCOD9430438
Probable space group: P C C N
;
_chemical_formula_sum "Si O2"
_cell_formula_units_Z 48
_cell_length_a 25.301276
_cell_length_b 11.987261
_cell_length_c 8.352760
_cell_angle_alpha 90.000000
_cell_angle_beta 90.000000
_cell_angle_gamma 90.000000
_cell_volume 2533.333631
_symmetry_space_group_name_H-M "P C C N"
_symmetry_group_IT_number 56
_symmetry_cell_setting 'orthorhombic'
loop_
_space_group_symop_operation_xyz
x,y,z
1/2-x,1/2-y,z
1/2+x,-y,1/2-z
-x,1/2+y,1/2-z
-x,-y,-z
1/2+x,1/2+y,-z
1/2-x,y,1/2+z
x,1/2-y,1/2+z
loop_
_atom_site_type_symbol
_atom_site_label
_atom_site_fract_x
_atom_site_fract_y
_atom_site_fract_z
Si Si1 0.234651 0.624372 0.959054
Si Si2 0.332925 0.913591 0.250385
Si Si3 0.367800 0.842327 0.759095
Si Si4 0.913195 0.482963 0.533994
Si Si5 0.520546 0.388929 0.588859
Si Si6 0.489649 0.156731 0.457350
O O1 0.202677 0.563677 0.097433
O O2 0.139026 0.708715 0.233688
O O3 0.210575 0.918078 0.891130
O O4 0.190546 0.628832 0.820790
O O5 0.250000 0.750000 0.014622
O O6 0.379584 0.992636 0.305583
O O7 0.382360 0.912568 0.601333
O O8 0.415664 0.871988 0.882928
O O9 0.934774 0.603487 0.484817
O O10 0.965123 0.407281 0.557837
O O11 0.500000 0.500000 0.500000
O O12 0.498765 0.285669 0.486261
O O13 0.498592 0.375297 0.770910
#
# Coordination Sequence:
#
# PCOD9430438 Si02
#       6
#     8   8   8   8   8   8
#     4  10  20  30  51  81 121 155 201 241 302 378
#     4  11  19  33  53  83 122 160 195 246 310 367
#     4  10  20  33  53  79 117 160 196 243 305 361
#     4  10  21  36  55  81 122 160 197 246 299 360
#     4  11  25  39  61  85 123 163 204 253 309 366
#     4  10  24  39  58  86 119 158 213 246 300 372
#
# _framework density 18.947365000000001
#
# number of rings (size 3 to 8) (size 9 to 14) (size 15 to 20)
#    0.000    1.667    1.667    4.500   11.667    0.000 
#    0.000    0.000    0.000    0.000    0.000    1.167 
#    0.000    0.000    0.000    0.000    0.000    0.000 
#
# Total GULP energy -267568.107713 kJ/mol
# GULP energy per Si atom -5574.335577 kJ/mol
# Density = 1.890424 g / cm^3
# Si number density = 18.947365 Si / 1000 Ang^3
#
#
#
# Elastic Constant Matrix: (Units=GPa)
#
#
# Indices 1 2 3 4 5 6 
#
# 1 97.4702 32.5796 32.1244 0.0000 0.0000 0.0000
# 2 32.5796 82.8200 14.4081 0.0000 0.0000 0.0000
# 3 32.1244 14.4081 58.9783 0.0000 0.0000 0.0000
# 4 0.0000 0.0000 0.0000 18.2790 0.0000 0.0000
# 5 0.0000 0.0000 0.0000 0.0000 36.4894 0.0000
# 6 0.0000 0.0000 0.0000 0.0000 0.0000 25.8576
#
#
#
# Elastic Compliance Matrix: (Units=1/GPa)
#
#
# Indices 1 2 3 4 5 6 
#
# 1 0.013839 -0.004316 -0.006483 0.000000 0.000000 0.000000
# 2 -0.004316 0.013956 -0.001059 0.000000 0.000000 0.000000
# 3 -0.006483 -0.001059 0.020745 0.000000 0.000000 0.000000
# 4 0.000000 0.000000 0.000000 0.054708 0.000000 0.000000
# 5 0.000000 0.000000 0.000000 0.000000 0.027405 0.000000
# 6 0.000000 0.000000 0.000000 0.000000 0.000000 0.038673
#
#
# Mechanical properties :
#
#
# Convention : Reuss Voigt Hill
#
# Bulk Modulus (GPa) = 40.28266 44.16587 42.22426
# Shear Modulus (GPa) = 24.83632 26.80231 25.81932
#
# Velocity S-wave (km/s) = 3.62443 3.76515 3.69546
# Velocity P-wave (km/s) = 6.23071 6.50094 6.36726
#
# Compressibility (1/GPa) = 0.02482458
#
# Stress axis : x y z
#
# Youngs Moduli (GPa) = 72.25946 71.65187 48.20338
#
# Poissons Ratio (x) = 0.30925 0.31253
# Poissons Ratio (y) = 0.31187 0.05103
# Poissons Ratio (z) = 0.46849 0.07585
#
# Static dielectric constant tensor:
#      x y z
#    x 1.679420 0.000000 0.000000 
#    y 0.000000 1.656590 0.000000 
#    z 0.000000 0.000000 1.779560 
# 
# From -- ./inp_files/4940.got.cif
#   From: 2010.05.17/outbox.cif.g08.bks.cpg/sg56_3_cif.got.tgz:4940.got - 2010.06.03 13:42:01.
