data_PCOD9430036
_publ_section_title
;
Structure prediction by ZEFSAII (Michael W. Deem and Ramdas Pophale) SiO2 
 PCOD9430036
Probable space group: P C C N
;
_chemical_formula_sum "Si O2"
_cell_formula_units_Z 56
_cell_length_a 22.047049
_cell_length_b 5.523819
_cell_length_c 23.402441
_cell_angle_alpha 90.000000
_cell_angle_beta 90.000000
_cell_angle_gamma 90.000000
_cell_volume 2850.040725
_symmetry_space_group_name_H-M "P C C N"
_symmetry_group_IT_number 56
_symmetry_cell_setting 'orthorhombic'
loop_
_space_group_symop_operation_xyz
x,y,z
1/2-x,1/2-y,z
1/2+x,-y,1/2-z
-x,1/2+y,1/2-z
-x,-y,-z
1/2+x,1/2+y,-z
1/2-x,y,1/2+z
x,1/2-y,1/2+z
loop_
_atom_site_type_symbol
_atom_site_label
_atom_site_fract_x
_atom_site_fract_y
_atom_site_fract_z
Si Si1 0.457912 0.458805 0.813563
Si Si2 0.588608 0.366305 0.984152
Si Si3 0.995361 0.187642 0.078461
Si Si4 0.316079 0.683801 0.183480
Si Si5 0.418699 0.962951 0.760541
Si Si6 0.902634 0.991327 0.382547
Si Si7 0.190346 0.106333 0.066266
O O1 0.469875 0.478884 0.880949
O O2 0.423436 0.705940 0.794069
O O3 0.523622 0.458421 0.782457
O O4 0.426409 0.207129 0.797109
O O5 0.545319 0.591205 0.966632
O O6 0.586548 0.199087 0.928645
O O7 0.657354 0.461632 0.984517
O O8 0.560302 0.232194 0.038560
O O9 0.031734 0.364577 0.121725
O O10 0.250000 0.750000 0.207596
O O11 0.356396 0.518790 0.224748
O O12 0.365132 0.897241 0.169954
O O13 0.300740 0.563806 0.121837
O O14 0.856940 0.801088 0.409939
O O15 0.250000 0.250000 0.049844
#
# Coordination Sequence:
#
# PCOD9430036 Si02
#       7
#     8   8   8   8   8   8   8
#     4  10  22  38  59  82 120 153 200 246 297 361
#     4   9  20  33  53  84 118 148 191 238 301 351
#     4  10  20  35  55  83 116 151 194 242 295 363
#     4  11  22  35  57  85 119 152 196 249 310 369
#     4  10  23  37  57  87 114 157 197 247 303 355
#     4  10  19  32  56  84 116 152 187 243 299 364
#     4  10  19  33  53  82 115 150 190 237 298 363
#
# _framework density 19.648841999999998
#
# number of rings (size 3 to 8) (size 9 to 14) (size 15 to 20)
#    0.000    2.000    1.429    3.000   10.000    0.000 
#    0.000    0.000    0.000    1.714    0.000    0.000 
#    0.000    0.000    0.000    0.000    0.000    0.000 
#
# Total GULP energy -312022.430930 kJ/mol
# GULP energy per Si atom -5571.829124 kJ/mol
# Density = 1.960412 g / cm^3
# Si number density = 19.648842 Si / 1000 Ang^3
#
#
#
# Elastic Constant Matrix: (Units=GPa)
#
#
# Indices 1 2 3 4 5 6 
#
# 1 120.1205 47.7592 42.1893 0.0000 0.0000 0.0000
# 2 47.7592 67.2214 7.5313 0.0000 0.0000 0.0000
# 3 42.1893 7.5313 38.5652 0.0000 0.0000 0.0000
# 4 0.0000 0.0000 0.0000 12.8854 0.0000 0.0000
# 5 0.0000 0.0000 0.0000 0.0000 9.1237 0.0000
# 6 0.0000 0.0000 0.0000 0.0000 0.0000 28.5755
#
#
#
# Elastic Compliance Matrix: (Units=1/GPa)
#
#
# Indices 1 2 3 4 5 6 
#
# 1 0.019915 -0.011970 -0.019449 0.000000 0.000000 0.000000
# 2 -0.011970 0.022404 0.008720 0.000000 0.000000 0.000000
# 3 -0.019449 0.008720 0.045504 0.000000 0.000000 0.000000
# 4 0.000000 0.000000 0.000000 0.077607 0.000000 0.000000
# 5 0.000000 0.000000 0.000000 0.000000 0.109605 0.000000
# 6 0.000000 0.000000 0.000000 0.000000 0.000000 0.034995
#
#
# Mechanical properties :
#
#
# Convention : Reuss Voigt Hill
#
# Bulk Modulus (GPa) = 23.57141 46.76295 35.16718
# Shear Modulus (GPa) = 13.52921 18.67874 16.10397
#
# Velocity S-wave (km/s) = 2.62687 3.08657 2.86595
# Velocity P-wave (km/s) = 4.60684 6.04595 5.37478
#
# Compressibility (1/GPa) = 0.04242427
#
# Stress axis : x y z
#
# Youngs Moduli (GPa) = 50.21262 44.63513 21.97610
#
# Poissons Ratio (x) = 0.53430 0.42742
# Poissons Ratio (y) = 0.60106 -0.19163
# Poissons Ratio (z) = 0.97659 -0.38922
#
# Static dielectric constant tensor:
#      x y z
#    x 1.721250 0.000000 0.000000 
#    y 0.000000 1.915980 0.000000 
#    z 0.000000 0.000000 1.707360 
# 
# From -- ./inp_files/21302.got.cif
#   From: 2010.05.17/outbox.cif.g08.bks.cpg/sg56_11_cif.got.tgz:21302.got - 2010.06.03 13:42:01.
