data_PCOD9430610
_publ_section_title
;
Structure prediction by ZEFSAII (Michael W. Deem and Ramdas Pophale) SiO2 
 PCOD9430610
Probable space group: P C C N
;
_chemical_formula_sum "Si O2"
_cell_formula_units_Z 40
_cell_length_a 12.244867
_cell_length_b 17.078651
_cell_length_c 7.672203
_cell_angle_alpha 90.000000
_cell_angle_beta 90.000000
_cell_angle_gamma 90.000000
_cell_volume 1604.455667
_symmetry_space_group_name_H-M "P C C N"
_symmetry_group_IT_number 56
_symmetry_cell_setting 'orthorhombic'
loop_
_space_group_symop_operation_xyz
x,y,z
1/2-x,1/2-y,z
1/2+x,-y,1/2-z
-x,1/2+y,1/2-z
-x,-y,-z
1/2+x,1/2+y,-z
1/2-x,y,1/2+z
x,1/2-y,1/2+z
loop_
_atom_site_type_symbol
_atom_site_label
_atom_site_fract_x
_atom_site_fract_y
_atom_site_fract_z
Si Si1 0.099568 0.854308 0.734593
Si Si2 0.394357 0.551800 0.052576
Si Si3 0.822209 0.823105 0.408288
Si Si4 0.572624 0.183374 0.157455
Si Si5 0.147295 0.411809 0.783745
O O1 0.114872 0.853809 0.525196
O O2 0.125119 0.766821 0.798240
O O3 0.970529 0.874537 0.760607
O O4 0.153560 0.914849 0.871093
O O5 0.418977 0.625370 0.178310
O O6 0.334951 0.490447 0.178706
O O7 0.500000 0.500000 0.000000
O O8 0.750000 0.750000 0.478359
O O9 0.943972 0.796193 0.365980
O O10 0.848390 0.905184 0.509658
O O11 0.745342 0.853439 0.256999
#
# Coordination Sequence:
#
# PCOD9430610 Si02
#       5
#     8   8   8   8   8
#     4  10  20  35  60  85 117 154 202 248 295 354
#     4  10  23  39  55  84 128 160 205 247 300 359
#     4  11  22  34  60  89 127 160 200 234 310 376
#     4  11  21  36  61  90 118 161 205 250 301 363
#     4  10  23  35  53  88 124 161 189 250 298 370
#
# _framework density 24.930572000000002
#
# number of rings (size 3 to 8) (size 9 to 14) (size 15 to 20)
#    0.000    1.600    4.000    0.600    8.400    7.200 
#    0.000    0.000    0.000    0.000    0.000    4.200 
#    0.000    0.000    0.000    0.000    0.000    0.000 
#
# Total GULP energy -222965.941917 kJ/mol
# GULP energy per Si atom -5574.148548 kJ/mol
# Density = 2.487383 g / cm^3
# Si number density = 24.930572 Si / 1000 Ang^3
#
#
#
# Elastic Constant Matrix: (Units=GPa)
#
#
# Indices 1 2 3 4 5 6 
#
# 1 82.3897 13.4984 15.8508 0.0000 0.0000 0.0000
# 2 13.4984 108.4899 42.4438 0.0000 0.0000 0.0000
# 3 15.8508 42.4438 104.0108 0.0000 0.0000 0.0000
# 4 0.0000 0.0000 0.0000 48.8334 0.0000 0.0000
# 5 0.0000 0.0000 0.0000 0.0000 18.6731 0.0000
# 6 0.0000 0.0000 0.0000 0.0000 0.0000 25.6518
#
#
#
# Elastic Compliance Matrix: (Units=1/GPa)
#
#
# Indices 1 2 3 4 5 6 
#
# 1 0.012589 -0.000971 -0.001522 0.000000 0.000000 0.000000
# 2 -0.000971 0.011043 -0.004359 0.000000 0.000000 0.000000
# 3 -0.001522 -0.004359 0.011625 0.000000 0.000000 0.000000
# 4 0.000000 0.000000 0.000000 0.020478 0.000000 0.000000
# 5 0.000000 0.000000 0.000000 0.000000 0.053553 0.000000
# 6 0.000000 0.000000 0.000000 0.000000 0.000000 0.038984
#
#
# Mechanical properties :
#
#
# Convention : Reuss Voigt Hill
#
# Bulk Modulus (GPa) = 46.39448 48.71958 47.55703
# Shear Modulus (GPa) = 29.55772 33.50481 31.53127
#
# Velocity S-wave (km/s) = 3.44699 3.66994 3.56021
# Velocity P-wave (km/s) = 5.87301 6.12719 6.00144
#
# Compressibility (1/GPa) = 0.02155429
#
# Stress axis : x y z
#
# Youngs Moduli (GPa) = 79.43201 90.55183 86.02154
#
# Poissons Ratio (x) = 0.08790 0.13096
# Poissons Ratio (y) = 0.07711 0.37493
# Poissons Ratio (z) = 0.12093 0.39467
#
# Static dielectric constant tensor:
#      x y z
#    x 2.204430 0.000000 0.000000 
#    y 0.000000 1.949740 0.000000 
#    z 0.000000 0.000000 2.023720 
# 
# From -- ./inp_files/3216.got.cif
#   From: 2010.05.17/outbox.cif.g08.bks.cpg/sg56_2_cif.got.tgz:3216.got - 2010.06.03 13:42:01.
