data_PCOD9430779
_publ_section_title
;
Structure prediction by ZEFSAII (Michael W. Deem and Ramdas Pophale) SiO2 
 PCOD9430779
Probable space group: P C C N
;
_chemical_formula_sum "Si O2"
_cell_formula_units_Z 40
_cell_length_a 7.094473
_cell_length_b 12.556144
_cell_length_c 18.331010
_cell_angle_alpha 90.000000
_cell_angle_beta 90.000000
_cell_angle_gamma 90.000000
_cell_volume 1632.912157
_symmetry_space_group_name_H-M "P C C N"
_symmetry_group_IT_number 56
_symmetry_cell_setting 'orthorhombic'
loop_
_space_group_symop_operation_xyz
x,y,z
1/2-x,1/2-y,z
1/2+x,-y,1/2-z
-x,1/2+y,1/2-z
-x,-y,-z
1/2+x,1/2+y,-z
1/2-x,y,1/2+z
x,1/2-y,1/2+z
loop_
_atom_site_type_symbol
_atom_site_label
_atom_site_fract_x
_atom_site_fract_y
_atom_site_fract_z
Si Si1 0.658531 0.047367 0.089890
Si Si2 0.247659 0.063872 0.537811
Si Si3 0.593891 0.603809 0.809021
Si Si4 0.750000 0.250000 0.174227
Si Si5 0.112124 0.106888 0.807936
Si Si6 0.250000 0.250000 0.923091
O O1 0.443010 0.022522 0.074381
O O2 0.655951 0.164020 0.122178
O O3 0.738935 0.967828 0.149619
O O4 0.791463 0.032538 0.018275
O O5 0.375050 0.106253 0.603527
O O6 0.200010 0.156431 0.479494
O O7 0.416802 0.680345 0.787480
O O8 0.554212 0.477307 0.794717
O O9 0.782507 0.635264 0.766461
O O10 0.093336 0.203460 0.865957
#
# Coordination Sequence:
#
# PCOD9430779 Si02
#       6
#     8   8   8   4   8   4
#     4   9  20  38  59  89 122 156 201 249 304 369
#     4  10  20  37  62  88 121 160 199 249 308 368
#     4  11  23  40  63  89 122 164 207 254 310 368
#     4  10  22  36  60  90 118 156 208 254 306 366
#     4  10  23  40  59  87 122 158 203 253 304 366
#     4  10  22  36  58  88 116 150 196 246 302 358
#
# _framework density 24.496113999999999
#
# number of rings (size 3 to 8) (size 9 to 14) (size 15 to 20)
#    0.000    2.000    0.000    2.400    0.000   14.400 
#    0.000    0.000    0.000   15.600    0.000    0.000 
#    0.000    0.000    0.000    0.000    0.000    0.000 
#
# Total GULP energy -223011.723239 kJ/mol
# GULP energy per Si atom -5575.293081 kJ/mol
# Density = 2.444036 g / cm^3
# Si number density = 24.496114 Si / 1000 Ang^3
#
#
#
# Elastic Constant Matrix: (Units=GPa)
#
#
# Indices 1 2 3 4 5 6 
#
# 1 48.2548 5.9039 33.2870 0.0000 0.0000 0.0000
# 2 5.9039 73.2179 18.4049 0.0000 0.0000 0.0000
# 3 33.2870 18.4049 122.1797 0.0000 0.0000 0.0000
# 4 0.0000 0.0000 0.0000 -3.2091 0.0000 0.0000
# 5 0.0000 0.0000 0.0000 0.0000 38.1196 0.0000
# 6 0.0000 0.0000 0.0000 0.0000 0.0000 25.4969
#
#
#
# Elastic Compliance Matrix: (Units=1/GPa)
#
#
# Indices 1 2 3 4 5 6 
#
# 1 0.025527 -0.000322 -0.006906 0.000000 0.000000 0.000000
# 2 -0.000322 0.014199 -0.002051 0.000000 0.000000 0.000000
# 3 -0.006906 -0.002051 0.010375 0.000000 0.000000 0.000000
# 4 0.000000 0.000000 0.000000 -0.311618 0.000000 0.000000
# 5 0.000000 0.000000 0.000000 0.000000 0.026233 0.000000
# 6 0.000000 0.000000 0.000000 0.000000 0.000000 0.039220
#
#
# Mechanical properties :
#
#
# Convention : Reuss Voigt Hill
#
# Bulk Modulus (GPa) = 31.70357 39.87157 35.78757
# Shear Modulus (GPa) = -29.94186 24.48525 -2.72830
#
# Velocity S-wave (km/s) = -3.49995 3.16501 -1.05650
# Velocity P-wave (km/s) = 1.83371 5.44687 3.62670
#
# Compressibility (1/GPa) = 0.03154219
#
# Stress axis : x y z
#
# Youngs Moduli (GPa) = 39.17478 70.42523 96.38426
#
# Poissons Ratio (x) = 0.02270 0.66563
# Poissons Ratio (y) = 0.01263 0.19770
# Poissons Ratio (z) = 0.27054 0.14445
#
# Static dielectric constant tensor:
#      x y z
#    x 2.056050 0.000000 0.000000 
#    y 0.000000 2.207590 0.000000 
#    z 0.000000 0.000000 2.002380 
# 
# From -- ./inp_files/14646.got.cif
#   From: 2010.05.17/outbox.cif.g08.bks.cpg/sg56_8_cif.got.tgz:14646.got - 2010.06.03 13:42:01.
