data_PCOD9430343
_publ_section_title
;
Structure prediction by ZEFSAII (Michael W. Deem and Ramdas Pophale) SiO2 
 PCOD9430343
Probable space group: P C C N
;
_chemical_formula_sum "Si O2"
_cell_formula_units_Z 60
_cell_length_a 18.959130
_cell_length_b 8.464427
_cell_length_c 17.554846
_cell_angle_alpha 90.000000
_cell_angle_beta 90.000000
_cell_angle_gamma 90.000000
_cell_volume 2817.169594
_symmetry_space_group_name_H-M "P C C N"
_symmetry_group_IT_number 56
_symmetry_cell_setting 'orthorhombic'
loop_
_space_group_symop_operation_xyz
x,y,z
1/2-x,1/2-y,z
1/2+x,-y,1/2-z
-x,1/2+y,1/2-z
-x,-y,-z
1/2+x,1/2+y,-z
1/2-x,y,1/2+z
x,1/2-y,1/2+z
loop_
_atom_site_type_symbol
_atom_site_label
_atom_site_fract_x
_atom_site_fract_y
_atom_site_fract_z
Si Si1 0.415115 0.123082 0.383111
Si Si2 0.750000 0.250000 0.239775
Si Si3 0.867010 0.415575 0.149148
Si Si4 0.007148 0.122326 0.292003
Si Si5 0.103833 0.403297 0.118440
Si Si6 0.181026 0.357454 0.971377
Si Si7 0.479204 0.814012 0.386463
Si Si8 0.299189 0.400928 0.756104
O O1 0.472339 0.213038 0.331097
O O2 0.381080 0.244258 0.441377
O O3 0.350886 0.072320 0.327709
O O4 0.452325 0.975240 0.421214
O O5 0.820965 0.290749 0.194424
O O6 0.734257 0.429883 0.270527
O O7 0.919558 0.522006 0.200951
O O8 0.813886 0.519335 0.098451
O O9 0.921398 0.319843 0.097171
O O10 0.983270 0.152560 0.205538
O O11 0.947485 0.034093 0.342520
O O12 0.153166 0.345202 0.186125
O O13 0.053303 0.260606 0.093502
O O14 0.153059 0.444414 0.046989
O O15 0.250000 0.250000 0.983864
O O16 0.250000 0.250000 0.774242
#
# Coordination Sequence:
#
# PCOD9430343 Si02
#       8
#     8   4   8   8   8   8   8   8
#     4  11  20  38  67  94 125 169 220 271 327 396
#     4  12  22  38  68 102 126 170 242 272 318 396
#     4  10  22  37  64  92 128 170 213 275 324 388
#     4  10  19  38  65  97 128 164 210 278 341 386
#     4  11  24  42  63  91 138 172 211 276 344 392
#     4  11  25  44  62  88 132 181 222 264 330 405
#     4  11  20  38  66  98 125 157 216 280 330 387
#     4  12  23  40  66  99 131 176 226 279 330 390
#
# _framework density 21.297971
#
# number of rings (size 3 to 8) (size 9 to 14) (size 15 to 20)
#    0.000    1.067    4.000    4.000    0.000    5.333 
#    0.000    0.667    0.000    0.000    0.000    0.000 
#    0.000    0.000    0.000    0.000    0.000    0.000 
#
# Total GULP energy -334724.122754 kJ/mol
# GULP energy per Si atom -5578.735379 kJ/mol
# Density = 2.124950 g / cm^3
# Si number density = 21.297971 Si / 1000 Ang^3
#
#
#
# Elastic Constant Matrix: (Units=GPa)
#
#
# Indices 1 2 3 4 5 6 
#
# 1 75.1443 20.3390 20.5608 0.0000 0.0000 0.0000
# 2 20.3390 92.1315 -16.4524 0.0000 0.0000 0.0000
# 3 20.5608 -16.4524 32.4766 0.0000 0.0000 0.0000
# 4 0.0000 0.0000 0.0000 4.4949 0.0000 0.0000
# 5 0.0000 0.0000 0.0000 0.0000 20.6395 0.0000
# 6 0.0000 0.0000 0.0000 0.0000 0.0000 23.3966
#
#
#
# Elastic Compliance Matrix: (Units=1/GPa)
#
#
# Indices 1 2 3 4 5 6 
#
# 1 0.019670 -0.007219 -0.016110 0.000000 0.000000 0.000000
# 2 -0.007219 0.014583 0.011958 0.000000 0.000000 0.000000
# 3 -0.016110 0.011958 0.047048 0.000000 0.000000 0.000000
# 4 0.000000 0.000000 0.000000 0.222472 0.000000 0.000000
# 5 0.000000 0.000000 0.000000 0.000000 0.048451 0.000000
# 6 0.000000 0.000000 0.000000 0.000000 0.000000 0.042741
#
#
# Mechanical properties :
#
#
# Convention : Reuss Voigt Hill
#
# Bulk Modulus (GPa) = 17.07667 27.62746 22.35206
# Shear Modulus (GPa) = 11.43571 21.39321 16.41446
#
# Velocity S-wave (km/s) = 2.31971 3.17278 2.77917
# Velocity P-wave (km/s) = 3.90001 5.14024 4.56247
#
# Compressibility (1/GPa) = 0.05855943
#
# Stress axis : x y z
#
# Youngs Moduli (GPa) = 50.83979 68.57218 21.25471
#
# Poissons Ratio (x) = 0.49503 0.34241
# Poissons Ratio (y) = 0.36702 -0.25417
# Poissons Ratio (z) = 0.81902 -0.81999
#
# Static dielectric constant tensor:
#      x y z
#    x 1.777850 0.000000 0.000000 
#    y 0.000000 1.839330 0.000000 
#    z 0.000000 0.000000 1.766570 
# 
# From -- ./inp_files/16666.got.cif
#   From: 2010.05.17/outbox.cif.g08.bks.cpg/sg56_9_cif.got.tgz:16666.got - 2010.06.03 13:42:01.
