data_PCOD9430028
_publ_section_title
;
Structure prediction by ZEFSAII (Michael W. Deem and Ramdas Pophale) SiO2 
 PCOD9430028
Probable space group: P C C N
;
_chemical_formula_sum "Si O2"
_cell_formula_units_Z 40
_cell_length_a 13.309742
_cell_length_b 9.782708
_cell_length_c 15.235547
_cell_angle_alpha 90.000000
_cell_angle_beta 90.000000
_cell_angle_gamma 90.000000
_cell_volume 1983.749266
_symmetry_space_group_name_H-M "P C C N"
_symmetry_group_IT_number 56
_symmetry_cell_setting 'orthorhombic'
loop_
_space_group_symop_operation_xyz
x,y,z
1/2-x,1/2-y,z
1/2+x,-y,1/2-z
-x,1/2+y,1/2-z
-x,-y,-z
1/2+x,1/2+y,-z
1/2-x,y,1/2+z
x,1/2-y,1/2+z
loop_
_atom_site_type_symbol
_atom_site_label
_atom_site_fract_x
_atom_site_fract_y
_atom_site_fract_z
Si Si1 0.061732 0.390320 0.346073
Si Si2 0.176445 0.121817 0.670092
Si Si3 0.434599 0.252033 0.026010
Si Si4 0.155689 0.533653 0.608628
Si Si5 0.154601 0.831558 0.926978
O O1 0.099568 0.364214 0.248908
O O2 0.081734 0.277190 0.422334
O O3 0.115850 0.532092 0.376376
O O4 0.941673 0.404076 0.346062
O O5 0.250000 0.250000 0.680165
O O6 0.124106 0.131867 0.574861
O O7 0.249915 0.992703 0.670343
O O8 0.388169 0.390182 0.069572
O O9 0.551670 0.247968 0.053269
O O10 0.187158 0.616774 0.523248
O O11 0.250000 0.750000 0.888579
#
# Coordination Sequence:
#
# PCOD9430028 Si02
#       5
#     8   8   8   8   8
#     4   9  18  33  53  76 106 138 167 212 268 307
#     4  10  19  32  54  79  99 131 179 219 251 309
#     4   8  17  34  52  71 101 136 170 207 255 313
#     4   8  17  34  50  70 104 135 165 213 264 303
#     4   9  17  33  53  72 100 140 171 205 263 316
#
# _framework density 20.163838999999999
#
# number of rings (size 3 to 8) (size 9 to 14) (size 15 to 20)
#    0.000    3.200    0.000    2.400    0.000    5.600 
#    0.000   14.000    0.000    0.000    0.000    0.000 
#    0.000    0.000    0.000    0.000    0.000    0.000 
#
# Total GULP energy -222682.867260 kJ/mol
# GULP energy per Si atom -5567.071682 kJ/mol
# Density = 2.011795 g / cm^3
# Si number density = 20.163839 Si / 1000 Ang^3
#
#
#
# Elastic Constant Matrix: (Units=GPa)
#
#
# Indices 1 2 3 4 5 6 
#
# 1 58.0569 28.7837 41.9605 0.0000 0.0000 0.0000
# 2 28.7837 19.1876 12.2241 0.0000 0.0000 0.0000
# 3 41.9605 12.2241 82.3714 0.0000 0.0000 0.0000
# 4 0.0000 0.0000 0.0000 6.2307 0.0000 0.0000
# 5 0.0000 0.0000 0.0000 0.0000 34.3213 0.0000
# 6 0.0000 0.0000 0.0000 0.0000 0.0000 11.4293
#
#
#
# Elastic Compliance Matrix: (Units=1/GPa)
#
#
# Indices 1 2 3 4 5 6 
#
# 1 0.135208 -0.175545 -0.042824 0.000000 0.000000 0.000000
# 2 -0.175545 0.285475 0.047059 0.000000 0.000000 0.000000
# 3 -0.042824 0.047059 0.026972 0.000000 0.000000 0.000000
# 4 0.000000 0.000000 0.000000 0.160497 0.000000 0.000000
# 5 0.000000 0.000000 0.000000 0.000000 0.029136 0.000000
# 6 0.000000 0.000000 0.000000 0.000000 0.000000 0.087495
#
#
# Mechanical properties :
#
#
# Convention : Reuss Voigt Hill
#
# Bulk Modulus (GPa) = 9.52087 36.17251 22.84669
# Shear Modulus (GPa) = 4.53549 15.50610 10.02080
#
# Velocity S-wave (km/s) = 1.50140 2.77610 2.23170
# Velocity P-wave (km/s) = 2.78166 5.31544 4.24214
#
# Compressibility (1/GPa) = 0.10503240
#
# Stress axis : x y z
#
# Youngs Moduli (GPa) = 7.39600 3.50293 37.07610
#
# Poissons Ratio (x) = 0.61492 1.58776
# Poissons Ratio (y) = 1.29833 -1.74475
# Poissons Ratio (z) = 0.31673 -0.16484
#
# Static dielectric constant tensor:
#      x y z
#    x 1.742690 0.000000 0.000000 
#    y 0.000000 1.793170 0.000000 
#    z 0.000000 0.000000 1.700590 
# 
# From -- ./inp_files/11436.got.cif
#   From: 2010.05.17/outbox.cif.g08.bks.cpg/sg56_6_cif.got.tgz:11436.got - 2010.06.03 13:42:01.
