data_PCOD9430650
_publ_section_title
;
Structure prediction by ZEFSAII (Michael W. Deem and Ramdas Pophale) SiO2 
 PCOD9430650
Probable space group: P C C N
;
_chemical_formula_sum "Si O2"
_cell_formula_units_Z 40
_cell_length_a 8.904180
_cell_length_b 17.688508
_cell_length_c 10.445035
_cell_angle_alpha 90.000000
_cell_angle_beta 90.000000
_cell_angle_gamma 90.000000
_cell_volume 1645.110343
_symmetry_space_group_name_H-M "P C C N"
_symmetry_group_IT_number 56
_symmetry_cell_setting 'orthorhombic'
loop_
_space_group_symop_operation_xyz
x,y,z
1/2-x,1/2-y,z
1/2+x,-y,1/2-z
-x,1/2+y,1/2-z
-x,-y,-z
1/2+x,1/2+y,-z
1/2-x,y,1/2+z
x,1/2-y,1/2+z
loop_
_atom_site_type_symbol
_atom_site_label
_atom_site_fract_x
_atom_site_fract_y
_atom_site_fract_z
Si Si1 0.431919 0.254805 0.176746
Si Si2 0.007277 0.902769 0.446451
Si Si3 0.527365 0.463086 0.822185
Si Si4 0.411866 0.794529 0.570887
Si Si5 0.747060 0.990259 0.497910
O O1 0.250000 0.250000 0.177215
O O2 0.496085 0.178451 0.111985
O O3 0.494980 0.256000 0.322579
O O4 0.505747 0.308302 0.067464
O O5 0.995819 0.959346 0.325843
O O6 0.161247 0.931153 0.505011
O O7 0.859784 0.921955 0.525423
O O8 0.578029 0.378537 0.866314
O O9 0.381075 0.489771 0.896758
O O10 0.660783 0.518039 0.864169
O O11 0.250000 0.750000 0.558766
#
# Coordination Sequence:
#
# PCOD9430650 Si02
#       5
#     8   8   8   8   8
#     4  11  23  40  61  88 122 160 204 250 301 361
#     4  10  21  37  57  83 113 148 191 238 291 347
#     4  10  21  37  57  83 113 148 191 238 291 347
#     4  11  23  40  61  88 122 160 204 250 301 361
#     4  10  20  36  58  82 112 146 188 238 292 348
#
# _framework density 24.314478999999999
#
# number of rings (size 3 to 8) (size 9 to 14) (size 15 to 20)
#    0.000    1.600    0.000    4.800    0.000    3.200 
#    0.000   10.000    0.000    0.000    0.000    0.000 
#    0.000    0.000    0.000    0.000    0.000    0.000 
#
# Total GULP energy -223040.494954 kJ/mol
# GULP energy per Si atom -5576.012374 kJ/mol
# Density = 2.425914 g / cm^3
# Si number density = 24.314479 Si / 1000 Ang^3
#
#
#
# Elastic Constant Matrix: (Units=GPa)
#
#
# Indices 1 2 3 4 5 6 
#
# 1 166.4500 3.9196 39.0150 0.0000 0.0000 0.0000
# 2 3.9196 49.1380 -22.1686 0.0000 0.0000 0.0000
# 3 39.0150 -22.1686 67.5761 0.0000 0.0000 0.0000
# 4 0.0000 0.0000 0.0000 22.5191 0.0000 0.0000
# 5 0.0000 0.0000 0.0000 0.0000 37.7343 0.0000
# 6 0.0000 0.0000 0.0000 0.0000 0.0000 -8.3789
#
#
#
# Elastic Compliance Matrix: (Units=1/GPa)
#
#
# Indices 1 2 3 4 5 6 
#
# 1 0.007286 -0.002910 -0.005161 0.000000 0.000000 0.000000
# 2 -0.002910 0.025048 0.009897 0.000000 0.000000 0.000000
# 3 -0.005161 0.009897 0.021025 0.000000 0.000000 0.000000
# 4 0.000000 0.000000 0.000000 0.044407 0.000000 0.000000
# 5 0.000000 0.000000 0.000000 0.000000 0.026501 0.000000
# 6 0.000000 0.000000 0.000000 0.000000 0.000000 -0.119348
#
#
# Mechanical properties :
#
#
# Convention : Reuss Voigt Hill
#
# Bulk Modulus (GPa) = 17.54047 36.07735 26.80891
# Shear Modulus (GPa) = 246.67317 27.86812 137.27064
#
# Velocity S-wave (km/s) = 10.08322 3.38916 7.52189
# Velocity P-wave (km/s) = 11.94954 5.49411 9.29991
#
# Compressibility (1/GPa) = 0.05701102
#
# Stress axis : x y z
#
# Youngs Moduli (GPa) = 137.24836 39.92347 47.56329
#
# Poissons Ratio (x) = 0.11616 0.24548
# Poissons Ratio (y) = 0.39934 -0.47073
# Poissons Ratio (z) = 0.70835 -0.39512
#
# Static dielectric constant tensor:
#      x y z
#    x 1.944810 0.000000 0.000000 
#    y 0.000000 2.021920 0.000000 
#    z 0.000000 0.000000 1.972940 
# 
# From -- ./inp_files/6192.got.cif
#   From: 2010.05.17/outbox.cif.g08.bks.cpg/sg56_4_cif.got.tgz:6192.got - 2010.06.03 13:42:01.
