data_PCOD9430861
_publ_section_title
;
Structure prediction by ZEFSAII (Michael W. Deem and Ramdas Pophale) SiO2 
 PCOD9430861
Probable space group: P C C N
;
_chemical_formula_sum "Si O2"
_cell_formula_units_Z 24
_cell_length_a 4.986415
_cell_length_b 14.419873
_cell_length_c 16.483499
_cell_angle_alpha 90.000000
_cell_angle_beta 90.000000
_cell_angle_gamma 90.000000
_cell_volume 1185.220793
_symmetry_space_group_name_H-M "P C C N"
_symmetry_group_IT_number 56
_symmetry_cell_setting 'orthorhombic'
loop_
_space_group_symop_operation_xyz
x,y,z
1/2-x,1/2-y,z
1/2+x,-y,1/2-z
-x,1/2+y,1/2-z
-x,-y,-z
1/2+x,1/2+y,-z
1/2-x,y,1/2+z
x,1/2-y,1/2+z
loop_
_atom_site_type_symbol
_atom_site_label
_atom_site_fract_x
_atom_site_fract_y
_atom_site_fract_z
Si Si1 0.480495 0.691165 0.895762
Si Si2 0.804087 0.507900 0.304536
Si Si3 0.747636 0.437958 0.973814
O O1 0.250000 0.750000 0.850118
O O2 0.583172 0.602171 0.845315
O O3 0.750000 0.750000 0.915059
O O4 0.312277 0.652946 0.973733
O O5 0.527297 0.525742 0.258465
O O6 0.754183 0.434194 0.376735
O O7 0.500000 0.500000 0.000000
O O8 0.000000 0.500000 0.000000
#
# Coordination Sequence:
#
# PCOD9430861 Si02
#       3
#     8   8   8
#     4  11  22  39  61  88 119 158 207 259 300 348
#     4  11  22  39  62  88 121 160 196 241 305 372
#     4  10  20  38  61  84 113 158 204 236 288 372
#
# _framework density 20.249392
#
# number of rings (size 3 to 8) (size 9 to 14) (size 15 to 20)
#    0.000    1.333    0.000   10.000    0.000    0.000 
#    0.000   10.000    0.000    0.000    0.000    0.000 
#    0.000    0.000    0.000    0.000    0.000    0.000 
#
# Total GULP energy -133814.508492 kJ/mol
# GULP energy per Si atom -5575.604521 kJ/mol
# Density = 2.020330 g / cm^3
# Si number density = 20.249392 Si / 1000 Ang^3
#
#
#
# Elastic Constant Matrix: (Units=GPa)
#
#
# Indices 1 2 3 4 5 6 
#
# 1 144.5790 14.9121 7.6392 0.0000 0.0000 0.0000
# 2 14.9121 85.7907 -0.5330 0.0000 0.0000 0.0000
# 3 7.6392 -0.5330 83.7219 0.0000 0.0000 0.0000
# 4 0.0000 0.0000 0.0000 14.8097 0.0000 0.0000
# 5 0.0000 0.0000 0.0000 0.0000 40.7323 0.0000
# 6 0.0000 0.0000 0.0000 0.0000 0.0000 46.6613
#
#
#
# Elastic Compliance Matrix: (Units=1/GPa)
#
#
# Indices 1 2 3 4 5 6 
#
# 1 0.007078 -0.001234 -0.000654 0.000000 0.000000 0.000000
# 2 -0.001234 0.011872 0.000188 0.000000 0.000000 0.000000
# 3 -0.000654 0.000188 0.012005 0.000000 0.000000 0.000000
# 4 0.000000 0.000000 0.000000 0.067523 0.000000 0.000000
# 5 0.000000 0.000000 0.000000 0.000000 0.024551 0.000000
# 6 0.000000 0.000000 0.000000 0.000000 0.000000 0.021431
#
#
# Mechanical properties :
#
#
# Convention : Reuss Voigt Hill
#
# Bulk Modulus (GPa) = 36.29006 39.79201 38.04104
# Shear Modulus (GPa) = 31.83786 39.91223 35.87504
#
# Velocity S-wave (km/s) = 3.96951 4.44445 4.21368
# Velocity P-wave (km/s) = 6.24258 6.78462 6.51924
#
# Compressibility (1/GPa) = 0.02755575
#
# Stress axis : x y z
#
# Youngs Moduli (GPa) = 141.27293 84.23172 83.29751
#
# Poissons Ratio (x) = 0.10398 0.05445
# Poissons Ratio (y) = 0.17439 -0.01568
# Poissons Ratio (z) = 0.09236 -0.01585
#
# Static dielectric constant tensor:
#      x y z
#    x 1.701300 0.000000 0.000000 
#    y 0.000000 1.888650 0.000000 
#    z 0.000000 0.000000 1.788280 
# 
# From -- ./inp_files/9273.got.cif
#   From: 2010.05.17/outbox.cif.g08.bks.cpg/sg56_5_cif.got.tgz:9273.got - 2010.06.03 13:42:01.
