data_PCOD9430895
_publ_section_title
;
Structure prediction by ZEFSAII (Michael W. Deem and Ramdas Pophale) SiO2 
 PCOD9430895
Probable space group: P C C N
;
_chemical_formula_sum "Si O2"
_cell_formula_units_Z 48
_cell_length_a 15.872341
_cell_length_b 9.484228
_cell_length_c 16.748912
_cell_angle_alpha 90.000000
_cell_angle_beta 90.000000
_cell_angle_gamma 90.000000
_cell_volume 2521.329307
_symmetry_space_group_name_H-M "P C C N"
_symmetry_group_IT_number 56
_symmetry_cell_setting 'orthorhombic'
loop_
_space_group_symop_operation_xyz
x,y,z
1/2-x,1/2-y,z
1/2+x,-y,1/2-z
-x,1/2+y,1/2-z
-x,-y,-z
1/2+x,1/2+y,-z
1/2-x,y,1/2+z
x,1/2-y,1/2+z
loop_
_atom_site_type_symbol
_atom_site_label
_atom_site_fract_x
_atom_site_fract_y
_atom_site_fract_z
Si Si1 0.584676 0.961498 0.953852
Si Si2 0.599680 0.429115 0.924546
Si Si3 0.317631 0.637169 0.840989
Si Si4 0.259674 0.080142 0.467980
Si Si5 0.835410 0.310466 0.840582
Si Si6 0.484190 0.691541 0.922257
O O1 0.557298 0.807999 0.921054
O O2 0.613470 0.068659 0.885373
O O3 0.664064 0.964444 0.013345
O O4 0.500000 0.000000 0.000000
O O5 0.613369 0.335424 0.846024
O O6 0.527867 0.541994 0.909969
O O7 0.678668 0.516828 0.962383
O O8 0.564952 0.322261 0.992899
O O9 0.250000 0.750000 0.871900
O O10 0.298256 0.492789 0.888548
O O11 0.310298 0.631139 0.745658
O O12 0.409274 0.701171 0.859338
O O13 0.250000 0.250000 0.465214
O O14 0.750000 0.250000 0.882526
#
# Coordination Sequence:
#
# PCOD9430895 Si02
#       6
#     8   8   8   8   8   8
#     4  12  22  35  64  98 116 158 219 264 301 372
#     4  10  20  38  63  87 123 160 200 261 311 367
#     4  10  24  42  60  89 130 171 202 253 325 381
#     4  11  22  40  65  91 122 163 208 261 316 374
#     4  11  23  40  61  88 128 171 206 249 321 385
#     4  10  21  37  60  95 121 154 211 262 310 361
#
# _framework density 19.037575
#
# number of rings (size 3 to 8) (size 9 to 14) (size 15 to 20)
#    0.000    1.333    5.000    1.000    2.333    1.333 
#    0.000    4.167    0.000    0.000    0.000    0.000 
#    0.000    0.000    0.000    0.000    0.000    0.000 
#
# Total GULP energy -267263.146430 kJ/mol
# GULP energy per Si atom -5567.982217 kJ/mol
# Density = 1.899424 g / cm^3
# Si number density = 19.037575 Si / 1000 Ang^3
#
#
#
# Elastic Constant Matrix: (Units=GPa)
#
#
# Indices 1 2 3 4 5 6 
#
# 1 109.2968 17.1565 24.7040 0.0000 0.0000 0.0000
# 2 17.1565 94.4825 40.6665 0.0000 0.0000 0.0000
# 3 24.7040 40.6665 49.8613 0.0000 0.0000 0.0000
# 4 0.0000 0.0000 0.0000 23.1620 0.0000 0.0000
# 5 0.0000 0.0000 0.0000 0.0000 20.3672 0.0000
# 6 0.0000 0.0000 0.0000 0.0000 0.0000 41.6781
#
#
#
# Elastic Compliance Matrix: (Units=1/GPa)
#
#
# Indices 1 2 3 4 5 6 
#
# 1 0.010319 0.000504 -0.005523 0.000000 0.000000 0.000000
# 2 0.000504 0.016334 -0.013571 0.000000 0.000000 0.000000
# 3 -0.005523 -0.013571 0.033861 0.000000 0.000000 0.000000
# 4 0.000000 0.000000 0.000000 0.043174 0.000000 0.000000
# 5 0.000000 0.000000 0.000000 0.000000 0.049099 0.000000
# 6 0.000000 0.000000 0.000000 0.000000 0.000000 0.023993
#
#
# Mechanical properties :
#
#
# Convention : Reuss Voigt Hill
#
# Bulk Modulus (GPa) = 42.86040 46.52165 44.69102
# Shear Modulus (GPa) = 22.54914 28.44902 25.49908
#
# Velocity S-wave (km/s) = 3.44532 3.86989 3.66376
# Velocity P-wave (km/s) = 6.19592 6.66767 6.43612
#
# Compressibility (1/GPa) = 0.02333156
#
# Stress axis : x y z
#
# Youngs Moduli (GPa) = 96.91104 61.22293 29.53283
#
# Poissons Ratio (x) = -0.03083 0.16311
# Poissons Ratio (y) = -0.04880 0.40079
# Poissons Ratio (z) = 0.53525 0.83087
#
# Static dielectric constant tensor:
#      x y z
#    x 1.710300 0.000000 0.000000 
#    y 0.000000 1.713590 0.000000 
#    z 0.000000 0.000000 1.700650 
# 
# From -- ./inp_files/14839.got.cif
#   From: 2010.05.17/outbox.cif.g08.bks.cpg/sg56_8_cif.got.tgz:14839.got - 2010.06.03 13:42:01.
