data_PCOD9430062
_publ_section_title
;
Structure prediction by ZEFSAII (Michael W. Deem and Ramdas Pophale) SiO2 
 PCOD9430062
Probable space group: P C C N
;
_chemical_formula_sum "Si O2"
_cell_formula_units_Z 48
_cell_length_a 4.933268
_cell_length_b 24.748939
_cell_length_c 20.080339
_cell_angle_alpha 90.000000
_cell_angle_beta 90.000000
_cell_angle_gamma 90.000000
_cell_volume 2451.671818
_symmetry_space_group_name_H-M "P C C N"
_symmetry_group_IT_number 56
_symmetry_cell_setting 'orthorhombic'
loop_
_space_group_symop_operation_xyz
x,y,z
1/2-x,1/2-y,z
1/2+x,-y,1/2-z
-x,1/2+y,1/2-z
-x,-y,-z
1/2+x,1/2+y,-z
1/2-x,y,1/2+z
x,1/2-y,1/2+z
loop_
_atom_site_type_symbol
_atom_site_label
_atom_site_fract_x
_atom_site_fract_y
_atom_site_fract_z
Si Si1 0.214575 0.949846 0.184884
Si Si2 0.273902 0.394582 0.260557
Si Si3 0.691635 0.813021 0.120914
Si Si4 0.952389 0.564026 0.366946
Si Si5 0.679503 0.129648 0.434170
Si Si6 0.543471 0.444250 0.541891
O O1 0.522939 0.934949 0.200084
O O2 0.141310 0.920419 0.116084
O O3 0.022300 0.921647 0.239377
O O4 0.148207 0.011624 0.173947
O O5 0.259406 0.341845 0.307426
O O6 0.403060 0.388903 0.187315
O O7 0.750000 0.750000 0.124450
O O8 0.389313 0.828558 0.099179
O O9 0.892273 0.840568 0.066664
O O10 0.747873 0.570967 0.428535
O O11 0.246584 0.550848 0.396553
O O12 0.820198 0.102498 0.497436
O O13 0.500000 0.500000 0.500000
#
# Coordination Sequence:
#
# PCOD9430062 Si02
#       6
#     8   8   8   8   8   8
#     4  10  19  33  54  79 117 152 188 232 275 342
#     4  10  21  35  54  85 112 146 193 239 289 341
#     4  10  21  39  64  84 107 143 193 258 306 333
#     4  12  22  34  55  80 124 162 190 219 286 344
#     4  10  21  36  57  86 113 147 197 240 281 340
#     4  12  24  36  55  83 123 165 195 224 271 357
#
# _framework density 19.578475999999998
#
# number of rings (size 3 to 8) (size 9 to 14) (size 15 to 20)
#    0.000    1.333    1.667    5.000    4.667    0.000 
#    0.000    0.000    0.000    6.000    0.000    0.000 
#    0.000    0.000    0.000    0.000    0.000    0.000 
#
# Total GULP energy -267945.265410 kJ/mol
# GULP energy per Si atom -5582.193029 kJ/mol
# Density = 1.953391 g / cm^3
# Si number density = 19.578476 Si / 1000 Ang^3
#
#
#
# Elastic Constant Matrix: (Units=GPa)
#
#
# Indices 1 2 3 4 5 6 
#
# 1 80.0002 1.6389 -2.5968 0.0000 0.0000 0.0000
# 2 1.6389 77.5293 21.7012 0.0000 0.0000 0.0000
# 3 -2.5968 21.7012 61.4582 0.0000 0.0000 0.0000
# 4 0.0000 0.0000 0.0000 8.9406 0.0000 0.0000
# 5 0.0000 0.0000 0.0000 0.0000 29.4617 0.0000
# 6 0.0000 0.0000 0.0000 0.0000 0.0000 16.9211
#
#
#
# Elastic Compliance Matrix: (Units=1/GPa)
#
#
# Indices 1 2 3 4 5 6 
#
# 1 0.012532 -0.000458 0.000691 0.000000 0.000000 0.000000
# 2 -0.000458 0.014330 -0.005079 0.000000 0.000000 0.000000
# 3 0.000691 -0.005079 0.018094 0.000000 0.000000 0.000000
# 4 0.000000 0.000000 0.000000 0.111850 0.000000 0.000000
# 5 0.000000 0.000000 0.000000 0.000000 0.033942 0.000000
# 6 0.000000 0.000000 0.000000 0.000000 0.000000 0.059098
#
#
# Mechanical properties :
#
#
# Convention : Reuss Voigt Hill
#
# Bulk Modulus (GPa) = 28.35845 28.94159 28.65002
# Shear Modulus (GPa) = 18.43029 24.28096 21.35563
#
# Velocity S-wave (km/s) = 3.07148 3.52545 3.30626
# Velocity P-wave (km/s) = 5.20525 5.60234 5.40744
#
# Compressibility (1/GPa) = 0.03526285
#
# Stress axis : x y z
#
# Youngs Moduli (GPa) = 79.79703 69.78475 55.26711
#
# Poissons Ratio (x) = 0.03199 -0.03821
# Poissons Ratio (y) = 0.03658 0.28072
# Poissons Ratio (z) = -0.05517 0.35446
#
# Static dielectric constant tensor:
#      x y z
#    x 1.701270 0.000000 0.000000 
#    y 0.000000 1.661040 0.000000 
#    z 0.000000 0.000000 1.764600 
# 
# From -- ./inp_files/13989.got.cif
#   From: 2010.05.17/outbox.cif.g08.bks.cpg/sg56_7_cif.got.tgz:13989.got - 2010.06.03 13:42:01.
