data_PCOD9430902
_publ_section_title
;
Structure prediction by ZEFSAII (Michael W. Deem and Ramdas Pophale) SiO2 
 PCOD9430902
Probable space group: P C C N
;
_chemical_formula_sum "Si O2"
_cell_formula_units_Z 48
_cell_length_a 21.032520
_cell_length_b 9.443171
_cell_length_c 9.255858
_cell_angle_alpha 90.000000
_cell_angle_beta 90.000000
_cell_angle_gamma 90.000000
_cell_volume 1838.340046
_symmetry_space_group_name_H-M "P C C N"
_symmetry_group_IT_number 56
_symmetry_cell_setting 'orthorhombic'
loop_
_space_group_symop_operation_xyz
x,y,z
1/2-x,1/2-y,z
1/2+x,-y,1/2-z
-x,1/2+y,1/2-z
-x,-y,-z
1/2+x,1/2+y,-z
1/2-x,y,1/2+z
x,1/2-y,1/2+z
loop_
_atom_site_type_symbol
_atom_site_label
_atom_site_fract_x
_atom_site_fract_y
_atom_site_fract_z
Si Si1 0.755888 0.062017 0.766304
Si Si2 0.250000 0.250000 0.110916
Si Si3 0.250000 0.750000 0.977273
Si Si4 0.380692 0.292424 0.945376
Si Si5 0.567704 0.010375 0.077408
Si Si6 0.889371 0.439384 0.767859
Si Si7 0.522860 0.932731 0.352128
O O1 0.785832 0.133630 0.624802
O O2 0.682395 0.109203 0.738888
O O3 0.753608 0.894593 0.794645
O O4 0.782630 0.140238 0.908853
O O5 0.310911 0.263902 0.007688
O O6 0.423676 0.329815 0.084626
O O7 0.406670 0.145430 0.888853
O O8 0.387624 0.410597 0.820557
O O9 0.551848 0.050970 0.242627
O O10 0.500000 0.000000 0.000000
O O11 0.607809 0.064547 0.941948
O O12 0.956458 0.373620 0.714562
O O13 0.500000 0.000000 0.500000
#
# Coordination Sequence:
#
# PCOD9430902 Si02
#       7
#     8   4   4   8   8   8   8
#     4  11  24  49  73 111 146 208 261 327 400 480
#     4  12  26  42  84 116 160 202 270 340 398 474
#     4  10  26  48  74  96 162 204 258 316 398 502
#     4  11  22  42  67 109 149 194 252 335 403 462
#     4  10  20  38  63  93 139 188 239 312 384 463
#     4  10  21  41  68 100 144 186 262 317 393 467
#     4   9  21  41  65  92 137 194 243 307 380 469
#
# _framework density 26.110510999999999
#
# number of rings (size 3 to 8) (size 9 to 14) (size 15 to 20)
#    0.000    1.667    1.667    2.000    0.000    4.000 
#    6.000    1.667   11.000    0.000    0.000    0.000 
#    0.000    0.000    0.000    0.000    0.000    0.000 
#
# Total GULP energy -267475.504758 kJ/mol
# GULP energy per Si atom -5572.406349 kJ/mol
# Density = 2.605108 g / cm^3
# Si number density = 26.110511 Si / 1000 Ang^3
#
#
#
# Elastic Constant Matrix: (Units=GPa)
#
#
# Indices 1 2 3 4 5 6 
#
# 1 141.5050 35.5863 33.5041 0.0000 0.0000 0.0000
# 2 35.5863 134.9991 47.0481 0.0000 0.0000 0.0000
# 3 33.5041 47.0481 213.5622 0.0000 0.0000 0.0000
# 4 0.0000 0.0000 0.0000 9.1847 0.0000 0.0000
# 5 0.0000 0.0000 0.0000 0.0000 33.2033 0.0000
# 6 0.0000 0.0000 0.0000 0.0000 0.0000 2.0600
#
#
#
# Elastic Compliance Matrix: (Units=1/GPa)
#
#
# Indices 1 2 3 4 5 6 
#
# 1 0.007700 -0.001743 -0.000824 0.000000 0.000000 0.000000
# 2 -0.001743 0.008418 -0.001581 0.000000 0.000000 0.000000
# 3 -0.000824 -0.001581 0.005160 0.000000 0.000000 0.000000
# 4 0.000000 0.000000 0.000000 0.108876 0.000000 0.000000
# 5 0.000000 0.000000 0.000000 0.000000 0.030117 0.000000
# 6 0.000000 0.000000 0.000000 0.000000 0.000000 0.485429
#
#
# Mechanical properties :
#
#
# Convention : Reuss Voigt Hill
#
# Bulk Modulus (GPa) = 77.02653 80.26036 78.64344
# Shear Modulus (GPa) = 7.59504 33.81813 20.70659
#
# Velocity S-wave (km/s) = 1.70737 3.60278 2.81915
# Velocity P-wave (km/s) = 5.78369 6.93629 6.38605
#
# Compressibility (1/GPa) = 0.01298254
#
# Stress axis : x y z
#
# Youngs Moduli (GPa) = 129.86581 118.79548 193.79529
#
# Poissons Ratio (x) = 0.20701 0.15971
# Poissons Ratio (y) = 0.22630 0.30641
# Poissons Ratio (z) = 0.10703 0.18782
#
# Static dielectric constant tensor:
#      x y z
#    x 2.177160 0.000000 0.000000 
#    y 0.000000 2.273500 0.000000 
#    z 0.000000 0.000000 2.184970 
# 
# From -- ./inp_files/4762.got.cif
#   From: 2010.05.17/outbox.cif.g08.bks.cpg/sg56_3_cif.got.tgz:4762.got - 2010.06.03 13:42:01.
