data_PCOD9430638
_publ_section_title
;
Structure prediction by ZEFSAII (Michael W. Deem and Ramdas Pophale) SiO2 
 PCOD9430638
Probable space group: P C C N
;
_chemical_formula_sum "Si O2"
_cell_formula_units_Z 64
_cell_length_a 30.476919
_cell_length_b 22.934499
_cell_length_c 5.015914
_cell_angle_alpha 90.000000
_cell_angle_beta 90.000000
_cell_angle_gamma 90.000000
_cell_volume 3505.987796
_symmetry_space_group_name_H-M "P C C N"
_symmetry_group_IT_number 56
_symmetry_cell_setting 'orthorhombic'
loop_
_space_group_symop_operation_xyz
x,y,z
1/2-x,1/2-y,z
1/2+x,-y,1/2-z
-x,1/2+y,1/2-z
-x,-y,-z
1/2+x,1/2+y,-z
1/2-x,y,1/2+z
x,1/2-y,1/2+z
loop_
_atom_site_type_symbol
_atom_site_label
_atom_site_fract_x
_atom_site_fract_y
_atom_site_fract_z
Si Si1 0.564991 0.995550 0.205067
Si Si2 0.009587 0.792412 0.159845
Si Si3 0.880480 0.022357 0.189150
Si Si4 0.774212 0.158870 0.246893
Si Si5 0.222477 0.518496 0.279410
Si Si6 0.073778 0.640929 0.333246
Si Si7 0.359875 0.784788 0.019391
Si Si8 0.001165 0.094051 0.558464
O O1 0.589055 0.986292 0.484960
O O2 0.527753 0.046343 0.222624
O O3 0.601116 0.015824 0.988267
O O4 0.540534 0.940041 0.082155
O O5 0.002959 0.755391 0.890323
O O6 0.056067 0.823466 0.085901
O O7 0.984705 0.850676 0.263166
O O8 0.829176 0.006967 0.177223
O O9 0.892239 0.089040 0.104120
O O10 0.736504 0.179727 0.450856
O O11 0.818975 0.178069 0.379669
O O12 0.774683 0.088989 0.230860
O O13 0.255379 0.497316 0.508116
O O14 0.096945 0.683995 0.126962
O O15 0.031699 0.615501 0.175866
O O16 0.357520 0.727529 0.207574
#
# Coordination Sequence:
#
# PCOD9430638 Si02
#       8
#     8   8   8   8   8   8   8   8
#     4  10  23  36  60  83 107 138 185 228 287 322
#     4  12  23  36  54  76 105 146 187 227 274 326
#     4  11  21  37  59  82 103 136 180 230 275 331
#     4  10  21  38  53  67  89 126 170 222 284 338
#     4  10  20  36  56  75 102 133 170 215 273 337
#     4  11  23  38  53  74 105 138 181 234 280 323
#     4  12  26  36  50  71  94 129 176 230 283 327
#     4  10  23  39  57  79 111 144 179 237 280 326
#
# _framework density 18.254487000000001
#
# number of rings (size 3 to 8) (size 9 to 14) (size 15 to 20)
#    0.000    1.250    3.750    2.250    3.500    3.000 
#    0.000    0.000    0.000    0.000    0.000    0.000 
#    0.000    0.000    0.000    0.000    0.000   43.750 
#
# Total GULP energy -357319.672283 kJ/mol
# GULP energy per Si atom -5583.119879 kJ/mol
# Density = 1.821294 g / cm^3
# Si number density = 18.254487 Si / 1000 Ang^3
#
#
#
# Elastic Constant Matrix: (Units=GPa)
#
#
# Indices 1 2 3 4 5 6 
#
# 1 51.0126 7.4452 -1.8488 0.0000 0.0000 0.0000
# 2 7.4452 42.4606 -1.3460 0.0000 0.0000 0.0000
# 3 -1.8488 -1.3460 60.0437 0.0000 0.0000 0.0000
# 4 0.0000 0.0000 0.0000 20.0748 0.0000 0.0000
# 5 0.0000 0.0000 0.0000 0.0000 24.7925 0.0000
# 6 0.0000 0.0000 0.0000 0.0000 0.0000 22.4525
#
#
#
# Elastic Compliance Matrix: (Units=1/GPa)
#
#
# Indices 1 2 3 4 5 6 
#
# 1 0.020135 -0.003513 0.000541 0.000000 0.000000 0.000000
# 2 -0.003513 0.024181 0.000434 0.000000 0.000000 0.000000
# 3 0.000541 0.000434 0.016681 0.000000 0.000000 0.000000
# 4 0.000000 0.000000 0.000000 0.049814 0.000000 0.000000
# 5 0.000000 0.000000 0.000000 0.000000 0.040335 0.000000
# 6 0.000000 0.000000 0.000000 0.000000 0.000000 0.044538
#
#
# Mechanical properties :
#
#
# Convention : Reuss Voigt Hill
#
# Bulk Modulus (GPa) = 17.88248 18.00198 17.94223
# Shear Modulus (GPa) = 22.78930 23.41506 23.10218
#
# Velocity S-wave (km/s) = 3.53713 3.58537 3.56133
# Velocity P-wave (km/s) = 5.14774 5.19836 5.17311
#
# Compressibility (1/GPa) = 0.05592066
#
# Stress axis : x y z
#
# Youngs Moduli (GPa) = 49.66378 41.35464 59.94869
#
# Poissons Ratio (x) = 0.14530 -0.03245
# Poissons Ratio (y) = 0.17449 -0.02601
# Poissons Ratio (z) = -0.02688 -0.01794
#
# Static dielectric constant tensor:
#      x y z
#    x 1.650040 0.000000 0.000000 
#    y 0.000000 1.665320 0.000000 
#    z 0.000000 0.000000 1.684800 
# 
# From -- ./inp_files/1258.got.cif
#   From: 2010.05.17/outbox.cif.g08.bks.cpg/sg56_1_cif.got.tgz:1258.got - 2010.06.03 13:42:01.
