data_PCOD9430754
_publ_section_title
;
Structure prediction by ZEFSAII (Michael W. Deem and Ramdas Pophale) SiO2 
 PCOD9430754
Probable space group: P C C N
;
_chemical_formula_sum "Si O2"
_cell_formula_units_Z 32
_cell_length_a 15.532675
_cell_length_b 7.938312
_cell_length_c 9.647057
_cell_angle_alpha 90.000000
_cell_angle_beta 90.000000
_cell_angle_gamma 90.000000
_cell_volume 1189.513195
_symmetry_space_group_name_H-M "P C C N"
_symmetry_group_IT_number 56
_symmetry_cell_setting 'orthorhombic'
loop_
_space_group_symop_operation_xyz
x,y,z
1/2-x,1/2-y,z
1/2+x,-y,1/2-z
-x,1/2+y,1/2-z
-x,-y,-z
1/2+x,1/2+y,-z
1/2-x,y,1/2+z
x,1/2-y,1/2+z
loop_
_atom_site_type_symbol
_atom_site_label
_atom_site_fract_x
_atom_site_fract_y
_atom_site_fract_z
Si Si1 0.900755 0.549207 0.023249
Si Si2 0.169945 0.622907 0.564329
Si Si3 0.912588 0.219741 0.185868
Si Si4 0.384370 0.288547 0.200520
O O1 0.873456 0.385328 0.108215
O O2 0.882586 0.696647 0.134187
O O3 0.865737 0.613427 0.876920
O O4 0.000000 0.500000 0.000000
O O5 0.250000 0.750000 0.579439
O O6 0.141764 0.590094 0.405557
O O7 0.099108 0.728572 0.654734
O O8 0.170909 0.439851 0.635378
O O9 0.013428 0.181495 0.165266
#
# Coordination Sequence:
#
# PCOD9430754 Si02
#       4
#     8   8   8   8
#     4   9  19  34  56  90 124 157 208 267 310 365
#     4  11  23  38  59  90 127 166 206 261 323 376
#     4  10  20  37  60  87 123 166 212 258 311 384
#     4  10  20  37  62  91 121 163 214 264 315 377
#
# _framework density 26.901762000000002
#
# number of rings (size 3 to 8) (size 9 to 14) (size 15 to 20)
#    0.000    2.000    0.000    4.500    0.000    6.000 
#    0.000    1.250    0.000    6.000    0.000    0.000 
#    0.000    0.000    0.000    0.000    0.000    0.000 
#
# Total GULP energy -178507.265969 kJ/mol
# GULP energy per Si atom -5578.352062 kJ/mol
# Density = 2.684053 g / cm^3
# Si number density = 26.901762 Si / 1000 Ang^3
#
#
#
# Elastic Constant Matrix: (Units=GPa)
#
#
# Indices 1 2 3 4 5 6 
#
# 1 107.0501 22.9507 -2.4341 0.0000 0.0000 0.0000
# 2 22.9507 101.4203 28.9332 0.0000 0.0000 0.0000
# 3 -2.4341 28.9332 167.2736 0.0000 0.0000 0.0000
# 4 0.0000 0.0000 0.0000 45.6326 0.0000 0.0000
# 5 0.0000 0.0000 0.0000 0.0000 7.5865 0.0000
# 6 0.0000 0.0000 0.0000 0.0000 0.0000 30.1771
#
#
#
# Elastic Compliance Matrix: (Units=1/GPa)
#
#
# Indices 1 2 3 4 5 6 
#
# 1 0.009867 -0.002392 0.000557 0.000000 0.000000 0.000000
# 2 -0.002392 0.010952 -0.001929 0.000000 0.000000 0.000000
# 3 0.000557 -0.001929 0.006320 0.000000 0.000000 0.000000
# 4 0.000000 0.000000 0.000000 0.021914 0.000000 0.000000
# 5 0.000000 0.000000 0.000000 0.000000 0.131813 0.000000
# 6 0.000000 0.000000 0.000000 0.000000 0.000000 0.033138
#
#
# Mechanical properties :
#
#
# Convention : Reuss Voigt Hill
#
# Bulk Modulus (GPa) = 50.99118 52.73821 51.86469
# Shear Modulus (GPa) = 21.92333 38.43219 30.17776
#
# Velocity S-wave (km/s) = 2.85781 3.78380 3.35293
# Velocity P-wave (km/s) = 5.46674 6.22383 5.85753
#
# Compressibility (1/GPa) = 0.01961123
#
# Stress axis : x y z
#
# Youngs Moduli (GPa) = 101.34926 91.31142 158.22761
#
# Poissons Ratio (x) = 0.21840 -0.08818
# Poissons Ratio (y) = 0.24241 0.30523
# Poissons Ratio (z) = -0.05648 0.17615
#
# Static dielectric constant tensor:
#      x y z
#    x 2.129400 0.000000 0.000000 
#    y 0.000000 2.225770 0.000000 
#    z 0.000000 0.000000 2.188210 
# 
# From -- ./inp_files/4309.got.cif
#   From: 2010.05.17/outbox.cif.g08.bks.cpg/sg56_3_cif.got.tgz:4309.got - 2010.06.03 13:42:01.
