data_PCOD9430259
_publ_section_title
;
Structure prediction by ZEFSAII (Michael W. Deem and Ramdas Pophale) SiO2 
 PCOD9430259
Probable space group: P C C N
;
_chemical_formula_sum "Si O2"
_cell_formula_units_Z 64
_cell_length_a 12.291621
_cell_length_b 13.706388
_cell_length_c 19.359241
_cell_angle_alpha 90.000000
_cell_angle_beta 90.000000
_cell_angle_gamma 90.000000
_cell_volume 3261.523475
_symmetry_space_group_name_H-M "P C C N"
_symmetry_group_IT_number 56
_symmetry_cell_setting 'orthorhombic'
loop_
_space_group_symop_operation_xyz
x,y,z
1/2-x,1/2-y,z
1/2+x,-y,1/2-z
-x,1/2+y,1/2-z
-x,-y,-z
1/2+x,1/2+y,-z
1/2-x,y,1/2+z
x,1/2-y,1/2+z
loop_
_atom_site_type_symbol
_atom_site_label
_atom_site_fract_x
_atom_site_fract_y
_atom_site_fract_z
Si Si1 0.044726 0.315816 0.703025
Si Si2 0.062472 0.144302 0.810127
Si Si3 0.553868 0.268505 0.560922
Si Si4 0.126201 0.479777 0.515986
Si Si5 0.834432 0.060580 0.227894
Si Si6 0.742023 0.110262 0.581067
Si Si7 0.348019 0.522920 0.169658
Si Si8 0.374295 0.219950 0.461583
O O1 0.081857 0.233366 0.757193
O O2 0.122511 0.409290 0.687515
O O3 0.006814 0.260969 0.632450
O O4 0.939695 0.371605 0.734294
O O5 0.081472 0.180328 0.888460
O O6 0.135851 0.050064 0.793360
O O7 0.942293 0.096485 0.804884
O O8 0.645625 0.182232 0.552587
O O9 0.635582 0.359352 0.565864
O O10 0.468127 0.283421 0.498856
O O11 0.205407 0.511339 0.454806
O O12 0.155922 0.529163 0.587321
O O13 0.134206 0.364731 0.518966
O O14 0.000000 0.500000 0.500000
O O15 0.770039 0.105369 0.163062
O O16 0.762544 0.054735 0.295276
O O17 0.250000 0.250000 0.449884
#
# Coordination Sequence:
#
# PCOD9430259 Si02
#       8
#     8   8   8   8   8   8   8   8
#     4  10  22  39  61  90 133 167 208 272 315 386
#     4  11  23  40  63  88 126 173 205 260 325 375
#     4  10  20  39  61  97 122 161 218 257 318 374
#     4  12  19  42  66  89 124 169 215 252 313 385
#     4  10  22  39  60  96 123 169 216 257 331 378
#     4  10  19  36  70  89 123 167 208 268 311 379
#     4  11  22  38  66  90 125 169 217 260 309 391
#     4  12  25  40  63  94 129 168 213 262 318 386
#
# _framework density 19.622731999999999
#
# number of rings (size 3 to 8) (size 9 to 14) (size 15 to 20)
#    0.000    1.250    5.000    1.500    1.750    3.500 
#    0.000    0.625    0.000    0.000    0.000    0.000 
#    0.000    0.000    0.000    0.000    0.000    0.000 
#
# Total GULP energy -356764.969427 kJ/mol
# GULP energy per Si atom -5574.452647 kJ/mol
# Density = 1.957807 g / cm^3
# Si number density = 19.622732 Si / 1000 Ang^3
#
#
#
# Elastic Constant Matrix: (Units=GPa)
#
#
# Indices 1 2 3 4 5 6 
#
# 1 64.4147 16.2735 29.9769 0.0000 0.0000 0.0000
# 2 16.2735 49.7409 6.2970 0.0000 0.0000 0.0000
# 3 29.9769 6.2970 84.1331 0.0000 0.0000 0.0000
# 4 0.0000 0.0000 0.0000 30.7149 0.0000 0.0000
# 5 0.0000 0.0000 0.0000 0.0000 29.4141 0.0000
# 6 0.0000 0.0000 0.0000 0.0000 0.0000 15.5595
#
#
#
# Elastic Compliance Matrix: (Units=1/GPa)
#
#
# Indices 1 2 3 4 5 6 
#
# 1 0.020105 -0.005725 -0.006735 0.000000 0.000000 0.000000
# 2 -0.005725 0.021927 0.000399 0.000000 0.000000 0.000000
# 3 -0.006735 0.000399 0.014256 0.000000 0.000000 0.000000
# 4 0.000000 0.000000 0.000000 0.032557 0.000000 0.000000
# 5 0.000000 0.000000 0.000000 0.000000 0.033997 0.000000
# 6 0.000000 0.000000 0.000000 0.000000 0.000000 0.064269
#
#
# Mechanical properties :
#
#
# Convention : Reuss Voigt Hill
#
# Bulk Modulus (GPa) = 31.08975 33.70928 32.39951
# Shear Modulus (GPa) = 22.52701 24.85381 23.69041
#
# Velocity S-wave (km/s) = 3.39190 3.56277 3.47838
# Velocity P-wave (km/s) = 5.58732 5.84298 5.71658
#
# Compressibility (1/GPa) = 0.03216494
#
# Stress axis : x y z
#
# Youngs Moduli (GPa) = 49.73876 45.60641 70.14697
#
# Poissons Ratio (x) = 0.26110 0.47244
# Poissons Ratio (y) = 0.28476 -0.02797
# Poissons Ratio (z) = 0.33499 -0.01818
#
# Static dielectric constant tensor:
#      x y z
#    x 1.613100 0.000000 0.000000 
#    y 0.000000 1.724250 0.000000 
#    z 0.000000 0.000000 1.835140 
# 
# From -- ./inp_files/15807.got.cif
#   From: 2010.05.17/outbox.cif.g08.bks.cpg/sg56_8_cif.got.tgz:15807.got - 2010.06.03 13:42:01.
