data_PCOD9430767
_publ_section_title
;
Structure prediction by ZEFSAII (Michael W. Deem and Ramdas Pophale) SiO2 
 PCOD9430767
Probable space group: P C C N
;
_chemical_formula_sum "Si O2"
_cell_formula_units_Z 48
_cell_length_a 16.720470
_cell_length_b 10.403416
_cell_length_c 14.422127
_cell_angle_alpha 90.000000
_cell_angle_beta 90.000000
_cell_angle_gamma 90.000000
_cell_volume 2508.729066
_symmetry_space_group_name_H-M "P C C N"
_symmetry_group_IT_number 56
_symmetry_cell_setting 'orthorhombic'
loop_
_space_group_symop_operation_xyz
x,y,z
1/2-x,1/2-y,z
1/2+x,-y,1/2-z
-x,1/2+y,1/2-z
-x,-y,-z
1/2+x,1/2+y,-z
1/2-x,y,1/2+z
x,1/2-y,1/2+z
loop_
_atom_site_type_symbol
_atom_site_label
_atom_site_fract_x
_atom_site_fract_y
_atom_site_fract_z
Si Si1 0.255408 0.058780 0.804076
Si Si2 0.208063 0.622158 0.657549
Si Si3 0.537960 0.849904 0.429589
Si Si4 0.784485 0.609210 0.484235
Si Si5 0.889501 0.738136 0.749036
Si Si6 0.474968 0.859936 0.615433
O O1 0.335077 0.136572 0.772450
O O2 0.176749 0.126515 0.760592
O O3 0.263724 0.919278 0.759815
O O4 0.247437 0.072004 0.914441
O O5 0.250000 0.750000 0.624290
O O6 0.229653 0.501484 0.591218
O O7 0.113608 0.646832 0.655730
O O8 0.619739 0.877834 0.486186
O O9 0.566617 0.757463 0.347442
O O10 0.477078 0.808331 0.509473
O O11 0.508200 0.986102 0.388950
O O12 0.750000 0.750000 0.458401
O O13 0.959095 0.712361 0.675415
#
# Coordination Sequence:
#
# PCOD9430767 Si02
#       6
#     8   8   8   8   8   8
#     4  11  21  38  68  95 123 164 223 272 315 375
#     4  11  26  44  58  95 141 172 212 259 332 403
#     4  10  20  37  61  89 127 162 207 264 322 382
#     4  11  19  38  70  91 121 165 219 270 319 371
#     4  11  20  37  67  99 118 159 225 277 310 371
#     4  10  21  39  60  89 127 172 206 255 329 385
#
# _framework density 19.133194
#
# number of rings (size 3 to 8) (size 9 to 14) (size 15 to 20)
#    0.000    1.333    6.667    1.000    0.000    2.000 
#    3.000    0.000    0.000    4.000    0.000    0.000 
#    0.000    0.000    0.000    0.000    0.000    0.000 
#
# Total GULP energy -267758.981620 kJ/mol
# GULP energy per Si atom -5578.312117 kJ/mol
# Density = 1.908965 g / cm^3
# Si number density = 19.133194 Si / 1000 Ang^3
#
#
#
# Elastic Constant Matrix: (Units=GPa)
#
#
# Indices 1 2 3 4 5 6 
#
# 1 48.3114 36.6444 39.0502 0.0000 0.0000 0.0000
# 2 36.6444 70.9558 32.3294 0.0000 0.0000 0.0000
# 3 39.0502 32.3294 98.1983 0.0000 0.0000 0.0000
# 4 0.0000 0.0000 0.0000 16.3355 0.0000 0.0000
# 5 0.0000 0.0000 0.0000 0.0000 24.7094 0.0000
# 6 0.0000 0.0000 0.0000 0.0000 0.0000 15.3657
#
#
#
# Elastic Compliance Matrix: (Units=1/GPa)
#
#
# Indices 1 2 3 4 5 6 
#
# 1 0.042735 -0.016855 -0.011445 0.000000 0.000000 0.000000
# 2 -0.016855 0.023228 -0.000945 0.000000 0.000000 0.000000
# 3 -0.011445 -0.000945 0.015046 0.000000 0.000000 0.000000
# 4 0.000000 0.000000 0.000000 0.061216 0.000000 0.000000
# 5 0.000000 0.000000 0.000000 0.000000 0.040470 0.000000
# 6 0.000000 0.000000 0.000000 0.000000 0.000000 0.065080
#
#
# Mechanical properties :
#
#
# Convention : Reuss Voigt Hill
#
# Bulk Modulus (GPa) = 44.40660 48.16817 46.28738
# Shear Modulus (GPa) = 15.93514 18.57824 17.25669
#
# Velocity S-wave (km/s) = 2.88905 3.11946 3.00646
# Velocity P-wave (km/s) = 5.86416 6.18098 6.02466
#
# Compressibility (1/GPa) = 0.02251917
#
# Stress axis : x y z
#
# Youngs Moduli (GPa) = 23.40008 43.05072 66.46388
#
# Poissons Ratio (x) = 0.72563 0.76068
# Poissons Ratio (y) = 0.39442 0.06278
# Poissons Ratio (z) = 0.26781 0.04066
#
# Static dielectric constant tensor:
#      x y z
#    x 1.653450 0.000000 0.000000 
#    y 0.000000 1.673110 0.000000 
#    z 0.000000 0.000000 1.713890 
# 
# From -- ./inp_files/12205.got.cif
#   From: 2010.05.17/outbox.cif.g08.bks.cpg/sg56_7_cif.got.tgz:12205.got - 2010.06.03 13:42:01.
