data_PCOD9430169
_publ_section_title
;
Structure prediction by ZEFSAII (Michael W. Deem and Ramdas Pophale) SiO2 
 PCOD9430169
Probable space group: P C C N
;
_chemical_formula_sum "Si O2"
_cell_formula_units_Z 48
_cell_length_a 14.382367
_cell_length_b 9.400434
_cell_length_c 18.267959
_cell_angle_alpha 90.000000
_cell_angle_beta 90.000000
_cell_angle_gamma 90.000000
_cell_volume 2469.837040
_symmetry_space_group_name_H-M "P C C N"
_symmetry_group_IT_number 56
_symmetry_cell_setting 'orthorhombic'
loop_
_space_group_symop_operation_xyz
x,y,z
1/2-x,1/2-y,z
1/2+x,-y,1/2-z
-x,1/2+y,1/2-z
-x,-y,-z
1/2+x,1/2+y,-z
1/2-x,y,1/2+z
x,1/2-y,1/2+z
loop_
_atom_site_type_symbol
_atom_site_label
_atom_site_fract_x
_atom_site_fract_y
_atom_site_fract_z
Si Si1 0.869035 0.441323 0.144975
Si Si2 0.166438 0.512069 0.305900
Si Si3 0.025628 0.750302 0.755670
Si Si4 0.509722 0.652073 0.462487
Si Si5 0.934170 0.741957 0.610863
Si Si6 0.154200 0.177636 0.666988
O O1 0.761982 0.424450 0.164195
O O2 0.933846 0.399185 0.214236
O O3 0.882754 0.606062 0.122057
O O4 0.913496 0.338813 0.082770
O O5 0.089892 0.630705 0.290545
O O6 0.127771 0.389584 0.360507
O O7 0.181687 0.442826 0.225660
O O8 0.019533 0.750231 0.668328
O O9 0.920585 0.767966 0.785500
O O10 0.500000 0.500000 0.500000
O O11 0.532494 0.762836 0.526850
O O12 0.593507 0.641005 0.404157
O O13 0.250000 0.250000 0.645291
#
# Coordination Sequence:
#
# PCOD9430169 Si02
#       6
#     8   8   8   8   8   8
#     4  10  20  35  55  83 115 145 182 231 281 328
#     4  11  20  34  60  85 107 146 192 229 272 335
#     4  10  20  36  56  82 113 144 180 235 285 326
#     4   9  19  35  55  81 115 148 181 229 283 330
#     4  10  19  35  58  82 108 148 192 228 271 338
#     4  10  21  35  55  81 109 141 187 236 274 321
#
# _framework density 19.434480000000001
#
# number of rings (size 3 to 8) (size 9 to 14) (size 15 to 20)
#    0.000    2.000    0.000    7.000    0.000    2.667 
#    0.000    3.333    0.000   28.000    0.000    0.000 
#    0.000    0.000    0.000    0.000    0.000    0.000 
#
# Total GULP energy -267478.831611 kJ/mol
# GULP energy per Si atom -5572.475659 kJ/mol
# Density = 1.939025 g / cm^3
# Si number density = 19.434480 Si / 1000 Ang^3
#
#
#
# Elastic Constant Matrix: (Units=GPa)
#
#
# Indices 1 2 3 4 5 6 
#
# 1 151.0760 39.9185 56.7707 0.0000 0.0000 0.0000
# 2 39.9185 49.1228 28.3757 0.0000 0.0000 0.0000
# 3 56.7707 28.3757 144.8771 0.0000 0.0000 0.0000
# 4 0.0000 0.0000 0.0000 8.8558 0.0000 0.0000
# 5 0.0000 0.0000 0.0000 0.0000 15.2267 0.0000
# 6 0.0000 0.0000 0.0000 0.0000 0.0000 26.3859
#
#
#
# Elastic Compliance Matrix: (Units=1/GPa)
#
#
# Indices 1 2 3 4 5 6 
#
# 1 0.009108 -0.006021 -0.002390 0.000000 0.000000 0.000000
# 2 -0.006021 0.026934 -0.002916 0.000000 0.000000 0.000000
# 3 -0.002390 -0.002916 0.008410 0.000000 0.000000 0.000000
# 4 0.000000 0.000000 0.000000 0.112920 0.000000 0.000000
# 5 0.000000 0.000000 0.000000 0.000000 0.065674 0.000000
# 6 0.000000 0.000000 0.000000 0.000000 0.000000 0.037899
#
#
# Mechanical properties :
#
#
# Convention : Reuss Voigt Hill
#
# Bulk Modulus (GPa) = 45.87395 66.13395 56.00395
# Shear Modulus (GPa) = 17.19006 24.76109 20.97558
#
# Velocity S-wave (km/s) = 2.97730 3.57330 3.28883
# Velocity P-wave (km/s) = 5.95607 7.15036 6.58037
#
# Compressibility (1/GPa) = 0.02179887
#
# Stress axis : x y z
#
# Youngs Moduli (GPa) = 109.79196 37.12719 118.90639
#
# Poissons Ratio (x) = 0.22354 0.28416
# Poissons Ratio (y) = 0.66106 0.34673
# Poissons Ratio (z) = 0.26238 0.10826
#
# Static dielectric constant tensor:
#      x y z
#    x 1.672270 0.000000 0.000000 
#    y 0.000000 1.725110 0.000000 
#    z 0.000000 0.000000 1.755270 
# 
# From -- ./inp_files/14807.got.cif
#   From: 2010.05.17/outbox.cif.g08.bks.cpg/sg56_8_cif.got.tgz:14807.got - 2010.06.03 13:42:01.
