data_PCOD9430442
_publ_section_title
;
Structure prediction by ZEFSAII (Michael W. Deem and Ramdas Pophale) SiO2 
 PCOD9430442
Probable space group: P C C N
;
_chemical_formula_sum "Si O2"
_cell_formula_units_Z 48
_cell_length_a 12.687112
_cell_length_b 26.745057
_cell_length_c 5.194712
_cell_angle_alpha 90.000000
_cell_angle_beta 90.000000
_cell_angle_gamma 90.000000
_cell_volume 1762.656864
_symmetry_space_group_name_H-M "P C C N"
_symmetry_group_IT_number 56
_symmetry_cell_setting 'orthorhombic'
loop_
_space_group_symop_operation_xyz
x,y,z
1/2-x,1/2-y,z
1/2+x,-y,1/2-z
-x,1/2+y,1/2-z
-x,-y,-z
1/2+x,1/2+y,-z
1/2-x,y,1/2+z
x,1/2-y,1/2+z
loop_
_atom_site_type_symbol
_atom_site_label
_atom_site_fract_x
_atom_site_fract_y
_atom_site_fract_z
Si Si1 0.095150 0.979723 0.684744
Si Si2 0.053629 0.426672 0.403865
Si Si3 0.878178 0.118650 0.545052
Si Si4 0.024675 0.332985 0.659409
Si Si5 0.374185 0.715156 0.176033
Si Si6 0.793348 0.805460 0.511121
O O1 0.164183 0.936096 0.547201
O O2 0.135670 0.032473 0.799063
O O3 0.000000 0.000000 0.500000
O O4 0.038091 0.953580 0.926621
O O5 0.987747 0.399264 0.179441
O O6 0.087294 0.383362 0.595457
O O7 0.916507 0.149455 0.296001
O O8 0.827210 0.160119 0.737096
O O9 0.991807 0.302274 0.408282
O O10 0.092407 0.303755 0.865278
O O11 0.355136 0.750572 0.422156
O O12 0.750000 0.750000 0.462139
O O13 0.779315 0.829384 0.233671
#
# Coordination Sequence:
#
# PCOD9430442 Si02
#       6
#     8   8   8   8   8   8
#     4   8  13  25  41  62  83  98 116 147 203 264
#     4   8  15  25  43  62  79  97 119 155 207 269
#     4   9  17  28  42  60  78 100 125 163 205 261
#     4  10  20  31  45  57  75  98 134 177 222 264
#     4  11  21  28  41  56  74 100 133 165 202 248
#     4  10  24  35  44  55  71  99 139 183 228 260
#
# _framework density 27.231619999999999
#
# number of rings (size 3 to 8) (size 9 to 14) (size 15 to 20)
#    0.000    2.667    1.667    0.000    9.333    0.000 
#    0.000    0.000    0.000    0.000    0.000    0.000 
#    0.000    0.000    0.000    0.000    0.000    0.000 
#
# Total GULP energy -267341.727928 kJ/mol
# GULP energy per Si atom -5569.619332 kJ/mol
# Density = 2.716964 g / cm^3
# Si number density = 27.231620 Si / 1000 Ang^3
#
#
#
# Elastic Constant Matrix: (Units=GPa)
#
#
# Indices 1 2 3 4 5 6 
#
# 1 52.8739 31.1732 17.5277 0.0000 0.0000 0.0000
# 2 31.1732 157.1358 53.8488 0.0000 0.0000 0.0000
# 3 17.5277 53.8488 175.0937 0.0000 0.0000 0.0000
# 4 0.0000 0.0000 0.0000 46.0530 0.0000 0.0000
# 5 0.0000 0.0000 0.0000 0.0000 -11.7649 0.0000
# 6 0.0000 0.0000 0.0000 0.0000 0.0000 5.2819
#
#
#
# Elastic Compliance Matrix: (Units=1/GPa)
#
#
# Indices 1 2 3 4 5 6 
#
# 1 0.021556 -0.003954 -0.000942 0.000000 0.000000 0.000000
# 2 -0.003954 0.007839 -0.002015 0.000000 0.000000 0.000000
# 3 -0.000942 -0.002015 0.006425 0.000000 0.000000 0.000000
# 4 0.000000 0.000000 0.000000 0.021714 0.000000 0.000000
# 5 0.000000 0.000000 0.000000 0.000000 -0.084999 0.000000
# 6 0.000000 0.000000 0.000000 0.000000 0.000000 0.189325
#
#
# Mechanical properties :
#
#
# Convention : Reuss Voigt Hill
#
# Bulk Modulus (GPa) = 45.45654 65.57810 55.51732
# Shear Modulus (GPa) = 27.32017 26.75092 27.03555
#
# Velocity S-wave (km/s) = 3.17085 3.13764 3.15429
# Velocity P-wave (km/s) = 5.48949 6.10412 5.80495
#
# Compressibility (1/GPa) = 0.02199903
#
# Stress axis : x y z
#
# Youngs Moduli (GPa) = 46.39049 127.57118 155.63670
#
# Poissons Ratio (x) = 0.50436 0.14661
# Poissons Ratio (y) = 0.18341 0.31361
# Poissons Ratio (z) = 0.04370 0.25705
#
# Static dielectric constant tensor:
#      x y z
#    x 2.201060 0.000000 0.000000 
#    y 0.000000 2.078800 0.000000 
#    z 0.000000 0.000000 2.289150 
# 
# From -- ./inp_files/941.got.cif
#   From: 2010.05.17/outbox.cif.g08.bks.cpg/sg56_1_cif.got.tgz:941.got - 2010.06.03 13:42:01.
