data_PCOD9430640
_publ_section_title
;
Structure prediction by ZEFSAII (Michael W. Deem and Ramdas Pophale) SiO2 
 PCOD9430640
Probable space group: P C C N
;
_chemical_formula_sum "Si O2"
_cell_formula_units_Z 64
_cell_length_a 13.835100
_cell_length_b 9.320765
_cell_length_c 22.831717
_cell_angle_alpha 90.000000
_cell_angle_beta 90.000000
_cell_angle_gamma 90.000000
_cell_volume 2944.234746
_symmetry_space_group_name_H-M "P C C N"
_symmetry_group_IT_number 56
_symmetry_cell_setting 'orthorhombic'
loop_
_space_group_symop_operation_xyz
x,y,z
1/2-x,1/2-y,z
1/2+x,-y,1/2-z
-x,1/2+y,1/2-z
-x,-y,-z
1/2+x,1/2+y,-z
1/2-x,y,1/2+z
x,1/2-y,1/2+z
loop_
_atom_site_type_symbol
_atom_site_label
_atom_site_fract_x
_atom_site_fract_y
_atom_site_fract_z
Si Si1 0.150411 0.527026 0.207925
Si Si2 0.153488 0.199452 0.800931
Si Si3 0.152730 0.822829 0.437377
Si Si4 0.902157 0.905540 0.504541
Si Si5 0.554669 0.672121 0.380392
Si Si6 0.942788 0.312101 0.335006
Si Si7 0.533243 0.351906 0.968841
Si Si8 0.358538 0.414693 0.191375
O O1 0.155835 0.462015 0.273821
O O2 0.071267 0.437296 0.172079
O O3 0.123115 0.689699 0.193926
O O4 0.253806 0.482864 0.180696
O O5 0.250000 0.250000 0.833766
O O6 0.151186 0.304709 0.744589
O O7 0.054696 0.228290 0.833300
O O8 0.250000 0.750000 0.413915
O O9 0.114832 0.725013 0.491465
O O10 0.058628 0.821403 0.395609
O O11 0.166848 0.987459 0.459838
O O12 0.882253 0.877906 0.436337
O O13 0.939695 0.755159 0.530318
O O14 0.000000 0.000000 0.500000
O O15 0.596348 0.824156 0.360990
O O16 0.925398 0.353918 0.402806
O O17 0.928198 0.453486 0.296197
O O18 0.500000 0.500000 0.000000
#
# Coordination Sequence:
#
# PCOD9430640 Si02
#       8
#     8   8   8   8   8   8   8   8
#     4  10  20  36  59  88 117 151 198 245 296 359
#     4   9  21  40  58  81 118 158 193 238 302 369
#     4  10  20  36  56  81 116 154 198 247 296 355
#     4   8  16  33  52  72 105 149 192 234 288 347
#     4   9  17  36  58  78 111 158 191 230 298 363
#     4  12  20  34  61  89 114 149 197 251 300 355
#     4  10  21  37  54  80 115 152 195 249 301 358
#     4  10  21  36  58  87 117 149 192 246 299 354
#
# _framework density 21.737396
#
# number of rings (size 3 to 8) (size 9 to 14) (size 15 to 20)
#    0.000    2.500    0.000    6.000    0.000    2.000 
#    0.000    8.125    0.000    7.500    0.000    0.000 
#    0.000    0.000    0.000    0.000    0.000    0.000 
#
# Total GULP energy -356749.807664 kJ/mol
# GULP energy per Si atom -5574.215745 kJ/mol
# Density = 2.168792 g / cm^3
# Si number density = 21.737396 Si / 1000 Ang^3
#
#
#
# Elastic Constant Matrix: (Units=GPa)
#
#
# Indices 1 2 3 4 5 6 
#
# 1 94.2155 11.1349 6.5460 0.0000 0.0000 0.0000
# 2 11.1349 134.6911 5.0184 0.0000 0.0000 0.0000
# 3 6.5460 5.0184 23.4921 0.0000 0.0000 0.0000
# 4 0.0000 0.0000 0.0000 0.6123 0.0000 0.0000
# 5 0.0000 0.0000 0.0000 0.0000 20.3520 0.0000
# 6 0.0000 0.0000 0.0000 0.0000 0.0000 28.9914
#
#
#
# Elastic Compliance Matrix: (Units=1/GPa)
#
#
# Indices 1 2 3 4 5 6 
#
# 1 0.010907 -0.000795 -0.002869 0.000000 0.000000 0.000000
# 2 -0.000795 0.007542 -0.001390 0.000000 0.000000 0.000000
# 3 -0.002869 -0.001390 0.043664 0.000000 0.000000 0.000000
# 4 0.000000 0.000000 0.000000 1.633261 0.000000 0.000000
# 5 0.000000 0.000000 0.000000 0.000000 0.049135 0.000000
# 6 0.000000 0.000000 0.000000 0.000000 0.000000 0.034493
#
#
# Mechanical properties :
#
#
# Convention : Reuss Voigt Hill
#
# Bulk Modulus (GPa) = 19.22886 33.08859 26.15872
# Shear Modulus (GPa) = 2.76787 25.30442 14.03614
#
# Velocity S-wave (km/s) = 1.12964 3.41559 2.54385
# Velocity P-wave (km/s) = 3.25064 5.55067 4.54844
#
# Compressibility (1/GPa) = 0.05200518
#
# Stress axis : x y z
#
# Youngs Moduli (GPa) = 91.68200 132.59300 22.90224
#
# Poissons Ratio (x) = 0.10538 0.06572
# Poissons Ratio (y) = 0.07287 0.03183
# Poissons Ratio (z) = 0.26308 0.18426
#
# Static dielectric constant tensor:
#      x y z
#    x 1.819490 0.000000 0.000000 
#    y 0.000000 1.824670 0.000000 
#    z 0.000000 0.000000 1.813530 
# 
# From -- ./inp_files/21181.got.cif
#   From: 2010.05.17/outbox.cif.g08.bks.cpg/sg56_11_cif.got.tgz:21181.got - 2010.06.03 13:42:01.
