data_PCOD9430534
_publ_section_title
;
Structure prediction by ZEFSAII (Michael W. Deem and Ramdas Pophale) SiO2 
 PCOD9430534
Probable space group: P C C N
;
_chemical_formula_sum "Si O2"
_cell_formula_units_Z 48
_cell_length_a 10.625027
_cell_length_b 8.459672
_cell_length_c 23.327508
_cell_angle_alpha 90.000000
_cell_angle_beta 90.000000
_cell_angle_gamma 90.000000
_cell_volume 2096.775407
_symmetry_space_group_name_H-M "P C C N"
_symmetry_group_IT_number 56
_symmetry_cell_setting 'orthorhombic'
loop_
_space_group_symop_operation_xyz
x,y,z
1/2-x,1/2-y,z
1/2+x,-y,1/2-z
-x,1/2+y,1/2-z
-x,-y,-z
1/2+x,1/2+y,-z
1/2-x,y,1/2+z
x,1/2-y,1/2+z
loop_
_atom_site_type_symbol
_atom_site_label
_atom_site_fract_x
_atom_site_fract_y
_atom_site_fract_z
Si Si1 0.441433 0.684459 0.458800
Si Si2 0.127035 0.853227 0.740632
Si Si3 0.203857 0.415408 0.003540
Si Si4 0.527528 0.080552 0.640435
Si Si5 0.884344 0.800463 0.279823
Si Si6 0.867422 0.353081 0.425095
O O1 0.582071 0.617693 0.457050
O O2 0.342561 0.541511 0.456768
O O3 0.420676 0.819543 0.412680
O O4 0.425705 0.753352 0.522893
O O5 0.250000 0.750000 0.730803
O O6 0.124262 0.919807 0.806611
O O7 0.003026 0.743548 0.739552
O O8 0.115582 0.014359 0.704915
O O9 0.250000 0.250000 0.979179
O O10 0.309817 0.493653 0.043003
O O11 0.412642 0.185911 0.666444
O O12 0.469978 0.916602 0.618837
O O13 0.750000 0.750000 0.255454
O O14 0.750000 0.250000 0.401964
#
# Coordination Sequence:
#
# PCOD9430534 Si02
#       6
#     8   8   8   8   8   8
#     4  10  21  38  60  91 132 171 215 263 326 382
#     4  10  23  44  69  97 132 168 216 283 351 406
#     4  10  20  34  61  83 133 172 210 264 311 378
#     4  10  23  39  69  95 128 173 222 277 332 403
#     4  10  23  44  73  92 125 176 218 284 342 395
#     4  10  21  39  63  94 135 170 222 266 316 394
#
# _framework density 22.892292999999999
#
# number of rings (size 3 to 8) (size 9 to 14) (size 15 to 20)
#    1.000    1.000    1.667    1.500    2.333    2.000 
#    3.000    0.000    3.667    0.000    0.000    0.000 
#    0.000    0.000    0.000    0.000    0.000    0.000 
#
# Total GULP energy -268066.997784 kJ/mol
# GULP energy per Si atom -5584.729121 kJ/mol
# Density = 2.284019 g / cm^3
# Si number density = 22.892293 Si / 1000 Ang^3
#
#
#
# Elastic Constant Matrix: (Units=GPa)
#
#
# Indices 1 2 3 4 5 6 
#
# 1 97.4491 29.4398 -4.7809 0.0000 0.0000 0.0000
# 2 29.4398 125.5427 15.1947 0.0000 0.0000 0.0000
# 3 -4.7809 15.1947 61.2999 0.0000 0.0000 0.0000
# 4 0.0000 0.0000 0.0000 20.1380 0.0000 0.0000
# 5 0.0000 0.0000 0.0000 0.0000 -1.1227 0.0000
# 6 0.0000 0.0000 0.0000 0.0000 0.0000 52.8100
#
#
#
# Elastic Compliance Matrix: (Units=1/GPa)
#
#
# Indices 1 2 3 4 5 6 
#
# 1 0.011189 -0.002814 0.001570 0.000000 0.000000 0.000000
# 2 -0.002814 0.008919 -0.002430 0.000000 0.000000 0.000000
# 3 0.001570 -0.002430 0.017038 0.000000 0.000000 0.000000
# 4 0.000000 0.000000 0.000000 0.049657 0.000000 0.000000
# 5 0.000000 0.000000 0.000000 0.000000 -0.890731 0.000000
# 6 0.000000 0.000000 0.000000 0.000000 0.000000 0.018936
#
#
# Mechanical properties :
#
#
# Convention : Reuss Voigt Hill
#
# Bulk Modulus (GPa) = 33.55901 40.44433 37.00167
# Shear Modulus (GPa) = -6.51287 30.66094 12.07403
#
# Velocity S-wave (km/s) = -1.68854 3.66369 2.29907
# Velocity P-wave (km/s) = 3.29996 5.96678 4.82142
#
# Compressibility (1/GPa) = 0.02979826
#
# Stress axis : x y z
#
# Youngs Moduli (GPa) = 89.37452 112.11503 58.69197
#
# Poissons Ratio (x) = 0.31547 -0.09215
# Poissons Ratio (y) = 0.25148 0.14264
# Poissons Ratio (z) = -0.14033 0.27248
#
# Static dielectric constant tensor:
#      x y z
#    x 1.874380 0.000000 0.000000 
#    y 0.000000 1.874470 0.000000 
#    z 0.000000 0.000000 1.860010 
# 
# From -- ./inp_files/22240.got.cif
#   From: 2010.05.17/outbox.cif.g08.bks.cpg/sg56_12_cif.got.tgz:22240.got - 2010.06.03 13:42:01.
