data_PCOD9430157
_publ_section_title
;
Structure prediction by ZEFSAII (Michael W. Deem and Ramdas Pophale) SiO2 
 PCOD9430157
Probable space group: P C C N
;
_chemical_formula_sum "Si O2"
_cell_formula_units_Z 48
_cell_length_a 8.573445
_cell_length_b 9.821733
_cell_length_c 23.346875
_cell_angle_alpha 90.000000
_cell_angle_beta 90.000000
_cell_angle_gamma 90.000000
_cell_volume 1965.949003
_symmetry_space_group_name_H-M "P C C N"
_symmetry_group_IT_number 56
_symmetry_cell_setting 'orthorhombic'
loop_
_space_group_symop_operation_xyz
x,y,z
1/2-x,1/2-y,z
1/2+x,-y,1/2-z
-x,1/2+y,1/2-z
-x,-y,-z
1/2+x,1/2+y,-z
1/2-x,y,1/2+z
x,1/2-y,1/2+z
loop_
_atom_site_type_symbol
_atom_site_label
_atom_site_fract_x
_atom_site_fract_y
_atom_site_fract_z
Si Si1 0.470445 0.321534 0.136933
Si Si2 0.220294 0.098282 0.023211
Si Si3 0.795298 0.455223 0.289791
Si Si4 0.937722 0.507522 0.882714
Si Si5 0.616307 0.639113 0.206305
Si Si6 0.295510 0.490606 0.900539
O O1 0.388828 0.371473 0.077702
O O2 0.390355 0.412672 0.185652
O O3 0.441175 0.161951 0.142974
O O4 0.645971 0.367295 0.125465
O O5 0.250000 0.250000 0.999669
O O6 0.365341 0.025054 0.054190
O O7 0.171274 0.015300 0.967783
O O8 0.674552 0.421583 0.341166
O O9 0.691866 0.507094 0.237358
O O10 0.935086 0.350881 0.274659
O O11 0.114902 0.462539 0.888100
O O12 0.750000 0.750000 0.216771
O O13 0.608518 0.616358 0.137786
#
# Coordination Sequence:
#
# PCOD9430157 Si02
#       6
#     8   8   8   8   8   8
#     4   9  19  34  57  79 107 151 194 236 281 336
#     4   9  18  33  52  75 109 152 191 233 288 342
#     4  10  21  39  60  82 109 149 190 232 284 340
#     4  10  19  35  56  81 111 147 195 241 278 335
#     4  11  23  39  60  85 117 150 184 234 291 350
#     4  11  20  32  53  84 116 147 187 236 292 347
#
# _framework density 24.415687999999999
#
# number of rings (size 3 to 8) (size 9 to 14) (size 15 to 20)
#    0.000    2.000    0.000    5.500    0.000    0.000 
#    0.000    5.000    0.000    0.000    0.000    0.000 
#    0.000    0.000    0.000    0.000    0.000    0.000 
#
# Total GULP energy -268033.015025 kJ/mol
# GULP energy per Si atom -5584.021146 kJ/mol
# Density = 2.436012 g / cm^3
# Si number density = 24.415688 Si / 1000 Ang^3
#
#
#
# Elastic Constant Matrix: (Units=GPa)
#
#
# Indices 1 2 3 4 5 6 
#
# 1 131.2584 16.3114 30.9639 0.0000 0.0000 0.0000
# 2 16.3114 43.5578 11.2252 0.0000 0.0000 0.0000
# 3 30.9639 11.2252 110.3371 0.0000 0.0000 0.0000
# 4 0.0000 0.0000 0.0000 17.6593 0.0000 0.0000
# 5 0.0000 0.0000 0.0000 0.0000 35.1831 0.0000
# 6 0.0000 0.0000 0.0000 0.0000 0.0000 33.5901
#
#
#
# Elastic Compliance Matrix: (Units=1/GPa)
#
#
# Indices 1 2 3 4 5 6 
#
# 1 0.008440 -0.002619 -0.002102 0.000000 0.000000 0.000000
# 2 -0.002619 0.024389 -0.001746 0.000000 0.000000 0.000000
# 3 -0.002102 -0.001746 0.009831 0.000000 0.000000 0.000000
# 4 0.000000 0.000000 0.000000 0.056627 0.000000 0.000000
# 5 0.000000 0.000000 0.000000 0.000000 0.028423 0.000000
# 6 0.000000 0.000000 0.000000 0.000000 0.000000 0.029771
#
#
# Mechanical properties :
#
#
# Convention : Reuss Voigt Hill
#
# Bulk Modulus (GPa) = 33.64175 44.68382 39.16278
# Shear Modulus (GPa) = 27.72806 32.39668 30.06237
#
# Velocity S-wave (km/s) = 3.37362 3.64659 3.51276
# Velocity P-wave (km/s) = 5.38365 6.00593 5.70328
#
# Compressibility (1/GPa) = 0.02972497
#
# Stress axis : x y z
#
# Youngs Moduli (GPa) = 118.48513 41.00255 101.72226
#
# Poissons Ratio (x) = 0.10738 0.21383
# Poissons Ratio (y) = 0.31029 0.17764
# Poissons Ratio (z) = 0.24906 0.07160
#
# Static dielectric constant tensor:
#      x y z
#    x 1.989520 0.000000 0.000000 
#    y 0.000000 1.979320 0.000000 
#    z 0.000000 0.000000 1.903710 
# 
# From -- ./inp_files/20480.got.cif
#   From: 2010.05.17/outbox.cif.g08.bks.cpg/sg56_11_cif.got.tgz:20480.got - 2010.06.03 13:42:01.
