data_PCOD9430811
_publ_section_title
;
Structure prediction by ZEFSAII (Michael W. Deem and Ramdas Pophale) SiO2 
 PCOD9430811
Probable space group: P C C N
;
_chemical_formula_sum "Si O2"
_cell_formula_units_Z 56
_cell_length_a 14.348130
_cell_length_b 11.740176
_cell_length_c 14.715556
_cell_angle_alpha 90.000000
_cell_angle_beta 90.000000
_cell_angle_gamma 90.000000
_cell_volume 2478.829102
_symmetry_space_group_name_H-M "P C C N"
_symmetry_group_IT_number 56
_symmetry_cell_setting 'orthorhombic'
loop_
_space_group_symop_operation_xyz
x,y,z
1/2-x,1/2-y,z
1/2+x,-y,1/2-z
-x,1/2+y,1/2-z
-x,-y,-z
1/2+x,1/2+y,-z
1/2-x,y,1/2+z
x,1/2-y,1/2+z
loop_
_atom_site_type_symbol
_atom_site_label
_atom_site_fract_x
_atom_site_fract_y
_atom_site_fract_z
Si Si1 0.073185 0.063828 0.143618
Si Si2 0.166563 0.603768 0.515620
Si Si3 0.643789 0.125582 0.677803
Si Si4 0.835297 0.038711 0.369903
Si Si5 0.402289 0.307503 0.595082
Si Si6 0.559378 0.151519 0.240026
Si Si7 0.520282 0.218175 0.921533
O O1 0.121181 0.187050 0.141375
O O2 0.963200 0.091583 0.151481
O O3 0.092206 0.970745 0.222579
O O4 0.103942 0.001428 0.050963
O O5 0.200296 0.600810 0.412706
O O6 0.252751 0.607483 0.583180
O O7 0.100120 0.711839 0.525791
O O8 0.672568 0.050212 0.762477
O O9 0.637809 0.256874 0.710974
O O10 0.933059 0.097565 0.397530
O O11 0.829382 0.909085 0.401410
O O12 0.488670 0.354798 0.656238
O O13 0.435854 0.288943 0.491624
O O14 0.508514 0.212470 0.327115
#
# Coordination Sequence:
#
# PCOD9430811 Si02
#       7
#     8   8   8   8   8   8   8
#     4  10  20  37  68  91 121 170 227 256 319 413
#     4  11  22  40  63  93 126 172 216 273 337 395
#     4  10  20  40  64  90 124 168 220 271 320 403
#     4  11  24  40  58  97 136 159 213 287 335 386
#     4  11  21  38  64  91 130 171 211 275 324 387
#     4   9  19  35  63  94 114 157 222 263 305 385
#     4  10  21  39  62  93 122 168 219 265 321 392
#
# _framework density 22.591311000000001
#
# number of rings (size 3 to 8) (size 9 to 14) (size 15 to 20)
#    0.000    1.714    4.286    1.286    2.000    0.571 
#    5.143    1.429    0.000    1.714    0.000    0.000 
#    0.000    0.000    0.000    0.000    0.000    0.000 
#
# Total GULP energy -312923.978529 kJ/mol
# GULP energy per Si atom -5587.928188 kJ/mol
# Density = 2.253989 g / cm^3
# Si number density = 22.591311 Si / 1000 Ang^3
#
#
#
# Elastic Constant Matrix: (Units=GPa)
#
#
# Indices 1 2 3 4 5 6 
#
# 1 31.2245 1.8832 4.0718 0.0000 0.0000 0.0000
# 2 1.8832 138.5301 13.2251 0.0000 0.0000 0.0000
# 3 4.0718 13.2251 125.6388 0.0000 0.0000 0.0000
# 4 0.0000 0.0000 0.0000 19.6450 0.0000 0.0000
# 5 0.0000 0.0000 0.0000 0.0000 17.9241 0.0000
# 6 0.0000 0.0000 0.0000 0.0000 0.0000 9.8795
#
#
#
# Elastic Compliance Matrix: (Units=1/GPa)
#
#
# Indices 1 2 3 4 5 6 
#
# 1 0.032178 -0.000341 -0.001007 0.000000 0.000000 0.000000
# 2 -0.000341 0.007296 -0.000757 0.000000 0.000000 0.000000
# 3 -0.001007 -0.000757 0.008072 0.000000 0.000000 0.000000
# 4 0.000000 0.000000 0.000000 0.050903 0.000000 0.000000
# 5 0.000000 0.000000 0.000000 0.000000 0.055791 0.000000
# 6 0.000000 0.000000 0.000000 0.000000 0.000000 0.101220
#
#
# Mechanical properties :
#
#
# Convention : Reuss Voigt Hill
#
# Bulk Modulus (GPa) = 23.07602 37.08372 30.07987
# Shear Modulus (GPa) = 18.24054 27.90394 23.07224
#
# Velocity S-wave (km/s) = 2.84459 3.51830 3.19923
# Velocity P-wave (km/s) = 4.58537 5.74067 5.19523
#
# Compressibility (1/GPa) = 0.04333502
#
# Stress axis : x y z
#
# Youngs Moduli (GPa) = 31.07707 137.06996 123.89066
#
# Poissons Ratio (x) = 0.04678 0.12475
# Poissons Ratio (y) = 0.01061 0.09377
# Poissons Ratio (z) = 0.03129 0.10375
#
# Static dielectric constant tensor:
#      x y z
#    x 1.858180 0.000000 0.000000 
#    y 0.000000 1.880390 0.000000 
#    z 0.000000 0.000000 1.831290 
# 
# From -- ./inp_files/11660.got.cif
#   From: 2010.05.17/outbox.cif.g08.bks.cpg/sg56_6_cif.got.tgz:11660.got - 2010.06.03 13:42:01.
