data_PCOD9430049
_publ_section_title
;
Structure prediction by ZEFSAII (Michael W. Deem and Ramdas Pophale) SiO2 
 PCOD9430049
Probable space group: P C C N
;
_chemical_formula_sum "Si O2"
_cell_formula_units_Z 64
_cell_length_a 27.086268
_cell_length_b 17.078325
_cell_length_c 5.612578
_cell_angle_alpha 90.000000
_cell_angle_beta 90.000000
_cell_angle_gamma 90.000000
_cell_volume 2596.311725
_symmetry_space_group_name_H-M "P C C N"
_symmetry_group_IT_number 56
_symmetry_cell_setting 'orthorhombic'
loop_
_space_group_symop_operation_xyz
x,y,z
1/2-x,1/2-y,z
1/2+x,-y,1/2-z
-x,1/2+y,1/2-z
-x,-y,-z
1/2+x,1/2+y,-z
1/2-x,y,1/2+z
x,1/2-y,1/2+z
loop_
_atom_site_type_symbol
_atom_site_label
_atom_site_fract_x
_atom_site_fract_y
_atom_site_fract_z
Si Si1 0.128692 0.938696 0.510670
Si Si2 0.518388 0.409529 0.535893
Si Si3 0.878231 0.925956 0.123660
Si Si4 0.229095 0.615969 0.151178
Si Si5 0.915488 0.739152 0.737909
Si Si6 0.809525 0.794783 0.687633
Si Si7 0.705942 0.964261 0.302919
Si Si8 0.980126 0.587778 0.461820
O O1 0.111722 0.003127 0.700506
O O2 0.169860 0.883573 0.635072
O O3 0.162857 0.982673 0.317533
O O4 0.077254 0.903365 0.422562
O O5 0.500000 0.500000 0.500000
O O6 0.491660 0.377586 0.773907
O O7 0.503847 0.376053 0.275497
O O8 0.887230 0.843495 0.246589
O O9 0.921735 0.925940 0.928687
O O10 0.822723 0.935088 0.037672
O O11 0.248505 0.648708 0.403362
O O12 0.249833 0.524956 0.148677
O O13 0.941813 0.743682 0.484051
O O14 0.869078 0.798834 0.714078
O O15 0.798595 0.747290 0.443576
O O16 0.786616 0.881929 0.668541
O O17 0.000000 0.500000 0.500000
#
# Coordination Sequence:
#
# PCOD9430049 Si02
#       8
#     8   8   8   8   8   8   8   8
#     4  11  21  32  51  67  88 121 140 187 249 281
#     4  10  19  33  46  67  97 104 139 179 227 298
#     4  12  20  30  56  64  91 124 144 192 255 273
#     4  10  22  34  46  67  87 108 152 187 219 283
#     4  10  20  32  44  69  86 112 157 187 226 297
#     4  10  19  33  47  64  85 109 149 196 234 284
#     4  11  21  32  51  66  89 115 155 194 233 285
#     4  10  20  32  45  74  91 110 143 182 231 304
#
# _framework density 24.650355999999999
#
# number of rings (size 3 to 8) (size 9 to 14) (size 15 to 20)
#    0.000    1.500    6.250    3.000    0.000    0.000 
#    0.000    0.000    0.000   17.250    0.000    0.000 
#    0.000    0.000    0.000    0.000    0.000    0.000 
#
# Total GULP energy -357338.677367 kJ/mol
# GULP energy per Si atom -5583.416834 kJ/mol
# Density = 2.459425 g / cm^3
# Si number density = 24.650356 Si / 1000 Ang^3
#
#
#
# Elastic Constant Matrix: (Units=GPa)
#
#
# Indices 1 2 3 4 5 6 
#
# 1 145.4601 5.8209 34.1387 0.0000 0.0000 0.0000
# 2 5.8209 15.2661 10.8583 0.0000 0.0000 0.0000
# 3 34.1387 10.8583 201.5030 0.0000 0.0000 0.0000
# 4 0.0000 0.0000 0.0000 23.4143 0.0000 0.0000
# 5 0.0000 0.0000 0.0000 0.0000 125.4642 0.0000
# 6 0.0000 0.0000 0.0000 0.0000 0.0000 22.1410
#
#
#
# Elastic Compliance Matrix: (Units=1/GPa)
#
#
# Indices 1 2 3 4 5 6 
#
# 1 0.007215 -0.001957 -0.001117 0.000000 0.000000 0.000000
# 2 -0.001957 0.068646 -0.003368 0.000000 0.000000 0.000000
# 3 -0.001117 -0.003368 0.005333 0.000000 0.000000 0.000000
# 4 0.000000 0.000000 0.000000 0.042709 0.000000 0.000000
# 5 0.000000 0.000000 0.000000 0.000000 0.007970 0.000000
# 6 0.000000 0.000000 0.000000 0.000000 0.000000 0.045165
#
#
# Mechanical properties :
#
#
# Convention : Reuss Voigt Hill
#
# Bulk Modulus (GPa) = 14.63869 51.54056 33.08962
# Shear Modulus (GPa) = 23.50817 54.96467 39.23642
#
# Velocity S-wave (km/s) = 3.09150 4.72717 3.99396
# Velocity P-wave (km/s) = 4.32372 7.12382 5.89251
#
# Compressibility (1/GPa) = 0.06831213
#
# Stress axis : x y z
#
# Youngs Moduli (GPa) = 138.59663 14.56750 187.49739
#
# Poissons Ratio (x) = 0.02850 0.20943
# Poissons Ratio (y) = 0.27119 0.63141
# Poissons Ratio (z) = 0.15481 0.04906
#
# Static dielectric constant tensor:
#      x y z
#    x 38.090360 0.000000 0.000000 
#    y 0.000000 2.019630 0.000000 
#    z 0.000000 0.000000 2.172350 
# 
# From -- ./inp_files/1285.got.cif
#   From: 2010.05.17/outbox.cif.g08.bks.cpg/sg56_1_cif.got.tgz:1285.got - 2010.06.03 13:42:01.
