data_PCOD9430253
_publ_section_title
;
Structure prediction by ZEFSAII (Michael W. Deem and Ramdas Pophale) SiO2 
 PCOD9430253
Probable space group: P C C N
;
_chemical_formula_sum "Si O2"
_cell_formula_units_Z 40
_cell_length_a 11.832461
_cell_length_b 14.929411
_cell_length_c 7.973959
_cell_angle_alpha 90.000000
_cell_angle_beta 90.000000
_cell_angle_gamma 90.000000
_cell_volume 1408.613201
_symmetry_space_group_name_H-M "P C C N"
_symmetry_group_IT_number 56
_symmetry_cell_setting 'orthorhombic'
loop_
_space_group_symop_operation_xyz
x,y,z
1/2-x,1/2-y,z
1/2+x,-y,1/2-z
-x,1/2+y,1/2-z
-x,-y,-z
1/2+x,1/2+y,-z
1/2-x,y,1/2+z
x,1/2-y,1/2+z
loop_
_atom_site_type_symbol
_atom_site_label
_atom_site_fract_x
_atom_site_fract_y
_atom_site_fract_z
Si Si1 0.108888 0.650855 0.134755
Si Si2 0.599364 0.958055 0.232198
Si Si3 0.391216 0.370188 0.935887
Si Si4 0.863853 0.146529 0.811209
Si Si5 0.384631 0.326000 0.552790
O O1 0.156198 0.391162 0.903396
O O2 0.120522 0.747338 0.230715
O O3 0.240724 0.635051 0.104409
O O4 0.018626 0.673545 0.989824
O O5 0.629030 0.059291 0.189895
O O6 0.465151 0.930287 0.217776
O O7 0.637583 0.941811 0.422337
O O8 0.527885 0.372085 0.926702
O O9 0.355847 0.277259 0.024794
O O10 0.363489 0.361759 0.738419
#
# Coordination Sequence:
#
# PCOD9430253 Si02
#       5
#     8   8   8   8   8
#     4   8  20  39  60  95 132 179 226 285 349 406
#     4  10  21  37  62  93 130 184 222 283 349 403
#     4  11  18  35  59  92 130 173 225 276 339 404
#     4  10  19  36  65  90 139 177 226 289 342 408
#     4   9  19  35  57  88 131 172 220 284 336 400
#
# _framework density 28.396723000000001
#
# number of rings (size 3 to 8) (size 9 to 14) (size 15 to 20)
#    1.200    1.200    2.000    0.600    0.000    2.400 
#    0.000    6.000    4.400    1.200    0.000    0.000 
#    0.000    0.000    0.000    0.000    0.000    0.200 
#
# Total GULP energy -223155.881037 kJ/mol
# GULP energy per Si atom -5578.897026 kJ/mol
# Density = 2.833209 g / cm^3
# Si number density = 28.396723 Si / 1000 Ang^3
#
#
#
# Elastic Constant Matrix: (Units=GPa)
#
#
# Indices 1 2 3 4 5 6 
#
# 1 165.7743 23.1786 34.3425 0.0000 0.0000 0.0000
# 2 23.1786 176.1345 30.3323 0.0000 0.0000 0.0000
# 3 34.3425 30.3323 142.9119 0.0000 0.0000 0.0000
# 4 0.0000 0.0000 0.0000 41.0305 0.0000 0.0000
# 5 0.0000 0.0000 0.0000 0.0000 39.8863 0.0000
# 6 0.0000 0.0000 0.0000 0.0000 0.0000 0.7057
#
#
#
# Elastic Compliance Matrix: (Units=1/GPa)
#
#
# Indices 1 2 3 4 5 6 
#
# 1 0.006409 -0.000600 -0.001413 0.000000 0.000000 0.000000
# 2 -0.000600 0.005949 -0.001118 0.000000 0.000000 0.000000
# 3 -0.001413 -0.001118 0.007574 0.000000 0.000000 0.000000
# 4 0.000000 0.000000 0.000000 0.024372 0.000000 0.000000
# 5 0.000000 0.000000 0.000000 0.000000 0.025071 0.000000
# 6 0.000000 0.000000 0.000000 0.000000 0.000000 1.417051
#
#
# Mechanical properties :
#
#
# Convention : Reuss Voigt Hill
#
# Bulk Modulus (GPa) = 73.15510 73.39194 73.27352
# Shear Modulus (GPa) = 3.33946 42.78897 23.06422
#
# Velocity S-wave (km/s) = 1.08561 3.88600 2.85303
# Velocity P-wave (km/s) = 5.23346 6.78498 6.05909
#
# Compressibility (1/GPa) = 0.01366959
#
# Stress axis : x y z
#
# Youngs Moduli (GPa) = 156.03376 168.09381 132.02735
#
# Poissons Ratio (x) = 0.10087 0.18652
# Poissons Ratio (y) = 0.09364 0.14767
# Poissons Ratio (z) = 0.22043 0.18800
#
# Static dielectric constant tensor:
#      x y z
#    x 2.372240 0.000000 0.000000 
#    y 0.000000 2.203340 0.000000 
#    z 0.000000 0.000000 2.178310 
# 
# From -- ./inp_files/7712.got.cif
#   From: 2010.05.17/outbox.cif.g08.bks.cpg/sg56_4_cif.got.tgz:7712.got - 2010.06.03 13:42:01.
