data_PCOD9430539
_publ_section_title
;
Structure prediction by ZEFSAII (Michael W. Deem and Ramdas Pophale) SiO2 
 PCOD9430539
Probable space group: P C C N
;
_chemical_formula_sum "Si O2"
_cell_formula_units_Z 48
_cell_length_a 19.329970
_cell_length_b 12.825788
_cell_length_c 9.735923
_cell_angle_alpha 90.000000
_cell_angle_beta 90.000000
_cell_angle_gamma 90.000000
_cell_volume 2413.750449
_symmetry_space_group_name_H-M "P C C N"
_symmetry_group_IT_number 56
_symmetry_cell_setting 'orthorhombic'
loop_
_space_group_symop_operation_xyz
x,y,z
1/2-x,1/2-y,z
1/2+x,-y,1/2-z
-x,1/2+y,1/2-z
-x,-y,-z
1/2+x,1/2+y,-z
1/2-x,y,1/2+z
x,1/2-y,1/2+z
loop_
_atom_site_type_symbol
_atom_site_label
_atom_site_fract_x
_atom_site_fract_y
_atom_site_fract_z
Si Si1 0.750000 0.750000 0.275891
Si Si2 0.216624 0.609638 0.673462
Si Si3 0.888688 0.665740 0.133286
Si Si4 0.076154 0.493561 0.655967
Si Si5 0.832479 0.941361 0.375247
Si Si6 0.250000 0.750000 0.431016
Si Si7 0.059249 0.107877 0.864483
O O1 0.814089 0.705119 0.188891
O O2 0.778700 0.845234 0.364781
O O3 0.152964 0.532518 0.683411
O O4 0.287565 0.546321 0.641217
O O5 0.204231 0.686082 0.542488
O O6 0.220117 0.667984 0.820129
O O7 0.932187 0.608663 0.251222
O O8 0.928014 0.772044 0.094498
O O9 0.874278 0.582041 0.013982
O O10 0.072230 0.461210 0.498142
O O11 0.017872 0.579780 0.684912
O O12 0.885546 0.925694 0.250296
#
# Coordination Sequence:
#
# PCOD9430539 Si02
#       7
#     4   8   8   8   8   4   8
#     4  10  20  34  64 102 132 154 196 270 340 378
#     4  11  22  42  65  94 121 171 212 273 309 385
#     4  11  22  38  65 101 125 163 213 264 325 378
#     4  11  23  44  64  89 131 175 208 257 326 386
#     4  11  22  38  68  97 128 157 213 275 323 378
#     4  10  24  42  60  92 126 160 226 256 318 370
#     4  10  24  42  60  92 134 169 205 256 323 390
#
# _framework density 19.886066
#
# number of rings (size 3 to 8) (size 9 to 14) (size 15 to 20)
#    0.000    1.333    1.667    4.500    4.667    0.667 
#   15.000    0.000    0.000    0.000    0.000    0.000 
#    0.000    0.000    0.000    0.000    0.000    0.000 
#
# Total GULP energy -267799.435819 kJ/mol
# GULP energy per Si atom -5579.154913 kJ/mol
# Density = 1.984080 g / cm^3
# Si number density = 19.886066 Si / 1000 Ang^3
#
#
#
# Elastic Constant Matrix: (Units=GPa)
#
#
# Indices 1 2 3 4 5 6 
#
# 1 57.3516 14.9542 12.1341 0.0000 0.0000 0.0000
# 2 14.9542 53.5982 14.5632 0.0000 0.0000 0.0000
# 3 12.1341 14.5632 86.7762 0.0000 0.0000 0.0000
# 4 0.0000 0.0000 0.0000 8.7741 0.0000 0.0000
# 5 0.0000 0.0000 0.0000 0.0000 1.7708 0.0000
# 6 0.0000 0.0000 0.0000 0.0000 0.0000 22.6295
#
#
#
# Elastic Compliance Matrix: (Units=1/GPa)
#
#
# Indices 1 2 3 4 5 6 
#
# 1 0.019087 -0.004820 -0.001860 0.000000 0.000000 0.000000
# 2 -0.004820 0.020766 -0.002811 0.000000 0.000000 0.000000
# 3 -0.001860 -0.002811 0.012256 0.000000 0.000000 0.000000
# 4 0.000000 0.000000 0.000000 0.113972 0.000000 0.000000
# 5 0.000000 0.000000 0.000000 0.000000 0.564724 0.000000
# 6 0.000000 0.000000 0.000000 0.000000 0.000000 0.044190
#
#
# Mechanical properties :
#
#
# Convention : Reuss Voigt Hill
#
# Bulk Modulus (GPa) = 30.18747 31.22546 30.70646
# Shear Modulus (GPa) = 6.21104 17.03983 11.62544
#
# Velocity S-wave (km/s) = 1.76921 2.93042 2.42048
# Velocity P-wave (km/s) = 4.40302 5.21402 4.82559
#
# Compressibility (1/GPa) = 0.03312633
#
# Stress axis : x y z
#
# Youngs Moduli (GPa) = 52.39279 48.15586 81.59433
#
# Poissons Ratio (x) = 0.23210 0.15177
# Poissons Ratio (y) = 0.25253 0.22937
# Poissons Ratio (z) = 0.09745 0.13537
#
# Static dielectric constant tensor:
#      x y z
#    x 1.689990 0.000000 0.000000 
#    y 0.000000 1.729290 0.000000 
#    z 0.000000 0.000000 1.691810 
# 
# From -- ./inp_files/4427.got.cif
#   From: 2010.05.17/outbox.cif.g08.bks.cpg/sg56_3_cif.got.tgz:4427.got - 2010.06.03 13:42:01.
