data_PCOD9430426
_publ_section_title
;
Structure prediction by ZEFSAII (Michael W. Deem and Ramdas Pophale) SiO2 
 PCOD9430426
Probable space group: P C C N
;
_chemical_formula_sum "Si O2"
_cell_formula_units_Z 40
_cell_length_a 28.748455
_cell_length_b 7.530766
_cell_length_c 9.197664
_cell_angle_alpha 90.000000
_cell_angle_beta 90.000000
_cell_angle_gamma 90.000000
_cell_volume 1991.274826
_symmetry_space_group_name_H-M "P C C N"
_symmetry_group_IT_number 56
_symmetry_cell_setting 'orthorhombic'
loop_
_space_group_symop_operation_xyz
x,y,z
1/2-x,1/2-y,z
1/2+x,-y,1/2-z
-x,1/2+y,1/2-z
-x,-y,-z
1/2+x,1/2+y,-z
1/2-x,y,1/2+z
x,1/2-y,1/2+z
loop_
_atom_site_type_symbol
_atom_site_label
_atom_site_fract_x
_atom_site_fract_y
_atom_site_fract_z
Si Si1 0.848332 0.922725 0.509561
Si Si2 0.094986 0.813526 0.804958
Si Si3 0.200608 0.155391 0.192052
Si Si4 0.946506 0.042659 0.480680
Si Si5 0.343193 0.837165 0.561586
O O1 0.835762 0.786558 0.384049
O O2 0.816732 0.875521 0.645660
O O3 0.904099 0.917539 0.535128
O O4 0.835813 0.126790 0.465483
O O5 0.066636 0.927063 0.688521
O O6 0.121980 0.671543 0.700980
O O7 0.062449 0.717188 0.921501
O O8 0.132969 0.903728 0.911471
O O9 0.250000 0.250000 0.186349
O O10 0.198070 0.966897 0.107283
O O11 0.000000 0.000000 0.500000
#
# Coordination Sequence:
#
# PCOD9430426 Si02
#       5
#     8   8   8   8   8
#     4  10  25  42  65  98 136 177 213 288 332 399
#     4   8  18  38  63  89 130 183 211 268 333 408
#     4  12  25  43  68 100 132 170 236 275 334 413
#     4  10  20  39  63  97 131 173 234 270 342 400
#     4  10  19  44  67  89 132 182 213 265 346 394
#
# _framework density 20.087636
#
# number of rings (size 3 to 8) (size 9 to 14) (size 15 to 20)
#    0.000    2.400    4.000    0.600    5.600    2.400 
#    0.000    4.000    0.000    0.000    0.000    0.000 
#    0.000    0.000    0.000    0.000    0.000    0.000 
#
# Total GULP energy -222814.550916 kJ/mol
# GULP energy per Si atom -5570.363773 kJ/mol
# Density = 2.004192 g / cm^3
# Si number density = 20.087636 Si / 1000 Ang^3
#
#
#
# Elastic Constant Matrix: (Units=GPa)
#
#
# Indices 1 2 3 4 5 6 
#
# 1 110.2618 28.6407 21.8548 0.0000 0.0000 0.0000
# 2 28.6407 67.6364 21.7038 0.0000 0.0000 0.0000
# 3 21.8548 21.7038 121.9374 0.0000 0.0000 0.0000
# 4 0.0000 0.0000 0.0000 25.8572 0.0000 0.0000
# 5 0.0000 0.0000 0.0000 0.0000 21.2961 0.0000
# 6 0.0000 0.0000 0.0000 0.0000 0.0000 32.2341
#
#
#
# Elastic Compliance Matrix: (Units=1/GPa)
#
#
# Indices 1 2 3 4 5 6 
#
# 1 0.010337 -0.004012 -0.001139 0.000000 0.000000 0.000000
# 2 -0.004012 0.017238 -0.002349 0.000000 0.000000 0.000000
# 3 -0.001139 -0.002349 0.008823 0.000000 0.000000 0.000000
# 4 0.000000 0.000000 0.000000 0.038674 0.000000 0.000000
# 5 0.000000 0.000000 0.000000 0.000000 0.046957 0.000000
# 6 0.000000 0.000000 0.000000 0.000000 0.000000 0.031023
#
#
# Mechanical properties :
#
#
# Convention : Reuss Voigt Hill
#
# Bulk Modulus (GPa) = 46.73208 49.35936 48.04572
# Shear Modulus (GPa) = 28.54145 31.05324 29.79734
#
# Velocity S-wave (km/s) = 3.77350 3.93604 3.85563
# Velocity P-wave (km/s) = 6.50387 6.72919 6.61749
#
# Compressibility (1/GPa) = 0.02139858
#
# Stress axis : x y z
#
# Youngs Moduli (GPa) = 96.73883 58.01283 113.33855
#
# Poissons Ratio (x) = 0.23274 0.12905
# Poissons Ratio (y) = 0.38811 0.26624
# Poissons Ratio (z) = 0.11015 0.13628
#
# Static dielectric constant tensor:
#      x y z
#    x 1.719810 0.000000 0.000000 
#    y 0.000000 1.756170 0.000000 
#    z 0.000000 0.000000 1.729850 
# 
# From -- ./inp_files/2161.got.cif
#   From: 2010.05.17/outbox.cif.g08.bks.cpg/sg56_2_cif.got.tgz:2161.got - 2010.06.03 13:42:01.
