data_PCOD9430183
_publ_section_title
;
Structure prediction by ZEFSAII (Michael W. Deem and Ramdas Pophale) SiO2 
 PCOD9430183
Probable space group: P C C N
;
_chemical_formula_sum "Si O2"
_cell_formula_units_Z 64
_cell_length_a 15.332117
_cell_length_b 11.115689
_cell_length_c 17.427265
_cell_angle_alpha 90.000000
_cell_angle_beta 90.000000
_cell_angle_gamma 90.000000
_cell_volume 2970.077264
_symmetry_space_group_name_H-M "P C C N"
_symmetry_group_IT_number 56
_symmetry_cell_setting 'orthorhombic'
loop_
_space_group_symop_operation_xyz
x,y,z
1/2-x,1/2-y,z
1/2+x,-y,1/2-z
-x,1/2+y,1/2-z
-x,-y,-z
1/2+x,1/2+y,-z
1/2-x,y,1/2+z
x,1/2-y,1/2+z
loop_
_atom_site_type_symbol
_atom_site_label
_atom_site_fract_x
_atom_site_fract_y
_atom_site_fract_z
Si Si1 0.652631 0.201215 0.544520
Si Si2 0.299265 0.876650 0.296368
Si Si3 0.957789 0.388778 0.805376
Si Si4 0.296507 0.374886 0.843285
Si Si5 0.394246 0.351857 0.991679
Si Si6 0.488474 0.136283 0.265707
Si Si7 0.073184 0.553408 0.587493
Si Si8 0.994509 0.137782 0.482362
O O1 0.750000 0.250000 0.544708
O O2 0.641306 0.135456 0.626160
O O3 0.639248 0.119755 0.469764
O O4 0.580227 0.302817 0.534198
O O5 0.250000 0.750000 0.290571
O O6 0.357738 0.891687 0.221454
O O7 0.250302 0.002453 0.314334
O O8 0.997747 0.279357 0.753484
O O9 0.971277 0.348943 0.892615
O O10 0.991842 0.525700 0.794359
O O11 0.250000 0.250000 0.824345
O O12 0.314080 0.376523 0.935207
O O13 0.392087 0.373873 0.803534
O O14 0.478594 0.411448 0.948626
O O15 0.417004 0.211975 0.996001
O O16 0.400243 0.415448 0.073964
O O17 0.563807 0.098273 0.326634
O O18 0.000000 0.000000 0.500000
#
# Coordination Sequence:
#
# PCOD9430183 Si02
#       8
#     8   8   8   8   8   8   8   8
#     4  10  20  37  62  89 123 155 210 259 318 374
#     4  10  23  38  60  95 120 164 208 254 318 387
#     4  11  23  40  59  90 126 160 210 258 315 377
#     4  10  19  35  59  84 123 156 203 256 309 373
#     4   9  17  32  59  83 112 148 201 242 307 359
#     4  10  22  38  60  90 117 166 207 255 317 375
#     4   9  16  35  60  82 110 152 202 245 301 367
#     4  11  24  39  61  93 126 164 206 275 319 371
#
# _framework density 21.548259999999999
#
# number of rings (size 3 to 8) (size 9 to 14) (size 15 to 20)
#    0.000    2.000    5.000    0.000    7.000    3.500 
#    0.000    0.000    0.000    0.000    0.000    0.000 
#    0.000    0.000    0.000    0.000    0.000    0.000 
#
# Total GULP energy -356576.835834 kJ/mol
# GULP energy per Si atom -5571.513060 kJ/mol
# Density = 2.149922 g / cm^3
# Si number density = 21.548260 Si / 1000 Ang^3
#
#
#
# Elastic Constant Matrix: (Units=GPa)
#
#
# Indices 1 2 3 4 5 6 
#
# 1 20.5587 11.3096 5.1429 0.0000 0.0000 0.0000
# 2 11.3096 168.6965 9.5106 0.0000 0.0000 0.0000
# 3 5.1429 9.5106 31.1718 0.0000 0.0000 0.0000
# 4 0.0000 0.0000 0.0000 28.7848 0.0000 0.0000
# 5 0.0000 0.0000 0.0000 0.0000 12.4566 0.0000
# 6 0.0000 0.0000 0.0000 0.0000 0.0000 27.6862
#
#
#
# Elastic Compliance Matrix: (Units=1/GPa)
#
#
# Indices 1 2 3 4 5 6 
#
# 1 0.052252 -0.003070 -0.007684 0.000000 0.000000 0.000000
# 2 -0.003070 0.006212 -0.001389 0.000000 0.000000 0.000000
# 3 -0.007684 -0.001389 0.033772 0.000000 0.000000 0.000000
# 4 0.000000 0.000000 0.000000 0.034741 0.000000 0.000000
# 5 0.000000 0.000000 0.000000 0.000000 0.080278 0.000000
# 6 0.000000 0.000000 0.000000 0.000000 0.000000 0.036119
#
#
# Mechanical properties :
#
#
# Convention : Reuss Voigt Hill
#
# Bulk Modulus (GPa) = 14.71665 30.26145 22.48905
# Shear Modulus (GPa) = 17.22298 26.74980 21.98639
#
# Velocity S-wave (km/s) = 2.83021 3.52716 3.19773
# Velocity P-wave (km/s) = 4.18624 5.53731 4.90848
#
# Compressibility (1/GPa) = 0.06795023
#
# Stress axis : x y z
#
# Youngs Moduli (GPa) = 19.13794 160.98121 29.61047
#
# Poissons Ratio (x) = 0.49418 0.22753
# Poissons Ratio (y) = 0.05875 0.04112
# Poissons Ratio (z) = 0.14706 0.22357
#
# Static dielectric constant tensor:
#      x y z
#    x 1.782000 0.000000 0.000000 
#    y 0.000000 1.735750 0.000000 
#    z 0.000000 0.000000 1.809860 
# 
# From -- ./inp_files/16339.got.cif
#   From: 2010.05.17/outbox.cif.g08.bks.cpg/sg56_9_cif.got.tgz:16339.got - 2010.06.03 13:42:01.
