data_PCOD9430634
_publ_section_title
;
Structure prediction by ZEFSAII (Michael W. Deem and Ramdas Pophale) SiO2 
 PCOD9430634
Probable space group: P C C N
;
_chemical_formula_sum "Si O2"
_cell_formula_units_Z 32
_cell_length_a 10.847767
_cell_length_b 8.832081
_cell_length_c 14.153087
_cell_angle_alpha 90.000000
_cell_angle_beta 90.000000
_cell_angle_gamma 90.000000
_cell_volume 1355.984009
_symmetry_space_group_name_H-M "P C C N"
_symmetry_group_IT_number 56
_symmetry_cell_setting 'orthorhombic'
loop_
_space_group_symop_operation_xyz
x,y,z
1/2-x,1/2-y,z
1/2+x,-y,1/2-z
-x,1/2+y,1/2-z
-x,-y,-z
1/2+x,1/2+y,-z
1/2-x,y,1/2+z
x,1/2-y,1/2+z
loop_
_atom_site_type_symbol
_atom_site_label
_atom_site_fract_x
_atom_site_fract_y
_atom_site_fract_z
Si Si1 0.625207 0.205539 0.999583
Si Si2 0.372951 0.159481 0.208654
Si Si3 0.877563 0.166971 0.199493
Si Si4 0.138427 0.140250 0.479631
O O1 0.750000 0.250000 0.945630
O O2 0.614492 0.323977 0.085200
O O3 0.495180 0.200171 0.947375
O O4 0.644247 0.037459 0.044694
O O5 0.250000 0.250000 0.235369
O O6 0.498418 0.247902 0.230538
O O7 0.366536 0.138954 0.094585
O O8 0.375099 0.999301 0.259164
O O9 0.750000 0.250000 0.224126
O O10 0.250000 0.250000 0.451982
#
# Coordination Sequence:
#
# PCOD9430634 Si02
#       4
#     8   8   8   8
#     4   9  19  36  54  78 110 140 179 227 272 325
#     4  10  20  36  59  83 111 146 183 229 279 331
#     4  10  20  36  55  81 114 145 184 227 275 331
#     4   9  19  36  56  79 107 141 183 227 274 326
#
# _framework density 23.599098999999999
#
# number of rings (size 3 to 8) (size 9 to 14) (size 15 to 20)
#    0.000    2.500    0.000    1.500    0.000    2.000 
#    0.000   20.000    0.000    0.000    0.000    0.000 
#    0.000    0.000    0.000    0.000    0.000    0.000 
#
# Total GULP energy -179014.186641 kJ/mol
# GULP energy per Si atom -5594.193333 kJ/mol
# Density = 2.354539 g / cm^3
# Si number density = 23.599099 Si / 1000 Ang^3
#
#
#
# Elastic Constant Matrix: (Units=GPa)
#
#
# Indices 1 2 3 4 5 6 
#
# 1 244.3728 67.0539 -16.8619 0.0000 0.0000 0.0000
# 2 67.0539 88.5391 3.4850 0.0000 0.0000 0.0000
# 3 -16.8619 3.4850 85.3276 0.0000 0.0000 0.0000
# 4 0.0000 0.0000 0.0000 33.9910 0.0000 0.0000
# 5 0.0000 0.0000 0.0000 0.0000 124.3147 0.0000
# 6 0.0000 0.0000 0.0000 0.0000 0.0000 57.0534
#
#
#
# Elastic Compliance Matrix: (Units=1/GPa)
#
#
# Indices 1 2 3 4 5 6 
#
# 1 0.005287 -0.004052 0.001210 0.000000 0.000000 0.000000
# 2 -0.004052 0.014418 -0.001390 0.000000 0.000000 0.000000
# 3 0.001210 -0.001390 0.012015 0.000000 0.000000 0.000000
# 4 0.000000 0.000000 0.000000 0.029420 0.000000 0.000000
# 5 0.000000 0.000000 0.000000 0.000000 0.008044 0.000000
# 6 0.000000 0.000000 0.000000 0.000000 0.000000 0.017527
#
#
# Mechanical properties :
#
#
# Convention : Reuss Voigt Hill
#
# Bulk Modulus (GPa) = 42.99539 58.39927 50.69733
# Shear Modulus (GPa) = 48.57798 67.37598 57.97698
#
# Velocity S-wave (km/s) = 4.54196 5.34904 4.96193
# Velocity P-wave (km/s) = 6.76494 7.93409 7.37273
#
# Compressibility (1/GPa) = 0.02325831
#
# Stress axis : x y z
#
# Youngs Moduli (GPa) = 189.12628 69.35820 83.22596
#
# Poissons Ratio (x) = 0.28104 -0.10073
# Poissons Ratio (y) = 0.76635 0.11565
# Poissons Ratio (z) = -0.22891 0.09638
#
# Static dielectric constant tensor:
#      x y z
#    x 1.960650 0.000000 0.000000 
#    y 0.000000 1.812210 0.000000 
#    z 0.000000 0.000000 1.903610 
# 
# From -- ./inp_files/10065.got.cif
#   From: 2010.05.17/outbox.cif.g08.bks.cpg/sg56_6_cif.got.tgz:10065.got - 2010.06.03 13:42:01.
