data_PCOD9430165
_publ_section_title
;
Structure prediction by ZEFSAII (Michael W. Deem and Ramdas Pophale) SiO2 
 PCOD9430165
Probable space group: P C C N
;
_chemical_formula_sum "Si O2"
_cell_formula_units_Z 52
_cell_length_a 5.554156
_cell_length_b 19.863278
_cell_length_c 23.204415
_cell_angle_alpha 90.000000
_cell_angle_beta 90.000000
_cell_angle_gamma 90.000000
_cell_volume 2559.997956
_symmetry_space_group_name_H-M "P C C N"
_symmetry_group_IT_number 56
_symmetry_cell_setting 'orthorhombic'
loop_
_space_group_symop_operation_xyz
x,y,z
1/2-x,1/2-y,z
1/2+x,-y,1/2-z
-x,1/2+y,1/2-z
-x,-y,-z
1/2+x,1/2+y,-z
1/2-x,y,1/2+z
x,1/2-y,1/2+z
loop_
_atom_site_type_symbol
_atom_site_label
_atom_site_fract_x
_atom_site_fract_y
_atom_site_fract_z
Si Si1 0.864467 0.175622 0.709279
Si Si2 0.105759 0.572625 0.370314
Si Si3 0.043714 0.859589 0.685253
Si Si4 0.941213 0.954026 0.585910
Si Si5 0.313192 0.462880 0.240143
Si Si6 0.750000 0.750000 0.731634
Si Si7 0.684059 0.946284 0.474066
O O1 0.750000 0.250000 0.700165
O O2 0.789755 0.126267 0.657751
O O3 0.755642 0.141615 0.767564
O O4 0.134349 0.195937 0.724801
O O5 0.241816 0.501662 0.382633
O O6 0.898759 0.560003 0.322852
O O7 0.973831 0.596150 0.428891
O O8 0.833306 0.904019 0.713728
O O9 0.074655 0.898709 0.625625
O O10 0.945875 0.783757 0.689649
O O11 0.820024 0.917977 0.530214
O O12 0.125671 0.009558 0.561874
O O13 0.043843 0.491249 0.240474
O O14 0.500000 0.000000 0.500000
#
# Coordination Sequence:
#
# PCOD9430165 Si02
#       7
#     8   8   8   8   8   4   8
#     4   9  21  37  53  83 120 161 199 242 302 374
#     4  10  20  32  57  84 118 154 199 249 305 366
#     4  10  21  34  57  82 119 157 199 248 302 367
#     4  10  19  35  57  84 116 154 198 256 308 366
#     4  11  22  33  54  91 125 154 194 247 310 372
#     4  10  22  38  54  80 118 164 204 240 304 382
#     4   9  20  35  53  83 115 154 199 249 313 361
#
# _framework density 20.312515000000001
#
# number of rings (size 3 to 8) (size 9 to 14) (size 15 to 20)
#    0.000    2.154    1.538    0.923    4.308    4.923 
#    0.000    0.000    0.000    5.538    0.000    0.000 
#    0.000    0.000    0.000    0.000    0.000    0.000 
#
# Total GULP energy -289544.327354 kJ/mol
# GULP energy per Si atom -5568.160141 kJ/mol
# Density = 2.026628 g / cm^3
# Si number density = 20.312515 Si / 1000 Ang^3
#
#
#
# Elastic Constant Matrix: (Units=GPa)
#
#
# Indices 1 2 3 4 5 6 
#
# 1 62.5224 24.3236 20.1685 0.0000 0.0000 0.0000
# 2 24.3236 56.2217 39.1403 0.0000 0.0000 0.0000
# 3 20.1685 39.1403 117.2788 0.0000 0.0000 0.0000
# 4 0.0000 0.0000 0.0000 22.3552 0.0000 0.0000
# 5 0.0000 0.0000 0.0000 0.0000 32.7493 0.0000
# 6 0.0000 0.0000 0.0000 0.0000 0.0000 42.1938
#
#
#
# Elastic Compliance Matrix: (Units=1/GPa)
#
#
# Indices 1 2 3 4 5 6 
#
# 1 0.019274 -0.007857 -0.000693 0.000000 0.000000 0.000000
# 2 -0.007857 0.026373 -0.007450 0.000000 0.000000 0.000000
# 3 -0.000693 -0.007450 0.011132 0.000000 0.000000 0.000000
# 4 0.000000 0.000000 0.000000 0.044732 0.000000 0.000000
# 5 0.000000 0.000000 0.000000 0.000000 0.030535 0.000000
# 6 0.000000 0.000000 0.000000 0.000000 0.000000 0.023700
#
#
# Mechanical properties :
#
#
# Convention : Reuss Voigt Hill
#
# Bulk Modulus (GPa) = 40.35522 44.80974 42.58248
# Shear Modulus (GPa) = 25.50947 29.61902 27.56424
#
# Velocity S-wave (km/s) = 3.54764 3.82274 3.68776
# Velocity P-wave (km/s) = 6.05734 6.44922 6.25635
#
# Compressibility (1/GPa) = 0.02477994
#
# Stress axis : x y z
#
# Youngs Moduli (GPa) = 51.88285 37.91817 89.82899
#
# Poissons Ratio (x) = 0.29791 0.06221
# Poissons Ratio (y) = 0.40762 0.66926
# Poissons Ratio (z) = 0.03593 0.28251
#
# Static dielectric constant tensor:
#      x y z
#    x 1.835340 0.000000 0.000000 
#    y 0.000000 1.807890 0.000000 
#    z 0.000000 0.000000 1.797460 
# 
# From -- ./inp_files/17549.got.cif
#   From: 2010.05.17/outbox.cif.g08.bks.cpg/sg56_9_cif.got.tgz:17549.got - 2010.06.03 13:42:01.
