data_PCOD9430552
_publ_section_title
;
Structure prediction by ZEFSAII (Michael W. Deem and Ramdas Pophale) SiO2 
 PCOD9430552
Probable space group: P C C N
;
_chemical_formula_sum "Si O2"
_cell_formula_units_Z 60
_cell_length_a 28.147161
_cell_length_b 6.516551
_cell_length_c 16.292161
_cell_angle_alpha 90.000000
_cell_angle_beta 90.000000
_cell_angle_gamma 90.000000
_cell_volume 2988.347437
_symmetry_space_group_name_H-M "P C C N"
_symmetry_group_IT_number 56
_symmetry_cell_setting 'orthorhombic'
loop_
_space_group_symop_operation_xyz
x,y,z
1/2-x,1/2-y,z
1/2+x,-y,1/2-z
-x,1/2+y,1/2-z
-x,-y,-z
1/2+x,1/2+y,-z
1/2-x,y,1/2+z
x,1/2-y,1/2+z
loop_
_atom_site_type_symbol
_atom_site_label
_atom_site_fract_x
_atom_site_fract_y
_atom_site_fract_z
Si Si1 0.374923 0.670969 0.137897
Si Si2 0.750000 0.250000 0.995518
Si Si3 0.422342 0.880880 0.909121
Si Si4 0.294567 0.125251 0.607637
Si Si5 0.069747 0.592972 0.280433
Si Si6 0.334730 0.503646 0.505251
Si Si7 0.469893 0.836904 0.549412
Si Si8 0.470964 0.184977 0.794377
O O1 0.336959 0.490889 0.156173
O O2 0.398114 0.789341 0.214501
O O3 0.351317 0.846435 0.079964
O O4 0.419727 0.584424 0.085917
O O5 0.729148 0.435198 0.940750
O O6 0.792864 0.367342 0.039475
O O7 0.412428 0.655568 0.870900
O O8 0.444398 0.989567 0.830175
O O9 0.378293 0.007123 0.943135
O O10 0.456549 0.843685 0.986040
O O11 0.250000 0.250000 0.648007
O O12 0.317641 0.289859 0.544320
O O13 0.067520 0.349542 0.265206
O O14 0.012788 0.638090 0.269542
O O15 0.500991 0.764306 0.625584
O O16 0.500000 0.000000 0.500000
#
# Coordination Sequence:
#
# PCOD9430552 Si02
#       8
#     8   4   8   8   8   8   8   8
#     4   9  21  35  53  84 113 146 196 233 282 345
#     4   8  16  34  60  86 116 134 174 232 298 356
#     4  11  22  35  56  84 113 150 202 236 285 340
#     4   9  17  34  61  87 112 141 179 241 302 347
#     4  11  22  38  53  76 114 160 196 234 278 336
#     4   9  19  34  57  89 111 141 182 237 289 345
#     4  10  20  35  54  80 113 153 189 243 285 330
#     4  11  22  37  53  74 113 162 196 236 283 334
#
# _framework density 20.077987
#
# number of rings (size 3 to 8) (size 9 to 14) (size 15 to 20)
#    0.000    2.133    2.667    0.400    1.867    2.133 
#    0.000    0.000    0.000    7.200    0.000    0.000 
#    0.000    0.000    0.000    0.000    0.000    0.000 
#
# Total GULP energy -334120.755625 kJ/mol
# GULP energy per Si atom -5568.679260 kJ/mol
# Density = 2.003229 g / cm^3
# Si number density = 20.077987 Si / 1000 Ang^3
#
#
#
# Elastic Constant Matrix: (Units=GPa)
#
#
# Indices 1 2 3 4 5 6 
#
# 1 90.5043 43.0959 15.6089 0.0000 0.0000 0.0000
# 2 43.0959 80.2070 9.3808 0.0000 0.0000 0.0000
# 3 15.6089 9.3808 46.2320 0.0000 0.0000 0.0000
# 4 0.0000 0.0000 0.0000 16.2484 0.0000 0.0000
# 5 0.0000 0.0000 0.0000 0.0000 9.9627 0.0000
# 6 0.0000 0.0000 0.0000 0.0000 0.0000 36.8912
#
#
#
# Elastic Compliance Matrix: (Units=1/GPa)
#
#
# Indices 1 2 3 4 5 6 
#
# 1 0.015415 -0.007860 -0.003609 0.000000 0.000000 0.000000
# 2 -0.007860 0.016779 -0.000751 0.000000 0.000000 0.000000
# 3 -0.003609 -0.000751 0.023001 0.000000 0.000000 0.000000
# 4 0.000000 0.000000 0.000000 0.061545 0.000000 0.000000
# 5 0.000000 0.000000 0.000000 0.000000 0.100375 0.000000
# 6 0.000000 0.000000 0.000000 0.000000 0.000000 0.027107
#
#
# Mechanical properties :
#
#
# Convention : Reuss Voigt Hill
#
# Bulk Modulus (GPa) = 32.51643 39.23493 35.87568
# Shear Modulus (GPa) = 17.92676 22.54428 20.23552
#
# Velocity S-wave (km/s) = 2.99131 3.35451 3.17810
# Velocity P-wave (km/s) = 5.30668 5.88110 5.60126
#
# Compressibility (1/GPa) = 0.03075369
#
# Stress axis : x y z
#
# Youngs Moduli (GPa) = 64.87382 59.59862 43.47637
#
# Poissons Ratio (x) = 0.46846 0.15692
# Poissons Ratio (y) = 0.50992 0.03264
# Poissons Ratio (z) = 0.23415 0.04475
#
# Static dielectric constant tensor:
#      x y z
#    x 1.776270 0.000000 0.000000 
#    y 0.000000 1.790980 0.000000 
#    z 0.000000 0.000000 1.679730 
# 
# From -- ./inp_files/14171.got.cif
#   From: 2010.05.17/outbox.cif.g08.bks.cpg/sg56_8_cif.got.tgz:14171.got - 2010.06.03 13:42:01.
