data_PCOD9430161
_publ_section_title
;
Structure prediction by ZEFSAII (Michael W. Deem and Ramdas Pophale) SiO2 
 PCOD9430161
Probable space group: P C C N
;
_chemical_formula_sum "Si O2"
_cell_formula_units_Z 52
_cell_length_a 21.378029
_cell_length_b 9.084336
_cell_length_c 13.492508
_cell_angle_alpha 90.000000
_cell_angle_beta 90.000000
_cell_angle_gamma 90.000000
_cell_volume 2620.315194
_symmetry_space_group_name_H-M "P C C N"
_symmetry_group_IT_number 56
_symmetry_cell_setting 'orthorhombic'
loop_
_space_group_symop_operation_xyz
x,y,z
1/2-x,1/2-y,z
1/2+x,-y,1/2-z
-x,1/2+y,1/2-z
-x,-y,-z
1/2+x,1/2+y,-z
1/2-x,y,1/2+z
x,1/2-y,1/2+z
loop_
_atom_site_type_symbol
_atom_site_label
_atom_site_fract_x
_atom_site_fract_y
_atom_site_fract_z
Si Si1 0.337202 0.051627 0.471875
Si Si2 0.964918 0.707100 0.464511
Si Si3 0.051902 0.503685 0.133522
Si Si4 0.750000 0.750000 0.395921
Si Si5 0.591646 0.319677 0.916736
Si Si6 0.648864 0.837321 0.738150
Si Si7 0.433145 0.063803 0.739387
O O1 0.402181 0.139599 0.490444
O O2 0.284658 0.129130 0.537569
O O3 0.323529 0.081860 0.357359
O O4 0.354920 0.890236 0.513405
O O5 0.967707 0.646439 0.352207
O O6 0.025087 0.661955 0.526890
O O7 0.956076 0.881379 0.451262
O O8 0.091332 0.646349 0.102537
O O9 0.089567 0.428412 0.223343
O O10 0.983743 0.542705 0.175588
O O11 0.801256 0.825229 0.325755
O O12 0.590058 0.414074 0.814472
O O13 0.622442 0.670781 0.724082
#
# Coordination Sequence:
#
# PCOD9430161 Si02
#       7
#     8   8   8   4   8   8   8
#     4  11  22  40  65  89 118 169 213 263 311 369
#     4  10  19  35  56  93 129 162 204 253 317 382
#     4  11  20  34  58  94 135 162 195 262 321 381
#     4  12  22  46  66  86 120 164 228 254 300 388
#     4  11  20  34  59  91 131 159 200 261 320 377
#     4  11  23  41  65  91 120 166 214 258 310 374
#     4  10  19  35  57  89 127 162 204 255 313 371
#
# _framework density 19.844942
#
# number of rings (size 3 to 8) (size 9 to 14) (size 15 to 20)
#    0.000    1.231    4.615    7.385    0.000    0.000 
#    0.000    0.769    0.000    1.846    0.000    0.000 
#    0.000    0.000    0.000    0.000    0.000    0.000 
#
# Total GULP energy -290366.783751 kJ/mol
# GULP energy per Si atom -5583.976611 kJ/mol
# Density = 1.979977 g / cm^3
# Si number density = 19.844942 Si / 1000 Ang^3
#
#
#
# Elastic Constant Matrix: (Units=GPa)
#
#
# Indices 1 2 3 4 5 6 
#
# 1 51.3609 0.6785 6.3325 0.0000 0.0000 0.0000
# 2 0.6785 107.9257 11.0482 0.0000 0.0000 0.0000
# 3 6.3325 11.0482 72.0697 0.0000 0.0000 0.0000
# 4 0.0000 0.0000 0.0000 11.4321 0.0000 0.0000
# 5 0.0000 0.0000 0.0000 0.0000 29.3218 0.0000
# 6 0.0000 0.0000 0.0000 0.0000 0.0000 25.2946
#
#
#
# Elastic Compliance Matrix: (Units=1/GPa)
#
#
# Indices 1 2 3 4 5 6 
#
# 1 0.019684 0.000054 -0.001738 0.000000 0.000000 0.000000
# 2 0.000054 0.009414 -0.001448 0.000000 0.000000 0.000000
# 3 -0.001738 -0.001448 0.014250 0.000000 0.000000 0.000000
# 4 0.000000 0.000000 0.000000 0.087473 0.000000 0.000000
# 5 0.000000 0.000000 0.000000 0.000000 0.034104 0.000000
# 6 0.000000 0.000000 0.000000 0.000000 0.000000 0.039534
#
#
# Mechanical properties :
#
#
# Convention : Reuss Voigt Hill
#
# Bulk Modulus (GPa) = 26.96566 29.71942 28.34254
# Shear Modulus (GPa) = 22.41317 27.42950 24.92134
#
# Velocity S-wave (km/s) = 3.36432 3.72182 3.54758
# Velocity P-wave (km/s) = 5.35810 5.78598 5.57614
#
# Compressibility (1/GPa) = 0.03708420
#
# Stress axis : x y z
#
# Youngs Moduli (GPa) = 50.80370 106.23035 70.17491
#
# Poissons Ratio (x) = -0.00575 0.12195
# Poissons Ratio (y) = -0.00275 0.10160
# Poissons Ratio (z) = 0.08829 0.15380
#
# Static dielectric constant tensor:
#      x y z
#    x 1.699970 0.000000 0.000000 
#    y 0.000000 1.760350 0.000000 
#    z 0.000000 0.000000 1.771340 
# 
# From -- ./inp_files/10955.got.cif
#   From: 2010.05.17/outbox.cif.g08.bks.cpg/sg56_6_cif.got.tgz:10955.got - 2010.06.03 13:42:01.
