data_PCOD9430535
_publ_section_title
;
Structure prediction by ZEFSAII (Michael W. Deem and Ramdas Pophale) SiO2 
 PCOD9430535
Probable space group: P C C N
;
_chemical_formula_sum "Si O2"
_cell_formula_units_Z 48
_cell_length_a 14.708552
_cell_length_b 8.405777
_cell_length_c 18.096027
_cell_angle_alpha 90.000000
_cell_angle_beta 90.000000
_cell_angle_gamma 90.000000
_cell_volume 2237.335018
_symmetry_space_group_name_H-M "P C C N"
_symmetry_group_IT_number 56
_symmetry_cell_setting 'orthorhombic'
loop_
_space_group_symop_operation_xyz
x,y,z
1/2-x,1/2-y,z
1/2+x,-y,1/2-z
-x,1/2+y,1/2-z
-x,-y,-z
1/2+x,1/2+y,-z
1/2-x,y,1/2+z
x,1/2-y,1/2+z
loop_
_atom_site_type_symbol
_atom_site_label
_atom_site_fract_x
_atom_site_fract_y
_atom_site_fract_z
Si Si1 0.078659 0.701863 0.174495
Si Si2 0.766969 0.490767 0.901612
Si Si3 0.609748 0.712372 0.896782
Si Si4 0.492143 0.817951 0.524100
Si Si5 0.672228 0.135659 0.055531
Si Si6 0.042291 0.892364 0.315552
O O1 0.175276 0.646306 0.139782
O O2 0.086978 0.821197 0.242524
O O3 0.017684 0.780542 0.109666
O O4 0.023656 0.542114 0.197397
O O5 0.662272 0.544407 0.889177
O O6 0.822128 0.646715 0.877690
O O7 0.780303 0.462305 0.989457
O O8 0.520016 0.748439 0.849179
O O9 0.579463 0.750319 0.981256
O O10 0.403906 0.738527 0.487317
O O11 0.500000 0.000000 0.500000
O O12 0.750000 0.250000 0.087288
O O13 0.616562 0.058895 0.122637
#
# Coordination Sequence:
#
# PCOD9430535 Si02
#       6
#     8   8   8   8   8   8
#     4  10  22  39  60  88 124 167 205 253 316 382
#     4   9  18  37  61  86 116 155 207 255 305 360
#     4   9  18  35  63  86 114 156 206 257 302 365
#     4  10  20  34  61  89 114 153 210 255 304 367
#     4  10  20  36  55  86 121 152 201 263 306 365
#     4  10  22  39  59  86 129 167 204 254 321 379
#
# _framework density 21.454096
#
# number of rings (size 3 to 8) (size 9 to 14) (size 15 to 20)
#    0.000    2.333    0.000    2.000    4.667    4.000 
#    3.000    0.833    0.000    2.000    0.000    0.000 
#    0.000    0.000    0.000    0.000    0.000    0.000 
#
# Total GULP energy -267568.366497 kJ/mol
# GULP energy per Si atom -5574.340969 kJ/mol
# Density = 2.140527 g / cm^3
# Si number density = 21.454096 Si / 1000 Ang^3
#
#
#
# Elastic Constant Matrix: (Units=GPa)
#
#
# Indices 1 2 3 4 5 6 
#
# 1 75.0804 17.9610 24.8131 0.0000 0.0000 0.0000
# 2 17.9610 66.3705 36.0048 0.0000 0.0000 0.0000
# 3 24.8131 36.0048 118.1485 0.0000 0.0000 0.0000
# 4 0.0000 0.0000 0.0000 32.7859 0.0000 0.0000
# 5 0.0000 0.0000 0.0000 0.0000 10.5031 0.0000
# 6 0.0000 0.0000 0.0000 0.0000 0.0000 42.9230
#
#
#
# Elastic Compliance Matrix: (Units=1/GPa)
#
#
# Indices 1 2 3 4 5 6 
#
# 1 0.014724 -0.002764 -0.002250 0.000000 0.000000 0.000000
# 2 -0.002764 0.018570 -0.005079 0.000000 0.000000 0.000000
# 3 -0.002250 -0.005079 0.010484 0.000000 0.000000 0.000000
# 4 0.000000 0.000000 0.000000 0.030501 0.000000 0.000000
# 5 0.000000 0.000000 0.000000 0.000000 0.095210 0.000000
# 6 0.000000 0.000000 0.000000 0.000000 0.000000 0.023298
#
#
# Mechanical properties :
#
#
# Convention : Reuss Voigt Hill
#
# Bulk Modulus (GPa) = 42.38558 46.35079 44.36819
# Shear Modulus (GPa) = 22.64131 29.29710 25.96920
#
# Velocity S-wave (km/s) = 3.25212 3.69937 3.48293
# Velocity P-wave (km/s) = 5.82246 6.31654 6.07452
#
# Compressibility (1/GPa) = 0.02359293
#
# Stress axis : x y z
#
# Youngs Moduli (GPa) = 67.91710 53.85046 95.38255
#
# Poissons Ratio (x) = 0.14884 0.21461
# Poissons Ratio (y) = 0.18772 0.48441
# Poissons Ratio (z) = 0.15281 0.27348
#
# Static dielectric constant tensor:
#      x y z
#    x 1.831850 0.000000 0.000000 
#    y 0.000000 1.862860 0.000000 
#    z 0.000000 0.000000 1.822620 
# 
# From -- ./inp_files/16153.got.cif
#   From: 2010.05.17/outbox.cif.g08.bks.cpg/sg56_9_cif.got.tgz:16153.got - 2010.06.03 13:42:01.
