data_PCOD9430637
_publ_section_title
;
Structure prediction by ZEFSAII (Michael W. Deem and Ramdas Pophale) SiO2 
 PCOD9430637
Probable space group: P C C N
;
_chemical_formula_sum "Si O2"
_cell_formula_units_Z 48
_cell_length_a 24.082570
_cell_length_b 5.486522
_cell_length_c 19.391282
_cell_angle_alpha 90.000000
_cell_angle_beta 90.000000
_cell_angle_gamma 90.000000
_cell_volume 2562.161367
_symmetry_space_group_name_H-M "P C C N"
_symmetry_group_IT_number 56
_symmetry_cell_setting 'orthorhombic'
loop_
_space_group_symop_operation_xyz
x,y,z
1/2-x,1/2-y,z
1/2+x,-y,1/2-z
-x,1/2+y,1/2-z
-x,-y,-z
1/2+x,1/2+y,-z
1/2-x,y,1/2+z
x,1/2-y,1/2+z
loop_
_atom_site_type_symbol
_atom_site_label
_atom_site_fract_x
_atom_site_fract_y
_atom_site_fract_z
Si Si1 0.312832 0.768967 0.622064
Si Si2 0.924550 0.712325 0.041049
Si Si3 0.508960 0.671244 0.420071
Si Si4 0.965760 0.552414 0.680988
Si Si5 0.425247 0.638016 0.684808
Si Si6 0.187724 0.268790 0.033104
O O1 0.250000 0.750000 0.651738
O O2 0.364932 0.750771 0.673365
O O3 0.316501 0.523786 0.574999
O O4 0.318608 0.024796 0.580426
O O5 0.956280 0.452731 0.042637
O O6 0.937547 0.813254 0.116343
O O7 0.860578 0.721867 0.023042
O O8 0.956743 0.831457 0.975240
O O9 0.554514 0.492383 0.385691
O O10 0.482726 0.799870 0.354139
O O11 0.927917 0.533973 0.748195
O O12 0.024532 0.675323 0.698746
O O13 0.250000 0.250000 0.004071
#
# Coordination Sequence:
#
# PCOD9430637 Si02
#       6
#     8   8   8   8   8   8
#     4  10  22  39  64  90 117 159 211 255 297 355
#     4  10  21  34  58  87 118 151 200 250 303 363
#     4  10  20  36  55  86 118 152 196 242 306 359
#     4  11  22  34  56  87 120 161 196 246 313 367
#     4  11  21  36  59  84 124 160 205 250 304 368
#     4  10  21  39  64  90 118 158 207 258 303 357
#
# _framework density 18.734183999999999
#
# number of rings (size 3 to 8) (size 9 to 14) (size 15 to 20)
#    0.000    1.667    3.333    1.500    2.333    0.000 
#    0.000    0.000    3.667    0.000    0.000    0.000 
#    0.000    0.000    0.000    0.000    0.000    0.000 
#
# Total GULP energy -267305.765223 kJ/mol
# GULP energy per Si atom -5568.870109 kJ/mol
# Density = 1.869154 g / cm^3
# Si number density = 18.734184 Si / 1000 Ang^3
#
#
#
# Elastic Constant Matrix: (Units=GPa)
#
#
# Indices 1 2 3 4 5 6 
#
# 1 175.6850 22.2995 65.4779 0.0000 0.0000 0.0000
# 2 22.2995 50.3197 12.9575 0.0000 0.0000 0.0000
# 3 65.4779 12.9575 105.5518 0.0000 0.0000 0.0000
# 4 0.0000 0.0000 0.0000 10.3576 0.0000 0.0000
# 5 0.0000 0.0000 0.0000 0.0000 -5.1687 0.0000
# 6 0.0000 0.0000 0.0000 0.0000 0.0000 14.9841
#
#
#
# Elastic Compliance Matrix: (Units=1/GPa)
#
#
# Indices 1 2 3 4 5 6 
#
# 1 0.007640 -0.002236 -0.004465 0.000000 0.000000 0.000000
# 2 -0.002236 0.021176 -0.001213 0.000000 0.000000 0.000000
# 3 -0.004465 -0.001213 0.012393 0.000000 0.000000 0.000000
# 4 0.000000 0.000000 0.000000 0.096548 0.000000 0.000000
# 5 0.000000 0.000000 0.000000 0.000000 -0.193472 0.000000
# 6 0.000000 0.000000 0.000000 0.000000 0.000000 0.066737
#
#
# Mechanical properties :
#
#
# Convention : Reuss Voigt Hill
#
# Bulk Modulus (GPa) = 39.39815 59.22515 49.31165
# Shear Modulus (GPa) = 141.60751 19.42271 80.51511
#
# Velocity S-wave (km/s) = 8.70355 3.22336 6.56285
# Velocity P-wave (km/s) = 11.04890 6.74799 9.15461
#
# Compressibility (1/GPa) = 0.02538190
#
# Stress axis : x y z
#
# Youngs Moduli (GPa) = 130.89263 47.22321 80.69351
#
# Poissons Ratio (x) = 0.10559 0.36028
# Poissons Ratio (y) = 0.29267 0.09784
# Poissons Ratio (z) = 0.58441 0.05726
#
# Static dielectric constant tensor:
#      x y z
#    x 1.636260 0.000000 0.000000 
#    y 0.000000 1.784530 0.000000 
#    z 0.000000 0.000000 1.727740 
# 
# From -- ./inp_files/16923.got.cif
#   From: 2010.05.17/outbox.cif.g08.bks.cpg/sg56_9_cif.got.tgz:16923.got - 2010.06.03 13:42:01.
