data_PCOD9430448
_publ_section_title
;
Structure prediction by ZEFSAII (Michael W. Deem and Ramdas Pophale) SiO2 
 PCOD9430448
Probable space group: P C C N
;
_chemical_formula_sum "Si O2"
_cell_formula_units_Z 60
_cell_length_a 17.551389
_cell_length_b 18.941746
_cell_length_c 8.843712
_cell_angle_alpha 90.000000
_cell_angle_beta 90.000000
_cell_angle_gamma 90.000000
_cell_volume 2940.127008
_symmetry_space_group_name_H-M "P C C N"
_symmetry_group_IT_number 56
_symmetry_cell_setting 'orthorhombic'
loop_
_space_group_symop_operation_xyz
x,y,z
1/2-x,1/2-y,z
1/2+x,-y,1/2-z
-x,1/2+y,1/2-z
-x,-y,-z
1/2+x,1/2+y,-z
1/2-x,y,1/2+z
x,1/2-y,1/2+z
loop_
_atom_site_type_symbol
_atom_site_label
_atom_site_fract_x
_atom_site_fract_y
_atom_site_fract_z
Si Si1 0.194770 0.493715 0.465649
Si Si2 0.250000 0.250000 0.205240
Si Si3 0.333104 0.389447 0.213517
Si Si4 0.358049 0.528960 0.414983
Si Si5 0.062331 0.573471 0.639918
Si Si6 0.405959 0.309535 0.662965
Si Si7 0.456482 0.315608 0.003289
Si Si8 0.085569 0.468099 0.202828
O O1 0.211972 0.428420 0.576833
O O2 0.269509 0.540793 0.450577
O O3 0.124450 0.534322 0.540346
O O4 0.161113 0.469357 0.305914
O O5 0.285916 0.322223 0.276054
O O6 0.176646 0.279975 0.117164
O O7 0.353963 0.451661 0.330561
O O8 0.407700 0.360213 0.125507
O O9 0.394772 0.583745 0.299208
O O10 0.406067 0.522900 0.567968
O O11 0.028914 0.640266 0.552263
O O12 0.988426 0.527130 0.689789
O O13 0.466868 0.259525 0.582276
O O14 0.418721 0.390721 0.629591
O O15 0.410728 0.304500 0.845794
#
# Coordination Sequence:
#
# PCOD9430448 Si02
#       8
#     8   4   8   8   8   8   8   8
#     4  11  20  38  59  85 118 161 200 256 303 352
#     4  10  20  32  48  80 116 170 194 224 272 346
#     4  10  21  35  55  77 124 163 198 233 284 338
#     4  11  23  34  58  90 118 155 204 258 297 358
#     4  10  22  41  60  80 121 159 201 250 310 356
#     4  10  21  34  53  79 121 152 208 235 281 354
#     4  10  22  39  55  83 110 167 198 236 288 353
#     4  11  21  37  55  88 117 158 206 247 296 362
#
# _framework density 20.407281999999999
#
# number of rings (size 3 to 8) (size 9 to 14) (size 15 to 20)
#    0.000    1.600    2.667    4.000    5.600    2.133 
#    0.000    0.000    0.000    0.000    0.000   11.200 
#    0.000    0.000    0.000    0.000    0.000    0.000 
#
# Total GULP energy -334704.148558 kJ/mol
# GULP energy per Si atom -5578.402476 kJ/mol
# Density = 2.036083 g / cm^3
# Si number density = 20.407282 Si / 1000 Ang^3
#
#
#
# Elastic Constant Matrix: (Units=GPa)
#
#
# Indices 1 2 3 4 5 6 
#
# 1 105.6971 31.7269 21.7469 0.0000 0.0000 0.0000
# 2 31.7269 54.1298 23.0173 0.0000 0.0000 0.0000
# 3 21.7469 23.0173 76.9650 0.0000 0.0000 0.0000
# 4 0.0000 0.0000 0.0000 15.5659 0.0000 0.0000
# 5 0.0000 0.0000 0.0000 0.0000 20.5554 0.0000
# 6 0.0000 0.0000 0.0000 0.0000 0.0000 31.1208
#
#
#
# Elastic Compliance Matrix: (Units=1/GPa)
#
#
# Indices 1 2 3 4 5 6 
#
# 1 0.011616 -0.006202 -0.001428 0.000000 0.000000 0.000000
# 2 -0.006202 0.024477 -0.005568 0.000000 0.000000 0.000000
# 3 -0.001428 -0.005568 0.015061 0.000000 0.000000 0.000000
# 4 0.000000 0.000000 0.000000 0.064243 0.000000 0.000000
# 5 0.000000 0.000000 0.000000 0.000000 0.048649 0.000000
# 6 0.000000 0.000000 0.000000 0.000000 0.000000 0.032133
#
#
# Mechanical properties :
#
#
# Convention : Reuss Voigt Hill
#
# Bulk Modulus (GPa) = 40.38695 43.30821 41.84758
# Shear Modulus (GPa) = 21.66131 24.13514 22.89822
#
# Velocity S-wave (km/s) = 3.26152 3.44273 3.35335
# Velocity P-wave (km/s) = 5.83239 6.08861 5.96188
#
# Compressibility (1/GPa) = 0.02476047
#
# Stress axis : x y z
#
# Youngs Moduli (GPa) = 86.08650 40.85548 66.39499
#
# Poissons Ratio (x) = 0.25337 0.09478
# Poissons Ratio (y) = 0.53387 0.36967
# Poissons Ratio (z) = 0.12290 0.22747
#
# Static dielectric constant tensor:
#      x y z
#    x 1.757640 0.000000 0.000000 
#    y 0.000000 1.734780 0.000000 
#    z 0.000000 0.000000 1.798460 
# 
# From -- ./inp_files/3674.got.cif
#   From: 2010.05.17/outbox.cif.g08.bks.cpg/sg56_2_cif.got.tgz:3674.got - 2010.06.03 13:42:01.
