data_PCOD9430652
_publ_section_title
;
Structure prediction by ZEFSAII (Michael W. Deem and Ramdas Pophale) SiO2 
 PCOD9430652
Probable space group: P C C N
;
_chemical_formula_sum "Si O2"
_cell_formula_units_Z 40
_cell_length_a 19.263829
_cell_length_b 5.006340
_cell_length_c 18.369880
_cell_angle_alpha 90.000000
_cell_angle_beta 90.000000
_cell_angle_gamma 90.000000
_cell_volume 1771.614698
_symmetry_space_group_name_H-M "P C C N"
_symmetry_group_IT_number 56
_symmetry_cell_setting 'orthorhombic'
loop_
_space_group_symop_operation_xyz
x,y,z
1/2-x,1/2-y,z
1/2+x,-y,1/2-z
-x,1/2+y,1/2-z
-x,-y,-z
1/2+x,1/2+y,-z
1/2-x,y,1/2+z
x,1/2-y,1/2+z
loop_
_atom_site_type_symbol
_atom_site_label
_atom_site_fract_x
_atom_site_fract_y
_atom_site_fract_z
Si Si1 0.250000 0.250000 0.070708
Si Si2 0.540909 0.217559 0.073094
Si Si3 0.457991 0.277150 0.823242
Si Si4 0.607244 0.426960 0.790733
Si Si5 0.250000 0.750000 0.178418
Si Si6 0.393101 0.079076 0.540066
O O1 0.237429 0.499961 0.124571
O O2 0.180757 0.208908 0.023296
O O3 0.548229 0.438500 0.137648
O O4 0.462889 0.243191 0.040630
O O5 0.550841 0.937730 0.112133
O O6 0.591469 0.324701 0.010332
O O7 0.536073 0.257206 0.790299
O O8 0.406505 0.181876 0.760105
O O9 0.680670 0.292551 0.774328
O O10 0.613584 0.501228 0.875452
#
# Coordination Sequence:
#
# PCOD9430652 Si02
#       6
#     4   8   8   8   4   8
#     4  10  20  36  58  86 114 152 196 246 292 350
#     4  10  22  37  56  85 116 149 188 242 291 344
#     4  11  22  37  59  85 117 151 193 239 295 346
#     4  10  21  39  62  88 116 157 201 247 293 354
#     4  10  22  36  58  88 118 148 198 250 296 342
#     4   9  20  37  59  83 113 149 195 237 287 344
#
# _framework density 22.578275000000001
#
# number of rings (size 3 to 8) (size 9 to 14) (size 15 to 20)
#    0.000    2.000    0.000    3.600    0.000   15.200 
#    0.000    2.000    0.000    0.000    0.000    0.000 
#    0.000    0.000    0.000    0.000    0.000    0.000 
#
# Total GULP energy -223639.305837 kJ/mol
# GULP energy per Si atom -5590.982646 kJ/mol
# Density = 2.252689 g / cm^3
# Si number density = 22.578275 Si / 1000 Ang^3
#
#
#
# Elastic Constant Matrix: (Units=GPa)
#
#
# Indices 1 2 3 4 5 6 
#
# 1 149.5004 9.0614 20.5261 0.0000 0.0000 0.0000
# 2 9.0614 71.6828 18.7240 0.0000 0.0000 0.0000
# 3 20.5261 18.7240 109.5679 0.0000 0.0000 0.0000
# 4 0.0000 0.0000 0.0000 37.8701 0.0000 0.0000
# 5 0.0000 0.0000 0.0000 0.0000 11.0418 0.0000
# 6 0.0000 0.0000 0.0000 0.0000 0.0000 33.9984
#
#
#
# Elastic Compliance Matrix: (Units=1/GPa)
#
#
# Indices 1 2 3 4 5 6 
#
# 1 0.006887 -0.000558 -0.001195 0.000000 0.000000 0.000000
# 2 -0.000558 0.014647 -0.002398 0.000000 0.000000 0.000000
# 3 -0.001195 -0.002398 0.009760 0.000000 0.000000 0.000000
# 4 0.000000 0.000000 0.000000 0.026406 0.000000 0.000000
# 5 0.000000 0.000000 0.000000 0.000000 0.090565 0.000000
# 6 0.000000 0.000000 0.000000 0.000000 0.000000 0.029413
#
#
# Mechanical properties :
#
#
# Convention : Reuss Voigt Hill
#
# Bulk Modulus (GPa) = 43.49458 47.48600 45.49029
# Shear Modulus (GPa) = 25.82025 35.41135 30.61580
#
# Velocity S-wave (km/s) = 3.38537 3.96458 3.68636
# Velocity P-wave (km/s) = 5.88104 6.48340 6.18956
#
# Compressibility (1/GPa) = 0.02299137
#
# Stress axis : x y z
#
# Youngs Moduli (GPa) = 145.20473 68.27127 102.45431
#
# Poissons Ratio (x) = 0.03813 0.12240
# Poissons Ratio (y) = 0.08110 0.24573
# Poissons Ratio (z) = 0.17348 0.16375
#
# Static dielectric constant tensor:
#      x y z
#    x 1.870760 0.000000 0.000000 
#    y 0.000000 1.938530 0.000000 
#    z 0.000000 0.000000 1.836480 
# 
# From -- ./inp_files/19383.got.cif
#   From: 2010.05.17/outbox.cif.g08.bks.cpg/sg56_10_cif.got.tgz:19383.got - 2010.06.03 13:42:01.
