data_PCOD9430563
_publ_section_title
;
Structure prediction by ZEFSAII (Michael W. Deem and Ramdas Pophale) SiO2 
 PCOD9430563
Probable space group: P C C N
;
_chemical_formula_sum "Si O2"
_cell_formula_units_Z 44
_cell_length_a 14.995376
_cell_length_b 14.637904
_cell_length_c 9.272214
_cell_angle_alpha 90.000000
_cell_angle_beta 90.000000
_cell_angle_gamma 90.000000
_cell_volume 2035.259080
_symmetry_space_group_name_H-M "P C C N"
_symmetry_group_IT_number 56
_symmetry_cell_setting 'orthorhombic'
loop_
_space_group_symop_operation_xyz
x,y,z
1/2-x,1/2-y,z
1/2+x,-y,1/2-z
-x,1/2+y,1/2-z
-x,-y,-z
1/2+x,1/2+y,-z
1/2-x,y,1/2+z
x,1/2-y,1/2+z
loop_
_atom_site_type_symbol
_atom_site_label
_atom_site_fract_x
_atom_site_fract_y
_atom_site_fract_z
Si Si1 0.593776 0.735913 0.982242
Si Si2 0.250000 0.750000 0.946716
Si Si3 0.679778 0.516303 0.679566
Si Si4 0.813663 0.131467 0.292828
Si Si5 0.986768 0.873100 0.719420
Si Si6 0.243031 0.123064 0.568983
O O1 0.540088 0.793510 0.102703
O O2 0.657501 0.813049 0.910982
O O3 0.675044 0.666729 0.022804
O O4 0.533855 0.677133 0.872235
O O5 0.180614 0.794199 0.836167
O O6 0.293578 0.821977 0.055106
O O7 0.729066 0.429235 0.744775
O O8 0.575708 0.537718 0.695203
O O9 0.710886 0.534224 0.517395
O O10 0.717445 0.599153 0.777180
O O11 0.912553 0.092197 0.295679
#
# Coordination Sequence:
#
# PCOD9430563 Si02
#       6
#     8   4   8   8   8   8
#     4   9  17  32  55  87 114 144 189 225 277 335
#     4  10  24  42  64  78 108 154 190 234 280 330
#     4  10  20  35  55  84 117 149 185 229 283 330
#     4  11  22  42  60  83 113 148 191 233 279 335
#     4  10  20  35  59  87 114 148 186 230 276 330
#     4   9  17  32  55  81 118 150 176 231 283 330
#
# _framework density 21.618867999999999
#
# number of rings (size 3 to 8) (size 9 to 14) (size 15 to 20)
#    0.000    2.182    0.000    3.273    0.000    4.364 
#    0.000   23.636    0.000    0.000    0.000    0.000 
#    0.000    0.000    0.000    0.000    0.000    0.000 
#
# Total GULP energy -245071.610256 kJ/mol
# GULP energy per Si atom -5569.809324 kJ/mol
# Density = 2.156966 g / cm^3
# Si number density = 21.618868 Si / 1000 Ang^3
#
#
#
# Elastic Constant Matrix: (Units=GPa)
#
#
# Indices 1 2 3 4 5 6 
#
# 1 109.6923 19.2088 21.3009 0.0000 0.0000 0.0000
# 2 19.2088 50.0910 0.6588 0.0000 0.0000 0.0000
# 3 21.3009 0.6588 70.1828 0.0000 0.0000 0.0000
# 4 0.0000 0.0000 0.0000 19.7050 0.0000 0.0000
# 5 0.0000 0.0000 0.0000 0.0000 -2.2928 0.0000
# 6 0.0000 0.0000 0.0000 0.0000 0.0000 21.0647
#
#
#
# Elastic Compliance Matrix: (Units=1/GPa)
#
#
# Indices 1 2 3 4 5 6 
#
# 1 0.010415 -0.003953 -0.003124 0.000000 0.000000 0.000000
# 2 -0.003953 0.021466 0.000998 0.000000 0.000000 0.000000
# 3 -0.003124 0.000998 0.015187 0.000000 0.000000 0.000000
# 4 0.000000 0.000000 0.000000 0.050748 0.000000 0.000000
# 5 0.000000 0.000000 0.000000 0.000000 -0.436140 0.000000
# 6 0.000000 0.000000 0.000000 0.000000 0.000000 0.047473
#
#
# Mechanical properties :
#
#
# Convention : Reuss Voigt Hill
#
# Bulk Modulus (GPa) = 28.64381 34.70036 31.67208
# Shear Modulus (GPa) = -18.72269 20.28189 0.77960
#
# Velocity S-wave (km/s) = -2.94604 3.06626 0.60116
# Velocity P-wave (km/s) = 1.30614 5.34993 3.89408
#
# Compressibility (1/GPa) = 0.03491156
#
# Stress axis : x y z
#
# Youngs Moduli (GPa) = 96.01286 46.58443 65.84458
#
# Poissons Ratio (x) = 0.18415 0.20570
# Poissons Ratio (y) = 0.37953 -0.06573
# Poissons Ratio (z) = 0.29994 -0.04650
#
# Static dielectric constant tensor:
#      x y z
#    x 1.784290 0.000000 0.000000 
#    y 0.000000 1.873720 0.000000 
#    z 0.000000 0.000000 1.768830 
# 
# From -- ./inp_files/3328.got.cif
#   From: 2010.05.17/outbox.cif.g08.bks.cpg/sg56_2_cif.got.tgz:3328.got - 2010.06.03 13:42:01.
