data_PCOD9430116
_publ_section_title
;
Structure prediction by ZEFSAII (Michael W. Deem and Ramdas Pophale) SiO2 
 PCOD9430116
Probable space group: P C C N
;
_chemical_formula_sum "Si O2"
_cell_formula_units_Z 40
_cell_length_a 13.106991
_cell_length_b 21.128799
_cell_length_c 5.046738
_cell_angle_alpha 90.000000
_cell_angle_beta 90.000000
_cell_angle_gamma 90.000000
_cell_volume 1397.618279
_symmetry_space_group_name_H-M "P C C N"
_symmetry_group_IT_number 56
_symmetry_cell_setting 'orthorhombic'
loop_
_space_group_symop_operation_xyz
x,y,z
1/2-x,1/2-y,z
1/2+x,-y,1/2-z
-x,1/2+y,1/2-z
-x,-y,-z
1/2+x,1/2+y,-z
1/2-x,y,1/2+z
x,1/2-y,1/2+z
loop_
_atom_site_type_symbol
_atom_site_label
_atom_site_fract_x
_atom_site_fract_y
_atom_site_fract_z
Si Si1 0.125693 0.204859 0.728445
Si Si2 0.886447 0.583425 0.044011
Si Si3 0.608299 0.448609 0.688876
Si Si4 0.032373 0.852491 0.943084
Si Si5 0.189278 0.673418 0.047304
O O1 0.144902 0.246724 0.989476
O O2 0.009491 0.182636 0.796802
O O3 0.170553 0.135902 0.637877
O O4 0.844721 0.518109 0.164070
O O5 0.933206 0.622953 0.287685
O O6 0.987160 0.557034 0.888370
O O7 0.668935 0.401395 0.498340
O O8 0.598927 0.413270 0.970381
O O9 0.093582 0.810445 0.733686
O O10 0.282664 0.690094 0.245043
#
# Coordination Sequence:
#
# PCOD9430116 Si02
#       5
#     8   8   8   8   8
#     4  11  21  35  52  76 107 141 179 219 271 318
#     4   9  18  32  53  80 108 138 173 215 274 335
#     4   9  18  32  53  80 108 138 173 215 274 335
#     4  10  19  34  56  77 104 146 178 230 267 332
#     4  11  21  35  52  76 107 141 179 219 271 318
#
# _framework density 28.620117
#
# number of rings (size 3 to 8) (size 9 to 14) (size 15 to 20)
#    0.000    2.000    4.000    0.600    0.000    1.600 
#    0.000    0.000    0.000    3.600    0.000    0.000 
#    0.000    4.800    0.000    0.000    0.000    0.000 
#
# Total GULP energy -223138.101596 kJ/mol
# GULP energy per Si atom -5578.452540 kJ/mol
# Density = 2.855498 g / cm^3
# Si number density = 28.620117 Si / 1000 Ang^3
#
#
#
# Elastic Constant Matrix: (Units=GPa)
#
#
# Indices 1 2 3 4 5 6 
#
# 1 44.6511 2.4355 -6.0617 0.0000 0.0000 0.0000
# 2 2.4355 156.1571 -7.1775 0.0000 0.0000 0.0000
# 3 -6.0617 -7.1775 174.8465 0.0000 0.0000 0.0000
# 4 0.0000 0.0000 0.0000 -7.2697 0.0000 0.0000
# 5 0.0000 0.0000 0.0000 0.0000 8.4093 0.0000
# 6 0.0000 0.0000 0.0000 0.0000 0.0000 23.4124
#
#
#
# Elastic Compliance Matrix: (Units=1/GPa)
#
#
# Indices 1 2 3 4 5 6 
#
# 1 0.022517 -0.000316 0.000768 0.000000 0.000000 0.000000
# 2 -0.000316 0.006420 0.000253 0.000000 0.000000 0.000000
# 3 0.000768 0.000253 0.005756 0.000000 0.000000 0.000000
# 4 0.000000 0.000000 0.000000 -0.137558 0.000000 0.000000
# 5 0.000000 0.000000 0.000000 0.000000 0.118917 0.000000
# 6 0.000000 0.000000 0.000000 0.000000 0.000000 0.042712
#
#
# Mechanical properties :
#
#
# Convention : Reuss Voigt Hill
#
# Bulk Modulus (GPa) = 27.69877 39.33859 33.51868
# Shear Modulus (GPa) = 72.05598 30.67429 51.36513
#
# Velocity S-wave (km/s) = 5.02308 3.27735 4.24101
# Velocity P-wave (km/s) = 6.58338 5.30059 5.97650
#
# Compressibility (1/GPa) = 0.03610268
#
# Stress axis : x y z
#
# Youngs Moduli (GPa) = 44.41030 155.75482 173.72316
#
# Poissons Ratio (x) = 0.04920 -0.13336
# Poissons Ratio (y) = 0.01403 -0.04388
# Poissons Ratio (z) = -0.03409 -0.03934
#
# Static dielectric constant tensor:
#      x y z
#    x 2.418740 0.000000 0.000000 
#    y 0.000000 2.376890 0.000000 
#    z 0.000000 0.000000 2.254900 
# 
# From -- ./inp_files/849.got.cif
#   From: 2010.05.17/outbox.cif.g08.bks.cpg/sg56_1_cif.got.tgz:849.got - 2010.06.03 13:42:01.
