data_PCOD9430530
_publ_section_title
;
Structure prediction by ZEFSAII (Michael W. Deem and Ramdas Pophale) SiO2 
 PCOD9430530
Probable space group: P C C N
;
_chemical_formula_sum "Si O2"
_cell_formula_units_Z 48
_cell_length_a 8.217906
_cell_length_b 29.323804
_cell_length_c 8.947262
_cell_angle_alpha 90.000000
_cell_angle_beta 90.000000
_cell_angle_gamma 90.000000
_cell_volume 2156.113566
_symmetry_space_group_name_H-M "P C C N"
_symmetry_group_IT_number 56
_symmetry_cell_setting 'orthorhombic'
loop_
_space_group_symop_operation_xyz
x,y,z
1/2-x,1/2-y,z
1/2+x,-y,1/2-z
-x,1/2+y,1/2-z
-x,-y,-z
1/2+x,1/2+y,-z
1/2-x,y,1/2+z
x,1/2-y,1/2+z
loop_
_atom_site_type_symbol
_atom_site_label
_atom_site_fract_x
_atom_site_fract_y
_atom_site_fract_z
Si Si1 0.892675 0.641714 0.815241
Si Si2 0.614427 0.211470 0.786780
Si Si3 0.934843 0.762824 0.428938
Si Si4 0.122094 0.462867 0.680780
Si Si5 0.043609 0.376448 0.837957
Si Si6 0.959900 0.943629 0.162694
O O1 0.962121 0.692800 0.825047
O O2 0.705332 0.640606 0.755188
O O3 0.995045 0.608171 0.708995
O O4 0.907149 0.625099 0.987477
O O5 0.750000 0.250000 0.817829
O O6 0.553091 0.222778 0.621512
O O7 0.610374 0.156888 0.808006
O O8 0.471123 0.223912 0.902565
O O9 0.750000 0.750000 0.412291
O O10 0.017329 0.428156 0.783016
O O11 0.090045 0.448403 0.510083
O O12 0.304370 0.454701 0.734495
O O13 0.085147 0.516211 0.695665
#
# Coordination Sequence:
#
# PCOD9430530 Si02
#       6
#     8   8   8   8   8   8
#     4  10  20  34  60  91 113 154 210 259 291 353
#     4  11  24  40  59  89 127 161 200 260 318 364
#     4  11  22  39  64  88 117 163 213 251 303 367
#     4  10  21  38  62  90 122 163 198 250 302 363
#     4  10  20  36  60  88 120 158 207 251 308 360
#     4  10  21  38  61  91 125 156 203 248 305 357
#
# _framework density 22.262278999999999
#
# number of rings (size 3 to 8) (size 9 to 14) (size 15 to 20)
#    0.000    1.667    1.667    5.000    2.333    4.000 
#    3.000    0.000    0.000    0.000    0.000    0.000 
#    0.000    0.000    0.000    0.000    0.000    0.000 
#
# Total GULP energy -267710.457551 kJ/mol
# GULP energy per Si atom -5577.301199 kJ/mol
# Density = 2.221161 g / cm^3
# Si number density = 22.262279 Si / 1000 Ang^3
#
#
#
# Elastic Constant Matrix: (Units=GPa)
#
#
# Indices 1 2 3 4 5 6 
#
# 1 30.6401 10.8693 2.1476 0.0000 0.0000 0.0000
# 2 10.8693 54.4066 4.6081 0.0000 0.0000 0.0000
# 3 2.1476 4.6081 68.9862 0.0000 0.0000 0.0000
# 4 0.0000 0.0000 0.0000 29.7045 0.0000 0.0000
# 5 0.0000 0.0000 0.0000 0.0000 11.0015 0.0000
# 6 0.0000 0.0000 0.0000 0.0000 0.0000 40.2161
#
#
#
# Elastic Compliance Matrix: (Units=1/GPa)
#
#
# Indices 1 2 3 4 5 6 
#
# 1 0.035153 -0.006970 -0.000629 0.000000 0.000000 0.000000
# 2 -0.006970 0.019867 -0.001110 0.000000 0.000000 0.000000
# 3 -0.000629 -0.001110 0.014589 0.000000 0.000000 0.000000
# 4 0.000000 0.000000 0.000000 0.033665 0.000000 0.000000
# 5 0.000000 0.000000 0.000000 0.000000 0.090897 0.000000
# 6 0.000000 0.000000 0.000000 0.000000 0.000000 0.024866
#
#
# Mechanical properties :
#
#
# Convention : Reuss Voigt Hill
#
# Bulk Modulus (GPa) = 19.15990 21.03143 20.09566
# Shear Modulus (GPa) = 19.69659 25.27828 22.48744
#
# Velocity S-wave (km/s) = 2.97770 3.37334 3.18168
# Velocity P-wave (km/s) = 4.52188 4.96389 4.74803
#
# Compressibility (1/GPa) = 0.05219235
#
# Stress axis : x y z
#
# Youngs Moduli (GPa) = 28.44670 50.33595 68.54297
#
# Poissons Ratio (x) = 0.35082 0.04310
# Poissons Ratio (y) = 0.19826 0.07609
# Poissons Ratio (z) = 0.01789 0.05588
#
# Static dielectric constant tensor:
#      x y z
#    x 1.821800 0.000000 0.000000 
#    y 0.000000 1.913900 0.000000 
#    z 0.000000 0.000000 1.769530 
# 
# From -- ./inp_files/2210.got.cif
#   From: 2010.05.17/outbox.cif.g08.bks.cpg/sg56_2_cif.got.tgz:2210.got - 2010.06.03 13:42:01.
