data_PCOD9430925
_publ_section_title
;
Structure prediction by ZEFSAII (Michael W. Deem and Ramdas Pophale) SiO2 
 PCOD9430925
Probable space group: P C C N
;
_chemical_formula_sum "Si O2"
_cell_formula_units_Z 40
_cell_length_a 13.433991
_cell_length_b 10.443924
_cell_length_c 12.071271
_cell_angle_alpha 90.000000
_cell_angle_beta 90.000000
_cell_angle_gamma 90.000000
_cell_volume 1693.642549
_symmetry_space_group_name_H-M "P C C N"
_symmetry_group_IT_number 56
_symmetry_cell_setting 'orthorhombic'
loop_
_space_group_symop_operation_xyz
x,y,z
1/2-x,1/2-y,z
1/2+x,-y,1/2-z
-x,1/2+y,1/2-z
-x,-y,-z
1/2+x,1/2+y,-z
1/2-x,y,1/2+z
x,1/2-y,1/2+z
loop_
_atom_site_type_symbol
_atom_site_label
_atom_site_fract_x
_atom_site_fract_y
_atom_site_fract_z
Si Si1 0.537925 0.171342 0.124859
Si Si2 0.286255 0.914472 0.738493
Si Si3 0.246867 0.113603 0.920138
Si Si4 0.571532 0.577996 0.917819
Si Si5 0.388633 0.540529 0.583985
O O1 0.643336 0.176840 0.188372
O O2 0.483260 0.304749 0.140801
O O3 0.466903 0.048087 0.151400
O O4 0.559489 0.144932 0.994619
O O5 0.234679 0.006343 0.828314
O O6 0.369364 0.989592 0.667396
O O7 0.197258 0.888681 0.653061
O O8 0.250000 0.250000 0.860075
O O9 0.156261 0.133738 0.002831
O O10 0.335595 0.059307 0.997949
O O11 0.500000 0.500000 0.000000
#
# Coordination Sequence:
#
# PCOD9430925 Si02
#       5
#     8   8   8   8   8
#     4  10  21  44  69  93 136 178 216 284 344 402
#     4  10  24  39  69 103 128 175 236 274 341 409
#     4  10  20  38  65  96 129 173 220 283 323 391
#     4  11  25  43  64 101 136 172 224 281 336 410
#     4   9  20  41  64  98 134 173 223 273 341 396
#
# _framework density 23.617735
#
# number of rings (size 3 to 8) (size 9 to 14) (size 15 to 20)
#    0.000    2.000    2.000    0.000    5.600    0.000 
#    0.000   11.000    0.000    0.000    0.000    0.000 
#    0.000    0.000    0.000    0.000    0.000    0.000 
#
# Total GULP energy -223405.934143 kJ/mol
# GULP energy per Si atom -5585.148354 kJ/mol
# Density = 2.356398 g / cm^3
# Si number density = 23.617735 Si / 1000 Ang^3
#
#
#
# Elastic Constant Matrix: (Units=GPa)
#
#
# Indices 1 2 3 4 5 6 
#
# 1 91.8864 -4.7234 18.4246 0.0000 0.0000 0.0000
# 2 -4.7234 36.5658 -0.2690 0.0000 0.0000 0.0000
# 3 18.4246 -0.2690 48.7054 0.0000 0.0000 0.0000
# 4 0.0000 0.0000 0.0000 16.6109 0.0000 0.0000
# 5 0.0000 0.0000 0.0000 0.0000 48.6166 0.0000
# 6 0.0000 0.0000 0.0000 0.0000 0.0000 28.1371
#
#
#
# Elastic Compliance Matrix: (Units=1/GPa)
#
#
# Indices 1 2 3 4 5 6 
#
# 1 0.011858 0.001499 -0.004477 0.000000 0.000000 0.000000
# 2 0.001499 0.027539 -0.000415 0.000000 0.000000 0.000000
# 3 -0.004477 -0.000415 0.022223 0.000000 0.000000 0.000000
# 4 0.000000 0.000000 0.000000 0.060202 0.000000 0.000000
# 5 0.000000 0.000000 0.000000 0.000000 0.020569 0.000000
# 6 0.000000 0.000000 0.000000 0.000000 0.000000 0.035540
#
#
# Mechanical properties :
#
#
# Convention : Reuss Voigt Hill
#
# Bulk Modulus (GPa) = 18.23738 22.66913 20.45325
# Shear Modulus (GPa) = 24.63119 29.58795 27.10957
#
# Velocity S-wave (km/s) = 3.23292 3.54331 3.39167
# Velocity P-wave (km/s) = 4.65557 5.13413 4.90069
#
# Compressibility (1/GPa) = 0.05483244
#
# Stress axis : x y z
#
# Youngs Moduli (GPa) = 84.33241 36.31278 44.99836
#
# Poissons Ratio (x) = -0.05443 0.20148
# Poissons Ratio (y) = -0.12640 0.01867
# Poissons Ratio (z) = 0.37759 0.01507
#
# Static dielectric constant tensor:
#      x y z
#    x 1.923700 0.000000 0.000000 
#    y 0.000000 1.967680 0.000000 
#    z 0.000000 0.000000 1.858390 
# 
# From -- ./inp_files/7644.got.cif
#   From: 2010.05.17/outbox.cif.g08.bks.cpg/sg56_4_cif.got.tgz:7644.got - 2010.06.03 13:42:01.
