data_PCOD9430261
_publ_section_title
;
Structure prediction by ZEFSAII (Michael W. Deem and Ramdas Pophale) SiO2 
 PCOD9430261
Probable space group: P C C N
;
_chemical_formula_sum "Si O2"
_cell_formula_units_Z 48
_cell_length_a 13.022624
_cell_length_b 16.544672
_cell_length_c 11.187064
_cell_angle_alpha 90.000000
_cell_angle_beta 90.000000
_cell_angle_gamma 90.000000
_cell_volume 2410.309351
_symmetry_space_group_name_H-M "P C C N"
_symmetry_group_IT_number 56
_symmetry_cell_setting 'orthorhombic'
loop_
_space_group_symop_operation_xyz
x,y,z
1/2-x,1/2-y,z
1/2+x,-y,1/2-z
-x,1/2+y,1/2-z
-x,-y,-z
1/2+x,1/2+y,-z
1/2-x,y,1/2+z
x,1/2-y,1/2+z
loop_
_atom_site_type_symbol
_atom_site_label
_atom_site_fract_x
_atom_site_fract_y
_atom_site_fract_z
Si Si1 0.483083 0.112386 0.304972
Si Si2 0.915063 0.017860 0.601787
Si Si3 0.374739 0.737630 0.767336
Si Si4 0.896558 0.384668 0.529449
Si Si5 0.307542 0.608970 0.591501
Si Si6 0.705461 0.521366 0.197775
O O1 0.528499 0.040867 0.222811
O O2 0.546604 0.190103 0.259708
O O3 0.508661 0.099038 0.443663
O O4 0.361615 0.101890 0.287092
O O5 0.855996 0.091211 0.537085
O O6 0.818433 0.963193 0.642508
O O7 0.000000 0.000000 0.500000
O O8 0.250000 0.750000 0.784942
O O9 0.412989 0.689376 0.882761
O O10 0.375757 0.673452 0.659341
O O11 0.805739 0.360506 0.437389
O O12 0.854455 0.460615 0.606046
O O13 0.292414 0.530601 0.678093
#
# Coordination Sequence:
#
# PCOD9430261 Si02
#       6
#     8   8   8   8   8   8
#     4  12  22  36  60  95 126 166 208 271 336 379
#     4  11  22  38  64  90 122 165 208 266 326 384
#     4  11  22  34  58  90 129 169 209 268 325 392
#     4  10  21  36  56  88 127 165 207 262 333 378
#     4  10  19  37  58  91 128 162 216 263 326 384
#     4  10  21  38  59  92 124 163 211 271 320 399
#
# _framework density 19.914456999999999
#
# number of rings (size 3 to 8) (size 9 to 14) (size 15 to 20)
#    0.000    1.333    5.000    2.500    4.667    0.000 
#    0.000    0.000    0.000    1.000    0.000    0.000 
#    0.000    0.000    0.000    0.000    0.000    0.000 
#
# Total GULP energy -267433.029750 kJ/mol
# GULP energy per Si atom -5571.521453 kJ/mol
# Density = 1.986913 g / cm^3
# Si number density = 19.914457 Si / 1000 Ang^3
#
#
#
# Elastic Constant Matrix: (Units=GPa)
#
#
# Indices 1 2 3 4 5 6 
#
# 1 108.3747 35.1044 17.4268 0.0000 0.0000 0.0000
# 2 35.1044 42.9117 9.7370 0.0000 0.0000 0.0000
# 3 17.4268 9.7370 82.8322 0.0000 0.0000 0.0000
# 4 0.0000 0.0000 0.0000 22.2628 0.0000 0.0000
# 5 0.0000 0.0000 0.0000 0.0000 32.1511 0.0000
# 6 0.0000 0.0000 0.0000 0.0000 0.0000 25.9279
#
#
#
# Elastic Compliance Matrix: (Units=1/GPa)
#
#
# Indices 1 2 3 4 5 6 
#
# 1 0.012731 -0.010076 -0.001494 0.000000 0.000000 0.000000
# 2 -0.010076 0.031917 -0.001632 0.000000 0.000000 0.000000
# 3 -0.001494 -0.001632 0.012579 0.000000 0.000000 0.000000
# 4 0.000000 0.000000 0.000000 0.044918 0.000000 0.000000
# 5 0.000000 0.000000 0.000000 0.000000 0.031103 0.000000
# 6 0.000000 0.000000 0.000000 0.000000 0.000000 0.038568
#
#
# Mechanical properties :
#
#
# Convention : Reuss Voigt Hill
#
# Bulk Modulus (GPa) = 32.44353 39.85055 36.14704
# Shear Modulus (GPa) = 23.98144 27.52506 25.75325
#
# Velocity S-wave (km/s) = 3.47396 3.72178 3.60000
# Velocity P-wave (km/s) = 5.69368 6.20670 5.95572
#
# Compressibility (1/GPa) = 0.03082279
#
# Stress axis : x y z
#
# Youngs Moduli (GPa) = 78.54677 31.33151 79.49905
#
# Poissons Ratio (x) = 0.31570 0.11878
# Poissons Ratio (y) = 0.79143 0.12974
# Poissons Ratio (z) = 0.11735 0.05113
#
# Static dielectric constant tensor:
#      x y z
#    x 1.828660 0.000000 0.000000 
#    y 0.000000 1.745650 0.000000 
#    z 0.000000 0.000000 1.727350 
# 
# From -- ./inp_files/7131.got.cif
#   From: 2010.05.17/outbox.cif.g08.bks.cpg/sg56_4_cif.got.tgz:7131.got - 2010.06.03 13:42:01.
