data_PCOD9430214
_publ_section_title
;
Structure prediction by ZEFSAII (Michael W. Deem and Ramdas Pophale) SiO2 
 PCOD9430214
Probable space group: P C C N
;
_chemical_formula_sum "Si O2"
_cell_formula_units_Z 56
_cell_length_a 25.154555
_cell_length_b 5.083770
_cell_length_c 21.685158
_cell_angle_alpha 90.000000
_cell_angle_beta 90.000000
_cell_angle_gamma 90.000000
_cell_volume 2773.097399
_symmetry_space_group_name_H-M "P C C N"
_symmetry_group_IT_number 56
_symmetry_cell_setting 'orthorhombic'
loop_
_space_group_symop_operation_xyz
x,y,z
1/2-x,1/2-y,z
1/2+x,-y,1/2-z
-x,1/2+y,1/2-z
-x,-y,-z
1/2+x,1/2+y,-z
1/2-x,y,1/2+z
x,1/2-y,1/2+z
loop_
_atom_site_type_symbol
_atom_site_label
_atom_site_fract_x
_atom_site_fract_y
_atom_site_fract_z
Si Si1 0.786523 0.003357 0.728134
Si Si2 0.548785 0.289452 0.934281
Si Si3 0.432305 0.530458 0.932728
Si Si4 0.542800 0.377915 0.688521
Si Si5 0.429605 0.207875 0.143520
Si Si6 0.872229 0.347982 0.770076
Si Si7 0.371742 0.274689 0.842243
O O1 0.750000 0.250000 0.713119
O O2 0.828219 0.121907 0.778686
O O3 0.750000 0.750000 0.744578
O O4 0.825205 0.929538 0.671290
O O5 0.486092 0.357797 0.937251
O O6 0.556431 0.994035 0.911619
O O7 0.573059 0.501733 0.885530
O O8 0.572581 0.330989 0.001873
O O9 0.440147 0.724278 0.874335
O O10 0.381312 0.364336 0.911543
O O11 0.480414 0.323958 0.688956
O O12 0.571668 0.281761 0.750581
O O13 0.570414 0.660044 0.678156
O O14 0.380782 0.069128 0.178534
O O15 0.858217 0.499605 0.706795
#
# Coordination Sequence:
#
# PCOD9430214 Si02
#       7
#     8   8   8   8   8   8   8
#     4  11  22  40  60  84 112 141 190 248 310 359
#     4  10  22  34  54  77 118 165 199 228 257 333
#     4   9  19  35  52  80 114 158 201 231 275 319
#     4   9  20  31  53  79 119 156 188 231 283 337
#     4  11  23  35  51  83 119 159 197 226 272 338
#     4  10  23  35  57  84 120 149 191 238 296 358
#     4  10  19  36  57  86 112 147 187 238 292 349
#
# _framework density 20.194027999999999
#
# number of rings (size 3 to 8) (size 9 to 14) (size 15 to 20)
#    0.000    2.000    2.857    0.000    8.000    1.714 
#    0.000    0.000    0.000    0.000    0.000    6.000 
#    0.000    0.000    0.000    0.000    0.000    0.000 
#
# Total GULP energy -312272.612048 kJ/mol
# GULP energy per Si atom -5576.296644 kJ/mol
# Density = 2.014807 g / cm^3
# Si number density = 20.194028 Si / 1000 Ang^3
#
#
#
# Elastic Constant Matrix: (Units=GPa)
#
#
# Indices 1 2 3 4 5 6 
#
# 1 65.5262 19.2251 18.7905 0.0000 0.0000 0.0000
# 2 19.2251 78.6346 7.2486 0.0000 0.0000 0.0000
# 3 18.7905 7.2486 63.1099 0.0000 0.0000 0.0000
# 4 0.0000 0.0000 0.0000 25.1438 0.0000 0.0000
# 5 0.0000 0.0000 0.0000 0.0000 8.2656 0.0000
# 6 0.0000 0.0000 0.0000 0.0000 0.0000 41.0165
#
#
#
# Elastic Compliance Matrix: (Units=1/GPa)
#
#
# Indices 1 2 3 4 5 6 
#
# 1 0.017797 -0.003904 -0.004851 0.000000 0.000000 0.000000
# 2 -0.003904 0.013710 -0.000412 0.000000 0.000000 0.000000
# 3 -0.004851 -0.000412 0.017337 0.000000 0.000000 0.000000
# 4 0.000000 0.000000 0.000000 0.039771 0.000000 0.000000
# 5 0.000000 0.000000 0.000000 0.000000 0.120983 0.000000
# 6 0.000000 0.000000 0.000000 0.000000 0.000000 0.024380
#
#
# Mechanical properties :
#
#
# Convention : Reuss Voigt Hill
#
# Bulk Modulus (GPa) = 32.77607 33.08877 32.93242
# Shear Modulus (GPa) = 19.04885 25.68563 22.36724
#
# Velocity S-wave (km/s) = 3.07464 3.57030 3.33170
# Velocity P-wave (km/s) = 5.37311 5.78075 5.58065
#
# Compressibility (1/GPa) = 0.03051006
#
# Stress axis : x y z
#
# Youngs Moduli (GPa) = 56.18769 72.94191 57.68024
#
# Poissons Ratio (x) = 0.28477 0.27979
# Poissons Ratio (y) = 0.21936 0.02378
# Poissons Ratio (z) = 0.27255 0.03007
#
# Static dielectric constant tensor:
#      x y z
#    x 1.784030 0.000000 0.000000 
#    y 0.000000 1.850990 0.000000 
#    z 0.000000 0.000000 1.718870 
# 
# From -- ./inp_files/19583.got.cif
#   From: 2010.05.17/outbox.cif.g08.bks.cpg/sg56_10_cif.got.tgz:19583.got - 2010.06.03 13:42:01.
