data_PCOD9430124
_publ_section_title
;
Structure prediction by ZEFSAII (Michael W. Deem and Ramdas Pophale) SiO2 
 PCOD9430124
Probable space group: P C C N
;
_chemical_formula_sum "Si O2"
_cell_formula_units_Z 40
_cell_length_a 4.936450
_cell_length_b 13.830060
_cell_length_c 24.407571
_cell_angle_alpha 90.000000
_cell_angle_beta 90.000000
_cell_angle_gamma 90.000000
_cell_volume 1666.339035
_symmetry_space_group_name_H-M "P C C N"
_symmetry_group_IT_number 56
_symmetry_cell_setting 'orthorhombic'
loop_
_space_group_symop_operation_xyz
x,y,z
1/2-x,1/2-y,z
1/2+x,-y,1/2-z
-x,1/2+y,1/2-z
-x,-y,-z
1/2+x,1/2+y,-z
1/2-x,y,1/2+z
x,1/2-y,1/2+z
loop_
_atom_site_type_symbol
_atom_site_label
_atom_site_fract_x
_atom_site_fract_y
_atom_site_fract_z
Si Si1 0.990481 0.813460 0.146234
Si Si2 0.749983 0.131491 0.750732
Si Si3 0.683047 0.574919 0.551486
Si Si4 0.820246 0.552476 0.435934
Si Si5 0.253917 0.366345 0.683882
O O1 0.750000 0.750000 0.174829
O O2 0.823665 0.858784 0.096495
O O3 0.250000 0.750000 0.128120
O O4 0.122871 0.888301 0.189589
O O5 0.750000 0.250000 0.751535
O O6 0.456742 0.100646 0.730705
O O7 0.953482 0.099696 0.703378
O O8 0.714488 0.611112 0.489083
O O9 0.379910 0.541253 0.564764
O O10 0.872336 0.479292 0.553193
O O11 0.806781 0.601105 0.377276
O O12 0.250000 0.250000 0.683715
#
# Coordination Sequence:
#
# PCOD9430124 Si02
#       5
#     8   8   8   8   8
#     4  11  21  37  61  85 112 149 196 242 286 347
#     4   9  18  33  54  81 111 143 179 231 292 333
#     4  10  22  39  58  82 117 156 190 233 295 347
#     4  10  21  39  58  81 118 156 187 233 295 347
#     4  10  19  34  58  83 109 145 189 232 278 339
#
# _framework density 24.004722000000001
#
# number of rings (size 3 to 8) (size 9 to 14) (size 15 to 20)
#    0.000    2.000    0.000    5.400    0.000    0.800 
#    0.000    7.000    0.000    0.000    0.000    0.000 
#    0.000    0.000    0.000    0.000    0.000    0.000 
#
# Total GULP energy -223571.567946 kJ/mol
# GULP energy per Si atom -5589.289199 kJ/mol
# Density = 2.395009 g / cm^3
# Si number density = 24.004722 Si / 1000 Ang^3
#
#
#
# Elastic Constant Matrix: (Units=GPa)
#
#
# Indices 1 2 3 4 5 6 
#
# 1 122.6185 8.0138 21.0670 0.0000 0.0000 0.0000
# 2 8.0138 45.0641 33.1180 0.0000 0.0000 0.0000
# 3 21.0670 33.1180 170.7510 0.0000 0.0000 0.0000
# 4 0.0000 0.0000 0.0000 36.6968 0.0000 0.0000
# 5 0.0000 0.0000 0.0000 0.0000 39.0050 0.0000
# 6 0.0000 0.0000 0.0000 0.0000 0.0000 22.5419
#
#
#
# Elastic Compliance Matrix: (Units=1/GPa)
#
#
# Indices 1 2 3 4 5 6 
#
# 1 0.008360 -0.000850 -0.000867 0.000000 0.000000 0.000000
# 2 -0.000850 0.025966 -0.004931 0.000000 0.000000 0.000000
# 3 -0.000867 -0.004931 0.006920 0.000000 0.000000 0.000000
# 4 0.000000 0.000000 0.000000 0.027250 0.000000 0.000000
# 5 0.000000 0.000000 0.000000 0.000000 0.025638 0.000000
# 6 0.000000 0.000000 0.000000 0.000000 0.000000 0.044362
#
#
# Mechanical properties :
#
#
# Convention : Reuss Voigt Hill
#
# Bulk Modulus (GPa) = 35.77813 51.42570 43.60192
# Shear Modulus (GPa) = 31.03517 38.06439 34.54978
#
# Velocity S-wave (km/s) = 3.59956 3.98641 3.79791
# Velocity P-wave (km/s) = 5.67563 6.53133 6.11846
#
# Compressibility (1/GPa) = 0.02795003
#
# Stress axis : x y z
#
# Youngs Moduli (GPa) = 119.61999 38.51220 144.51152
#
# Poissons Ratio (x) = 0.03273 0.12523
# Poissons Ratio (y) = 0.10165 0.71264
# Poissons Ratio (z) = 0.10366 0.18992
#
# Static dielectric constant tensor:
#      x y z
#    x 1.865420 0.000000 0.000000 
#    y 0.000000 2.015900 0.000000 
#    z 0.000000 0.000000 1.962990 
# 
# From -- ./inp_files/19993.got.cif
#   From: 2010.05.17/outbox.cif.g08.bks.cpg/sg56_10_cif.got.tgz:19993.got - 2010.06.03 13:42:01.
