data_PCOD9430338
_publ_section_title
;
Structure prediction by ZEFSAII (Michael W. Deem and Ramdas Pophale) SiO2 
 PCOD9430338
Probable space group: P C C N
;
_chemical_formula_sum "Si O2"
_cell_formula_units_Z 60
_cell_length_a 8.299376
_cell_length_b 13.298560
_cell_length_c 23.402170
_cell_angle_alpha 90.000000
_cell_angle_beta 90.000000
_cell_angle_gamma 90.000000
_cell_volume 2582.891645
_symmetry_space_group_name_H-M "P C C N"
_symmetry_group_IT_number 56
_symmetry_cell_setting 'orthorhombic'
loop_
_space_group_symop_operation_xyz
x,y,z
1/2-x,1/2-y,z
1/2+x,-y,1/2-z
-x,1/2+y,1/2-z
-x,-y,-z
1/2+x,1/2+y,-z
1/2-x,y,1/2+z
x,1/2-y,1/2+z
loop_
_atom_site_type_symbol
_atom_site_label
_atom_site_fract_x
_atom_site_fract_y
_atom_site_fract_z
Si Si1 0.431195 0.859830 0.091738
Si Si2 0.929709 0.719525 0.680158
Si Si3 0.250000 0.750000 0.991435
Si Si4 0.258964 0.064341 0.611599
Si Si5 0.845442 0.573959 0.005597
Si Si6 0.379725 0.563962 0.930662
Si Si7 0.905665 0.624884 0.271418
Si Si8 0.315386 0.004854 0.314286
O O1 0.443713 0.777058 0.140902
O O2 0.608314 0.867020 0.062654
O O3 0.347961 0.962013 0.114738
O O4 0.337489 0.822651 0.035876
O O5 0.750000 0.750000 0.660253
O O6 0.931503 0.765873 0.743797
O O7 0.936013 0.600242 0.677882
O O8 0.358846 0.677479 0.952711
O O9 0.179863 0.122053 0.556898
O O10 0.441302 0.043108 0.590824
O O11 0.291245 0.116777 0.672605
O O12 0.686604 0.511240 0.021524
O O13 0.000000 0.500000 0.000000
O O14 0.267755 0.540857 0.875334
O O15 0.826015 0.552966 0.223105
O O16 0.080774 0.580583 0.284357
#
# Coordination Sequence:
#
# PCOD9430338 Si02
#       8
#     8   8   4   8   8   8   8   8
#     4  11  24  41  67 100 134 174 227 276 336 420
#     4  10  22  42  68  96 130 174 231 280 333 406
#     4  12  26  40  62 102 140 160 230 276 336 424
#     4  10  22  40  69  92 137 177 221 283 346 401
#     4  10  19  38  64  93 126 173 215 263 335 408
#     4  11  23  43  65  95 137 180 218 280 351 402
#     4  10  21  42  63  99 123 173 230 276 329 404
#     4  10  23  43  68  89 132 179 219 283 344 393
#
# _framework density 23.229779000000001
#
# number of rings (size 3 to 8) (size 9 to 14) (size 15 to 20)
#    0.000    1.600    2.667    2.800    3.733    2.133 
#    4.800    5.333    0.000    0.000    0.000    0.000 
#    0.000    0.000    0.000    0.000    0.000    0.000 
#
# Total GULP energy -334710.114211 kJ/mol
# GULP energy per Si atom -5578.501904 kJ/mol
# Density = 2.317691 g / cm^3
# Si number density = 23.229779 Si / 1000 Ang^3
#
#
#
# Elastic Constant Matrix: (Units=GPa)
#
#
# Indices 1 2 3 4 5 6 
#
# 1 38.6890 -1.4096 6.3211 0.0000 0.0000 0.0000
# 2 -1.4096 70.0709 26.6208 0.0000 0.0000 0.0000
# 3 6.3211 26.6208 131.6013 0.0000 0.0000 0.0000
# 4 0.0000 0.0000 0.0000 545.4346 0.0000 0.0000
# 5 0.0000 0.0000 0.0000 0.0000 27.5870 0.0000
# 6 0.0000 0.0000 0.0000 0.0000 0.0000 28.3583
#
#
#
# Elastic Compliance Matrix: (Units=1/GPa)
#
#
# Indices 1 2 3 4 5 6 
#
# 1 0.026128 0.001086 -0.001475 0.000000 0.000000 0.000000
# 2 0.001086 0.015504 -0.003188 0.000000 0.000000 0.000000
# 3 -0.001475 -0.003188 0.008315 0.000000 0.000000 0.000000
# 4 0.000000 0.000000 0.000000 0.001833 0.000000 0.000000
# 5 0.000000 0.000000 0.000000 0.000000 0.036249 0.000000
# 6 0.000000 0.000000 0.000000 0.000000 0.000000 0.035263
#
#
# Mechanical properties :
#
#
# Convention : Reuss Voigt Hill
#
# Bulk Modulus (GPa) = 23.36882 33.71399 28.54140
# Shear Modulus (GPa) = 34.55177 134.19791 84.37484
#
# Velocity S-wave (km/s) = 3.86085 7.60889 6.03330
# Velocity P-wave (km/s) = 5.47326 9.57801 7.80048
#
# Compressibility (1/GPa) = 0.04279206
#
# Stress axis : x y z
#
# Youngs Moduli (GPa) = 38.27370 64.49763 120.27165
#
# Poissons Ratio (x) = -0.07003 0.17735
# Poissons Ratio (y) = -0.04156 0.38348
# Poissons Ratio (z) = 0.05644 0.20565
#
# Static dielectric constant tensor:
#      x y z
#    x 1.961270 0.000000 0.000000 
#    y 0.000000 1.939060 0.000000 
#    z 0.000000 0.000000 1.933200 
# 
# From -- ./inp_files/20633.got.cif
#   From: 2010.05.17/outbox.cif.g08.bks.cpg/sg56_11_cif.got.tgz:20633.got - 2010.06.03 13:42:01.
