data_PCOD9430766
_publ_section_title
;
Structure prediction by ZEFSAII (Michael W. Deem and Ramdas Pophale) SiO2 
 PCOD9430766
Probable space group: P C C N
;
_chemical_formula_sum "Si O2"
_cell_formula_units_Z 60
_cell_length_a 28.641909
_cell_length_b 10.072553
_cell_length_c 10.697441
_cell_angle_alpha 90.000000
_cell_angle_beta 90.000000
_cell_angle_gamma 90.000000
_cell_volume 3086.181203
_symmetry_space_group_name_H-M "P C C N"
_symmetry_group_IT_number 56
_symmetry_cell_setting 'orthorhombic'
loop_
_space_group_symop_operation_xyz
x,y,z
1/2-x,1/2-y,z
1/2+x,-y,1/2-z
-x,1/2+y,1/2-z
-x,-y,-z
1/2+x,1/2+y,-z
1/2-x,y,1/2+z
x,1/2-y,1/2+z
loop_
_atom_site_type_symbol
_atom_site_label
_atom_site_fract_x
_atom_site_fract_y
_atom_site_fract_z
Si Si1 0.750000 0.750000 0.346061
Si Si2 0.157183 0.172150 0.266760
Si Si3 0.079921 0.009121 0.141814
Si Si4 0.662170 0.862182 0.950636
Si Si5 0.453126 0.280883 0.939058
Si Si6 0.922367 0.010513 0.502769
Si Si7 0.057296 0.795868 0.953914
Si Si8 0.474186 0.495995 0.754521
O O1 0.712216 0.835334 0.268233
O O2 0.782620 0.850302 0.424875
O O3 0.123968 0.049917 0.227038
O O4 0.155400 0.204694 0.413052
O O5 0.141934 0.288164 0.171566
O O6 0.074187 0.122029 0.033855
O O7 0.029213 0.004948 0.210936
O O8 0.085091 0.872554 0.063649
O O9 0.631513 0.994125 0.960134
O O10 0.456784 0.353010 0.805365
O O11 0.505159 0.282172 0.992907
O O12 0.435392 0.131283 0.937099
O O13 0.926344 0.148078 0.575422
O O14 0.958204 0.016427 0.386257
O O15 0.051965 0.891813 0.835793
#
# Coordination Sequence:
#
# PCOD9430766 Si02
#       8
#     4   8   8   8   8   8   8   8
#     4   8  20  40  62  96 120 146 190 270 322 372
#     4  10  20  37  61  89 121 151 193 256 316 373
#     4   9  18  38  55  80 117 169 203 247 308 364
#     4  10  23  35  61  93 120 146 196 252 320 370
#     4   9  18  35  53  76 111 159 217 254 293 341
#     4  12  22  33  57  90 113 164 210 258 301 361
#     4   9  21  36  51  77 122 165 204 247 297 357
#     4   9  22  38  52  78 126 168 213 254 297 362
#
# _framework density 19.441502
#
# number of rings (size 3 to 8) (size 9 to 14) (size 15 to 20)
#    0.800    1.600    1.333    2.400    1.867    7.467 
#    0.000    1.333    0.000    0.800    0.000    1.867 
#    0.000    0.000    0.000    0.000    0.000    0.000 
#
# Total GULP energy -334273.129142 kJ/mol
# GULP energy per Si atom -5571.218819 kJ/mol
# Density = 1.939725 g / cm^3
# Si number density = 19.441502 Si / 1000 Ang^3
#
#
#
# Elastic Constant Matrix: (Units=GPa)
#
#
# Indices 1 2 3 4 5 6 
#
# 1 97.9278 31.2418 27.8649 0.0000 0.0000 0.0000
# 2 31.2418 116.0793 30.6880 0.0000 0.0000 0.0000
# 3 27.8649 30.6880 93.7268 0.0000 0.0000 0.0000
# 4 0.0000 0.0000 0.0000 21.4395 0.0000 0.0000
# 5 0.0000 0.0000 0.0000 0.0000 32.0004 0.0000
# 6 0.0000 0.0000 0.0000 0.0000 0.0000 22.5773
#
#
#
# Elastic Compliance Matrix: (Units=1/GPa)
#
#
# Indices 1 2 3 4 5 6 
#
# 1 0.011761 -0.002453 -0.002693 0.000000 0.000000 0.000000
# 2 -0.002453 0.009943 -0.002526 0.000000 0.000000 0.000000
# 3 -0.002693 -0.002526 0.012297 0.000000 0.000000 0.000000
# 4 0.000000 0.000000 0.000000 0.046643 0.000000 0.000000
# 5 0.000000 0.000000 0.000000 0.000000 0.031250 0.000000
# 6 0.000000 0.000000 0.000000 0.000000 0.000000 0.044292
#
#
# Mechanical properties :
#
#
# Convention : Reuss Voigt Hill
#
# Bulk Modulus (GPa) = 53.60370 54.14704 53.87537
# Shear Modulus (GPa) = 28.12954 29.73271 28.93113
#
# Velocity S-wave (km/s) = 3.80792 3.91492 3.86179
# Velocity P-wave (km/s) = 6.85312 6.95322 6.90335
#
# Compressibility (1/GPa) = 0.01865543
#
# Stress axis : x y z
#
# Youngs Moduli (GPa) = 85.02964 100.57404 81.32007
#
# Poissons Ratio (x) = 0.24674 0.21901
# Poissons Ratio (y) = 0.20860 0.20543
# Poissons Ratio (z) = 0.22900 0.25407
#
# Static dielectric constant tensor:
#      x y z
#    x 1.720410 0.000000 0.000000 
#    y 0.000000 1.694590 0.000000 
#    z 0.000000 0.000000 1.752890 
# 
# From -- ./inp_files/9172.got.cif
#   From: 2010.05.17/outbox.cif.g08.bks.cpg/sg56_5_cif.got.tgz:9172.got - 2010.06.03 13:42:01.
