data_PCOD9430643
_publ_section_title
;
Structure prediction by ZEFSAII (Michael W. Deem and Ramdas Pophale) SiO2 
 PCOD9430643
Probable space group: P C C N
;
_chemical_formula_sum "Si O2"
_cell_formula_units_Z 52
_cell_length_a 9.875030
_cell_length_b 16.709176
_cell_length_c 13.300277
_cell_angle_alpha 90.000000
_cell_angle_beta 90.000000
_cell_angle_gamma 90.000000
_cell_volume 2194.593776
_symmetry_space_group_name_H-M "P C C N"
_symmetry_group_IT_number 56
_symmetry_cell_setting 'orthorhombic'
loop_
_space_group_symop_operation_xyz
x,y,z
1/2-x,1/2-y,z
1/2+x,-y,1/2-z
-x,1/2+y,1/2-z
-x,-y,-z
1/2+x,1/2+y,-z
1/2-x,y,1/2+z
x,1/2-y,1/2+z
loop_
_atom_site_type_symbol
_atom_site_label
_atom_site_fract_x
_atom_site_fract_y
_atom_site_fract_z
Si Si1 0.496503 0.883437 0.711595
Si Si2 0.750000 0.750000 0.042657
Si Si3 0.197936 0.123264 0.308275
Si Si4 0.965565 0.940495 0.871604
Si Si5 0.969542 0.193991 0.999151
Si Si6 0.699617 0.975096 0.998606
Si Si7 0.940192 0.373542 0.064595
O O1 0.651919 0.857630 0.730686
O O2 0.444945 0.832858 0.615682
O O3 0.415755 0.876025 0.815267
O O4 0.509087 0.975456 0.676034
O O5 0.663050 0.805992 0.115805
O O6 0.864953 0.798748 0.986087
O O7 0.095470 0.109520 0.220255
O O8 0.203495 0.048273 0.383913
O O9 0.066998 0.881070 0.929613
O O10 0.844109 0.965094 0.947117
O O11 0.921137 0.282092 0.029331
O O12 0.645319 0.065307 0.996219
O O13 0.590915 0.913774 0.948593
#
# Coordination Sequence:
#
# PCOD9430643 Si02
#       7
#     8   4   8   8   8   8   8
#     4  11  24  40  62  93 126 162 215 256 316 381
#     4  10  20  36  56  92 126 148 202 254 318 354
#     4  11  22  37  61  92 123 165 200 256 308 383
#     4  12  23  40  66  91 126 171 207 260 319 375
#     4  11  23  37  62  92 128 161 210 268 313 368
#     4  11  22  40  65  86 128 168 202 250 321 382
#     4  11  23  41  62  95 126 164 208 260 318 382
#
# _framework density 23.694590000000002
#
# number of rings (size 3 to 8) (size 9 to 14) (size 15 to 20)
#    0.000    0.923    7.692    0.462    4.308    0.000 
#    0.000    0.769    0.000    1.846    0.000    0.000 
#    0.000    0.000    0.000    0.000    0.000    0.000 
#
# Total GULP energy -290609.553041 kJ/mol
# GULP energy per Si atom -5588.645251 kJ/mol
# Density = 2.364066 g / cm^3
# Si number density = 23.694590 Si / 1000 Ang^3
#
#
#
# Elastic Constant Matrix: (Units=GPa)
#
#
# Indices 1 2 3 4 5 6 
#
# 1 18.6182 3.2149 -4.1949 0.0000 0.0000 0.0000
# 2 3.2149 183.0147 46.5655 0.0000 0.0000 0.0000
# 3 -4.1949 46.5655 111.0825 0.0000 0.0000 0.0000
# 4 0.0000 0.0000 0.0000 38.0492 0.0000 0.0000
# 5 0.0000 0.0000 0.0000 0.0000 20.4352 0.0000
# 6 0.0000 0.0000 0.0000 0.0000 0.0000 29.8806
#
#
#
# Elastic Compliance Matrix: (Units=1/GPa)
#
#
# Indices 1 2 3 4 5 6 
#
# 1 0.054619 -0.001661 0.002759 0.000000 0.000000 0.000000
# 2 -0.001661 0.006167 -0.002648 0.000000 0.000000 0.000000
# 3 0.002759 -0.002648 0.010217 0.000000 0.000000 0.000000
# 4 0.000000 0.000000 0.000000 0.026282 0.000000 0.000000
# 5 0.000000 0.000000 0.000000 0.000000 0.048935 0.000000
# 6 0.000000 0.000000 0.000000 0.000000 0.000000 0.033467
#
#
# Mechanical properties :
#
#
# Convention : Reuss Voigt Hill
#
# Bulk Modulus (GPa) = 14.72706 44.87628 29.80167
# Shear Modulus (GPa) = 24.34025 35.48165 29.91095
#
# Velocity S-wave (km/s) = 3.20855 3.87390 3.55682
# Velocity P-wave (km/s) = 4.46713 6.24420 5.42887
#
# Compressibility (1/GPa) = 0.06790223
#
# Stress axis : x y z
#
# Youngs Moduli (GPa) = 18.30853 162.15457 97.88076
#
# Poissons Ratio (x) = 0.26942 -0.27006
# Poissons Ratio (y) = 0.03042 0.25918
# Poissons Ratio (z) = -0.05052 0.42937
#
# Static dielectric constant tensor:
#      x y z
#    x 1.950510 0.000000 0.000000 
#    y 0.000000 1.953040 0.000000 
#    z 0.000000 0.000000 1.886650 
# 
# From -- ./inp_files/11795.got.cif
#   From: 2010.05.17/outbox.cif.g08.bks.cpg/sg56_6_cif.got.tgz:11795.got - 2010.06.03 13:42:01.
