data_PCOD9430452
_publ_section_title
;
Structure prediction by ZEFSAII (Michael W. Deem and Ramdas Pophale) SiO2 
 PCOD9430452
Probable space group: P C C N
;
_chemical_formula_sum "Si O2"
_cell_formula_units_Z 64
_cell_length_a 18.870001
_cell_length_b 21.152678
_cell_length_c 9.065130
_cell_angle_alpha 90.000000
_cell_angle_beta 90.000000
_cell_angle_gamma 90.000000
_cell_volume 3618.356203
_symmetry_space_group_name_H-M "P C C N"
_symmetry_group_IT_number 56
_symmetry_cell_setting 'orthorhombic'
loop_
_space_group_symop_operation_xyz
x,y,z
1/2-x,1/2-y,z
1/2+x,-y,1/2-z
-x,1/2+y,1/2-z
-x,-y,-z
1/2+x,1/2+y,-z
1/2-x,y,1/2+z
x,1/2-y,1/2+z
loop_
_atom_site_type_symbol
_atom_site_label
_atom_site_fract_x
_atom_site_fract_y
_atom_site_fract_z
Si Si1 0.182018 0.578707 0.794763
Si Si2 0.610232 0.805243 0.836373
Si Si3 0.052555 0.830765 0.320150
Si Si4 0.210365 0.404832 0.292705
Si Si5 0.682325 0.702516 0.655911
Si Si6 0.880413 0.261102 0.439246
Si Si7 0.245576 0.004409 0.044802
Si Si8 0.794392 0.308749 0.681032
O O1 0.103457 0.607788 0.810305
O O2 0.194627 0.537353 0.648225
O O3 0.240367 0.635235 0.786609
O O4 0.205786 0.538070 0.937388
O O5 0.530497 0.829959 0.851685
O O6 0.649166 0.854258 0.728378
O O7 0.625591 0.736214 0.764141
O O8 0.649055 0.805273 0.994402
O O9 0.063401 0.794244 0.166319
O O10 0.087420 0.787998 0.446768
O O11 0.283627 0.364033 0.292718
O O12 0.209342 0.453461 0.157648
O O13 0.205925 0.446121 0.439468
O O14 0.750000 0.750000 0.647956
O O15 0.846619 0.316528 0.542083
O O16 0.831309 0.220060 0.327004
O O17 0.750000 0.250000 0.620701
#
# Coordination Sequence:
#
# PCOD9430452 Si02
#       8
#     8   8   8   8   8   8   8   8
#     4  11  21  34  56  82 113 149 194 238 277 324
#     4  11  22  36  59  91 116 148 178 224 312 364
#     4  11  22  35  51  83 127 151 178 227 289 370
#     4  10  20  40  62  82 111 140 192 253 279 328
#     4  10  20  36  64  91 112 140 185 245 296 346
#     4  10  20  32  51  80 119 149 183 223 288 339
#     4  10  22  37  59  83 105 148 206 242 270 316
#     4  11  19  31  57  80 108 146 198 242 286 315
#
# _framework density 17.687588999999999
#
# number of rings (size 3 to 8) (size 9 to 14) (size 15 to 20)
#    0.000    1.500    3.750    3.750    1.750    0.000 
#    0.000    1.250    0.000    0.000    0.000    0.000 
#    0.000    0.000    0.000    0.000    0.000    0.000 
#
# Total GULP energy -356666.815596 kJ/mol
# GULP energy per Si atom -5572.918994 kJ/mol
# Density = 1.764733 g / cm^3
# Si number density = 17.687589 Si / 1000 Ang^3
#
#
#
# Elastic Constant Matrix: (Units=GPa)
#
#
# Indices 1 2 3 4 5 6 
#
# 1 78.2708 21.6603 19.4751 0.0000 0.0000 0.0000
# 2 21.6603 79.6549 23.5502 0.0000 0.0000 0.0000
# 3 19.4751 23.5502 90.9220 0.0000 0.0000 0.0000
# 4 0.0000 0.0000 0.0000 24.7647 0.0000 0.0000
# 5 0.0000 0.0000 0.0000 0.0000 17.4832 0.0000
# 6 0.0000 0.0000 0.0000 0.0000 0.0000 12.7364
#
#
#
# Elastic Compliance Matrix: (Units=1/GPa)
#
#
# Indices 1 2 3 4 5 6 
#
# 1 0.014215 -0.003211 -0.002213 0.000000 0.000000 0.000000
# 2 -0.003211 0.014321 -0.003021 0.000000 0.000000 0.000000
# 3 -0.002213 -0.003021 0.012255 0.000000 0.000000 0.000000
# 4 0.000000 0.000000 0.000000 0.040380 0.000000 0.000000
# 5 0.000000 0.000000 0.000000 0.000000 0.057198 0.000000
# 6 0.000000 0.000000 0.000000 0.000000 0.000000 0.078515
#
#
# Mechanical properties :
#
#
# Convention : Reuss Voigt Hill
#
# Bulk Modulus (GPa) = 41.84168 42.02430 41.93299
# Shear Modulus (GPa) = 20.68318 23.27434 21.97876
#
# Velocity S-wave (km/s) = 3.42330 3.63141 3.52889
# Velocity P-wave (km/s) = 6.27157 6.43379 6.35320
#
# Compressibility (1/GPa) = 0.02389961
#
# Stress axis : x y z
#
# Youngs Moduli (GPa) = 70.34582 69.82913 81.59885
#
# Poissons Ratio (x) = 0.22424 0.18059
# Poissons Ratio (y) = 0.22590 0.24655
# Poissons Ratio (z) = 0.15568 0.21098
#
# Static dielectric constant tensor:
#      x y z
#    x 1.640740 0.000000 0.000000 
#    y 0.000000 1.619050 0.000000 
#    z 0.000000 0.000000 1.627520 
# 
# From -- ./inp_files/4239.got.cif
#   From: 2010.05.17/outbox.cif.g08.bks.cpg/sg56_3_cif.got.tgz:4239.got - 2010.06.03 13:42:01.
