data_PCOD9430826
_publ_section_title
;
Structure prediction by ZEFSAII (Michael W. Deem and Ramdas Pophale) SiO2 
 PCOD9430826
Probable space group: P C C N
;
_chemical_formula_sum "Si O2"
_cell_formula_units_Z 40
_cell_length_a 17.483509
_cell_length_b 13.363410
_cell_length_c 8.971501
_cell_angle_alpha 90.000000
_cell_angle_beta 90.000000
_cell_angle_gamma 90.000000
_cell_volume 2096.095205
_symmetry_space_group_name_H-M "P C C N"
_symmetry_group_IT_number 56
_symmetry_cell_setting 'orthorhombic'
loop_
_space_group_symop_operation_xyz
x,y,z
1/2-x,1/2-y,z
1/2+x,-y,1/2-z
-x,1/2+y,1/2-z
-x,-y,-z
1/2+x,1/2+y,-z
1/2-x,y,1/2+z
x,1/2-y,1/2+z
loop_
_atom_site_type_symbol
_atom_site_label
_atom_site_fract_x
_atom_site_fract_y
_atom_site_fract_z
Si Si1 0.358235 0.173126 0.366819
Si Si2 0.517803 0.657346 0.587274
Si Si3 0.057625 0.474321 0.191055
Si Si4 0.649464 0.152573 0.904804
Si Si5 0.250000 0.750000 0.346961
Si Si6 0.250000 0.250000 0.114846
O O1 0.415394 0.267705 0.373246
O O2 0.409879 0.075400 0.339523
O O3 0.304522 0.185979 0.222234
O O4 0.303190 0.181701 0.509029
O O5 0.530686 0.611090 0.423037
O O6 0.507352 0.560713 0.696452
O O7 0.433562 0.706649 0.589224
O O8 0.125365 0.537074 0.110567
O O9 0.694938 0.186864 0.759663
O O10 0.699487 0.179814 0.046784
#
# Coordination Sequence:
#
# PCOD9430826 Si02
#       6
#     8   8   8   8   4   4
#     4  11  20  41  60  88 121 162 197 254 296 361
#     4   9  20  37  63  84 113 161 198 246 291 350
#     4   9  20  38  62  87 116 157 202 245 296 350
#     4   9  21  36  60  86 119 151 199 235 302 350
#     4  10  20  38  58  92 116 158 186 254 298 346
#     4  10  24  34  60  86 122 162 194 238 314 350
#
# _framework density 19.083103000000001
#
# number of rings (size 3 to 8) (size 9 to 14) (size 15 to 20)
#    1.200    1.200    2.000    0.000    2.800    1.600 
#    0.000    1.000    0.000    0.000    0.000    0.000 
#    0.000    0.000    0.000    0.000    0.000    0.000 
#
# Total GULP energy -222670.930574 kJ/mol
# GULP energy per Si atom -5566.773264 kJ/mol
# Density = 1.903967 g / cm^3
# Si number density = 19.083103 Si / 1000 Ang^3
#
#
#
# Elastic Constant Matrix: (Units=GPa)
#
#
# Indices 1 2 3 4 5 6 
#
# 1 103.4508 41.2227 37.4861 0.0000 0.0000 0.0000
# 2 41.2227 31.6070 12.8678 0.0000 0.0000 0.0000
# 3 37.4861 12.8678 75.5206 0.0000 0.0000 0.0000
# 4 0.0000 0.0000 0.0000 7.1070 0.0000 0.0000
# 5 0.0000 0.0000 0.0000 0.0000 24.5787 0.0000
# 6 0.0000 0.0000 0.0000 0.0000 0.0000 -12.7489
#
#
#
# Elastic Compliance Matrix: (Units=1/GPa)
#
#
# Indices 1 2 3 4 5 6 
#
# 1 0.022942 -0.027170 -0.006758 0.000000 0.000000 0.000000
# 2 -0.027170 0.066175 0.002211 0.000000 0.000000 0.000000
# 3 -0.006758 0.002211 0.016219 0.000000 0.000000 0.000000
# 4 0.000000 0.000000 0.000000 0.140707 0.000000 0.000000
# 5 0.000000 0.000000 0.000000 0.000000 0.040686 0.000000
# 6 0.000000 0.000000 0.000000 0.000000 0.000000 -0.078438
#
#
# Mechanical properties :
#
#
# Convention : Reuss Voigt Hill
#
# Bulk Modulus (GPa) = 23.86570 43.74796 33.80683
# Shear Modulus (GPa) = 17.50140 11.72083 14.61112
#
# Velocity S-wave (km/s) = 3.03168 2.48099 2.77005
# Velocity P-wave (km/s) = 4.97876 5.58407 5.29008
#
# Compressibility (1/GPa) = 0.04190115
#
# Stress axis : x y z
#
# Youngs Moduli (GPa) = 43.58814 15.11156 61.65516
#
# Poissons Ratio (x) = 0.41058 0.41668
# Poissons Ratio (y) = 1.18430 -0.13633
# Poissons Ratio (z) = 0.29458 -0.03341
#
# Static dielectric constant tensor:
#      x y z
#    x 1.701090 0.000000 0.000000 
#    y 0.000000 1.678950 0.000000 
#    z 0.000000 0.000000 1.658810 
# 
# From -- ./inp_files/2631.got.cif
#   From: 2010.05.17/outbox.cif.g08.bks.cpg/sg56_2_cif.got.tgz:2631.got - 2010.06.03 13:42:01.
