data_PCOD9430564
_publ_section_title
;
Structure prediction by ZEFSAII (Michael W. Deem and Ramdas Pophale) SiO2 
 PCOD9430564
Probable space group: P C C N
;
_chemical_formula_sum "Si O2"
_cell_formula_units_Z 40
_cell_length_a 7.728362
_cell_length_b 21.323929
_cell_length_c 9.284972
_cell_angle_alpha 90.000000
_cell_angle_beta 90.000000
_cell_angle_gamma 90.000000
_cell_volume 1530.154496
_symmetry_space_group_name_H-M "P C C N"
_symmetry_group_IT_number 56
_symmetry_cell_setting 'orthorhombic'
loop_
_space_group_symop_operation_xyz
x,y,z
1/2-x,1/2-y,z
1/2+x,-y,1/2-z
-x,1/2+y,1/2-z
-x,-y,-z
1/2+x,1/2+y,-z
1/2-x,y,1/2+z
x,1/2-y,1/2+z
loop_
_atom_site_type_symbol
_atom_site_label
_atom_site_fract_x
_atom_site_fract_y
_atom_site_fract_z
Si Si1 0.226486 0.616665 0.371374
Si Si2 0.765970 0.817189 0.805458
Si Si3 0.076285 0.107102 0.445442
Si Si4 0.461009 0.648497 0.142549
Si Si5 0.631464 0.517161 0.127796
O O1 0.387036 0.603394 0.483037
O O2 0.300517 0.659639 0.246586
O O3 0.086906 0.647696 0.476556
O O4 0.161752 0.550802 0.302913
O O5 0.750000 0.750000 0.880076
O O6 0.700734 0.864516 0.929304
O O7 0.906874 0.850139 0.699683
O O8 0.611006 0.806436 0.688958
O O9 0.176858 0.042520 0.409354
O O10 0.535090 0.578941 0.186577
O O11 0.500000 0.500000 0.000000
#
# Coordination Sequence:
#
# PCOD9430564 Si02
#       5
#     8   8   8   8   8
#     4  10  20  35  55  84 119 148 181 230 280 337
#     4  10  21  40  60  80 107 144 191 239 281 331
#     4  10  21  35  58  86 109 146 191 229 283 339
#     4   9  21  36  56  85 113 148 189 226 277 339
#     4   9  19  34  53  81 118 150 181 222 273 336
#
# _framework density 26.141151000000001
#
# number of rings (size 3 to 8) (size 9 to 14) (size 15 to 20)
#    0.000    2.400    0.000    1.200    0.000   16.000 
#    0.000    1.000    0.000    7.200    0.000    0.000 
#    0.000    0.000    0.000    0.000    0.000    0.000 
#
# Total GULP energy -223206.846334 kJ/mol
# GULP energy per Si atom -5580.171158 kJ/mol
# Density = 2.608165 g / cm^3
# Si number density = 26.141151 Si / 1000 Ang^3
#
#
#
# Elastic Constant Matrix: (Units=GPa)
#
#
# Indices 1 2 3 4 5 6 
#
# 1 72.7859 -33.5795 -6.6554 0.0000 0.0000 0.0000
# 2 -33.5795 45.3970 -8.7922 0.0000 0.0000 0.0000
# 3 -6.6554 -8.7922 125.2791 0.0000 0.0000 0.0000
# 4 0.0000 0.0000 0.0000 18.0830 0.0000 0.0000
# 5 0.0000 0.0000 0.0000 0.0000 48.5895 0.0000
# 6 0.0000 0.0000 0.0000 0.0000 0.0000 9.5244
#
#
#
# Elastic Compliance Matrix: (Units=1/GPa)
#
#
# Indices 1 2 3 4 5 6 
#
# 1 0.021484 0.016334 0.002288 0.000000 0.000000 0.000000
# 2 0.016334 0.034751 0.003307 0.000000 0.000000 0.000000
# 3 0.002288 0.003307 0.008336 0.000000 0.000000 0.000000
# 4 0.000000 0.000000 0.000000 0.055301 0.000000 0.000000
# 5 0.000000 0.000000 0.000000 0.000000 0.020581 0.000000
# 6 0.000000 0.000000 0.000000 0.000000 0.000000 0.104993
#
#
# Mechanical properties :
#
#
# Convention : Reuss Voigt Hill
#
# Bulk Modulus (GPa) = 9.22274 16.15643 12.68959
# Shear Modulus (GPa) = 21.03225 34.73865 27.88545
#
# Velocity S-wave (km/s) = 2.83956 3.64935 3.26962
# Velocity P-wave (km/s) = 3.77975 4.89396 4.37249
#
# Compressibility (1/GPa) = 0.10842760
#
# Stress axis : x y z
#
# Youngs Moduli (GPa) = 46.54647 28.77647 119.96495
#
# Poissons Ratio (x) = -0.47005 -0.27444
# Poissons Ratio (y) = -0.76031 -0.39667
# Poissons Ratio (z) = -0.10648 -0.09515
#
# Static dielectric constant tensor:
#      x y z
#    x 2.202930 0.000000 0.000000 
#    y 0.000000 2.756680 0.000000 
#    z 0.000000 0.000000 2.090220 
# 
# From -- ./inp_files/2046.got.cif
#   From: 2010.05.17/outbox.cif.g08.bks.cpg/sg56_2_cif.got.tgz:2046.got - 2010.06.03 13:42:01.
