data_PCOD9430736
_publ_section_title
;
Structure prediction by ZEFSAII (Michael W. Deem and Ramdas Pophale) SiO2 
 PCOD9430736
Probable space group: P C C N
;
_chemical_formula_sum "Si O2"
_cell_formula_units_Z 48
_cell_length_a 9.319627
_cell_length_b 9.515665
_cell_length_c 28.608361
_cell_angle_alpha 90.000000
_cell_angle_beta 90.000000
_cell_angle_gamma 90.000000
_cell_volume 2537.059500
_symmetry_space_group_name_H-M "P C C N"
_symmetry_group_IT_number 56
_symmetry_cell_setting 'orthorhombic'
loop_
_space_group_symop_operation_xyz
x,y,z
1/2-x,1/2-y,z
1/2+x,-y,1/2-z
-x,1/2+y,1/2-z
-x,-y,-z
1/2+x,1/2+y,-z
1/2-x,y,1/2+z
x,1/2-y,1/2+z
loop_
_atom_site_type_symbol
_atom_site_label
_atom_site_fract_x
_atom_site_fract_y
_atom_site_fract_z
Si Si1 0.547120 0.253989 0.074534
Si Si2 0.527803 0.145478 0.176241
Si Si3 0.250000 0.750000 0.248223
Si Si4 0.033586 0.160404 0.305471
Si Si5 0.255598 0.003382 0.948724
Si Si6 0.250000 0.250000 0.229147
Si Si7 0.250000 0.250000 0.024734
Si Si8 0.250000 0.250000 0.873760
O O1 0.559539 0.237264 0.130582
O O2 0.618649 0.113051 0.052820
O O3 0.621323 0.397600 0.057279
O O4 0.386471 0.255535 0.057607
O O5 0.649935 0.163791 0.215694
O O6 0.371372 0.177542 0.197821
O O7 0.527838 0.981859 0.165501
O O8 0.375670 0.813369 0.215391
O O9 0.149222 0.154468 0.262814
O O10 0.110159 0.269417 0.340501
O O11 0.262529 0.113014 0.905931
O O12 0.253445 0.108895 0.992733
#
# Coordination Sequence:
#
# PCOD9430736 Si02
#       8
#     8   8   4   8   8   4   4   4
#     4  11  22  40  65  92 118 161 194 252 295 367
#     4  11  20  37  58  87 121 154 209 244 298 342
#     4  10  22  36  56  90 116 166 196 256 286 352
#     4  10  20  37  58  82 121 159 212 238 302 337
#     4  10  22  41  64  88 123 155 200 236 317 362
#     4   9  21  35  53  86 118 166 193 257 289 349
#     4  11  23  41  65  94 120 152 197 251 303 365
#     4  10  20  40  60  86 116 168 192 258 286 368
#
# _framework density 18.919540000000001
#
# number of rings (size 3 to 8) (size 9 to 14) (size 15 to 20)
#    0.000    1.667    1.667    3.500    0.000    0.000 
#   12.000    0.000    0.000    0.000    0.000    0.000 
#    0.000    0.000    0.000    0.000    0.000    0.000 
#
# Total GULP energy -267240.760790 kJ/mol
# GULP energy per Si atom -5567.515850 kJ/mol
# Density = 1.887648 g / cm^3
# Si number density = 18.919540 Si / 1000 Ang^3
#
#
#
# Elastic Constant Matrix: (Units=GPa)
#
#
# Indices 1 2 3 4 5 6 
#
# 1 154.6577 31.9114 19.3388 0.0000 0.0000 0.0000
# 2 31.9114 85.9408 13.7994 0.0000 0.0000 0.0000
# 3 19.3388 13.7994 40.8824 0.0000 0.0000 0.0000
# 4 0.0000 0.0000 0.0000 29.7887 0.0000 0.0000
# 5 0.0000 0.0000 0.0000 0.0000 -41.5281 0.0000
# 6 0.0000 0.0000 0.0000 0.0000 0.0000 7.0211
#
#
#
# Elastic Compliance Matrix: (Units=1/GPa)
#
#
# Indices 1 2 3 4 5 6 
#
# 1 0.007268 -0.002270 -0.002672 0.000000 0.000000 0.000000
# 2 -0.002270 0.013012 -0.003318 0.000000 0.000000 0.000000
# 3 -0.002672 -0.003318 0.026844 0.000000 0.000000 0.000000
# 4 0.000000 0.000000 0.000000 0.033570 0.000000 0.000000
# 5 0.000000 0.000000 0.000000 0.000000 -0.024080 0.000000
# 6 0.000000 0.000000 0.000000 0.000000 0.000000 0.142429
#
#
# Mechanical properties :
#
#
# Convention : Reuss Voigt Hill
#
# Bulk Modulus (GPa) = 32.67530 45.73112 39.20321
# Shear Modulus (GPa) = 22.14702 13.48510 17.81606
#
# Velocity S-wave (km/s) = 3.42510 2.67265 3.07200
# Velocity P-wave (km/s) = 5.74020 5.80930 5.77485
#
# Compressibility (1/GPa) = 0.03060415
#
# Stress axis : x y z
#
# Youngs Moduli (GPa) = 137.58270 76.85487 37.25178
#
# Poissons Ratio (x) = 0.17445 0.09954
# Poissons Ratio (y) = 0.31229 0.12361
# Poissons Ratio (z) = 0.36762 0.25502
#
# Static dielectric constant tensor:
#      x y z
#    x 1.650880 0.000000 0.000000 
#    y 0.000000 1.659300 0.000000 
#    z 0.000000 0.000000 1.653950 
# 
# From -- ./inp_files/23305.got.cif
#   From: 2010.05.17/outbox.cif.g08.bks.cpg/sg56_12_cif.got.tgz:23305.got - 2010.06.03 13:42:01.
