data_PCOD9430310
_publ_section_title
;
Structure prediction by ZEFSAII (Michael W. Deem and Ramdas Pophale) SiO2 
 PCOD9430310
Probable space group: P C C N
;
_chemical_formula_sum "Si O2"
_cell_formula_units_Z 44
_cell_length_a 7.289198
_cell_length_b 16.999139
_cell_length_c 14.438556
_cell_angle_alpha 90.000000
_cell_angle_beta 90.000000
_cell_angle_gamma 90.000000
_cell_volume 1789.082773
_symmetry_space_group_name_H-M "P C C N"
_symmetry_group_IT_number 56
_symmetry_cell_setting 'orthorhombic'
loop_
_space_group_symop_operation_xyz
x,y,z
1/2-x,1/2-y,z
1/2+x,-y,1/2-z
-x,1/2+y,1/2-z
-x,-y,-z
1/2+x,1/2+y,-z
1/2-x,y,1/2+z
x,1/2-y,1/2+z
loop_
_atom_site_type_symbol
_atom_site_label
_atom_site_fract_x
_atom_site_fract_y
_atom_site_fract_z
Si Si1 0.170687 0.626114 0.862597
Si Si2 0.480331 0.692768 0.189723
Si Si3 0.637901 0.538063 0.575196
Si Si4 0.625862 0.637537 0.735391
Si Si5 0.253600 0.154628 0.073875
Si Si6 0.750000 0.250000 0.481658
O O1 0.176710 0.657372 0.757184
O O2 0.231418 0.536718 0.876559
O O3 0.954196 0.636565 0.884810
O O4 0.246966 0.678791 0.945305
O O5 0.661337 0.638535 0.199138
O O6 0.552504 0.774590 0.230340
O O7 0.406768 0.719951 0.089638
O O8 0.500000 0.500000 0.500000
O O9 0.533548 0.582468 0.658888
O O10 0.754426 0.601737 0.517343
O O11 0.621712 0.622620 0.844924
O O12 0.250000 0.250000 0.059844
#
# Coordination Sequence:
#
# PCOD9430310 Si02
#       6
#     8   8   8   8   8   4
#     4  10  22  41  55  93 132 165 213 265 330 399
#     4  10  21  39  64  92 119 170 228 270 325 401
#     4  10  22  36  62  96 132 161 202 278 337 375
#     4  10  20  39  68  93 118 166 229 282 315 389
#     4  10  19  37  67  94 120 162 227 271 315 385
#     4  12  24  38  64  86 130 180 204 264 354 402
#
# _framework density 24.593609000000001
#
# number of rings (size 3 to 8) (size 9 to 14) (size 15 to 20)
#    0.000    1.818    3.636    2.727    5.091    1.455 
#    0.000    8.182    0.000    0.000    0.000    0.000 
#    0.000    0.000    0.000    0.000    0.000    0.000 
#
# Total GULP energy -245402.146698 kJ/mol
# GULP energy per Si atom -5577.321516 kJ/mol
# Density = 2.453763 g / cm^3
# Si number density = 24.593609 Si / 1000 Ang^3
#
#
#
# Elastic Constant Matrix: (Units=GPa)
#
#
# Indices 1 2 3 4 5 6 
#
# 1 39.8719 -1.4901 28.4798 0.0000 0.0000 0.0000
# 2 -1.4901 149.6157 84.3293 0.0000 0.0000 0.0000
# 3 28.4798 84.3293 200.8654 0.0000 0.0000 0.0000
# 4 0.0000 0.0000 0.0000 47.5513 0.0000 0.0000
# 5 0.0000 0.0000 0.0000 0.0000 6.9695 0.0000
# 6 0.0000 0.0000 0.0000 0.0000 0.0000 19.9920
#
#
#
# Elastic Compliance Matrix: (Units=1/GPa)
#
#
# Indices 1 2 3 4 5 6 
#
# 1 0.029197 0.003437 -0.005583 0.000000 0.000000 0.000000
# 2 0.003437 0.009160 -0.004333 0.000000 0.000000 0.000000
# 3 -0.005583 -0.004333 0.007589 0.000000 0.000000 0.000000
# 4 0.000000 0.000000 0.000000 0.021030 0.000000 0.000000
# 5 0.000000 0.000000 0.000000 0.000000 0.143482 0.000000
# 6 0.000000 0.000000 0.000000 0.000000 0.000000 0.050020
#
#
# Mechanical properties :
#
#
# Convention : Reuss Voigt Hill
#
# Bulk Modulus (GPa) = 30.31307 68.11012 49.21159
# Shear Modulus (GPa) = 17.57894 33.50483 25.54189
#
# Velocity S-wave (km/s) = 2.67643 3.69499 3.22616
# Velocity P-wave (km/s) = 4.68011 6.77926 5.82502
#
# Compressibility (1/GPa) = 0.03298907
#
# Stress axis : x y z
#
# Youngs Moduli (GPa) = 34.25068 109.16580 131.76589
#
# Poissons Ratio (x) = -0.37525 0.73562
# Poissons Ratio (y) = -0.11774 0.57097
# Poissons Ratio (z) = 0.19121 0.47304
#
# Static dielectric constant tensor:
#      x y z
#    x 2.011000 0.000000 0.000000 
#    y 0.000000 1.975240 0.000000 
#    z 0.000000 0.000000 2.159240 
# 
# From -- ./inp_files/10570.got.cif
#   From: 2010.05.17/outbox.cif.g08.bks.cpg/sg56_6_cif.got.tgz:10570.got - 2010.06.03 13:42:01.
