data_PCOD9430575
_publ_section_title
;
Structure prediction by ZEFSAII (Michael W. Deem and Ramdas Pophale) SiO2 
 PCOD9430575
Probable space group: P C C N
;
_chemical_formula_sum "Si O2"
_cell_formula_units_Z 48
_cell_length_a 8.330860
_cell_length_b 15.265177
_cell_length_c 14.398415
_cell_angle_alpha 90.000000
_cell_angle_beta 90.000000
_cell_angle_gamma 90.000000
_cell_volume 1831.075988
_symmetry_space_group_name_H-M "P C C N"
_symmetry_group_IT_number 56
_symmetry_cell_setting 'orthorhombic'
loop_
_space_group_symop_operation_xyz
x,y,z
1/2-x,1/2-y,z
1/2+x,-y,1/2-z
-x,1/2+y,1/2-z
-x,-y,-z
1/2+x,1/2+y,-z
1/2-x,y,1/2+z
x,1/2-y,1/2+z
loop_
_atom_site_type_symbol
_atom_site_label
_atom_site_fract_x
_atom_site_fract_y
_atom_site_fract_z
Si Si1 0.315685 0.479789 0.027071
Si Si2 0.591367 0.713547 0.308512
Si Si3 0.848395 0.425494 0.196570
Si Si4 0.810875 0.153204 0.903538
Si Si5 0.015378 0.088576 0.202267
Si Si6 0.825235 0.659258 0.604285
O O1 0.230356 0.572566 0.043002
O O2 0.347584 0.431456 0.125161
O O3 0.500000 0.500000 0.000000
O O4 0.239319 0.418419 0.949837
O O5 0.750000 0.750000 0.359583
O O6 0.464060 0.646473 0.352476
O O7 0.511719 0.806896 0.276672
O O8 0.657100 0.661587 0.216363
O O9 0.818593 0.379155 0.297336
O O10 0.663685 0.434724 0.164588
O O11 0.940137 0.516896 0.218566
O O12 0.750000 0.250000 0.913318
O O13 0.995166 0.159309 0.933785
O O14 0.750000 0.750000 0.579924
#
# Coordination Sequence:
#
# PCOD9430575 Si02
#       6
#     8   8   8   8   8   8
#     4   9  20  37  57  80 118 160 194 239 307 371
#     4  10  20  36  61  90 117 153 201 251 306 366
#     4  10  20  35  56  86 120 153 198 256 303 353
#     4   9  17  34  58  83 114 156 197 241 296 353
#     4  11  21  35  59  88 116 156 207 257 307 369
#     4   9  18  35  59  83 114 158 195 238 305 374
#
# _framework density 26.214093999999999
#
# number of rings (size 3 to 8) (size 9 to 14) (size 15 to 20)
#    0.000    2.333    0.000    4.500    0.000    3.333 
#    0.000    7.500    0.000    0.000    0.000    3.500 
#    0.000    0.000    0.000    0.000    0.000    0.000 
#
# Total GULP energy -267971.303087 kJ/mol
# GULP energy per Si atom -5582.735481 kJ/mol
# Density = 2.615443 g / cm^3
# Si number density = 26.214094 Si / 1000 Ang^3
#
#
#
# Elastic Constant Matrix: (Units=GPa)
#
#
# Indices 1 2 3 4 5 6 
#
# 1 100.1901 31.0653 15.7570 0.0000 0.0000 0.0000
# 2 31.0653 173.7118 61.1775 0.0000 0.0000 0.0000
# 3 15.7570 61.1775 69.0763 0.0000 0.0000 0.0000
# 4 0.0000 0.0000 0.0000 31.5924 0.0000 0.0000
# 5 0.0000 0.0000 0.0000 0.0000-2786.7838 0.0000
# 6 0.0000 0.0000 0.0000 0.0000 0.0000 51.6046
#
#
#
# Elastic Compliance Matrix: (Units=1/GPa)
#
#
# Indices 1 2 3 4 5 6 
#
# 1 0.010622 -0.001520 -0.001076 0.000000 0.000000 0.000000
# 2 -0.001520 0.008584 -0.007255 0.000000 0.000000 0.000000
# 3 -0.001076 -0.007255 0.021148 0.000000 0.000000 0.000000
# 4 0.000000 0.000000 0.000000 0.031653 0.000000 0.000000
# 5 0.000000 0.000000 0.000000 0.000000 -0.000359 0.000000
# 6 0.000000 0.000000 0.000000 0.000000 0.000000 0.019378
#
#
# Mechanical properties :
#
#
# Convention : Reuss Voigt Hill
#
# Bulk Modulus (GPa) = 48.42808 62.10863 55.26835
# Shear Modulus (GPa) = 42.51219 -525.05212 -241.26996
#
# Velocity S-wave (km/s) = 4.03144 -14.16787 -9.60407
# Velocity P-wave (km/s) = 6.33910 15.61710 10.09232
#
# Compressibility (1/GPa) = 0.02064918
#
# Stress axis : x y z
#
# Youngs Moduli (GPa) = 94.14651 116.49922 47.28578
#
# Poissons Ratio (x) = 0.17713 0.05090
# Poissons Ratio (y) = 0.14315 0.34308
# Poissons Ratio (z) = 0.10133 0.84525
#
# Static dielectric constant tensor:
#      x y z
#    x 2.153180 0.000000 0.000000 
#    y 0.000000 2.393340 0.000000 
#    z 0.000000 0.000000 2.137560 
# 
# From -- ./inp_files/18087.got.cif
#   From: 2010.05.17/outbox.cif.g08.bks.cpg/sg56_10_cif.got.tgz:18087.got - 2010.06.03 13:42:01.
