data_PCOD9430366
_publ_section_title
;
Structure prediction by ZEFSAII (Michael W. Deem and Ramdas Pophale) SiO2 
 PCOD9430366
Probable space group: P C C N
;
_chemical_formula_sum "Si O2"
_cell_formula_units_Z 48
_cell_length_a 8.679477
_cell_length_b 17.320230
_cell_length_c 15.562763
_cell_angle_alpha 90.000000
_cell_angle_beta 90.000000
_cell_angle_gamma 90.000000
_cell_volume 2339.558533
_symmetry_space_group_name_H-M "P C C N"
_symmetry_group_IT_number 56
_symmetry_cell_setting 'orthorhombic'
loop_
_space_group_symop_operation_xyz
x,y,z
1/2-x,1/2-y,z
1/2+x,-y,1/2-z
-x,1/2+y,1/2-z
-x,-y,-z
1/2+x,1/2+y,-z
1/2-x,y,1/2+z
x,1/2-y,1/2+z
loop_
_atom_site_type_symbol
_atom_site_label
_atom_site_fract_x
_atom_site_fract_y
_atom_site_fract_z
Si Si1 0.339957 0.378226 0.193482
Si Si2 0.080672 0.970696 0.089315
Si Si3 0.397541 0.334394 0.543455
Si Si4 0.224156 0.101079 0.883776
Si Si5 0.895990 0.203067 0.116256
Si Si6 0.195650 0.935145 0.460857
O O1 0.397888 0.461290 0.157724
O O2 0.215152 0.346946 0.124579
O O3 0.277089 0.380423 0.288649
O O4 0.488256 0.323908 0.188820
O O5 0.961850 0.904949 0.117019
O O6 0.250644 0.947700 0.058874
O O7 0.000000 0.000000 0.000000
O O8 0.295547 0.344562 0.457709
O O9 0.499430 0.256649 0.553645
O O10 0.525353 0.401933 0.545109
O O11 0.282766 0.014504 0.908990
O O12 0.750000 0.250000 0.149200
O O13 0.817545 0.128994 0.072260
#
# Coordination Sequence:
#
# PCOD9430366 Si02
#       6
#     8   8   8   8   8   8
#     4  12  23  39  67  98 130 171 226 277 336 394
#     4  10  19  39  63  93 128 169 206 278 332 385
#     4  11  23  40  64  95 129 172 215 272 323 406
#     4  11  23  38  66  97 127 168 222 279 324 395
#     4  10  22  43  64  86 134 181 215 267 342 407
#     4  10  20  41  67  94 126 171 217 265 339 389
#
# _framework density 20.516691999999999
#
# number of rings (size 3 to 8) (size 9 to 14) (size 15 to 20)
#    0.000    1.333    6.667    1.000    2.333    0.000 
#    0.000    9.167    0.000    0.000    0.000    0.000 
#    0.000    0.000    0.000    0.000    0.000    0.000 
#
# Total GULP energy -267917.301642 kJ/mol
# GULP energy per Si atom -5581.610451 kJ/mol
# Density = 2.047000 g / cm^3
# Si number density = 20.516692 Si / 1000 Ang^3
#
#
#
# Elastic Constant Matrix: (Units=GPa)
#
#
# Indices 1 2 3 4 5 6 
#
# 1 137.8680 42.9359 62.3619 0.0000 0.0000 0.0000
# 2 42.9359 59.1062 30.9610 0.0000 0.0000 0.0000
# 3 62.3619 30.9610 147.4491 0.0000 0.0000 0.0000
# 4 0.0000 0.0000 0.0000 5.0746 0.0000 0.0000
# 5 0.0000 0.0000 0.0000 0.0000 25.1779 0.0000
# 6 0.0000 0.0000 0.0000 0.0000 0.0000 48.5933
#
#
#
# Elastic Compliance Matrix: (Units=1/GPa)
#
#
# Indices 1 2 3 4 5 6 
#
# 1 0.010575 -0.005999 -0.003213 0.000000 0.000000 0.000000
# 2 -0.005999 0.022413 -0.002169 0.000000 0.000000 0.000000
# 3 -0.003213 -0.002169 0.008596 0.000000 0.000000 0.000000
# 4 0.000000 0.000000 0.000000 0.197061 0.000000 0.000000
# 5 0.000000 0.000000 0.000000 0.000000 0.039717 0.000000
# 6 0.000000 0.000000 0.000000 0.000000 0.000000 0.020579
#
#
# Mechanical properties :
#
#
# Convention : Reuss Voigt Hill
#
# Bulk Modulus (GPa) = 53.12855 68.54899 60.83877
# Shear Modulus (GPa) = 15.24502 29.64678 22.44590
#
# Velocity S-wave (km/s) = 2.72886 3.80545 3.31120
# Velocity P-wave (km/s) = 5.99002 7.26584 6.65856
#
# Compressibility (1/GPa) = 0.01882227
#
# Stress axis : x y z
#
# Youngs Moduli (GPa) = 94.56458 44.61793 116.32923
#
# Poissons Ratio (x) = 0.26765 0.37375
# Poissons Ratio (y) = 0.56727 0.25232
# Poissons Ratio (z) = 0.30382 0.09678
#
# Static dielectric constant tensor:
#      x y z
#    x 1.771550 0.000000 0.000000 
#    y 0.000000 1.841030 0.000000 
#    z 0.000000 0.000000 1.687900 
# 
# From -- ./inp_files/10782.got.cif
#   From: 2010.05.17/outbox.cif.g08.bks.cpg/sg56_6_cif.got.tgz:10782.got - 2010.06.03 13:42:01.
