data_PCOD9430585
_publ_section_title
;
Structure prediction by ZEFSAII (Michael W. Deem and Ramdas Pophale) SiO2 
 PCOD9430585
Probable space group: P C C N
;
_chemical_formula_sum "Si O2"
_cell_formula_units_Z 52
_cell_length_a 11.604160
_cell_length_b 7.879144
_cell_length_c 24.807837
_cell_angle_alpha 90.000000
_cell_angle_beta 90.000000
_cell_angle_gamma 90.000000
_cell_volume 2268.201565
_symmetry_space_group_name_H-M "P C C N"
_symmetry_group_IT_number 56
_symmetry_cell_setting 'orthorhombic'
loop_
_space_group_symop_operation_xyz
x,y,z
1/2-x,1/2-y,z
1/2+x,-y,1/2-z
-x,1/2+y,1/2-z
-x,-y,-z
1/2+x,1/2+y,-z
1/2-x,y,1/2+z
x,1/2-y,1/2+z
loop_
_atom_site_type_symbol
_atom_site_label
_atom_site_fract_x
_atom_site_fract_y
_atom_site_fract_z
Si Si1 0.814869 0.011027 0.644033
Si Si2 0.679357 0.578821 0.037575
Si Si3 0.017068 0.775121 0.588141
Si Si4 0.472301 0.742514 0.295599
Si Si5 0.695578 0.935419 0.762097
Si Si6 0.393422 0.905575 0.690387
Si Si7 0.250000 0.750000 0.530934
O O1 0.724845 0.983978 0.596323
O O2 0.742280 0.978818 0.700590
O O3 0.921452 0.892989 0.619974
O O4 0.884000 0.183358 0.658410
O O5 0.750000 0.750000 0.020828
O O6 0.553441 0.657785 0.046426
O O7 0.699060 0.412757 0.001411
O O8 0.065851 0.660953 0.634915
O O9 0.136845 0.833518 0.560330
O O10 0.568407 0.599552 0.284156
O O11 0.531900 0.922409 0.301640
O O12 0.409355 0.729998 0.238269
O O13 0.750000 0.750000 0.766182
O O14 0.761909 0.044808 0.805789
#
# Coordination Sequence:
#
# PCOD9430585 Si02
#       7
#     8   8   8   8   8   8   4
#     4  10  21  39  67  94 129 183 218 268 346 419
#     4  10  24  48  72  96 132 179 225 290 362 417
#     4  11  24  44  67  96 133 175 228 291 353 419
#     4  10  20  35  59  95 134 179 219 265 324 417
#     4   9  17  33  55  88 133 171 209 257 325 402
#     4  10  20  35  57  90 132 171 214 269 328 405
#     4  12  28  46  72 102 132 170 238 314 346 418
#
# _framework density 22.925653000000001
#
# number of rings (size 3 to 8) (size 9 to 14) (size 15 to 20)
#    0.000    1.846    0.000    5.538    4.308    2.462 
#    2.769    1.538    0.000    0.000    0.000    0.000 
#    0.000    0.000    0.000    0.000    0.000    0.000 
#
# Total GULP energy -289503.022950 kJ/mol
# GULP energy per Si atom -5567.365826 kJ/mol
# Density = 2.287347 g / cm^3
# Si number density = 22.925653 Si / 1000 Ang^3
#
#
#
# Elastic Constant Matrix: (Units=GPa)
#
#
# Indices 1 2 3 4 5 6 
#
# 1 116.4429 9.5153 25.9905 0.0000 0.0000 0.0000
# 2 9.5153 88.2982 27.4349 0.0000 0.0000 0.0000
# 3 25.9905 27.4349 35.8148 0.0000 0.0000 0.0000
# 4 0.0000 0.0000 0.0000 -3.1273 0.0000 0.0000
# 5 0.0000 0.0000 0.0000 0.0000 8.1156 0.0000
# 6 0.0000 0.0000 0.0000 0.0000 0.0000 -8.5231
#
#
#
# Elastic Compliance Matrix: (Units=1/GPa)
#
#
# Indices 1 2 3 4 5 6 
#
# 1 0.010419 0.001610 -0.008794 0.000000 0.000000 0.000000
# 2 0.001610 0.015111 -0.012744 0.000000 0.000000 0.000000
# 3 -0.008794 -0.012744 0.044065 0.000000 0.000000 0.000000
# 4 0.000000 0.000000 0.000000 -0.319762 0.000000 0.000000
# 5 0.000000 0.000000 0.000000 0.000000 0.123219 0.000000
# 6 0.000000 0.000000 0.000000 0.000000 0.000000 -0.117329
#
#
# Mechanical properties :
#
#
# Convention : Reuss Voigt Hill
#
# Bulk Modulus (GPa) = 33.62552 40.71527 37.17039
# Shear Modulus (GPa) = -25.70619 11.13406 -7.28607
#
# Velocity S-wave (km/s) = -3.35219 2.20616 -1.78466
# Velocity P-wave (km/s) = 0.53280 4.92826 3.46438
#
# Compressibility (1/GPa) = 0.02973932
#
# Stress axis : x y z
#
# Youngs Moduli (GPa) = 95.97606 66.17541 22.69364
#
# Poissons Ratio (x) = -0.10652 0.19957
# Poissons Ratio (y) = -0.15448 0.28920
# Poissons Ratio (z) = 0.84403 0.84332
#
# Static dielectric constant tensor:
#      x y z
#    x 2.637130 0.000000 0.000000 
#    y 0.000000 2.097890 0.000000 
#    z 0.000000 0.000000 1.848800 
# 
# From -- ./inp_files/22271.got.cif
#   From: 2010.05.17/outbox.cif.g08.bks.cpg/sg56_12_cif.got.tgz:22271.got - 2010.06.03 13:42:01.
