data_PCOD9430008
_publ_section_title
;
Structure prediction by ZEFSAII (Michael W. Deem and Ramdas Pophale) SiO2 
 PCOD9430008
Probable space group: P C C N
;
_chemical_formula_sum "Si O2"
_cell_formula_units_Z 40
_cell_length_a 16.484167
_cell_length_b 15.729238
_cell_length_c 8.999837
_cell_angle_alpha 90.000000
_cell_angle_beta 90.000000
_cell_angle_gamma 90.000000
_cell_volume 2333.508211
_symmetry_space_group_name_H-M "P C C N"
_symmetry_group_IT_number 56
_symmetry_cell_setting 'orthorhombic'
loop_
_space_group_symop_operation_xyz
x,y,z
1/2-x,1/2-y,z
1/2+x,-y,1/2-z
-x,1/2+y,1/2-z
-x,-y,-z
1/2+x,1/2+y,-z
1/2-x,y,1/2+z
x,1/2-y,1/2+z
loop_
_atom_site_type_symbol
_atom_site_label
_atom_site_fract_x
_atom_site_fract_y
_atom_site_fract_z
Si Si1 0.532940 0.563524 0.373284
Si Si2 0.210666 0.657971 0.809051
Si Si3 0.924975 0.112177 0.902716
Si Si4 0.438062 0.809106 0.038931
Si Si5 0.624779 0.434943 0.211248
O O1 0.500000 0.500000 0.500000
O O2 0.476641 0.569805 0.227656
O O3 0.517037 0.652951 0.455116
O O4 0.614366 0.520204 0.309654
O O5 0.250000 0.750000 0.784045
O O6 0.164467 0.625410 0.664225
O O7 0.284525 0.593263 0.830616
O O8 0.141287 0.671423 0.934928
O O9 0.950521 0.209773 0.933819
O O10 0.921684 0.061591 0.055286
O O11 0.416692 0.859820 0.189977
#
# Coordination Sequence:
#
# PCOD9430008 Si02
#       5
#     8   8   8   8   8
#     4   9  21  35  45  68 108 147 175 220 268 320
#     4  11  19  29  47  78 110 139 172 214 265 324
#     4  11  19  31  51  74 102 142 184 215 265 325
#     4  10  19  32  48  72 105 141 180 220 265 322
#     4  11  19  29  47  70 110 142 177 213 263 324
#
# _framework density 17.141570999999999
#
# number of rings (size 3 to 8) (size 9 to 14) (size 15 to 20)
#    0.000    1.600    4.000    3.000    0.000    0.000 
#    0.000    0.000    0.000    0.000    0.000    0.000 
#    0.000  217.600    0.000    0.000    0.000    0.000 
#
# Total GULP energy -222675.524658 kJ/mol
# GULP energy per Si atom -5566.888116 kJ/mol
# Density = 1.710256 g / cm^3
# Si number density = 17.141571 Si / 1000 Ang^3
#
#
#
# Elastic Constant Matrix: (Units=GPa)
#
#
# Indices 1 2 3 4 5 6 
#
# 1 39.9601 35.7945 15.6588 0.0000 0.0000 0.0000
# 2 35.7945 53.6281 25.3339 0.0000 0.0000 0.0000
# 3 15.6588 25.3339 111.5528 0.0000 0.0000 0.0000
# 4 0.0000 0.0000 0.0000 -17.2439 0.0000 0.0000
# 5 0.0000 0.0000 0.0000 0.0000 23.8330 0.0000
# 6 0.0000 0.0000 0.0000 0.0000 0.0000 27.7472
#
#
#
# Elastic Compliance Matrix: (Units=1/GPa)
#
#
# Indices 1 2 3 4 5 6 
#
# 1 0.062293 -0.041947 0.000782 0.000000 0.000000 0.000000
# 2 -0.041947 0.049135 -0.005270 0.000000 0.000000 0.000000
# 3 0.000782 -0.005270 0.010051 0.000000 0.000000 0.000000
# 4 0.000000 0.000000 0.000000 -0.057991 0.000000 0.000000
# 5 0.000000 0.000000 0.000000 0.000000 0.041959 0.000000
# 6 0.000000 0.000000 0.000000 0.000000 0.000000 0.036040
#
#
# Mechanical properties :
#
#
# Convention : Reuss Voigt Hill
#
# Bulk Modulus (GPa) = 34.95521 39.85725 37.40623
# Shear Modulus (GPa) = 20.50075 15.42418 17.96246
#
# Velocity S-wave (km/s) = 3.46203 3.00294 3.24062
# Velocity P-wave (km/s) = 6.03466 5.94355 5.98928
#
# Compressibility (1/GPa) = 0.02860804
#
# Stress axis : x y z
#
# Youngs Moduli (GPa) = 16.05315 20.35218 99.48776
#
# Poissons Ratio (x) = 0.85372 -0.07782
# Poissons Ratio (y) = 0.67339 0.52434
# Poissons Ratio (z) = -0.01256 0.10726
#
# Static dielectric constant tensor:
#      x y z
#    x 1.603920 0.000000 0.000000 
#    y 0.000000 1.614100 0.000000 
#    z 0.000000 0.000000 1.633050 
# 
# From -- ./inp_files/2688.got.cif
#   From: 2010.05.17/outbox.cif.g08.bks.cpg/sg56_2_cif.got.tgz:2688.got - 2010.06.03 13:42:01.
