data_PCOD9430656
_publ_section_title
;
Structure prediction by ZEFSAII (Michael W. Deem and Ramdas Pophale) SiO2 
 PCOD9430656
Probable space group: P C C N
;
_chemical_formula_sum "Si O2"
_cell_formula_units_Z 48
_cell_length_a 19.530602
_cell_length_b 10.808526
_cell_length_c 10.777819
_cell_angle_alpha 90.000000
_cell_angle_beta 90.000000
_cell_angle_gamma 90.000000
_cell_volume 2275.165468
_symmetry_space_group_name_H-M "P C C N"
_symmetry_group_IT_number 56
_symmetry_cell_setting 'orthorhombic'
loop_
_space_group_symop_operation_xyz
x,y,z
1/2-x,1/2-y,z
1/2+x,-y,1/2-z
-x,1/2+y,1/2-z
-x,-y,-z
1/2+x,1/2+y,-z
1/2-x,y,1/2+z
x,1/2-y,1/2+z
loop_
_atom_site_type_symbol
_atom_site_label
_atom_site_fract_x
_atom_site_fract_y
_atom_site_fract_z
Si Si1 0.314381 0.926196 0.440793
Si Si2 0.722276 0.110022 0.292373
Si Si3 0.876471 0.163552 0.593909
Si Si4 0.519498 0.793328 0.459494
Si Si5 0.928635 0.542688 0.937290
Si Si6 0.458618 0.478735 0.848477
O O1 0.268385 0.948813 0.318170
O O2 0.282829 0.955816 0.575025
O O3 0.328386 0.777916 0.443062
O O4 0.388600 0.988090 0.421934
O O5 0.750000 0.250000 0.309483
O O6 0.647082 0.122536 0.230028
O O7 0.951693 0.221611 0.585124
O O8 0.874176 0.047448 0.501343
O O9 0.578182 0.690233 0.453992
O O10 0.515707 0.847841 0.598589
O O11 0.515796 0.917361 0.377116
O O12 0.937512 0.518470 0.792972
O O13 0.000000 0.500000 0.000000
#
# Coordination Sequence:
#
# PCOD9430656 Si02
#       6
#     8   8   8   8   8   8
#     4  10  22  36  61  90 125 156 205 258 324 365
#     4  10  20  36  58  91 119 157 200 266 314 370
#     4   9  20  33  58  89 121 155 203 247 316 369
#     4   9  21  38  56  87 122 161 198 251 308 381
#     4  10  22  35  58  86 120 164 201 249 307 378
#     4  10  22  38  59  86 127 161 205 259 311 375
#
# _framework density 21.097366999999998
#
# number of rings (size 3 to 8) (size 9 to 14) (size 15 to 20)
#    0.000    2.333    0.000    1.500   14.000    6.667 
#    0.000    0.000    0.000    1.000    0.000    0.000 
#    0.000    0.000    0.000    0.000    0.000    0.000 
#
# Total GULP energy -267624.740070 kJ/mol
# GULP energy per Si atom -5575.515418 kJ/mol
# Density = 2.104935 g / cm^3
# Si number density = 21.097367 Si / 1000 Ang^3
#
#
#
# Elastic Constant Matrix: (Units=GPa)
#
#
# Indices 1 2 3 4 5 6 
#
# 1 60.0308 10.7542 31.7203 0.0000 0.0000 0.0000
# 2 10.7542 68.9595 24.0040 0.0000 0.0000 0.0000
# 3 31.7203 24.0040 152.0205 0.0000 0.0000 0.0000
# 4 0.0000 0.0000 0.0000 13.1109 0.0000 0.0000
# 5 0.0000 0.0000 0.0000 0.0000 36.6108 0.0000
# 6 0.0000 0.0000 0.0000 0.0000 0.0000 9.8315
#
#
#
# Elastic Compliance Matrix: (Units=1/GPa)
#
#
# Indices 1 2 3 4 5 6 
#
# 1 0.018902 -0.001666 -0.003681 0.000000 0.000000 0.000000
# 2 -0.001666 0.015492 -0.002098 0.000000 0.000000 0.000000
# 3 -0.003681 -0.002098 0.007677 0.000000 0.000000 0.000000
# 4 0.000000 0.000000 0.000000 0.076273 0.000000 0.000000
# 5 0.000000 0.000000 0.000000 0.000000 0.027314 0.000000
# 6 0.000000 0.000000 0.000000 0.000000 0.000000 0.101714
#
#
# Mechanical properties :
#
#
# Convention : Reuss Voigt Hill
#
# Bulk Modulus (GPa) = 36.79276 45.99642 41.39459
# Shear Modulus (GPa) = 18.42824 26.21278 22.32051
#
# Velocity S-wave (km/s) = 2.95868 3.52869 3.25618
# Velocity P-wave (km/s) = 5.39899 6.20093 5.81380
#
# Compressibility (1/GPa) = 0.02717926
#
# Stress axis : x y z
#
# Youngs Moduli (GPa) = 52.90553 64.55126 130.25186
#
# Poissons Ratio (x) = 0.10757 0.47944
# Poissons Ratio (y) = 0.08816 0.27332
# Poissons Ratio (z) = 0.19474 0.13545
#
# Static dielectric constant tensor:
#      x y z
#    x 1.832660 0.000000 0.000000 
#    y 0.000000 1.798810 0.000000 
#    z 0.000000 0.000000 1.793690 
# 
# From -- ./inp_files/4754.got.cif
#   From: 2010.05.17/outbox.cif.g08.bks.cpg/sg56_3_cif.got.tgz:4754.got - 2010.06.03 13:42:01.
