data_PCOD9430113
_publ_section_title
;
Structure prediction by ZEFSAII (Michael W. Deem and Ramdas Pophale) SiO2 
 PCOD9430113
Probable space group: P C C N
;
_chemical_formula_sum "Si O2"
_cell_formula_units_Z 64
_cell_length_a 9.964060
_cell_length_b 17.816862
_cell_length_c 19.908234
_cell_angle_alpha 90.000000
_cell_angle_beta 90.000000
_cell_angle_gamma 90.000000
_cell_volume 3534.274579
_symmetry_space_group_name_H-M "P C C N"
_symmetry_group_IT_number 56
_symmetry_cell_setting 'orthorhombic'
loop_
_space_group_symop_operation_xyz
x,y,z
1/2-x,1/2-y,z
1/2+x,-y,1/2-z
-x,1/2+y,1/2-z
-x,-y,-z
1/2+x,1/2+y,-z
1/2-x,y,1/2+z
x,1/2-y,1/2+z
loop_
_atom_site_type_symbol
_atom_site_label
_atom_site_fract_x
_atom_site_fract_y
_atom_site_fract_z
Si Si1 0.371877 0.911101 0.047416
Si Si2 0.374837 0.305674 0.823071
Si Si3 0.349354 0.676657 0.971335
Si Si4 0.625163 0.305674 0.176928
Si Si5 0.124435 0.193974 0.675585
Si Si6 0.849354 0.823343 0.028666
Si Si7 0.628123 0.588899 0.452584
Si Si8 0.124435 0.693974 0.175585
O O1 0.382616 0.865672 0.116538
O O2 0.372762 0.000000 0.058297
O O3 0.233794 0.884714 0.012609
O O4 0.500000 0.892253 0.000000
O O5 0.250000 0.250000 0.819708
O O6 0.377775 0.343505 0.749832
O O7 0.363781 0.348237 0.893459
O O8 0.500835 0.250733 0.828646
O O9 0.250000 0.750000 0.973926
O O10 0.363781 0.651763 0.893459
O O11 0.500000 0.691264 0.000000
O O12 0.750000 0.250000 0.180292
O O13 0.499165 0.250733 0.171354
O O14 0.622225 0.343506 0.250168
O O15 0.250000 0.250000 0.667782
O O16 0.117384 0.134328 0.616538
O O17 0.750000 0.750000 0.026074
O O18 0.766206 0.884714 0.987391
O O19 0.250000 0.750000 0.167783
#
# Coordination Sequence:
#
# PCOD9430113 Si02
#       8
#     8   8   8   8   8   8   8   8
#     4  11  23  37  53  76 109 146 182 222 271 326
#     4   9  18  31  54  81 104 129 169 220 265 312
#     4  11  20  34  58  84 108 138 178 223 269 319
#     4   9  18  31  54  81 104 129 169 220 265 312
#     4  10  19  34  55  79 104 135 177 224 270 316
#     4  11  20  34  58  84 108 138 178 223 269 319
#     4  11  23  37  53  76 109 146 182 222 271 326
#     4  10  19  34  55  79 104 135 177 224 270 316
#
# _framework density 18.108384000000001
#
# number of rings (size 3 to 8) (size 9 to 14) (size 15 to 20)
#    0.000    1.750    0.000    7.500    0.000    0.500 
#    0.000    1.250    0.000   22.500    0.000    0.000 
#    0.000    0.000    0.000    0.000    0.000    0.000 
#
# Total GULP energy -356822.314224 kJ/mol
# GULP energy per Si atom -5575.348660 kJ/mol
# Density = 1.806717 g / cm^3
# Si number density = 18.108384 Si / 1000 Ang^3
#
#
#
# Elastic Constant Matrix: (Units=GPa)
#
#
# Indices 1 2 3 4 5 6 
#
# 1 157.1009 35.0212 47.4065 0.0000 0.0000 0.0000
# 2 35.0212 67.6567 65.2767 0.0000 0.0000 0.0000
# 3 47.4065 65.2767 213.5383 0.0000 0.0000 0.0000
# 4 0.0000 0.0000 0.0000 -3.1130 0.0000 0.0000
# 5 0.0000 0.0000 0.0000 0.0000 27.4325 0.0000
# 6 0.0000 0.0000 0.0000 0.0000 0.0000 -34.8481
#
#
#
# Elastic Compliance Matrix: (Units=1/GPa)
#
#
# Indices 1 2 3 4 5 6 
#
# 1 0.007260 -0.003124 -0.000657 0.000000 0.000000 0.000000
# 2 -0.003124 0.022308 -0.006126 0.000000 0.000000 0.000000
# 3 -0.000657 -0.006126 0.006701 0.000000 0.000000 0.000000
# 4 0.000000 0.000000 0.000000 -0.321232 0.000000 0.000000
# 5 0.000000 0.000000 0.000000 0.000000 0.036453 0.000000
# 6 0.000000 0.000000 0.000000 0.000000 0.000000 -0.028696
#
#
# Mechanical properties :
#
#
# Convention : Reuss Voigt Hill
#
# Bulk Modulus (GPa) = 60.76895 81.52273 71.14584
# Shear Modulus (GPa) = -19.84863 17.26706 -1.29078
#
# Velocity S-wave (km/s) = -3.31433 3.09129 -0.84520
# Velocity P-wave (km/s) = 4.35717 7.60648 6.19852
#
# Compressibility (1/GPa) = 0.01645577
#
# Stress axis : x y z
#
# Youngs Moduli (GPa) = 137.74125 44.82684 149.22351
#
# Poissons Ratio (x) = 0.14006 0.09799
# Poissons Ratio (y) = 0.43037 0.91410
# Poissons Ratio (z) = 0.09045 0.27460
#
# Static dielectric constant tensor:
#      x y z
#    x 1.608630 0.000000 0.000000 
#    y 0.000000 1.563220 0.000000 
#    z 0.000000 0.000000 1.707390 
# 
# From -- ./inp_files/18406.got.cif
#   From: 2010.05.17/outbox.cif.g08.bks.cpg/sg56_10_cif.got.tgz:18406.got - 2010.06.03 13:42:01.
