data_PCOD9430527
_publ_section_title
;
Structure prediction by ZEFSAII (Michael W. Deem and Ramdas Pophale) SiO2 
 PCOD9430527
Probable space group: P C C N
;
_chemical_formula_sum "Si O2"
_cell_formula_units_Z 48
_cell_length_a 15.729044
_cell_length_b 10.386645
_cell_length_c 12.592148
_cell_angle_alpha 90.000000
_cell_angle_beta 90.000000
_cell_angle_gamma 90.000000
_cell_volume 2057.204355
_symmetry_space_group_name_H-M "P C C N"
_symmetry_group_IT_number 56
_symmetry_cell_setting 'orthorhombic'
loop_
_space_group_symop_operation_xyz
x,y,z
1/2-x,1/2-y,z
1/2+x,-y,1/2-z
-x,1/2+y,1/2-z
-x,-y,-z
1/2+x,1/2+y,-z
1/2-x,y,1/2+z
x,1/2-y,1/2+z
loop_
_atom_site_type_symbol
_atom_site_label
_atom_site_fract_x
_atom_site_fract_y
_atom_site_fract_z
Si Si1 0.934942 0.544581 0.404434
Si Si2 0.701987 0.065150 0.533563
Si Si3 0.828337 0.822853 0.169606
Si Si4 0.409115 0.568613 0.768903
Si Si5 0.068041 0.187651 0.505008
Si Si6 0.115418 0.891293 0.537592
O O1 0.854344 0.453498 0.426828
O O2 0.000000 0.500000 0.500000
O O3 0.992821 0.546658 0.300385
O O4 0.907402 0.692204 0.421329
O O5 0.712520 0.918400 0.579336
O O6 0.643889 0.120674 0.629508
O O7 0.792072 0.128062 0.511238
O O8 0.750000 0.750000 0.220158
O O9 0.873913 0.923604 0.244784
O O10 0.896116 0.733538 0.109696
O O11 0.390046 0.642551 0.662089
O O12 0.099521 0.044527 0.526270
O O13 0.965919 0.178454 0.511416
#
# Coordination Sequence:
#
# PCOD9430527 Si02
#       6
#     8   8   8   8   8   8
#     4   9  17  38  61  74 106 167 190 231 279 356
#     4   8  18  35  57  76 119 152 193 235 288 337
#     4   9  16  36  59  81 114 152 193 234 285 342
#     4   9  20  36  59  83 113 146 208 228 286 359
#     4  10  20  34  59  79 125 150 180 245 304 328
#     4  11  21  36  54  94 117 148 186 253 297 332
#
# _framework density 23.332636999999998
#
# number of rings (size 3 to 8) (size 9 to 14) (size 15 to 20)
#    1.000    1.667    3.333    0.000    0.000    1.333 
#   15.000    3.333    0.000    4.000    0.000    0.000 
#    0.000    0.000    0.000    0.000    0.000    0.000 
#
# Total GULP energy -267543.438174 kJ/mol
# GULP energy per Si atom -5573.821629 kJ/mol
# Density = 2.327953 g / cm^3
# Si number density = 23.332637 Si / 1000 Ang^3
#
#
#
# Elastic Constant Matrix: (Units=GPa)
#
#
# Indices 1 2 3 4 5 6 
#
# 1 99.0072 10.3552 10.4748 0.0000 0.0000 0.0000
# 2 10.3552 69.1841 3.9748 0.0000 0.0000 0.0000
# 3 10.4748 3.9748 40.2404 0.0000 0.0000 0.0000
# 4 0.0000 0.0000 0.0000 13.6254 0.0000 0.0000
# 5 0.0000 0.0000 0.0000 0.0000 5.7832 0.0000
# 6 0.0000 0.0000 0.0000 0.0000 0.0000 29.2836
#
#
#
# Elastic Compliance Matrix: (Units=1/GPa)
#
#
# Indices 1 2 3 4 5 6 
#
# 1 0.010524 -0.001426 -0.002599 0.000000 0.000000 0.000000
# 2 -0.001426 0.014730 -0.001084 0.000000 0.000000 0.000000
# 3 -0.002599 -0.001084 0.025634 0.000000 0.000000 0.000000
# 4 0.000000 0.000000 0.000000 0.073392 0.000000 0.000000
# 5 0.000000 0.000000 0.000000 0.000000 0.172916 0.000000
# 6 0.000000 0.000000 0.000000 0.000000 0.000000 0.034149
#
#
# Mechanical properties :
#
#
# Convention : Reuss Voigt Hill
#
# Bulk Modulus (GPa) = 24.58722 28.67126 26.62924
# Shear Modulus (GPa) = 14.07977 21.98022 18.02999
#
# Velocity S-wave (km/s) = 2.45916 3.07259 2.78283
# Velocity P-wave (km/s) = 4.31554 4.99024 4.66510
#
# Compressibility (1/GPa) = 0.04067154
#
# Stress axis : x y z
#
# Youngs Moduli (GPa) = 95.01776 67.88923 39.01042
#
# Poissons Ratio (x) = 0.09681 0.10138
# Poissons Ratio (y) = 0.13549 0.04228
# Poissons Ratio (z) = 0.24692 0.07358
#
# Static dielectric constant tensor:
#      x y z
#    x 1.890180 0.000000 0.000000 
#    y 0.000000 1.987090 0.000000 
#    z 0.000000 0.000000 1.907060 
# 
# From -- ./inp_files/12230.got.cif
#   From: 2010.05.17/outbox.cif.g08.bks.cpg/sg56_7_cif.got.tgz:12230.got - 2010.06.03 13:42:01.
