data_PCOD9430522
_publ_section_title
;
Structure prediction by ZEFSAII (Michael W. Deem and Ramdas Pophale) SiO2 
 PCOD9430522
Probable space group: P C C N
;
_chemical_formula_sum "Si O2"
_cell_formula_units_Z 60
_cell_length_a 32.964605
_cell_length_b 11.101866
_cell_length_c 8.786454
_cell_angle_alpha 90.000000
_cell_angle_beta 90.000000
_cell_angle_gamma 90.000000
_cell_volume 3215.566511
_symmetry_space_group_name_H-M "P C C N"
_symmetry_group_IT_number 56
_symmetry_cell_setting 'orthorhombic'
loop_
_space_group_symop_operation_xyz
x,y,z
1/2-x,1/2-y,z
1/2+x,-y,1/2-z
-x,1/2+y,1/2-z
-x,-y,-z
1/2+x,1/2+y,-z
1/2-x,y,1/2+z
x,1/2-y,1/2+z
loop_
_atom_site_type_symbol
_atom_site_label
_atom_site_fract_x
_atom_site_fract_y
_atom_site_fract_z
Si Si1 0.013555 0.615188 0.188981
Si Si2 0.558328 0.197049 0.110824
Si Si3 0.924067 0.825158 0.587473
Si Si4 0.128134 0.889846 0.918213
Si Si5 0.878356 0.020040 0.748684
Si Si6 0.690720 0.320807 0.629707
Si Si7 0.250000 0.750000 0.619690
Si Si8 0.925067 0.921228 0.244924
O O1 0.966780 0.623334 0.149323
O O2 0.025340 0.725456 0.298799
O O3 0.032124 0.493248 0.258650
O O4 0.038458 0.633733 0.033103
O O5 0.582048 0.102698 0.215798
O O6 0.592545 0.291497 0.056378
O O7 0.920025 0.862403 0.411349
O O8 0.924285 0.683043 0.618936
O O9 0.889636 0.888752 0.689276
O O10 0.133562 0.961471 0.075826
O O11 0.166976 0.808550 0.874022
O O12 0.109870 0.980276 0.792029
O O13 0.843155 0.078296 0.645902
O O14 0.720374 0.325446 0.773392
O O15 0.780022 0.173384 0.485565
#
# Coordination Sequence:
#
# PCOD9430522 Si02
#       8
#     8   8   8   8   8   8   4   8
#     4  11  22  38  57  81 115 152 212 273 311 352
#     4  10  20  34  58  82 112 156 199 255 313 352
#     4  12  25  38  58  78 117 160 218 259 308 351
#     4  10  21  37  59  85 122 158 198 241 302 364
#     4  11  21  36  57  84 121 160 196 242 301 359
#     4  10  21  36  62  99 130 152 185 231 302 373
#     4  10  20  36  62 100 132 150 176 230 302 378
#     4  11  25  40  56  83 112 162 211 257 305 348
#
# _framework density 18.659230000000001
#
# number of rings (size 3 to 8) (size 9 to 14) (size 15 to 20)
#    0.000    1.333    4.000    2.000    3.733    0.000 
#    0.000    3.333    0.000    0.000    0.000    5.600 
#    0.000    0.000    0.000    0.000    0.000    0.000 
#
# Total GULP energy -335201.623096 kJ/mol
# GULP energy per Si atom -5586.693718 kJ/mol
# Density = 1.861676 g / cm^3
# Si number density = 18.659230 Si / 1000 Ang^3
#
#
#
# Elastic Constant Matrix: (Units=GPa)
#
#
# Indices 1 2 3 4 5 6 
#
# 1 84.4713 36.0671 24.9082 0.0000 0.0000 0.0000
# 2 36.0671 79.4947 10.6885 0.0000 0.0000 0.0000
# 3 24.9082 10.6885 46.9862 0.0000 0.0000 0.0000
# 4 0.0000 0.0000 0.0000 27.5842 0.0000 0.0000
# 5 0.0000 0.0000 0.0000 0.0000 20.4212 0.0000
# 6 0.0000 0.0000 0.0000 0.0000 0.0000 13.5412
#
#
#
# Elastic Compliance Matrix: (Units=1/GPa)
#
#
# Indices 1 2 3 4 5 6 
#
# 1 0.016871 -0.006655 -0.007430 0.000000 0.000000 0.000000
# 2 -0.006655 0.015602 -0.000021 0.000000 0.000000 0.000000
# 3 -0.007430 -0.000021 0.025226 0.000000 0.000000 0.000000
# 4 0.000000 0.000000 0.000000 0.036253 0.000000 0.000000
# 5 0.000000 0.000000 0.000000 0.000000 0.048969 0.000000
# 6 0.000000 0.000000 0.000000 0.000000 0.000000 0.073849
#
#
# Mechanical properties :
#
#
# Convention : Reuss Voigt Hill
#
# Bulk Modulus (GPa) = 33.91328 39.36442 36.63885
# Shear Modulus (GPa) = 19.62248 21.59521 20.60884
#
# Velocity S-wave (km/s) = 3.24639 3.40567 3.32699
# Velocity P-wave (km/s) = 5.68037 6.05038 5.86829
#
# Compressibility (1/GPa) = 0.02948697
#
# Stress axis : x y z
#
# Youngs Moduli (GPa) = 59.27404 64.09491 39.64144
#
# Poissons Ratio (x) = 0.42658 0.29452
# Poissons Ratio (y) = 0.39449 0.00083
# Poissons Ratio (z) = 0.44038 0.00134
#
# Static dielectric constant tensor:
#      x y z
#    x 1.639360 0.000000 0.000000 
#    y 0.000000 1.662410 0.000000 
#    z 0.000000 0.000000 1.680710 
# 
# From -- ./inp_files/5197.got.cif
#   From: 2010.05.17/outbox.cif.g08.bks.cpg/sg56_3_cif.got.tgz:5197.got - 2010.06.03 13:42:01.
