data_PCOD9430569
_publ_section_title
;
Structure prediction by ZEFSAII (Michael W. Deem and Ramdas Pophale) SiO2 
 PCOD9430569
Probable space group: P C C N
;
_chemical_formula_sum "Si O2"
_cell_formula_units_Z 56
_cell_length_a 21.714819
_cell_length_b 9.123329
_cell_length_c 14.046543
_cell_angle_alpha 90.000000
_cell_angle_beta 90.000000
_cell_angle_gamma 90.000000
_cell_volume 2782.780831
_symmetry_space_group_name_H-M "P C C N"
_symmetry_group_IT_number 56
_symmetry_cell_setting 'orthorhombic'
loop_
_space_group_symop_operation_xyz
x,y,z
1/2-x,1/2-y,z
1/2+x,-y,1/2-z
-x,1/2+y,1/2-z
-x,-y,-z
1/2+x,1/2+y,-z
1/2-x,y,1/2+z
x,1/2-y,1/2+z
loop_
_atom_site_type_symbol
_atom_site_label
_atom_site_fract_x
_atom_site_fract_y
_atom_site_fract_z
Si Si1 0.694924 0.854004 0.039275
Si Si2 0.313166 0.837538 0.281976
Si Si3 0.189679 0.688626 0.981287
Si Si4 0.974613 0.643770 0.549072
Si Si5 0.917567 0.320925 0.867794
Si Si6 0.363043 0.156200 0.307073
Si Si7 0.417538 0.345473 0.608069
O O1 0.750000 0.750000 0.006392
O O2 0.673049 0.783987 0.138580
O O3 0.707818 0.025118 0.051117
O O4 0.643140 0.851355 0.957938
O O5 0.250000 0.750000 0.252955
O O6 0.321471 0.787790 0.390009
O O7 0.372891 0.790500 0.221075
O O8 0.319683 0.016249 0.279764
O O9 0.250000 0.750000 0.033903
O O10 0.129260 0.690343 0.043990
O O11 0.914318 0.612454 0.613470
O O12 0.962062 0.754166 0.460431
O O13 0.000000 0.500000 0.500000
O O14 0.025538 0.714743 0.617768
O O15 0.940033 0.489663 0.869451
O O16 0.396855 0.212048 0.211527
#
# Coordination Sequence:
#
# PCOD9430569 Si02
#       7
#     8   8   8   8   8   8   8
#     4  10  20  36  57  82 113 149 187 234 291 347
#     4  10  20  37  60  86 114 147 191 241 293 350
#     4  10  20  35  56  82 113 146 184 233 284 339
#     4  11  23  38  59  86 116 151 195 242 289 346
#     4  10  21  38  59  81 111 151 192 233 284 344
#     4  10  22  40  58  84 119 151 191 241 292 349
#     4   9  22  40  57  81 114 153 192 234 289 349
#
# _framework density 20.123754999999999
#
# number of rings (size 3 to 8) (size 9 to 14) (size 15 to 20)
#    0.000    2.000    0.000    3.429    0.000    6.286 
#    0.000    4.286    0.000    0.000    0.000    0.000 
#    0.000    0.000    0.000    0.000    0.000    0.000 
#
# Total GULP energy -312232.645443 kJ/mol
# GULP energy per Si atom -5575.582954 kJ/mol
# Density = 2.007795 g / cm^3
# Si number density = 20.123755 Si / 1000 Ang^3
#
#
#
# Elastic Constant Matrix: (Units=GPa)
#
#
# Indices 1 2 3 4 5 6 
#
# 1 62.2310 34.7603 -2.4167 0.0000 0.0000 0.0000
# 2 34.7603 56.6088 -1.1695 0.0000 0.0000 0.0000
# 3 -2.4167 -1.1695 70.4526 0.0000 0.0000 0.0000
# 4 0.0000 0.0000 0.0000 15.7759 0.0000 0.0000
# 5 0.0000 0.0000 0.0000 0.0000 19.7695 0.0000
# 6 0.0000 0.0000 0.0000 0.0000 0.0000 26.2612
#
#
#
# Elastic Compliance Matrix: (Units=1/GPa)
#
#
# Indices 1 2 3 4 5 6 
#
# 1 0.024482 -0.015021 0.000590 0.000000 0.000000 0.000000
# 2 -0.015021 0.026887 -0.000069 0.000000 0.000000 0.000000
# 3 0.000590 -0.000069 0.014213 0.000000 0.000000 0.000000
# 4 0.000000 0.000000 0.000000 0.063388 0.000000 0.000000
# 5 0.000000 0.000000 0.000000 0.000000 0.050583 0.000000
# 6 0.000000 0.000000 0.000000 0.000000 0.000000 0.038079
#
#
# Mechanical properties :
#
#
# Convention : Reuss Voigt Hill
#
# Bulk Modulus (GPa) = 27.33463 27.96006 27.64734
# Shear Modulus (GPa) = 19.31797 22.90252 21.11025
#
# Velocity S-wave (km/s) = 3.10168 3.37721 3.24237
# Velocity P-wave (km/s) = 5.14198 5.39737 5.27122
#
# Compressibility (1/GPa) = 0.03658363
#
# Stress axis : x y z
#
# Youngs Moduli (GPa) = 40.84561 37.19228 70.35786
#
# Poissons Ratio (x) = 0.55867 -0.04154
# Poissons Ratio (y) = 0.61355 0.00485
# Poissons Ratio (z) = -0.02412 0.00256
#
# Static dielectric constant tensor:
#      x y z
#    x 1.725200 0.000000 0.000000 
#    y 0.000000 1.737420 0.000000 
#    z 0.000000 0.000000 1.694340 
# 
# From -- ./inp_files/13079.got.cif
#   From: 2010.05.17/outbox.cif.g08.bks.cpg/sg56_7_cif.got.tgz:13079.got - 2010.06.03 13:42:01.
