data_PCOD9430823
_publ_section_title
;
Structure prediction by ZEFSAII (Michael W. Deem and Ramdas Pophale) SiO2 
 PCOD9430823
Probable space group: P C C N
;
_chemical_formula_sum "Si O2"
_cell_formula_units_Z 64
_cell_length_a 8.857523
_cell_length_b 12.038829
_cell_length_c 27.515252
_cell_angle_alpha 90.000000
_cell_angle_beta 90.000000
_cell_angle_gamma 90.000000
_cell_volume 2934.067016
_symmetry_space_group_name_H-M "P C C N"
_symmetry_group_IT_number 56
_symmetry_cell_setting 'orthorhombic'
loop_
_space_group_symop_operation_xyz
x,y,z
1/2-x,1/2-y,z
1/2+x,-y,1/2-z
-x,1/2+y,1/2-z
-x,-y,-z
1/2+x,1/2+y,-z
1/2-x,y,1/2+z
x,1/2-y,1/2+z
loop_
_atom_site_type_symbol
_atom_site_label
_atom_site_fract_x
_atom_site_fract_y
_atom_site_fract_z
Si Si1 0.782249 0.577617 0.716823
Si Si2 0.170133 0.373786 0.970147
Si Si3 0.495122 0.769482 0.199327
Si Si4 0.079976 0.755328 0.588225
Si Si5 0.043583 0.483868 0.443751
Si Si6 0.861619 0.342123 0.697797
Si Si7 0.792190 0.621686 0.321563
Si Si8 0.761961 0.881996 0.923316
O O1 0.936017 0.645752 0.707217
O O2 0.642441 0.651864 0.700147
O O3 0.778874 0.458724 0.693190
O O4 0.762828 0.558298 0.774289
O O5 0.250000 0.250000 0.970581
O O6 0.276427 0.463568 0.942815
O O7 0.017020 0.345215 0.942104
O O8 0.173893 0.410771 0.026992
O O9 0.424942 0.777324 0.145946
O O10 0.398119 0.805139 0.246217
O O11 0.250000 0.750000 0.570254
O O12 0.015676 0.631850 0.578402
O O13 0.000000 0.500000 0.500000
O O14 0.937954 0.581881 0.424276
O O15 0.750000 0.250000 0.676328
O O16 0.027005 0.368130 0.676684
O O17 0.750000 0.750000 0.312418
O O18 0.714455 0.575467 0.370219
O O19 0.750000 0.750000 0.919489
#
# Coordination Sequence:
#
# PCOD9430823 Si02
#       8
#     8   8   8   8   8   8   8   8
#     4  10  22  40  63  90 128 174 218 281 328 402
#     4   8  17  35  60  89 121 163 207 263 325 400
#     4  10  23  40  61  97 130 173 228 271 340 403
#     4  11  23  38  64 104 132 160 217 293 337 394
#     4   9  19  37  63  92 123 170 216 256 333 406
#     4  11  24  38  62  91 132 173 220 277 339 391
#     4  10  20  38  58  85 121 165 218 262 321 396
#     4   9  18  33  61  90 116 165 223 257 316 404
#
# _framework density 21.812726999999999
#
# number of rings (size 3 to 8) (size 9 to 14) (size 15 to 20)
#    0.000    2.250    2.500    1.125   10.500    1.000 
#    0.000    3.750    0.000   18.750    0.000    0.000 
#    0.000    0.000    0.000    0.000    0.000    0.000 
#
# Total GULP energy -356604.109765 kJ/mol
# GULP energy per Si atom -5571.939215 kJ/mol
# Density = 2.176308 g / cm^3
# Si number density = 21.812727 Si / 1000 Ang^3
#
#
#
# Elastic Constant Matrix: (Units=GPa)
#
#
# Indices 1 2 3 4 5 6 
#
# 1 93.8775 22.6281 30.7352 0.0000 0.0000 0.0000
# 2 22.6281 85.9108 7.0630 0.0000 0.0000 0.0000
# 3 30.7352 7.0630 100.9409 0.0000 0.0000 0.0000
# 4 0.0000 0.0000 0.0000 11.1818 0.0000 0.0000
# 5 0.0000 0.0000 0.0000 0.0000 -24.8013 0.0000
# 6 0.0000 0.0000 0.0000 0.0000 0.0000 31.9724
#
#
#
# Elastic Compliance Matrix: (Units=1/GPa)
#
#
# Indices 1 2 3 4 5 6 
#
# 1 0.012561 -0.003011 -0.003614 0.000000 0.000000 0.000000
# 2 -0.003011 0.012429 0.000047 0.000000 0.000000 0.000000
# 3 -0.003614 0.000047 0.011004 0.000000 0.000000 0.000000
# 4 0.000000 0.000000 0.000000 0.089431 0.000000 0.000000
# 5 0.000000 0.000000 0.000000 0.000000 -0.040320 0.000000
# 6 0.000000 0.000000 0.000000 0.000000 0.000000 0.031277
#
#
# Mechanical properties :
#
#
# Convention : Reuss Voigt Hill
#
# Bulk Modulus (GPa) = 43.78657 44.62021 44.20339
# Shear Modulus (GPa) = 36.45613 18.35745 27.40679
#
# Velocity S-wave (km/s) = 4.09262 2.90417 3.54850
# Velocity P-wave (km/s) = 6.51538 5.63436 6.09082
#
# Compressibility (1/GPa) = 0.02283805
#
# Stress axis : x y z
#
# Youngs Moduli (GPa) = 79.60984 80.45525 90.87684
#
# Poissons Ratio (x) = 0.24228 0.32843
# Poissons Ratio (y) = 0.23974 -0.00429
# Poissons Ratio (z) = 0.28771 -0.00380
#
# Static dielectric constant tensor:
#      x y z
#    x 1.950000 0.000000 0.000000 
#    y 0.000000 1.982520 0.000000 
#    z 0.000000 0.000000 1.871710 
# 
# From -- ./inp_files/23405.got.cif
#   From: 2010.05.17/outbox.cif.g08.bks.cpg/sg56_12_cif.got.tgz:23405.got - 2010.06.03 13:42:01.
