data_PCOD9430441
_publ_section_title
;
Structure prediction by ZEFSAII (Michael W. Deem and Ramdas Pophale) SiO2 
 PCOD9430441
Probable space group: P C C N
;
_chemical_formula_sum "Si O2"
_cell_formula_units_Z 48
_cell_length_a 22.071384
_cell_length_b 22.482763
_cell_length_c 5.240522
_cell_angle_alpha 90.000000
_cell_angle_beta 90.000000
_cell_angle_gamma 90.000000
_cell_volume 2600.481675
_symmetry_space_group_name_H-M "P C C N"
_symmetry_group_IT_number 56
_symmetry_cell_setting 'orthorhombic'
loop_
_space_group_symop_operation_xyz
x,y,z
1/2-x,1/2-y,z
1/2+x,-y,1/2-z
-x,1/2+y,1/2-z
-x,-y,-z
1/2+x,1/2+y,-z
1/2-x,y,1/2+z
x,1/2-y,1/2+z
loop_
_atom_site_type_symbol
_atom_site_label
_atom_site_fract_x
_atom_site_fract_y
_atom_site_fract_z
Si Si1 0.507565 0.422382 0.718557
Si Si2 0.853965 0.719863 0.672034
Si Si3 0.712109 0.029396 0.804511
Si Si4 0.215399 0.387234 0.164815
Si Si5 0.072467 0.531723 0.281266
Si Si6 0.001991 0.282095 0.321666
O O1 0.532780 0.435172 0.435395
O O2 0.446178 0.461886 0.748659
O O3 0.504170 0.352235 0.770187
O O4 0.551969 0.449524 0.935419
O O5 0.828576 0.740021 0.401163
O O6 0.840223 0.652438 0.745599
O O7 0.925806 0.728742 0.661523
O O8 0.754716 0.047079 0.566705
O O9 0.642412 0.047419 0.767169
O O10 0.707304 0.957522 0.811556
O O11 0.266797 0.372900 0.375421
O O12 0.976983 0.257374 0.588534
#
# Coordination Sequence:
#
# PCOD9430441 Si02
#       6
#     8   8   8   8   8   8
#     4  10  20  34  54  79 107 138 172 214 261 309
#     4  10  20  31  44  62  87 124 165 205 244 280
#     4  10  20  34  51  72 101 133 166 204 250 306
#     4  10  20  31  44  62  87 124 165 205 244 280
#     4  10  20  34  54  79 107 138 172 214 261 309
#     4  10  20  34  51  72 101 133 166 204 250 306
#
# _framework density 18.458119
#
# number of rings (size 3 to 8) (size 9 to 14) (size 15 to 20)
#    0.000    2.000    0.000    4.000    0.000    2.000 
#    0.000   10.000    0.000    0.000    0.000    0.000 
#    0.000   46.667    0.000    0.000    0.000    0.000 
#
# Total GULP energy -267634.808220 kJ/mol
# GULP energy per Si atom -5575.725171 kJ/mol
# Density = 1.841611 g / cm^3
# Si number density = 18.458119 Si / 1000 Ang^3
#
#
#
# Elastic Constant Matrix: (Units=GPa)
#
#
# Indices 1 2 3 4 5 6 
#
# 1 39.4360 -9.5514 3.8168 0.0000 0.0000 0.0000
# 2 -9.5514 42.1357 8.7864 0.0000 0.0000 0.0000
# 3 3.8168 8.7864 68.6415 0.0000 0.0000 0.0000
# 4 0.0000 0.0000 0.0000 18.9579 0.0000 0.0000
# 5 0.0000 0.0000 0.0000 0.0000 16.2719 0.0000
# 6 0.0000 0.0000 0.0000 0.0000 0.0000 14.2009
#
#
#
# Elastic Compliance Matrix: (Units=1/GPa)
#
#
# Indices 1 2 3 4 5 6 
#
# 1 0.027199 0.006659 -0.002365 0.000000 0.000000 0.000000
# 2 0.006659 0.026014 -0.003700 0.000000 0.000000 0.000000
# 3 -0.002365 -0.003700 0.015174 0.000000 0.000000 0.000000
# 4 0.000000 0.000000 0.000000 0.052749 0.000000 0.000000
# 5 0.000000 0.000000 0.000000 0.000000 0.061456 0.000000
# 6 0.000000 0.000000 0.000000 0.000000 0.000000 0.070418
#
#
# Mechanical properties :
#
#
# Convention : Reuss Voigt Hill
#
# Bulk Modulus (GPa) = 14.37316 17.36854 15.87085
# Shear Modulus (GPa) = 18.18097 19.69688 18.93893
#
# Velocity S-wave (km/s) = 3.14185 3.27021 3.20667
# Velocity P-wave (km/s) = 4.57881 4.86715 4.72518
#
# Compressibility (1/GPa) = 0.06957410
#
# Stress axis : x y z
#
# Youngs Moduli (GPa) = 36.76583 38.44114 65.90406
#
# Poissons Ratio (x) = -0.25597 0.15585
# Poissons Ratio (y) = -0.24481 0.24385
# Poissons Ratio (z) = 0.08694 0.14224
#
# Static dielectric constant tensor:
#      x y z
#    x 1.637640 0.000000 0.000000 
#    y 0.000000 1.623180 0.000000 
#    z 0.000000 0.000000 1.656210 
# 
# From -- ./inp_files/864.got.cif
#   From: 2010.05.17/outbox.cif.g08.bks.cpg/sg56_1_cif.got.tgz:864.got - 2010.06.03 13:42:01.
