data_PCOD9430940
_publ_section_title
;
Structure prediction by ZEFSAII (Michael W. Deem and Ramdas Pophale) SiO2 
 PCOD9430940
Probable space group: P C C N
;
_chemical_formula_sum "Si O2"
_cell_formula_units_Z 40
_cell_length_a 11.544800
_cell_length_b 9.116776
_cell_length_c 15.354595
_cell_angle_alpha 90.000000
_cell_angle_beta 90.000000
_cell_angle_gamma 90.000000
_cell_volume 1616.091938
_symmetry_space_group_name_H-M "P C C N"
_symmetry_group_IT_number 56
_symmetry_cell_setting 'orthorhombic'
loop_
_space_group_symop_operation_xyz
x,y,z
1/2-x,1/2-y,z
1/2+x,-y,1/2-z
-x,1/2+y,1/2-z
-x,-y,-z
1/2+x,1/2+y,-z
1/2-x,y,1/2+z
x,1/2-y,1/2+z
loop_
_atom_site_type_symbol
_atom_site_label
_atom_site_fract_x
_atom_site_fract_y
_atom_site_fract_z
Si Si1 0.003542 0.744455 0.502645
Si Si2 0.496704 0.403687 0.679670
Si Si3 0.662746 0.022375 0.533040
Si Si4 0.862721 0.355906 0.731373
Si Si5 0.156882 0.373028 0.868679
O O1 0.995274 0.851689 0.420821
O O2 0.915612 0.605965 0.491533
O O3 0.959592 0.808056 0.592055
O O4 0.129431 0.672183 0.513466
O O5 0.526251 0.254142 0.729969
O O6 0.388711 0.503672 0.707645
O O7 0.612316 0.502790 0.695061
O O8 0.637765 0.069591 0.634294
O O9 0.786969 0.952168 0.546150
O O10 0.750000 0.250000 0.743448
O O11 0.250000 0.250000 0.841294
#
# Coordination Sequence:
#
# PCOD9430940 Si02
#       5
#     8   8   8   8   8
#     4   9  20  38  64  96 126 165 227 283 322 391
#     4  11  24  41  65 100 132 174 227 276 342 403
#     4   9  19  41  67  90 128 180 222 266 340 400
#     4  11  24  44  67 100 139 184 222 274 341 416
#     4  10  20  38  67  93 129 175 226 274 337 403
#
# _framework density 24.751066000000002
#
# number of rings (size 3 to 8) (size 9 to 14) (size 15 to 20)
#    0.000    2.000    2.000    0.600    5.600    0.000 
#    3.600    8.000    0.000    0.000    0.000    0.000 
#    0.000    0.000    0.000    0.000    0.000    0.000 
#
# Total GULP energy -222864.816791 kJ/mol
# GULP energy per Si atom -5571.620420 kJ/mol
# Density = 2.469473 g / cm^3
# Si number density = 24.751066 Si / 1000 Ang^3
#
#
#
# Elastic Constant Matrix: (Units=GPa)
#
#
# Indices 1 2 3 4 5 6 
#
# 1 69.8412 44.7587 21.4227 0.0000 0.0000 0.0000
# 2 44.7587 139.2586 49.7491 0.0000 0.0000 0.0000
# 3 21.4227 49.7491 58.4642 0.0000 0.0000 0.0000
# 4 0.0000 0.0000 0.0000 50.4955 0.0000 0.0000
# 5 0.0000 0.0000 0.0000 0.0000 16.2413 0.0000
# 6 0.0000 0.0000 0.0000 0.0000 0.0000 44.6162
#
#
#
# Elastic Compliance Matrix: (Units=1/GPa)
#
#
# Indices 1 2 3 4 5 6 
#
# 1 0.018272 -0.005001 -0.002440 0.000000 0.000000 0.000000
# 2 -0.005001 0.011686 -0.008112 0.000000 0.000000 0.000000
# 3 -0.002440 -0.008112 0.024901 0.000000 0.000000 0.000000
# 4 0.000000 0.000000 0.000000 0.019804 0.000000 0.000000
# 5 0.000000 0.000000 0.000000 0.000000 0.061571 0.000000
# 6 0.000000 0.000000 0.000000 0.000000 0.000000 0.022413
#
#
# Mechanical properties :
#
#
# Convention : Reuss Voigt Hill
#
# Bulk Modulus (GPa) = 42.09816 55.49167 48.79492
# Shear Modulus (GPa) = 25.29480 32.37951 28.83715
#
# Velocity S-wave (km/s) = 3.20029 3.62084 3.41704
# Velocity P-wave (km/s) = 5.54088 6.32054 5.94351
#
# Compressibility (1/GPa) = 0.02375401
#
# Stress axis : x y z
#
# Youngs Moduli (GPa) = 54.73004 85.57213 40.15943
#
# Poissons Ratio (x) = 0.42795 0.09797
# Poissons Ratio (y) = 0.27371 0.32575
# Poissons Ratio (z) = 0.13352 0.69412
#
# Static dielectric constant tensor:
#      x y z
#    x 2.079800 0.000000 0.000000 
#    y 0.000000 2.169350 0.000000 
#    z 0.000000 0.000000 1.893400 
# 
# From -- ./inp_files/12058.got.cif
#   From: 2010.05.17/outbox.cif.g08.bks.cpg/sg56_7_cif.got.tgz:12058.got - 2010.06.03 13:42:01.
