data_PCOD9430741
_publ_section_title
;
Structure prediction by ZEFSAII (Michael W. Deem and Ramdas Pophale) SiO2 
 PCOD9430741
Probable space group: P C C N
;
_chemical_formula_sum "Si O2"
_cell_formula_units_Z 40
_cell_length_a 15.993826
_cell_length_b 14.117467
_cell_length_c 8.867079
_cell_angle_alpha 90.000000
_cell_angle_beta 90.000000
_cell_angle_gamma 90.000000
_cell_volume 2002.118257
_symmetry_space_group_name_H-M "P C C N"
_symmetry_group_IT_number 56
_symmetry_cell_setting 'orthorhombic'
loop_
_space_group_symop_operation_xyz
x,y,z
1/2-x,1/2-y,z
1/2+x,-y,1/2-z
-x,1/2+y,1/2-z
-x,-y,-z
1/2+x,1/2+y,-z
1/2-x,y,1/2+z
x,1/2-y,1/2+z
loop_
_atom_site_type_symbol
_atom_site_label
_atom_site_fract_x
_atom_site_fract_y
_atom_site_fract_z
Si Si1 0.640983 0.978325 0.291398
Si Si2 0.642960 0.178124 0.788595
Si Si3 0.247135 0.923581 0.457666
Si Si4 0.472031 0.316391 0.148365
Si Si5 0.035143 0.651139 0.688981
O O1 0.696551 0.004336 0.148107
O O2 0.690910 0.016676 0.436538
O O3 0.557914 0.043627 0.282910
O O4 0.611426 0.871083 0.309218
O O5 0.700273 0.146493 0.649745
O O6 0.549178 0.143791 0.749744
O O7 0.623752 0.290227 0.804298
O O8 0.683418 0.135151 0.937547
O O9 0.477620 0.205164 0.189631
O O10 0.495869 0.333507 0.975170
#
# Coordination Sequence:
#
# PCOD9430741 Si02
#       5
#     8   8   8   8   8
#     4  11  21  38  61  86 116 151 190 237 293 338
#     4   9  21  35  53  88 117 152 184 229 294 331
#     4  10  21  35  57  89 121 148 182 241 292 351
#     4  10  22  39  57  86 114 155 194 232 281 345
#     4  10  20  37  58  87 114 150 193 235 284 331
#
# _framework density 19.978840000000002
#
# number of rings (size 3 to 8) (size 9 to 14) (size 15 to 20)
#    1.200    0.800    2.000    1.800    0.000    5.600 
#    0.000    0.000    0.000    3.600    0.000    0.000 
#    0.000    0.000    0.000    0.000    0.000    0.000 
#
# Total GULP energy -223166.120707 kJ/mol
# GULP energy per Si atom -5579.153018 kJ/mol
# Density = 1.993337 g / cm^3
# Si number density = 19.978840 Si / 1000 Ang^3
#
#
#
# Elastic Constant Matrix: (Units=GPa)
#
#
# Indices 1 2 3 4 5 6 
#
# 1 28.1748 7.1101 17.3735 0.0000 0.0000 0.0000
# 2 7.1101 32.3635 6.6968 0.0000 0.0000 0.0000
# 3 17.3735 6.6968 62.5746 0.0000 0.0000 0.0000
# 4 0.0000 0.0000 0.0000 7.1396 0.0000 0.0000
# 5 0.0000 0.0000 0.0000 0.0000 4.1892 0.0000
# 6 0.0000 0.0000 0.0000 0.0000 0.0000 35.0370
#
#
#
# Elastic Compliance Matrix: (Units=1/GPa)
#
#
# Indices 1 2 3 4 5 6 
#
# 1 0.044484 -0.007381 -0.011561 0.000000 0.000000 0.000000
# 2 -0.007381 0.032823 -0.001464 0.000000 0.000000 0.000000
# 3 -0.011561 -0.001464 0.019347 0.000000 0.000000 0.000000
# 4 0.000000 0.000000 0.000000 0.140063 0.000000 0.000000
# 5 0.000000 0.000000 0.000000 0.000000 0.238709 0.000000
# 6 0.000000 0.000000 0.000000 0.000000 0.000000 0.028541
#
#
# Mechanical properties :
#
#
# Convention : Reuss Voigt Hill
#
# Bulk Modulus (GPa) = 17.90687 20.60819 19.25753
# Shear Modulus (GPa) = 8.87479 15.40200 12.13839
#
# Velocity S-wave (km/s) = 2.10991 2.77955 2.46755
# Velocity P-wave (km/s) = 3.86239 4.54297 4.21643
#
# Compressibility (1/GPa) = 0.05584449
#
# Stress axis : x y z
#
# Youngs Moduli (GPa) = 22.47987 30.46605 51.68656
#
# Poissons Ratio (x) = 0.22486 0.59755
# Poissons Ratio (y) = 0.16592 0.07564
# Poissons Ratio (z) = 0.25989 0.04459
#
# Static dielectric constant tensor:
#      x y z
#    x 1.703880 0.000000 0.000000 
#    y 0.000000 1.705820 0.000000 
#    z 0.000000 0.000000 1.701780 
# 
# From -- ./inp_files/3950.got.cif
#   From: 2010.05.17/outbox.cif.g08.bks.cpg/sg56_2_cif.got.tgz:3950.got - 2010.06.03 13:42:01.
