data_PCOD9430286
_publ_section_title
;
Structure prediction by ZEFSAII (Michael W. Deem and Ramdas Pophale) SiO2 
 PCOD9430286
Probable space group: P C C N
;
_chemical_formula_sum "Si O2"
_cell_formula_units_Z 64
_cell_length_a 17.724724
_cell_length_b 9.449450
_cell_length_c 19.391427
_cell_angle_alpha 90.000000
_cell_angle_beta 90.000000
_cell_angle_gamma 90.000000
_cell_volume 3247.848646
_symmetry_space_group_name_H-M "P C C N"
_symmetry_group_IT_number 56
_symmetry_cell_setting 'orthorhombic'
loop_
_space_group_symop_operation_xyz
x,y,z
1/2-x,1/2-y,z
1/2+x,-y,1/2-z
-x,1/2+y,1/2-z
-x,-y,-z
1/2+x,1/2+y,-z
1/2-x,y,1/2+z
x,1/2-y,1/2+z
loop_
_atom_site_type_symbol
_atom_site_label
_atom_site_fract_x
_atom_site_fract_y
_atom_site_fract_z
Si Si1 0.773273 0.086775 0.851245
Si Si2 0.982754 0.664892 0.441160
Si Si3 0.520231 0.792552 0.087857
Si Si4 0.011510 0.077434 0.659079
Si Si5 0.617161 0.948971 0.598205
Si Si6 0.856324 0.460889 0.753545
Si Si7 0.576755 0.339237 0.788889
Si Si8 0.302996 0.111375 0.527406
O O1 0.750000 0.250000 0.866089
O O2 0.726458 0.038866 0.784844
O O3 0.859725 0.078514 0.829656
O O4 0.762799 0.987861 0.916620
O O5 0.991712 0.772172 0.377708
O O6 0.041164 0.534901 0.426729
O O7 0.007733 0.744575 0.512233
O O8 0.892036 0.636174 0.449509
O O9 0.601807 0.719707 0.092335
O O10 0.478915 0.717328 0.152272
O O11 0.512156 0.956936 0.104605
O O12 0.960585 0.073855 0.727697
O O13 0.093442 0.044656 0.690532
O O14 0.684275 0.972764 0.544264
O O15 0.634921 0.985564 0.676412
O O16 0.885748 0.299902 0.755972
O O17 0.250000 0.250000 0.520469
#
# Coordination Sequence:
#
# PCOD9430286 Si02
#       8
#     8   8   8   8   8   8   8   8
#     4  10  22  42  63  85 120 162 208 256 313 383
#     4  11  22  40  67  92 126 167 217 264 312 386
#     4  10  21  36  60  94 123 160 207 261 311 364
#     4  11  21  36  64  95 125 155 210 265 310 366
#     4  11  21  41  64  89 125 166 213 257 315 380
#     4  10  21  38  62  92 123 159 207 262 314 376
#     4  10  19  37  62  89 121 160 206 257 312 371
#     4  11  24  42  61  91 127 171 206 257 323 388
#
# _framework density 19.705352999999999
#
# number of rings (size 3 to 8) (size 9 to 14) (size 15 to 20)
#    0.000    1.500    2.500    4.125    0.000    0.000 
#    6.750    4.375    0.000    0.000    0.000    0.000 
#    0.000    0.000    0.000    0.000    0.000    0.000 
#
# Total GULP energy -356773.853087 kJ/mol
# GULP energy per Si atom -5574.591454 kJ/mol
# Density = 1.966050 g / cm^3
# Si number density = 19.705353 Si / 1000 Ang^3
#
#
#
# Elastic Constant Matrix: (Units=GPa)
#
#
# Indices 1 2 3 4 5 6 
#
# 1 42.9947 19.2216 8.2270 0.0000 0.0000 0.0000
# 2 19.2216 61.0119 26.6744 0.0000 0.0000 0.0000
# 3 8.2270 26.6744 81.1584 0.0000 0.0000 0.0000
# 4 0.0000 0.0000 0.0000 37.8353 0.0000 0.0000
# 5 0.0000 0.0000 0.0000 0.0000 16.8008 0.0000
# 6 0.0000 0.0000 0.0000 0.0000 0.0000 20.6056
#
#
#
# Elastic Compliance Matrix: (Units=1/GPa)
#
#
# Indices 1 2 3 4 5 6 
#
# 1 0.027072 -0.008559 0.000069 0.000000 0.000000 0.000000
# 2 -0.008559 0.021847 -0.006313 0.000000 0.000000 0.000000
# 3 0.000069 -0.006313 0.014389 0.000000 0.000000 0.000000
# 4 0.000000 0.000000 0.000000 0.026430 0.000000 0.000000
# 5 0.000000 0.000000 0.000000 0.000000 0.059521 0.000000
# 6 0.000000 0.000000 0.000000 0.000000 0.000000 0.048531
#
#
# Mechanical properties :
#
#
# Convention : Reuss Voigt Hill
#
# Bulk Modulus (GPa) = 29.67167 32.60123 31.13645
# Shear Modulus (GPa) = 20.95297 23.78448 22.36872
#
# Velocity S-wave (km/s) = 3.26439 3.47797 3.37287
# Velocity P-wave (km/s) = 5.41282 5.71915 5.56809
#
# Compressibility (1/GPa) = 0.03370218
#
# Stress axis : x y z
#
# Youngs Moduli (GPa) = 36.93856 45.77361 69.49554
#
# Poissons Ratio (x) = 0.39178 -0.00478
# Poissons Ratio (y) = 0.31616 0.43871
# Poissons Ratio (z) = -0.00254 0.28896
#
# Static dielectric constant tensor:
#      x y z
#    x 1.737720 0.000000 0.000000 
#    y 0.000000 1.703600 0.000000 
#    z 0.000000 0.000000 1.722880 
# 
# From -- ./inp_files/19345.got.cif
#   From: 2010.05.17/outbox.cif.g08.bks.cpg/sg56_10_cif.got.tgz:19345.got - 2010.06.03 13:42:01.
