data_PCOD9430025
_publ_section_title
;
Structure prediction by ZEFSAII (Michael W. Deem and Ramdas Pophale) SiO2 
 PCOD9430025
Probable space group: P C C N
;
_chemical_formula_sum "Si O2"
_cell_formula_units_Z 56
_cell_length_a 6.370522
_cell_length_b 20.171916
_cell_length_c 24.575732
_cell_angle_alpha 90.000000
_cell_angle_beta 90.000000
_cell_angle_gamma 90.000000
_cell_volume 3158.120038
_symmetry_space_group_name_H-M "P C C N"
_symmetry_group_IT_number 56
_symmetry_cell_setting 'orthorhombic'
loop_
_space_group_symop_operation_xyz
x,y,z
1/2-x,1/2-y,z
1/2+x,-y,1/2-z
-x,1/2+y,1/2-z
-x,-y,-z
1/2+x,1/2+y,-z
1/2-x,y,1/2+z
x,1/2-y,1/2+z
loop_
_atom_site_type_symbol
_atom_site_label
_atom_site_fract_x
_atom_site_fract_y
_atom_site_fract_z
Si Si1 0.250000 0.750000 0.551946
Si Si2 0.250000 0.750000 0.342155
Si Si3 0.573527 0.848534 0.801217
Si Si4 0.146650 0.094746 0.288408
Si Si5 0.191135 0.947505 0.799837
Si Si6 0.871947 0.818190 0.606247
Si Si7 0.869103 0.681748 0.496847
Si Si8 0.950295 0.863842 0.883558
O O1 0.397919 0.704473 0.588463
O O2 0.402296 0.794788 0.515794
O O3 0.423452 0.714375 0.305352
O O4 0.377087 0.805033 0.376315
O O5 0.710114 0.856420 0.747461
O O6 0.414253 0.910573 0.804563
O O7 0.738841 0.847038 0.850509
O O8 0.115636 0.128700 0.346321
O O9 0.938102 0.079611 0.252594
O O10 0.267316 0.025078 0.294658
O O11 0.053348 0.926151 0.852321
O O12 0.750000 0.750000 0.622403
O O13 0.753481 0.841709 0.550966
O O14 0.750000 0.750000 0.478947
O O15 0.889774 0.632414 0.446583
#
# Coordination Sequence:
#
# PCOD9430025 Si02
#       8
#     4   4   8   8   8   8   8   8
#     4   8  17  36  53  82 108 146 184 206 290 338
#     4  10  19  32  53  88 112 148 170 234 290 326
#     4  10  21  35  54  82 113 142 187 229 282 330
#     4  11  21  40  57  78 111 149 195 233 270 344
#     4  10  22  36  58  79 105 156 192 227 283 322
#     4   9  21  35  56  84 112 144 179 229 276 327
#     4   9  17  33  56  81 113 148 177 223 278 333
#     4  10  20  34  57  85 116 141 186 229 274 338
#
# _framework density 17.732068000000002
#
# number of rings (size 3 to 8) (size 9 to 14) (size 15 to 20)
#    0.000    2.571    1.429    1.714    0.000    9.143 
#    0.000    4.286    0.000    1.714    0.000    0.000 
#    0.000    0.000    0.000    0.000    0.000    0.000 
#
# Total GULP energy -312229.856127 kJ/mol
# GULP energy per Si atom -5575.533145 kJ/mol
# Density = 1.769171 g / cm^3
# Si number density = 17.732068 Si / 1000 Ang^3
#
#
#
# Elastic Constant Matrix: (Units=GPa)
#
#
# Indices 1 2 3 4 5 6 
#
# 1 118.0887 22.3368 52.4475 0.0000 0.0000 0.0000
# 2 22.3368 37.2718 40.7300 0.0000 0.0000 0.0000
# 3 52.4475 40.7300 144.6948 0.0000 0.0000 0.0000
# 4 0.0000 0.0000 0.0000 11.7043 0.0000 0.0000
# 5 0.0000 0.0000 0.0000 0.0000 2.2154 0.0000
# 6 0.0000 0.0000 0.0000 0.0000 0.0000 23.8840
#
#
#
# Elastic Compliance Matrix: (Units=1/GPa)
#
#
# Indices 1 2 3 4 5 6 
#
# 1 0.010325 -0.003030 -0.002889 0.000000 0.000000 0.000000
# 2 -0.003030 0.039639 -0.010060 0.000000 0.000000 0.000000
# 3 -0.002889 -0.010060 0.010790 0.000000 0.000000 0.000000
# 4 0.000000 0.000000 0.000000 0.085439 0.000000 0.000000
# 5 0.000000 0.000000 0.000000 0.000000 0.451387 0.000000
# 6 0.000000 0.000000 0.000000 0.000000 0.000000 0.041869
#
#
# Mechanical properties :
#
#
# Convention : Reuss Voigt Hill
#
# Bulk Modulus (GPa) = 34.72769 59.00932 46.86850
# Shear Modulus (GPa) = 7.34209 19.86346 13.60278
#
# Velocity S-wave (km/s) = 2.03705 3.35057 2.77271
# Velocity P-wave (km/s) = 5.01597 6.95119 6.06131
#
# Compressibility (1/GPa) = 0.02879546
#
# Stress axis : x y z
#
# Youngs Moduli (GPa) = 96.85552 25.22781 92.67737
#
# Poissons Ratio (x) = 0.07644 0.26779
# Poissons Ratio (y) = 0.29347 0.93230
# Poissons Ratio (z) = 0.27986 0.25378
#
# Static dielectric constant tensor:
#      x y z
#    x 1.613230 0.000000 0.000000 
#    y 0.000000 1.607590 0.000000 
#    z 0.000000 0.000000 1.610720 
# 
# From -- ./inp_files/20140.got.cif
#   From: 2010.05.17/outbox.cif.g08.bks.cpg/sg56_11_cif.got.tgz:20140.got - 2010.06.03 13:42:01.
