data_PCOD9430345
_publ_section_title
;
Structure prediction by ZEFSAII (Michael W. Deem and Ramdas Pophale) SiO2 
 PCOD9430345
Probable space group: P C C N
;
_chemical_formula_sum "Si O2"
_cell_formula_units_Z 44
_cell_length_a 11.258666
_cell_length_b 11.774204
_cell_length_c 15.855145
_cell_angle_alpha 90.000000
_cell_angle_beta 90.000000
_cell_angle_gamma 90.000000
_cell_volume 2101.787040
_symmetry_space_group_name_H-M "P C C N"
_symmetry_group_IT_number 56
_symmetry_cell_setting 'orthorhombic'
loop_
_space_group_symop_operation_xyz
x,y,z
1/2-x,1/2-y,z
1/2+x,-y,1/2-z
-x,1/2+y,1/2-z
-x,-y,-z
1/2+x,1/2+y,-z
1/2-x,y,1/2+z
x,1/2-y,1/2+z
loop_
_atom_site_type_symbol
_atom_site_label
_atom_site_fract_x
_atom_site_fract_y
_atom_site_fract_z
Si Si1 0.750000 0.750000 0.125168
Si Si2 0.608691 0.262818 0.153986
Si Si3 0.999289 0.447645 0.104503
Si Si4 0.364606 0.831921 0.532814
Si Si5 0.285842 0.041988 0.999105
Si Si6 0.995491 0.302941 0.824124
O O1 0.633529 0.770635 0.180517
O O2 0.758641 0.861521 0.064873
O O3 0.750000 0.250000 0.156387
O O4 0.545120 0.142258 0.171455
O O5 0.577758 0.308186 0.059997
O O6 0.565390 0.329524 0.235097
O O7 0.123008 0.403614 0.066074
O O8 0.016724 0.577051 0.128835
O O9 0.881700 0.456410 0.045270
O O10 0.250000 0.750000 0.536346
O O11 0.439330 0.791741 0.613556
O O12 0.317723 0.961488 0.533845
#
# Coordination Sequence:
#
# PCOD9430345 Si02
#       6
#     4   8   8   8   8   8
#     4  10  24  40  56  90 138 172 208 268 336 390
#     4  11  22  38  64 100 123 163 227 269 312 389
#     4  10  19  39  64  86 128 170 205 264 326 380
#     4  11  19  39  70  98 120 161 222 269 306 383
#     4  10  19  38  66  92 126 170 207 259 329 388
#     4  11  24  41  64  94 130 174 213 267 334 385
#
# _framework density 20.934566
#
# number of rings (size 3 to 8) (size 9 to 14) (size 15 to 20)
#    0.000    1.455    5.455    2.727    0.000    2.182 
#    0.000    5.455    0.000    0.000    0.000    0.000 
#    0.000    0.000    0.000    0.000    0.000    0.000 
#
# Total GULP energy -245151.684738 kJ/mol
# GULP energy per Si atom -5571.629199 kJ/mol
# Density = 2.088692 g / cm^3
# Si number density = 20.934566 Si / 1000 Ang^3
#
#
#
# Elastic Constant Matrix: (Units=GPa)
#
#
# Indices 1 2 3 4 5 6 
#
# 1 43.6562 0.9480 15.7728 0.0000 0.0000 0.0000
# 2 0.9480 41.0078 -17.8817 0.0000 0.0000 0.0000
# 3 15.7728 -17.8817 49.5883 0.0000 0.0000 0.0000
# 4 0.0000 0.0000 0.0000 9.5582 0.0000 0.0000
# 5 0.0000 0.0000 0.0000 0.0000 -57.0285 0.0000
# 6 0.0000 0.0000 0.0000 0.0000 0.0000 31.8101
#
#
#
# Elastic Compliance Matrix: (Units=1/GPa)
#
#
# Indices 1 2 3 4 5 6 
#
# 1 0.026763 -0.005139 -0.010366 0.000000 0.000000 0.000000
# 2 -0.005139 0.029922 0.012425 0.000000 0.000000 0.000000
# 3 -0.010366 0.012425 0.027943 0.000000 0.000000 0.000000
# 4 0.000000 0.000000 0.000000 0.104622 0.000000 0.000000
# 5 0.000000 0.000000 0.000000 0.000000 -0.017535 0.000000
# 6 0.000000 0.000000 0.000000 0.000000 0.000000 0.031437
#
#
# Mechanical properties :
#
#
# Convention : Reuss Voigt Hill
#
# Bulk Modulus (GPa) = 12.74388 14.65893 13.70140
# Shear Modulus (GPa) = 21.23430 5.89552 13.56491
#
# Velocity S-wave (km/s) = 3.18829 1.67996 2.54828
# Velocity P-wave (km/s) = 4.43332 3.28337 3.90095
#
# Compressibility (1/GPa) = 0.07846906
#
# Stress axis : x y z
#
# Youngs Moduli (GPa) = 37.36518 33.41996 35.78657
#
# Poissons Ratio (x) = 0.17173 0.37095
# Poissons Ratio (y) = 0.19201 -0.44463
# Poissons Ratio (z) = 0.38731 -0.41523
#
# Static dielectric constant tensor:
#      x y z
#    x 1.746210 0.000000 0.000000 
#    y 0.000000 2.049270 0.000000 
#    z 0.000000 0.000000 1.825000 
# 
# From -- ./inp_files/15516.got.cif
#   From: 2010.05.17/outbox.cif.g08.bks.cpg/sg56_8_cif.got.tgz:15516.got - 2010.06.03 13:42:01.
