data_PCOD9430213
_publ_section_title
;
Structure prediction by ZEFSAII (Michael W. Deem and Ramdas Pophale) SiO2 
 PCOD9430213
Probable space group: P C C N
;
_chemical_formula_sum "Si O2"
_cell_formula_units_Z 40
_cell_length_a 15.214942
_cell_length_b 6.613557
_cell_length_c 17.644048
_cell_angle_alpha 90.000000
_cell_angle_beta 90.000000
_cell_angle_gamma 90.000000
_cell_volume 1775.430322
_symmetry_space_group_name_H-M "P C C N"
_symmetry_group_IT_number 56
_symmetry_cell_setting 'orthorhombic'
loop_
_space_group_symop_operation_xyz
x,y,z
1/2-x,1/2-y,z
1/2+x,-y,1/2-z
-x,1/2+y,1/2-z
-x,-y,-z
1/2+x,1/2+y,-z
1/2-x,y,1/2+z
x,1/2-y,1/2+z
loop_
_atom_site_type_symbol
_atom_site_label
_atom_site_fract_x
_atom_site_fract_y
_atom_site_fract_z
Si Si1 0.823934 0.030692 0.769571
Si Si2 0.972703 0.399450 0.159952
Si Si3 0.924161 0.709906 0.572167
Si Si4 0.087288 0.049796 0.080085
Si Si5 0.631118 0.939772 0.731907
O O1 0.847130 0.041567 0.858040
O O2 0.720958 0.048936 0.754755
O O3 0.849202 0.797165 0.750943
O O4 0.890083 0.151698 0.713995
O O5 0.024795 0.219622 0.119149
O O6 0.045396 0.492391 0.217808
O O7 0.934855 0.560633 0.099839
O O8 0.874238 0.656683 0.494689
O O9 0.886945 0.579039 0.642294
O O10 0.023363 0.633421 0.557751
#
# Coordination Sequence:
#
# PCOD9430213 Si02
#       5
#     8   8   8   8   8
#     4   9  18  34  57  83 108 146 192 223 270 334
#     4  10  19  36  57  78 110 148 188 224 269 334
#     4  10  20  35  56  82 112 145 180 230 278 320
#     4  10  20  35  56  82 112 145 180 230 278 320
#     4   9  18  34  57  83 108 146 192 223 270 334
#
# _framework density 22.529751000000001
#
# number of rings (size 3 to 8) (size 9 to 14) (size 15 to 20)
#    0.000    2.400    2.000    0.600    0.000    0.000 
#    0.000   22.000    0.000    4.800    0.000    0.000 
#    0.000    0.000    0.000    0.000    0.000    0.000 
#
# Total GULP energy -223287.916880 kJ/mol
# GULP energy per Si atom -5582.197922 kJ/mol
# Density = 2.247847 g / cm^3
# Si number density = 22.529751 Si / 1000 Ang^3
#
#
#
# Elastic Constant Matrix: (Units=GPa)
#
#
# Indices 1 2 3 4 5 6 
#
# 1 99.9582 1.1808 35.0091 0.0000 0.0000 0.0000
# 2 1.1808 36.3343 8.9751 0.0000 0.0000 0.0000
# 3 35.0091 8.9751 133.4900 0.0000 0.0000 0.0000
# 4 0.0000 0.0000 0.0000 30.1620 0.0000 0.0000
# 5 0.0000 0.0000 0.0000 0.0000 18.0469 0.0000
# 6 0.0000 0.0000 0.0000 0.0000 0.0000 38.7954
#
#
#
# Elastic Compliance Matrix: (Units=1/GPa)
#
#
# Indices 1 2 3 4 5 6 
#
# 1 0.011021 0.000362 -0.002915 0.000000 0.000000 0.000000
# 2 0.000362 0.027999 -0.001977 0.000000 0.000000 0.000000
# 3 -0.002915 -0.001977 0.008389 0.000000 0.000000 0.000000
# 4 0.000000 0.000000 0.000000 0.033154 0.000000 0.000000
# 5 0.000000 0.000000 0.000000 0.000000 0.055411 0.000000
# 6 0.000000 0.000000 0.000000 0.000000 0.000000 0.025776
#
#
# Mechanical properties :
#
#
# Convention : Reuss Voigt Hill
#
# Bulk Modulus (GPa) = 26.07714 40.01250 33.04482
# Shear Modulus (GPa) = 27.23416 32.37535 29.80476
#
# Velocity S-wave (km/s) = 3.48056 3.79490 3.64112
# Velocity P-wave (km/s) = 5.26803 6.08277 5.69000
#
# Compressibility (1/GPa) = 0.03834776
#
# Stress axis : x y z
#
# Youngs Moduli (GPa) = 90.73820 35.71570 119.21030
#
# Poissons Ratio (x) = -0.01292 0.34745
# Poissons Ratio (y) = -0.03283 0.23572
# Poissons Ratio (z) = 0.26447 0.07062
#
# Static dielectric constant tensor:
#      x y z
#    x 1.791250 0.000000 0.000000 
#    y 0.000000 1.970730 0.000000 
#    z 0.000000 0.000000 1.881050 
# 
# From -- ./inp_files/14622.got.cif
#   From: 2010.05.17/outbox.cif.g08.bks.cpg/sg56_8_cif.got.tgz:14622.got - 2010.06.03 13:42:01.
