data_PCOD9430721
_publ_section_title
;
Structure prediction by ZEFSAII (Michael W. Deem and Ramdas Pophale) SiO2 
 PCOD9430721
Probable space group: P C C N
;
_chemical_formula_sum "Si O2"
_cell_formula_units_Z 60
_cell_length_a 32.554675
_cell_length_b 10.400031
_cell_length_c 9.361126
_cell_angle_alpha 90.000000
_cell_angle_beta 90.000000
_cell_angle_gamma 90.000000
_cell_volume 3169.392959
_symmetry_space_group_name_H-M "P C C N"
_symmetry_group_IT_number 56
_symmetry_cell_setting 'orthorhombic'
loop_
_space_group_symop_operation_xyz
x,y,z
1/2-x,1/2-y,z
1/2+x,-y,1/2-z
-x,1/2+y,1/2-z
-x,-y,-z
1/2+x,1/2+y,-z
1/2-x,y,1/2+z
x,1/2-y,1/2+z
loop_
_atom_site_type_symbol
_atom_site_label
_atom_site_fract_x
_atom_site_fract_y
_atom_site_fract_z
Si Si1 0.695591 0.349471 0.316383
Si Si2 0.505927 0.800429 0.693383
Si Si3 0.067956 0.873570 0.782142
Si Si4 0.126087 0.495269 0.062886
Si Si5 0.250000 0.750000 0.926570
Si Si6 0.127630 0.650015 0.779034
Si Si7 0.062119 0.218509 0.564362
Si Si8 0.935677 0.487681 0.421026
O O1 0.666021 0.472514 0.340201
O O2 0.719325 0.321428 0.464037
O O3 0.726402 0.347184 0.181408
O O4 0.666342 0.226803 0.282563
O O5 0.475539 0.689863 0.750536
O O6 0.531966 0.853350 0.825719
O O7 0.536945 0.737314 0.580930
O O8 0.476284 0.908992 0.626069
O O9 0.090254 0.921543 0.639523
O O10 0.096863 0.758452 0.840223
O O11 0.066912 0.976678 0.908088
O O12 0.105273 0.355271 0.053018
O O13 0.135733 0.551364 0.906809
O O14 0.102527 0.581685 0.653605
O O15 0.065872 0.363971 0.621222
#
# Coordination Sequence:
#
# PCOD9430721 Si02
#       8
#     8   8   8   8   4   8   8   8
#     4  10  20  38  64 100 129 145 184 238 299 368
#     4  11  23  38  56  80 112 154 224 276 314 344
#     4  10  21  37  58  79 111 160 204 267 316 345
#     4  11  23  37  57  86 123 159 201 241 306 374
#     4  10  20  36  68 104 128 146 180 236 310 358
#     4  10  20  37  60  87 120 156 196 244 306 360
#     4  12  25  38  55  81 115 165 215 261 309 361
#     4  11  23  40  56  79 119 163 217 266 314 352
#
# _framework density 18.931069000000001
#
# number of rings (size 3 to 8) (size 9 to 14) (size 15 to 20)
#    0.000    1.333    2.667    4.400    5.600    0.533 
#    0.000    0.000    0.000    0.000    0.000    5.600 
#    0.000    0.000    0.000    0.000    0.000    0.000 
#
# Total GULP energy -334973.180685 kJ/mol
# GULP energy per Si atom -5582.886345 kJ/mol
# Density = 1.888798 g / cm^3
# Si number density = 18.931069 Si / 1000 Ang^3
#
#
#
# Elastic Constant Matrix: (Units=GPa)
#
#
# Indices 1 2 3 4 5 6 
#
# 1 104.2947 34.7063 46.7211 0.0000 0.0000 0.0000
# 2 34.7063 73.4999 29.6103 0.0000 0.0000 0.0000
# 3 46.7211 29.6103 105.8685 0.0000 0.0000 0.0000
# 4 0.0000 0.0000 0.0000 23.1852 0.0000 0.0000
# 5 0.0000 0.0000 0.0000 0.0000 28.6152 0.0000
# 6 0.0000 0.0000 0.0000 0.0000 0.0000 23.7392
#
#
#
# Elastic Compliance Matrix: (Units=1/GPa)
#
#
# Indices 1 2 3 4 5 6 
#
# 1 0.013072 -0.004337 -0.004556 0.000000 0.000000 0.000000
# 2 -0.004337 0.016772 -0.002777 0.000000 0.000000 0.000000
# 3 -0.004556 -0.002777 0.012233 0.000000 0.000000 0.000000
# 4 0.000000 0.000000 0.000000 0.043131 0.000000 0.000000
# 5 0.000000 0.000000 0.000000 0.000000 0.034946 0.000000
# 6 0.000000 0.000000 0.000000 0.000000 0.000000 0.042124
#
#
# Mechanical properties :
#
#
# Convention : Reuss Voigt Hill
#
# Bulk Modulus (GPa) = 53.36949 56.19318 54.78133
# Shear Modulus (GPa) = 26.05989 26.61628 26.33808
#
# Velocity S-wave (km/s) = 3.71424 3.75368 3.73401
# Velocity P-wave (km/s) = 6.82984 6.96665 6.89859
#
# Compressibility (1/GPa) = 0.01873730
#
# Stress axis : x y z
#
# Youngs Moduli (GPa) = 76.49647 59.62234 81.74648
#
# Poissons Ratio (x) = 0.25860 0.37243
# Poissons Ratio (y) = 0.33179 0.22700
# Poissons Ratio (z) = 0.34851 0.16556
#
# Static dielectric constant tensor:
#      x y z
#    x 1.669850 0.000000 0.000000 
#    y 0.000000 1.694880 0.000000 
#    z 0.000000 0.000000 1.663110 
# 
# From -- ./inp_files/5190.got.cif
#   From: 2010.05.17/outbox.cif.g08.bks.cpg/sg56_3_cif.got.tgz:5190.got - 2010.06.03 13:42:01.
