data_PCOD9430471
_publ_section_title
;
Structure prediction by ZEFSAII (Michael W. Deem and Ramdas Pophale) SiO2 
 PCOD9430471
Probable space group: P C C N
;
_chemical_formula_sum "Si O2"
_cell_formula_units_Z 64
_cell_length_a 16.269412
_cell_length_b 22.559391
_cell_length_c 10.004809
_cell_angle_alpha 90.000000
_cell_angle_beta 90.000000
_cell_angle_gamma 90.000000
_cell_volume 3672.045304
_symmetry_space_group_name_H-M "P C C N"
_symmetry_group_IT_number 56
_symmetry_cell_setting 'orthorhombic'
loop_
_space_group_symop_operation_xyz
x,y,z
1/2-x,1/2-y,z
1/2+x,-y,1/2-z
-x,1/2+y,1/2-z
-x,-y,-z
1/2+x,1/2+y,-z
1/2-x,y,1/2+z
x,1/2-y,1/2+z
loop_
_atom_site_type_symbol
_atom_site_label
_atom_site_fract_x
_atom_site_fract_y
_atom_site_fract_z
Si Si1 0.626858 0.991299 0.537789
Si Si2 0.643946 0.187438 0.374079
Si Si3 0.921164 0.124119 0.119416
Si Si4 0.905730 0.108946 0.621139
Si Si5 0.164982 0.673706 0.131084
Si Si6 0.321906 0.015441 0.940168
Si Si7 0.940105 0.536133 0.816662
Si Si8 0.063745 0.435994 0.738017
O O1 0.724692 0.985077 0.544449
O O2 0.589151 0.956457 0.664440
O O3 0.592594 0.968573 0.397328
O O4 0.599951 0.059492 0.559095
O O5 0.588544 0.170435 0.500441
O O6 0.617709 0.149162 0.246881
O O7 0.642928 0.257466 0.347651
O O8 0.738799 0.170752 0.405192
O O9 0.855201 0.139095 0.233501
O O10 0.010694 0.120011 0.188959
O O11 0.886783 0.145031 0.487662
O O12 0.999547 0.087660 0.634938
O O13 0.851595 0.048643 0.615379
O O14 0.359005 0.064225 0.837540
O O15 0.365651 0.025510 0.082598
O O16 0.996544 0.476970 0.814075
#
# Coordination Sequence:
#
# PCOD9430471 Si02
#       8
#     8   8   8   8   8   8   8   8
#     4  11  20  32  51  75 102 132 166 199 242 299
#     4  11  22  34  49  72 100 131 171 209 235 274
#     4  11  20  34  51  69 100 138 165 195 246 289
#     4  11  20  34  51  69 100 138 165 195 246 289
#     4  11  22  34  49  72 100 131 171 209 235 274
#     4  11  20  32  51  75 102 132 166 199 242 299
#     4  10  20  33  48  72 101 131 165 203 240 292
#     4  10  20  33  48  72 101 131 165 203 240 292
#
# _framework density 17.428979000000002
#
# number of rings (size 3 to 8) (size 9 to 14) (size 15 to 20)
#    0.000    1.250    0.000   11.250    0.000    2.000 
#    0.000    0.000    0.000    0.000    0.000    0.000 
#    0.000   70.000    0.000    0.000    0.000    0.000 
#
# Total GULP energy -357550.118698 kJ/mol
# GULP energy per Si atom -5586.720605 kJ/mol
# Density = 1.738931 g / cm^3
# Si number density = 17.428979 Si / 1000 Ang^3
#
#
#
# Elastic Constant Matrix: (Units=GPa)
#
#
# Indices 1 2 3 4 5 6 
#
# 1 76.7388 12.9816 1.9429 0.0000 0.0000 0.0000
# 2 12.9816 38.1592 7.7558 0.0000 0.0000 0.0000
# 3 1.9429 7.7558 76.5848 0.0000 0.0000 0.0000
# 4 0.0000 0.0000 0.0000 8.6361 0.0000 0.0000
# 5 0.0000 0.0000 0.0000 0.0000 25.3839 0.0000
# 6 0.0000 0.0000 0.0000 0.0000 0.0000 9.9000
#
#
#
# Elastic Compliance Matrix: (Units=1/GPa)
#
#
# Indices 1 2 3 4 5 6 
#
# 1 0.013828 -0.004730 0.000128 0.000000 0.000000 0.000000
# 2 -0.004730 0.028375 -0.002754 0.000000 0.000000 0.000000
# 3 0.000128 -0.002754 0.013333 0.000000 0.000000 0.000000
# 4 0.000000 0.000000 0.000000 0.115793 0.000000 0.000000
# 5 0.000000 0.000000 0.000000 0.000000 0.039395 0.000000
# 6 0.000000 0.000000 0.000000 0.000000 0.000000 0.101010
#
#
# Mechanical properties :
#
#
# Convention : Reuss Voigt Hill
#
# Bulk Modulus (GPa) = 24.49492 26.31593 25.40542
# Shear Modulus (GPa) = 14.70355 20.03751 17.37053
#
# Velocity S-wave (km/s) = 2.90768 3.39435 3.16040
# Velocity P-wave (km/s) = 5.03562 5.52213 5.28447
#
# Compressibility (1/GPa) = 0.04082479
#
# Stress axis : x y z
#
# Youngs Moduli (GPa) = 72.31610 35.24246 75.00175
#
# Poissons Ratio (x) = 0.16671 -0.00962
# Poissons Ratio (y) = 0.34208 0.20652
# Poissons Ratio (z) = -0.00927 0.09704
#
# Static dielectric constant tensor:
#      x y z
#    x 1.600660 0.000000 0.000000 
#    y 0.000000 1.584250 0.000000 
#    z 0.000000 0.000000 1.613670 
# 
# From -- ./inp_files/4222.got.cif
#   From: 2010.05.17/outbox.cif.g08.bks.cpg/sg56_3_cif.got.tgz:4222.got - 2010.06.03 13:42:01.
