data_PCOD9430355
_publ_section_title
;
Structure prediction by ZEFSAII (Michael W. Deem and Ramdas Pophale) SiO2 
 PCOD9430355
Probable space group: P C C N
;
_chemical_formula_sum "Si O2"
_cell_formula_units_Z 64
_cell_length_a 10.995262
_cell_length_b 17.632239
_cell_length_c 17.452020
_cell_angle_alpha 90.000000
_cell_angle_beta 90.000000
_cell_angle_gamma 90.000000
_cell_volume 3383.442096
_symmetry_space_group_name_H-M "P C C N"
_symmetry_group_IT_number 56
_symmetry_cell_setting 'orthorhombic'
loop_
_space_group_symop_operation_xyz
x,y,z
1/2-x,1/2-y,z
1/2+x,-y,1/2-z
-x,1/2+y,1/2-z
-x,-y,-z
1/2+x,1/2+y,-z
1/2-x,y,1/2+z
x,1/2-y,1/2+z
loop_
_atom_site_type_symbol
_atom_site_label
_atom_site_fract_x
_atom_site_fract_y
_atom_site_fract_z
Si Si1 0.899059 0.946229 0.875020
Si Si2 0.552857 0.358194 0.384857
Si Si3 0.302949 0.608191 0.171850
Si Si4 0.456200 0.200083 0.325216
Si Si5 0.629908 0.844788 0.511346
Si Si6 0.594500 0.036953 0.751756
Si Si7 0.588920 0.674595 0.471524
Si Si8 0.161438 0.372571 0.192667
O O1 0.916283 0.914183 0.960069
O O2 0.798211 0.891259 0.834856
O O3 0.018536 0.946201 0.823245
O O4 0.846152 0.031545 0.870870
O O5 0.699239 0.350155 0.378471
O O6 0.484733 0.285734 0.349473
O O7 0.529109 0.428534 0.327741
O O8 0.506190 0.364102 0.471179
O O9 0.414980 0.660496 0.193050
O O10 0.274568 0.578223 0.744629
O O11 0.405428 0.156983 0.400074
O O12 0.364556 0.191863 0.254784
O O13 0.578396 0.765887 0.476198
O O14 0.775714 0.842489 0.503575
O O15 0.613800 0.948695 0.766486
O O16 0.588519 0.646132 0.384816
#
# Coordination Sequence:
#
# PCOD9430355 Si02
#       8
#     8   8   8   8   8   8   8   8
#     4  10  19  39  54  83 117 144 187 226 287 328
#     4   9  21  36  58  78 110 152 185 231 271 336
#     4   9  20  36  56  80 113 149 185 228 271 333
#     4  11  20  37  57  83 111 147 191 226 286 327
#     4   9  21  35  56  80 116 142 176 240 274 342
#     4   9  20  36  56  81 110 148 185 229 271 334
#     4   9  19  39  52  83 110 140 191 223 284 328
#     4  10  21  35  59  81 111 147 182 239 274 331
#
# _framework density 18.915648000000001
#
# number of rings (size 3 to 8) (size 9 to 14) (size 15 to 20)
#    0.750    1.750    1.250    0.375    3.500    1.000 
#    0.000    1.250    0.000    1.500    0.000    0.000 
#    0.000    0.000    0.000    0.000    0.000    0.000 
#
# Total GULP energy -356623.510747 kJ/mol
# GULP energy per Si atom -5572.242355 kJ/mol
# Density = 1.887259 g / cm^3
# Si number density = 18.915648 Si / 1000 Ang^3
#
#
#
# Elastic Constant Matrix: (Units=GPa)
#
#
# Indices 1 2 3 4 5 6 
#
# 1 35.1660 8.9148 20.7521 0.0000 0.0000 0.0000
# 2 8.9148 25.2572 7.0196 0.0000 0.0000 0.0000
# 3 20.7521 7.0196 59.9573 0.0000 0.0000 0.0000
# 4 0.0000 0.0000 0.0000 19.1329 0.0000 0.0000
# 5 0.0000 0.0000 0.0000 0.0000 27.6256 0.0000
# 6 0.0000 0.0000 0.0000 0.0000 0.0000 23.0502
#
#
#
# Elastic Compliance Matrix: (Units=1/GPa)
#
#
# Indices 1 2 3 4 5 6 
#
# 1 0.038078 -0.010106 -0.011996 0.000000 0.000000 0.000000
# 2 -0.010106 0.043606 -0.001608 0.000000 0.000000 0.000000
# 3 -0.011996 -0.001608 0.021019 0.000000 0.000000 0.000000
# 4 0.000000 0.000000 0.000000 0.052266 0.000000 0.000000
# 5 0.000000 0.000000 0.000000 0.000000 0.036198 0.000000
# 6 0.000000 0.000000 0.000000 0.000000 0.000000 0.043383
#
#
# Mechanical properties :
#
#
# Convention : Reuss Voigt Hill
#
# Bulk Modulus (GPa) = 18.08846 21.52818 19.80832
# Shear Modulus (GPa) = 16.64462 19.54134 18.09298
#
# Velocity S-wave (km/s) = 2.96959 3.21764 3.09610
# Velocity P-wave (km/s) = 4.61968 5.02097 4.82450
#
# Compressibility (1/GPa) = 0.05528385
#
# Stress axis : x y z
#
# Youngs Moduli (GPa) = 26.26222 22.93238 47.57664
#
# Poissons Ratio (x) = 0.23175 0.57073
# Poissons Ratio (y) = 0.26540 0.07648
# Poissons Ratio (z) = 0.31504 0.03686
#
# Static dielectric constant tensor:
#      x y z
#    x 1.671170 0.000000 0.000000 
#    y 0.000000 1.673830 0.000000 
#    z 0.000000 0.000000 1.634860 
# 
# From -- ./inp_files/15892.got.cif
#   From: 2010.05.17/outbox.cif.g08.bks.cpg/sg56_8_cif.got.tgz:15892.got - 2010.06.03 13:42:01.
