data_PCOD9430878
_publ_section_title
;
Structure prediction by ZEFSAII (Michael W. Deem and Ramdas Pophale) SiO2 
 PCOD9430878
Probable space group: P C C N
;
_chemical_formula_sum "Si O2"
_cell_formula_units_Z 24
_cell_length_a 4.941290
_cell_length_b 9.123154
_cell_length_c 27.223706
_cell_angle_alpha 90.000000
_cell_angle_beta 90.000000
_cell_angle_gamma 90.000000
_cell_volume 1227.248740
_symmetry_space_group_name_H-M "P C C N"
_symmetry_group_IT_number 56
_symmetry_cell_setting 'orthorhombic'
loop_
_space_group_symop_operation_xyz
x,y,z
1/2-x,1/2-y,z
1/2+x,-y,1/2-z
-x,1/2+y,1/2-z
-x,-y,-z
1/2+x,1/2+y,-z
1/2-x,y,1/2+z
x,1/2-y,1/2+z
loop_
_atom_site_type_symbol
_atom_site_label
_atom_site_fract_x
_atom_site_fract_y
_atom_site_fract_z
Si Si1 0.509273 0.350598 0.872279
Si Si2 0.276172 0.425652 0.773365
Si Si3 0.254486 0.576929 0.025554
O O1 0.250000 0.250000 0.890258
O O2 0.384361 0.446793 0.828948
O O3 0.668253 0.430253 0.916438
O O4 0.750000 0.250000 0.850014
O O5 0.250000 0.250000 0.767099
O O6 0.495077 0.494683 0.736808
O O7 0.250000 0.750000 0.015565
O O8 0.500000 0.500000 0.000000
O O9 0.000000 0.500000 0.000000
#
# Coordination Sequence:
#
# PCOD9430878 Si02
#       3
#     8   8   8
#     4  10  20  38  62  87 120 167 205 237 301 385
#     4  11  22  39  63  91 122 163 206 252 302 362
#     4  11  22  39  63  90 118 156 202 251 302 361
#
# _framework density 19.555938000000001
#
# number of rings (size 3 to 8) (size 9 to 14) (size 15 to 20)
#    0.000    1.333    0.000   10.000    0.000    0.000 
#    0.000    6.667    0.000    6.000    0.000    0.000 
#    0.000    0.000    0.000    0.000    0.000    0.000 
#
# Total GULP energy -133801.922224 kJ/mol
# GULP energy per Si atom -5575.080093 kJ/mol
# Density = 1.951143 g / cm^3
# Si number density = 19.555938 Si / 1000 Ang^3
#
#
#
# Elastic Constant Matrix: (Units=GPa)
#
#
# Indices 1 2 3 4 5 6 
#
# 1 136.4460 32.1557 23.8434 0.0000 0.0000 0.0000
# 2 32.1557 96.3756 45.7241 0.0000 0.0000 0.0000
# 3 23.8434 45.7241 100.3598 0.0000 0.0000 0.0000
# 4 0.0000 0.0000 0.0000 32.2489 0.0000 0.0000
# 5 0.0000 0.0000 0.0000 0.0000 41.8590 0.0000
# 6 0.0000 0.0000 0.0000 0.0000 0.0000 53.5328
#
#
#
# Elastic Compliance Matrix: (Units=1/GPa)
#
#
# Indices 1 2 3 4 5 6 
#
# 1 0.008014 -0.002259 -0.000875 0.000000 0.000000 0.000000
# 2 -0.002259 0.013874 -0.005784 0.000000 0.000000 0.000000
# 3 -0.000875 -0.005784 0.012807 0.000000 0.000000 0.000000
# 4 0.000000 0.000000 0.000000 0.031009 0.000000 0.000000
# 5 0.000000 0.000000 0.000000 0.000000 0.023890 0.000000
# 6 0.000000 0.000000 0.000000 0.000000 0.000000 0.018680
#
#
# Mechanical properties :
#
#
# Convention : Reuss Voigt Hill
#
# Bulk Modulus (GPa) = 59.31420 59.62531 59.46975
# Shear Modulus (GPa) = 37.95639 40.95871 39.45755
#
# Velocity S-wave (km/s) = 4.41036 4.58147 4.49673
# Velocity P-wave (km/s) = 7.50543 7.65129 7.57871
#
# Compressibility (1/GPa) = 0.01685937
#
# Stress axis : x y z
#
# Youngs Moduli (GPa) = 124.77984 72.07701 78.08000
#
# Poissons Ratio (x) = 0.16281 0.06831
# Poissons Ratio (y) = 0.28186 0.45164
# Poissons Ratio (z) = 0.10916 0.41692
#
# Static dielectric constant tensor:
#      x y z
#    x 1.704280 0.000000 0.000000 
#    y 0.000000 1.659460 0.000000 
#    z 0.000000 0.000000 1.809820 
# 
# From -- ./inp_files/19744.got.cif
#   From: 2010.05.17/outbox.cif.g08.bks.cpg/sg56_10_cif.got.tgz:19744.got - 2010.06.03 13:42:01.
