data_PCOD9430875
_publ_section_title
;
Structure prediction by ZEFSAII (Michael W. Deem and Ramdas Pophale) SiO2 
 PCOD9430875
Probable space group: P C C N
;
_chemical_formula_sum "Si O2"
_cell_formula_units_Z 52
_cell_length_a 14.635897
_cell_length_b 9.338009
_cell_length_c 17.834244
_cell_angle_alpha 90.000000
_cell_angle_beta 90.000000
_cell_angle_gamma 90.000000
_cell_volume 2437.408587
_symmetry_space_group_name_H-M "P C C N"
_symmetry_group_IT_number 56
_symmetry_cell_setting 'orthorhombic'
loop_
_space_group_symop_operation_xyz
x,y,z
1/2-x,1/2-y,z
1/2+x,-y,1/2-z
-x,1/2+y,1/2-z
-x,-y,-z
1/2+x,1/2+y,-z
1/2-x,y,1/2+z
x,1/2-y,1/2+z
loop_
_atom_site_type_symbol
_atom_site_label
_atom_site_fract_x
_atom_site_fract_y
_atom_site_fract_z
Si Si1 0.088586 0.344462 0.724331
Si Si2 0.378515 0.866763 0.292237
Si Si3 0.704008 0.963666 0.502532
Si Si4 0.250000 0.250000 0.620671
Si Si5 0.750000 0.250000 0.583261
Si Si6 0.083119 0.904164 0.108280
Si Si7 0.750000 0.250000 0.830889
Si Si8 0.886955 0.819882 0.136679
O O1 0.159125 0.259412 0.671032
O O2 0.087271 0.498812 0.683918
O O3 0.125729 0.314718 0.808081
O O4 0.980212 0.307741 0.725276
O O5 0.336316 0.777940 0.361813
O O6 0.306402 0.852930 0.224941
O O7 0.383754 0.033433 0.314400
O O8 0.754989 0.886276 0.434374
O O9 0.680590 0.854676 0.569260
O O10 0.753250 0.103705 0.535700
O O11 0.605638 0.005374 0.465805
O O12 0.172268 0.810360 0.116822
O O13 0.989950 0.818423 0.105185
#
# Coordination Sequence:
#
# PCOD9430875 Si02
#       8
#     8   8   8   4   4   8   4   8
#     4  10  21  40  58  88 124 161 199 255 309 359
#     4   9  20  36  60  89 120 153 202 259 298 358
#     4  10  21  40  59  89 122 164 202 247 310 366
#     4  10  24  40  58  86 128 162 206 254 306 370
#     4   9  19  40  64  84 120 160 206 256 306 362
#     4  10  21  36  61  88 122 159 199 252 301 367
#     4  11  19  36  60  94 118 150 208 248 298 362
#     4  10  20  38  62  86 119 161 201 244 309 364
#
# _framework density 21.334133000000001
#
# number of rings (size 3 to 8) (size 9 to 14) (size 15 to 20)
#    0.000    2.154    1.538    0.923    4.308    1.846 
#    5.538    0.769    0.000    0.000    0.000    0.000 
#    0.000    0.000    0.000    0.000    0.000    0.000 
#
# Total GULP energy -289930.585658 kJ/mol
# GULP energy per Si atom -5575.588186 kJ/mol
# Density = 2.128558 g / cm^3
# Si number density = 21.334133 Si / 1000 Ang^3
#
#
#
# Elastic Constant Matrix: (Units=GPa)
#
#
# Indices 1 2 3 4 5 6 
#
# 1 71.3012 16.6871 -3.7818 0.0000 0.0000 0.0000
# 2 16.6871 29.3768 10.2522 0.0000 0.0000 0.0000
# 3 -3.7818 10.2522 66.1682 0.0000 0.0000 0.0000
# 4 0.0000 0.0000 0.0000 6.7232 0.0000 0.0000
# 5 0.0000 0.0000 0.0000 0.0000 18.5956 0.0000
# 6 0.0000 0.0000 0.0000 0.0000 0.0000 32.7351
#
#
#
# Elastic Compliance Matrix: (Units=1/GPa)
#
#
# Indices 1 2 3 4 5 6 
#
# 1 0.016571 -0.010300 0.002543 0.000000 0.000000 0.000000
# 2 -0.010300 0.042389 -0.007157 0.000000 0.000000 0.000000
# 3 0.002543 -0.007157 0.016367 0.000000 0.000000 0.000000
# 4 0.000000 0.000000 0.000000 0.148738 0.000000 0.000000
# 5 0.000000 0.000000 0.000000 0.000000 0.053776 0.000000
# 6 0.000000 0.000000 0.000000 0.000000 0.000000 0.030548
#
#
# Mechanical properties :
#
#
# Convention : Reuss Voigt Hill
#
# Bulk Modulus (GPa) = 21.97840 23.68460 22.83150
# Shear Modulus (GPa) = 14.14896 21.19002 17.66949
#
# Velocity S-wave (km/s) = 2.57808 3.15500 2.88101
# Velocity P-wave (km/s) = 4.38022 4.93942 4.66820
#
# Compressibility (1/GPa) = 0.04549922
#
# Stress axis : x y z
#
# Youngs Moduli (GPa) = 60.34818 23.59111 61.09781
#
# Poissons Ratio (x) = 0.24299 -0.15537
# Poissons Ratio (y) = 0.62160 0.43725
# Poissons Ratio (z) = -0.15347 0.16883
#
# Static dielectric constant tensor:
#      x y z
#    x 1.794740 0.000000 0.000000 
#    y 0.000000 1.821120 0.000000 
#    z 0.000000 0.000000 1.837610 
# 
# From -- ./inp_files/16298.got.cif
#   From: 2010.05.17/outbox.cif.g08.bks.cpg/sg56_9_cif.got.tgz:16298.got - 2010.06.03 13:42:01.
