data_PCOD9430068
_publ_section_title
;
Structure prediction by ZEFSAII (Michael W. Deem and Ramdas Pophale) SiO2 
 PCOD9430068
Probable space group: P C C N
;
_chemical_formula_sum "Si O2"
_cell_formula_units_Z 48
_cell_length_a 6.904658
_cell_length_b 7.737718
_cell_length_c 32.299711
_cell_angle_alpha 90.000000
_cell_angle_beta 90.000000
_cell_angle_gamma 90.000000
_cell_volume 1725.653936
_symmetry_space_group_name_H-M "P C C N"
_symmetry_group_IT_number 56
_symmetry_cell_setting 'orthorhombic'
loop_
_space_group_symop_operation_xyz
x,y,z
1/2-x,1/2-y,z
1/2+x,-y,1/2-z
-x,1/2+y,1/2-z
-x,-y,-z
1/2+x,1/2+y,-z
1/2-x,y,1/2+z
x,1/2-y,1/2+z
loop_
_atom_site_type_symbol
_atom_site_label
_atom_site_fract_x
_atom_site_fract_y
_atom_site_fract_z
Si Si1 0.445904 0.502209 0.314535
Si Si2 0.841525 0.057451 0.838596
Si Si3 0.722655 0.544708 0.511163
Si Si4 0.968824 0.680313 0.268500
Si Si5 0.261323 0.457805 0.077178
Si Si6 0.314721 0.552891 0.398906
O O1 0.647451 0.559169 0.335384
O O2 0.402983 0.664250 0.285719
O O3 0.503088 0.366932 0.279103
O O4 0.308433 0.460397 0.353232
O O5 0.750000 0.250000 0.838129
O O6 0.968318 0.981183 0.800866
O O7 0.901988 0.022990 0.885990
O O8 0.750000 0.750000 0.513564
O O9 0.500000 0.500000 0.500000
O O10 0.820905 0.478522 0.468526
O O11 0.779117 0.471229 0.555780
O O12 0.750000 0.750000 0.265996
O O13 0.250000 0.250000 0.076443
O O14 0.036583 0.502309 0.087597
O O15 0.250000 0.750000 0.387781
#
# Coordination Sequence:
#
# PCOD9430068 Si02
#       6
#     8   8   8   8   8   8
#     4  10  21  37  54  78 114 151 188 242 304 356
#     4  10  19  33  55  81 106 141 194 244 288 350
#     4   9  19  38  61  84 119 161 200 249 306 368
#     4  10  21  36  55  78 107 148 195 240 289 355
#     4   9  18  38  59  79 112 153 194 241 291 352
#     4  10  21  36  56  86 120 152 190 244 309 365
#
# _framework density 27.815539999999999
#
# number of rings (size 3 to 8) (size 9 to 14) (size 15 to 20)
#    0.000    2.333    0.000    3.500    0.000    4.667 
#    0.000   19.167    0.000    0.000    0.000    0.000 
#    0.000    0.000    0.000    0.000    0.000    0.000 
#
# Total GULP energy -267574.782444 kJ/mol
# GULP energy per Si atom -5574.474634 kJ/mol
# Density = 2.775223 g / cm^3
# Si number density = 27.815540 Si / 1000 Ang^3
#
#
#
# Elastic Constant Matrix: (Units=GPa)
#
#
# Indices 1 2 3 4 5 6 
#
# 1 45.9839 -31.4228 11.9723 0.0000 0.0000 0.0000
# 2 -31.4228 92.6537 40.7224 0.0000 0.0000 0.0000
# 3 11.9723 40.7224 338.3377 0.0000 0.0000 0.0000
# 4 0.0000 0.0000 0.0000 39.9662 0.0000 0.0000
# 5 0.0000 0.0000 0.0000 0.0000 -372.5387 0.0000
# 6 0.0000 0.0000 0.0000 0.0000 0.0000 28.5471
#
#
#
# Elastic Compliance Matrix: (Units=1/GPa)
#
#
# Indices 1 2 3 4 5 6 
#
# 1 0.030073 0.011262 -0.002420 0.000000 0.000000 0.000000
# 2 0.011262 0.015614 -0.002278 0.000000 0.000000 0.000000
# 3 -0.002420 -0.002278 0.003315 0.000000 0.000000 0.000000
# 4 0.000000 0.000000 0.000000 0.025021 0.000000 0.000000
# 5 0.000000 0.000000 0.000000 0.000000 -0.002684 0.000000
# 6 0.000000 0.000000 0.000000 0.000000 0.000000 0.035030
#
#
# Mechanical properties :
#
#
# Convention : Reuss Voigt Hill
#
# Bulk Modulus (GPa) = 16.09484 57.72437 36.90960
# Shear Modulus (GPa) = 43.87922 -30.42487 6.72718
#
# Velocity S-wave (km/s) = 3.97609 -3.31087 1.55684
# Velocity P-wave (km/s) = 5.18439 2.48633 4.06570
#
# Compressibility (1/GPa) = 0.06213173
#
# Stress axis : x y z
#
# Youngs Moduli (GPa) = 33.25261 64.04686 301.62223
#
# Poissons Ratio (x) = -0.72132 0.72984
# Poissons Ratio (y) = -0.37451 0.68703
# Poissons Ratio (z) = 0.08046 0.14589
#
# Static dielectric constant tensor:
#      x y z
#    x 2.372600 0.000000 0.000000 
#    y 0.000000 9.584870 0.000000 
#    z 0.000000 0.000000 2.267550 
# 
# From -- ./inp_files/23203.got.cif
#   From: 2010.05.17/outbox.cif.g08.bks.cpg/sg56_12_cif.got.tgz:23203.got - 2010.06.03 13:42:01.
