data_PCOD9430326
_publ_section_title
;
Structure prediction by ZEFSAII (Michael W. Deem and Ramdas Pophale) SiO2 
 PCOD9430326
Probable space group: P C C N
;
_chemical_formula_sum "Si O2"
_cell_formula_units_Z 56
_cell_length_a 15.614946
_cell_length_b 8.441897
_cell_length_c 21.041410
_cell_angle_alpha 90.000000
_cell_angle_beta 90.000000
_cell_angle_gamma 90.000000
_cell_volume 2773.673738
_symmetry_space_group_name_H-M "P C C N"
_symmetry_group_IT_number 56
_symmetry_cell_setting 'orthorhombic'
loop_
_space_group_symop_operation_xyz
x,y,z
1/2-x,1/2-y,z
1/2+x,-y,1/2-z
-x,1/2+y,1/2-z
-x,-y,-z
1/2+x,1/2+y,-z
1/2-x,y,1/2+z
x,1/2-y,1/2+z
loop_
_atom_site_type_symbol
_atom_site_label
_atom_site_fract_x
_atom_site_fract_y
_atom_site_fract_z
Si Si1 0.657055 0.520458 0.096362
Si Si2 0.750000 0.250000 0.017861
Si Si3 0.175759 0.981291 0.580567
Si Si4 0.309649 0.407619 0.173952
Si Si5 0.750000 0.750000 0.003212
Si Si6 0.738305 0.075205 0.715975
Si Si7 0.485525 0.980678 0.679107
Si Si8 0.927607 0.116510 0.303647
O O1 0.690999 0.364789 0.059951
O O2 0.683195 0.656248 0.047369
O O3 0.714685 0.539388 0.159260
O O4 0.563020 0.509305 0.127869
O O5 0.686139 0.153473 0.971850
O O6 0.095888 0.964549 0.628551
O O7 0.261367 0.979488 0.624281
O O8 0.190628 0.142402 0.541895
O O9 0.250000 0.250000 0.178501
O O10 0.310282 0.494859 0.241904
O O11 0.409087 0.401713 0.157101
O O12 0.750000 0.250000 0.688881
O O13 0.661397 0.104852 0.765243
O O14 0.455937 0.796852 0.683016
O O15 0.512174 0.032821 0.751004
#
# Coordination Sequence:
#
# PCOD9430326 Si02
#       8
#     8   4   8   8   4   8   8   8
#     4  10  23  40  63  94 127 169 217 270 317 375
#     4  10  20  40  70  86 120 182 224 256 308 384
#     4  10  21  42  68  90 123 172 223 257 310 391
#     4  11  23  38  69  96 124 166 209 265 329 398
#     4  10  22  42  66  88 120 176 232 254 304 392
#     4  10  19  38  62  89 123 166 208 253 327 393
#     4  11  24  40  63 100 136 157 211 274 336 382
#     4  10  23  39  61  97 130 161 201 271 331 385
#
# _framework density 20.189830000000001
#
# number of rings (size 3 to 8) (size 9 to 14) (size 15 to 20)
#    0.000    1.714    2.857    0.857    9.000    0.000 
#    0.000    7.143    0.000    0.000    0.000    0.000 
#    0.000    0.000    0.000    0.000    0.000    0.000 
#
# Total GULP energy -311814.727884 kJ/mol
# GULP energy per Si atom -5568.120141 kJ/mol
# Density = 2.014388 g / cm^3
# Si number density = 20.189830 Si / 1000 Ang^3
#
#
#
# Elastic Constant Matrix: (Units=GPa)
#
#
# Indices 1 2 3 4 5 6 
#
# 1 99.9963 39.6268 59.4828 0.0000 0.0000 0.0000
# 2 39.6268 99.0002 61.8463 0.0000 0.0000 0.0000
# 3 59.4828 61.8463 138.9863 0.0000 0.0000 0.0000
# 4 0.0000 0.0000 0.0000 8.7972 0.0000 0.0000
# 5 0.0000 0.0000 0.0000 0.0000 -231.9575 0.0000
# 6 0.0000 0.0000 0.0000 0.0000 0.0000 14.4327
#
#
#
# Elastic Compliance Matrix: (Units=1/GPa)
#
#
# Indices 1 2 3 4 5 6 
#
# 1 0.013866 -0.002553 -0.004799 0.000000 0.000000 0.000000
# 2 -0.002553 0.014460 -0.005342 0.000000 0.000000 0.000000
# 3 -0.004799 -0.005342 0.011626 0.000000 0.000000 0.000000
# 4 0.000000 0.000000 0.000000 0.113672 0.000000 0.000000
# 5 0.000000 0.000000 0.000000 0.000000 -0.004311 0.000000
# 6 0.000000 0.000000 0.000000 0.000000 0.000000 0.069287
#
#
# Mechanical properties :
#
#
# Convention : Reuss Voigt Hill
#
# Bulk Modulus (GPa) = 68.65440 73.32161 70.98801
# Shear Modulus (GPa) = 20.09308 -29.94374 -4.92533
#
# Velocity S-wave (km/s) = 3.15811 -3.85529 -1.56359
# Velocity P-wave (km/s) = 6.88306 4.07151 5.65481
#
# Compressibility (1/GPa) = 0.01456571
#
# Stress axis : x y z
#
# Youngs Moduli (GPa) = 72.11692 69.15705 86.01620
#
# Poissons Ratio (x) = 0.17653 0.41276
# Poissons Ratio (y) = 0.18408 0.45949
# Poissons Ratio (z) = 0.34606 0.36943
#
# Static dielectric constant tensor:
#      x y z
#    x 87.194950 0.000000 0.000000 
#    y 0.000000 1.844160 0.000000 
#    z 0.000000 0.000000 1.719630 
# 
# From -- ./inp_files/19162.got.cif
#   From: 2010.05.17/outbox.cif.g08.bks.cpg/sg56_10_cif.got.tgz:19162.got - 2010.06.03 13:42:01.
