data_PCOD9430320
_publ_section_title
;
Structure prediction by ZEFSAII (Michael W. Deem and Ramdas Pophale) SiO2 
 PCOD9430320
Probable space group: P C C N
;
_chemical_formula_sum "Si O2"
_cell_formula_units_Z 48
_cell_length_a 21.549258
_cell_length_b 7.671101
_cell_length_c 13.512256
_cell_angle_alpha 90.000000
_cell_angle_beta 90.000000
_cell_angle_gamma 90.000000
_cell_volume 2233.664214
_symmetry_space_group_name_H-M "P C C N"
_symmetry_group_IT_number 56
_symmetry_cell_setting 'orthorhombic'
loop_
_space_group_symop_operation_xyz
x,y,z
1/2-x,1/2-y,z
1/2+x,-y,1/2-z
-x,1/2+y,1/2-z
-x,-y,-z
1/2+x,1/2+y,-z
1/2-x,y,1/2+z
x,1/2-y,1/2+z
loop_
_atom_site_type_symbol
_atom_site_label
_atom_site_fract_x
_atom_site_fract_y
_atom_site_fract_z
Si Si1 0.071657 0.230508 0.834378
Si Si2 0.582057 0.393724 0.051855
Si Si3 0.201103 0.899140 0.808371
Si Si4 0.478070 0.611526 0.320966
Si Si5 0.369762 0.684813 0.163505
Si Si6 0.298843 0.144611 0.740837
O O1 0.036516 0.413764 0.852950
O O2 0.141920 0.276516 0.799167
O O3 0.041611 0.135744 0.738463
O O4 0.063544 0.094642 0.924953
O O5 0.645228 0.387034 0.115883
O O6 0.532348 0.258341 0.096523
O O7 0.600809 0.329765 0.943853
O O8 0.250000 0.750000 0.831184
O O9 0.169702 0.851772 0.701488
O O10 0.244813 0.066968 0.811695
O O11 0.425699 0.657905 0.240040
O O12 0.326007 0.517594 0.180237
O O13 0.250000 0.250000 0.672044
#
# Coordination Sequence:
#
# PCOD9430320 Si02
#       6
#     8   8   8   8   8   8
#     4  11  21  39  66  89 121 173 211 256 319 376
#     4  11  21  41  66  92 124 164 215 259 313 388
#     4   9  19  38  63  84 125 163 198 256 315 374
#     4  10  22  42  63  89 128 166 211 264 323 373
#     4   9  22  39  61  93 121 163 204 265 321 370
#     4  10  19  38  59  87 122 163 206 253 316 375
#
# _framework density 21.489352
#
# number of rings (size 3 to 8) (size 9 to 14) (size 15 to 20)
#    0.000    2.000    3.333    1.000    0.000    2.667 
#    6.000    0.833    0.000    0.000    0.000    0.000 
#    0.000    0.000    0.000    0.000    0.000    0.000 
#
# Total GULP energy -267426.417554 kJ/mol
# GULP energy per Si atom -5571.383699 kJ/mol
# Density = 2.144044 g / cm^3
# Si number density = 21.489352 Si / 1000 Ang^3
#
#
#
# Elastic Constant Matrix: (Units=GPa)
#
#
# Indices 1 2 3 4 5 6 
#
# 1 82.8411 40.6506 7.4180 0.0000 0.0000 0.0000
# 2 40.6506 120.2810 27.6677 0.0000 0.0000 0.0000
# 3 7.4180 27.6677 84.4700 0.0000 0.0000 0.0000
# 4 0.0000 0.0000 0.0000 5.0441 0.0000 0.0000
# 5 0.0000 0.0000 0.0000 0.0000 12.5063 0.0000
# 6 0.0000 0.0000 0.0000 0.0000 0.0000 35.4990
#
#
#
# Elastic Compliance Matrix: (Units=1/GPa)
#
#
# Indices 1 2 3 4 5 6 
#
# 1 0.014481 -0.004977 0.000358 0.000000 0.000000 0.000000
# 2 -0.004977 0.010702 -0.003068 0.000000 0.000000 0.000000
# 3 0.000358 -0.003068 0.012812 0.000000 0.000000 0.000000
# 4 0.000000 0.000000 0.000000 0.198252 0.000000 0.000000
# 5 0.000000 0.000000 0.000000 0.000000 0.079960 0.000000
# 6 0.000000 0.000000 0.000000 0.000000 0.000000 0.028170
#
#
# Mechanical properties :
#
#
# Convention : Reuss Voigt Hill
#
# Bulk Modulus (GPa) = 44.20486 48.78498 46.49492
# Shear Modulus (GPa) = 13.61321 24.73359 19.17340
#
# Velocity S-wave (km/s) = 2.51965 3.39627 2.99026
# Velocity P-wave (km/s) = 5.39259 6.17501 5.79702
#
# Compressibility (1/GPa) = 0.02262195
#
# Stress axis : x y z
#
# Youngs Moduli (GPa) = 69.05484 93.44466 78.05162
#
# Poissons Ratio (x) = 0.46503 -0.02797
# Poissons Ratio (y) = 0.34366 0.23948
# Poissons Ratio (z) = -0.02474 0.28671
#
# Static dielectric constant tensor:
#      x y z
#    x 1.846500 0.000000 0.000000 
#    y 0.000000 2.275760 0.000000 
#    z 0.000000 0.000000 1.750470 
# 
# From -- ./inp_files/8866.got.cif
#   From: 2010.05.17/outbox.cif.g08.bks.cpg/sg56_5_cif.got.tgz:8866.got - 2010.06.03 13:42:01.
