data_PCOD9430753
_publ_section_title
;
Structure prediction by ZEFSAII (Michael W. Deem and Ramdas Pophale) SiO2 
 PCOD9430753
Probable space group: P C C N
;
_chemical_formula_sum "Si O2"
_cell_formula_units_Z 60
_cell_length_a 25.080414
_cell_length_b 7.361000
_cell_length_c 13.544113
_cell_angle_alpha 90.000000
_cell_angle_beta 90.000000
_cell_angle_gamma 90.000000
_cell_volume 2500.472527
_symmetry_space_group_name_H-M "P C C N"
_symmetry_group_IT_number 56
_symmetry_cell_setting 'orthorhombic'
loop_
_space_group_symop_operation_xyz
x,y,z
1/2-x,1/2-y,z
1/2+x,-y,1/2-z
-x,1/2+y,1/2-z
-x,-y,-z
1/2+x,1/2+y,-z
1/2-x,y,1/2+z
x,1/2-y,1/2+z
loop_
_atom_site_type_symbol
_atom_site_label
_atom_site_fract_x
_atom_site_fract_y
_atom_site_fract_z
Si Si1 0.141899 0.170606 0.164360
Si Si2 0.102417 0.550713 0.492388
Si Si3 0.972061 0.793976 0.333224
Si Si4 0.808193 0.177758 0.527633
Si Si5 0.558760 0.208905 0.828290
Si Si6 0.325607 0.916281 0.195395
Si Si7 0.500000 0.500000 0.000000
Si Si8 0.227289 0.048316 0.309064
O O1 0.081797 0.191597 0.204811
O O2 0.163367 0.373065 0.171454
O O3 0.183803 0.047255 0.221958
O O4 0.136456 0.091702 0.054474
O O5 0.142159 0.693891 0.446456
O O6 0.063116 0.654486 0.575436
O O7 0.055706 0.462394 0.431068
O O8 0.986753 0.681652 0.430635
O O9 0.018155 0.784446 0.251797
O O10 0.958429 0.004311 0.357190
O O11 0.750000 0.250000 0.549400
O O12 0.809787 0.160046 0.410647
O O13 0.806398 0.999505 0.593698
O O14 0.618330 0.183379 0.784014
O O15 0.277914 0.926576 0.273945
O O16 0.250000 0.250000 0.321228
#
# Coordination Sequence:
#
# PCOD9430753 Si02
#       8
#     8   8   8   8   8   8   4   8
#     4   9  19  39  63  85 116 160 201 248 307 360
#     4  10  22  39  60  88 123 161 202 256 313 368
#     4  10  20  37  60  87 120 159 205 252 304 364
#     4  11  24  38  59  92 123 158 201 251 310 371
#     4  10  21  39  61  85 117 161 201 244 309 367
#     4   9  21  42  63  85 119 159 202 253 303 360
#     4  10  22  38  58  88 120 158 206 256 302 356
#     4  10  22  40  63  90 118 157 204 248 307 374
#
# _framework density 23.995463999999998
#
# number of rings (size 3 to 8) (size 9 to 14) (size 15 to 20)
#    0.000    2.133    0.000    2.400    0.000    9.067 
#    0.000   20.000    0.000    0.000    0.000    0.000 
#    0.000    0.000    0.000    0.000    0.000    0.000 
#
# Total GULP energy -334389.469784 kJ/mol
# GULP energy per Si atom -5573.157830 kJ/mol
# Density = 2.394085 g / cm^3
# Si number density = 23.995464 Si / 1000 Ang^3
#
#
#
# Elastic Constant Matrix: (Units=GPa)
#
#
# Indices 1 2 3 4 5 6 
#
# 1 96.9376 31.9408 26.1009 0.0000 0.0000 0.0000
# 2 31.9408 67.1584 21.2605 0.0000 0.0000 0.0000
# 3 26.1009 21.2605 56.9980 0.0000 0.0000 0.0000
# 4 0.0000 0.0000 0.0000 31.1434 0.0000 0.0000
# 5 0.0000 0.0000 0.0000 0.0000 29.9518 0.0000
# 6 0.0000 0.0000 0.0000 0.0000 0.0000 37.8188
#
#
#
# Elastic Compliance Matrix: (Units=1/GPa)
#
#
# Indices 1 2 3 4 5 6 
#
# 1 0.013045 -0.004890 -0.004149 0.000000 0.000000 0.000000
# 2 -0.004890 0.018717 -0.004742 0.000000 0.000000 0.000000
# 3 -0.004149 -0.004742 0.021213 0.000000 0.000000 0.000000
# 4 0.000000 0.000000 0.000000 0.032110 0.000000 0.000000
# 5 0.000000 0.000000 0.000000 0.000000 0.033387 0.000000
# 6 0.000000 0.000000 0.000000 0.000000 0.000000 0.026442
#
#
# Mechanical properties :
#
#
# Convention : Reuss Voigt Hill
#
# Bulk Modulus (GPa) = 39.35238 42.18871 40.77054
# Shear Modulus (GPa) = 27.63225 29.23559 28.43392
#
# Velocity S-wave (km/s) = 3.39715 3.49432 3.44607
# Velocity P-wave (km/s) = 5.64119 5.82241 5.73252
#
# Compressibility (1/GPa) = 0.02541143
#
# Stress axis : x y z
#
# Youngs Moduli (GPa) = 76.66050 53.42636 47.14001
#
# Poissons Ratio (x) = 0.26128 0.19560
# Poissons Ratio (y) = 0.37491 0.22355
# Poissons Ratio (z) = 0.31808 0.25336
#
# Static dielectric constant tensor:
#      x y z
#    x 1.687890 0.000000 0.000000 
#    y 0.000000 1.823940 0.000000 
#    z 0.000000 0.000000 1.701000 
# 
# From -- ./inp_files/13230.got.cif
#   From: 2010.05.17/outbox.cif.g08.bks.cpg/sg56_7_cif.got.tgz:13230.got - 2010.06.03 13:42:01.
