data_PCOD9430580
_publ_section_title
;
Structure prediction by ZEFSAII (Michael W. Deem and Ramdas Pophale) SiO2 
 PCOD9430580
Probable space group: P C C N
;
_chemical_formula_sum "Si O2"
_cell_formula_units_Z 40
_cell_length_a 16.553191
_cell_length_b 8.052274
_cell_length_c 11.986076
_cell_angle_alpha 90.000000
_cell_angle_beta 90.000000
_cell_angle_gamma 90.000000
_cell_volume 1597.634013
_symmetry_space_group_name_H-M "P C C N"
_symmetry_group_IT_number 56
_symmetry_cell_setting 'orthorhombic'
loop_
_space_group_symop_operation_xyz
x,y,z
1/2-x,1/2-y,z
1/2+x,-y,1/2-z
-x,1/2+y,1/2-z
-x,-y,-z
1/2+x,1/2+y,-z
1/2-x,y,1/2+z
x,1/2-y,1/2+z
loop_
_atom_site_type_symbol
_atom_site_label
_atom_site_fract_x
_atom_site_fract_y
_atom_site_fract_z
Si Si1 0.925827 0.396277 0.553992
Si Si2 0.387996 0.423433 0.333694
Si Si3 0.719586 0.056757 0.721511
Si Si4 0.516161 0.223349 0.258880
Si Si5 0.620912 0.412031 0.428169
O O1 0.854505 0.459216 0.634951
O O2 0.874488 0.276512 0.473247
O O3 0.000000 0.500000 0.500000
O O4 0.978308 0.274199 0.631446
O O5 0.293632 0.441738 0.311589
O O6 0.425765 0.245965 0.302086
O O7 0.429740 0.557982 0.247136
O O8 0.397834 0.474343 0.464742
O O9 0.750000 0.250000 0.713108
O O10 0.693499 0.029663 0.850053
O O11 0.553007 0.372808 0.335050
#
# Coordination Sequence:
#
# PCOD9430580 Si02
#       5
#     8   8   8   8   8
#     4  10  21  35  59  90 122 165 207 268 333 377
#     4  11  22  37  61  91 124 167 210 266 332 381
#     4  11  21  36  58  95 125 159 223 273 310 386
#     4  10  21  36  56  89 123 161 211 265 318 402
#     4  10  20  35  57  86 123 160 207 266 321 385
#
# _framework density 25.037023000000001
#
# number of rings (size 3 to 8) (size 9 to 14) (size 15 to 20)
#    0.000    1.600    6.000    1.800    2.800    0.000 
#    0.000    0.000    0.000   10.800    0.000   30.800 
#    0.000    0.000    0.000    0.000    0.000    0.000 
#
# Total GULP energy -222806.974283 kJ/mol
# GULP energy per Si atom -5570.174357 kJ/mol
# Density = 2.498004 g / cm^3
# Si number density = 25.037023 Si / 1000 Ang^3
#
#
#
# Elastic Constant Matrix: (Units=GPa)
#
#
# Indices 1 2 3 4 5 6 
#
# 1 132.3054 54.1067 66.1732 0.0000 0.0000 0.0000
# 2 54.1067 41.9807 29.8328 0.0000 0.0000 0.0000
# 3 66.1732 29.8328 140.9291 0.0000 0.0000 0.0000
# 4 0.0000 0.0000 0.0000 19.2625 0.0000 0.0000
# 5 0.0000 0.0000 0.0000 0.0000 49.1206 0.0000
# 6 0.0000 0.0000 0.0000 0.0000 0.0000 38.1244
#
#
#
# Elastic Compliance Matrix: (Units=1/GPa)
#
#
# Indices 1 2 3 4 5 6 
#
# 1 0.017809 -0.020023 -0.004124 0.000000 0.000000 0.000000
# 2 -0.020023 0.050550 -0.001299 0.000000 0.000000 0.000000
# 3 -0.004124 -0.001299 0.009307 0.000000 0.000000 0.000000
# 4 0.000000 0.000000 0.000000 0.051914 0.000000 0.000000
# 5 0.000000 0.000000 0.000000 0.000000 0.020358 0.000000
# 6 0.000000 0.000000 0.000000 0.000000 0.000000 0.026230
#
#
# Mechanical properties :
#
#
# Convention : Reuss Voigt Hill
#
# Bulk Modulus (GPa) = 37.34825 68.38228 52.86527
# Shear Modulus (GPa) = 21.18780 32.30832 26.74806
#
# Velocity S-wave (km/s) = 2.91221 3.59614 3.27209
# Velocity P-wave (km/s) = 5.12421 6.67943 5.95283
#
# Compressibility (1/GPa) = 0.02677501
#
# Stress axis : x y z
#
# Youngs Moduli (GPa) = 56.15079 19.78238 107.44544
#
# Poissons Ratio (x) = 0.39610 0.44308
# Poissons Ratio (y) = 1.12430 0.13958
# Poissons Ratio (z) = 0.23155 0.02570
#
# Static dielectric constant tensor:
#      x y z
#    x 2.143760 0.000000 0.000000 
#    y 0.000000 2.102270 0.000000 
#    z 0.000000 0.000000 2.030830 
# 
# From -- ./inp_files/7650.got.cif
#   From: 2010.05.17/outbox.cif.g08.bks.cpg/sg56_4_cif.got.tgz:7650.got - 2010.06.03 13:42:01.
