data_PCOD9430648
_publ_section_title
;
Structure prediction by ZEFSAII (Michael W. Deem and Ramdas Pophale) SiO2 
 PCOD9430648
Probable space group: P C C N
;
_chemical_formula_sum "Si O2"
_cell_formula_units_Z 60
_cell_length_a 8.056637
_cell_length_b 23.308984
_cell_length_c 16.304812
_cell_angle_alpha 90.000000
_cell_angle_beta 90.000000
_cell_angle_gamma 90.000000
_cell_volume 3061.913629
_symmetry_space_group_name_H-M "P C C N"
_symmetry_group_IT_number 56
_symmetry_cell_setting 'orthorhombic'
loop_
_space_group_symop_operation_xyz
x,y,z
1/2-x,1/2-y,z
1/2+x,-y,1/2-z
-x,1/2+y,1/2-z
-x,-y,-z
1/2+x,1/2+y,-z
1/2-x,y,1/2+z
x,1/2-y,1/2+z
loop_
_atom_site_type_symbol
_atom_site_label
_atom_site_fract_x
_atom_site_fract_y
_atom_site_fract_z
Si Si1 0.044113 0.845394 0.201868
Si Si2 0.648985 0.552958 0.823568
Si Si3 0.685020 0.480526 0.083758
Si Si4 0.214767 0.559496 0.599531
Si Si5 0.750000 0.250000 0.374509
Si Si6 0.778009 0.603832 0.154477
Si Si7 0.036523 0.849722 0.543995
Si Si8 0.012378 0.899812 0.371594
O O1 0.849309 0.852780 0.197299
O O2 0.086151 0.871163 0.290031
O O3 0.105468 0.887522 0.129499
O O4 0.123142 0.784909 0.182342
O O5 0.472547 0.550602 0.871924
O O6 0.706633 0.486493 0.827894
O O7 0.622636 0.577533 0.732496
O O8 0.817677 0.582533 0.860388
O O9 0.698472 0.546972 0.111580
O O10 0.862517 0.452075 0.107426
O O11 0.665848 0.471266 0.985717
O O12 0.385702 0.590563 0.578791
O O13 0.854295 0.204065 0.427580
O O14 0.861823 0.644590 0.087725
O O15 0.025450 0.856308 0.447290
#
# Coordination Sequence:
#
# PCOD9430648 Si02
#       8
#     8   8   8   8   4   8   8   8
#     4  10  22  40  62  89 117 160 207 261 301 367
#     4  11  22  34  59  92 133 166 197 238 303 372
#     4  11  22  35  60  94 131 174 193 240 300 382
#     4  10  20  36  57  89 128 164 206 227 305 368
#     4  10  24  44  68  82 110 166 208 268 332 348
#     4  11  23  35  60  94 128 163 206 247 303 369
#     4  10  23  41  64  86 121 161 208 263 305 363
#     4  10  23  40  61  95 128 157 206 247 308 373
#
# _framework density 19.595589
#
# number of rings (size 3 to 8) (size 9 to 14) (size 15 to 20)
#    0.000    1.600    1.333    2.800    9.333    3.200 
#    0.000    0.000    0.000    1.600    0.000    0.000 
#    0.000    0.000    0.000    0.000    0.000    0.000 
#
# Total GULP energy -334136.229524 kJ/mol
# GULP energy per Si atom -5568.937159 kJ/mol
# Density = 1.955099 g / cm^3
# Si number density = 19.595589 Si / 1000 Ang^3
#
#
#
# Elastic Constant Matrix: (Units=GPa)
#
#
# Indices 1 2 3 4 5 6 
#
# 1 58.9041 26.9916 29.1542 0.0000 0.0000 0.0000
# 2 26.9916 89.7034 35.3506 0.0000 0.0000 0.0000
# 3 29.1542 35.3506 90.7478 0.0000 0.0000 0.0000
# 4 0.0000 0.0000 0.0000 19.0114 0.0000 0.0000
# 5 0.0000 0.0000 0.0000 0.0000 15.2446 0.0000
# 6 0.0000 0.0000 0.0000 0.0000 0.0000 22.5018
#
#
#
# Elastic Compliance Matrix: (Units=1/GPa)
#
#
# Indices 1 2 3 4 5 6 
#
# 1 0.021590 -0.004445 -0.005204 0.000000 0.000000 0.000000
# 2 -0.004445 0.014085 -0.004059 0.000000 0.000000 0.000000
# 3 -0.005204 -0.004059 0.014273 0.000000 0.000000 0.000000
# 4 0.000000 0.000000 0.000000 0.052600 0.000000 0.000000
# 5 0.000000 0.000000 0.000000 0.000000 0.065597 0.000000
# 6 0.000000 0.000000 0.000000 0.000000 0.000000 0.044441
#
#
# Mechanical properties :
#
#
# Convention : Reuss Voigt Hill
#
# Bulk Modulus (GPa) = 44.38433 46.92757 45.65595
# Shear Modulus (GPa) = 20.20109 21.20883 20.70496
#
# Velocity S-wave (km/s) = 3.21425 3.29344 3.25409
# Velocity P-wave (km/s) = 6.03941 6.20180 6.12115
#
# Compressibility (1/GPa) = 0.02253047
#
# Stress axis : x y z
#
# Youngs Moduli (GPa) = 46.31868 70.99825 70.06453
#
# Poissons Ratio (x) = 0.31561 0.36464
# Poissons Ratio (y) = 0.20590 0.28436
# Poissons Ratio (z) = 0.24106 0.28815
#
# Static dielectric constant tensor:
#      x y z
#    x 1.824870 0.000000 0.000000 
#    y 0.000000 1.668890 0.000000 
#    z 0.000000 0.000000 1.700550 
# 
# From -- ./inp_files/10995.got.cif
#   From: 2010.05.17/outbox.cif.g08.bks.cpg/sg56_6_cif.got.tgz:10995.got - 2010.06.03 13:42:01.
