data_PCOD9430642
_publ_section_title
;
Structure prediction by ZEFSAII (Michael W. Deem and Ramdas Pophale) SiO2 
 PCOD9430642
Probable space group: P C C N
;
_chemical_formula_sum "Si O2"
_cell_formula_units_Z 48
_cell_length_a 21.479576
_cell_length_b 5.346745
_cell_length_c 18.500024
_cell_angle_alpha 90.000000
_cell_angle_beta 90.000000
_cell_angle_gamma 90.000000
_cell_volume 2124.650345
_symmetry_space_group_name_H-M "P C C N"
_symmetry_group_IT_number 56
_symmetry_cell_setting 'orthorhombic'
loop_
_space_group_symop_operation_xyz
x,y,z
1/2-x,1/2-y,z
1/2+x,-y,1/2-z
-x,1/2+y,1/2-z
-x,-y,-z
1/2+x,1/2+y,-z
1/2-x,y,1/2+z
x,1/2-y,1/2+z
loop_
_atom_site_type_symbol
_atom_site_label
_atom_site_fract_x
_atom_site_fract_y
_atom_site_fract_z
Si Si1 0.250000 0.750000 0.468467
Si Si2 0.042735 0.445489 0.829343
Si Si3 0.690298 0.125984 0.291621
Si Si4 0.184711 0.129090 0.074361
Si Si5 0.250000 0.250000 0.325917
Si Si6 0.078158 0.945546 0.744999
Si Si7 0.348449 0.138439 0.931233
O O1 0.206774 0.588718 0.521231
O O2 0.300144 0.590659 0.424689
O O3 0.056695 0.722739 0.799224
O O4 0.083418 0.409009 0.900798
O O5 0.968285 0.421009 0.823720
O O6 0.068912 0.220388 0.778230
O O7 0.750000 0.250000 0.328606
O O8 0.647631 0.359032 0.270334
O O9 0.654242 0.963641 0.351960
O O10 0.717675 0.955911 0.227074
O O11 0.250000 0.250000 0.097998
O O12 0.149633 0.301397 0.016501
O O13 0.191783 0.327628 0.379237
#
# Coordination Sequence:
#
# PCOD9430642 Si02
#       7
#     4   8   8   8   4   8   8
#     4  10  20  36  56  84 124 166 196 256 314 382
#     4  10  22  43  64  94 126 173 210 273 316 381
#     4  12  24  36  61  93 127 162 209 266 328 382
#     4  10  21  38  54  84 128 170 198 254 330 380
#     4  12  22  32  58  94 118 150 206 272 304 380
#     4  10  23  41  66  92 133 165 214 263 335 373
#     4  11  22  37  62  91 126 163 220 258 317 381
#
# _framework density 22.591950000000001
#
# number of rings (size 3 to 8) (size 9 to 14) (size 15 to 20)
#    0.000    1.333    5.833    1.000    3.500    0.000 
#    0.000    0.833    0.000    1.000    0.000    0.000 
#    0.000    0.000    0.000    0.000    0.000    0.000 
#
# Total GULP energy -267593.484581 kJ/mol
# GULP energy per Si atom -5574.864262 kJ/mol
# Density = 2.254053 g / cm^3
# Si number density = 22.591950 Si / 1000 Ang^3
#
#
#
# Elastic Constant Matrix: (Units=GPa)
#
#
# Indices 1 2 3 4 5 6 
#
# 1 56.6619 -5.3385 -3.4685 0.0000 0.0000 0.0000
# 2 -5.3385 63.9991 24.9754 0.0000 0.0000 0.0000
# 3 -3.4685 24.9754 88.9367 0.0000 0.0000 0.0000
# 4 0.0000 0.0000 0.0000 20.3295 0.0000 0.0000
# 5 0.0000 0.0000 0.0000 0.0000 -6.5728 0.0000
# 6 0.0000 0.0000 0.0000 0.0000 0.0000 26.2704
#
#
#
# Elastic Compliance Matrix: (Units=1/GPa)
#
#
# Indices 1 2 3 4 5 6 
#
# 1 0.017796 0.001363 0.000311 0.000000 0.000000 0.000000
# 2 0.001363 0.017653 -0.004904 0.000000 0.000000 0.000000
# 3 0.000311 -0.004904 0.012633 0.000000 0.000000 0.000000
# 4 0.000000 0.000000 0.000000 0.049190 0.000000 0.000000
# 5 0.000000 0.000000 0.000000 0.000000 -0.152142 0.000000
# 6 0.000000 0.000000 0.000000 0.000000 0.000000 0.038066
#
#
# Mechanical properties :
#
#
# Convention : Reuss Voigt Hill
#
# Bulk Modulus (GPa) = 24.02559 26.88162 25.45360
# Shear Modulus (GPa) = 1416.85454 20.90071 718.87762
#
# Velocity S-wave (km/s) = 25.07013 3.04491 17.85754
# Velocity P-wave (km/s) = 29.13200 4.92814 20.89210
#
# Compressibility (1/GPa) = 0.04162229
#
# Stress axis : x y z
#
# Youngs Moduli (GPa) = 56.19237 56.64844 79.15600
#
# Poissons Ratio (x) = -0.07721 -0.02464
# Poissons Ratio (y) = -0.07659 0.38819
# Poissons Ratio (z) = -0.01749 0.27781
#
# Static dielectric constant tensor:
#      x y z
#    x 1.843010 0.000000 0.000000 
#    y 0.000000 2.028380 0.000000 
#    z 0.000000 0.000000 1.887980 
# 
# From -- ./inp_files/16958.got.cif
#   From: 2010.05.17/outbox.cif.g08.bks.cpg/sg56_9_cif.got.tgz:16958.got - 2010.06.03 13:42:01.
