data_PCOD9430868
_publ_section_title
;
Structure prediction by ZEFSAII (Michael W. Deem and Ramdas Pophale) SiO2 
 PCOD9430868
Probable space group: P C C N
;
_chemical_formula_sum "Si O2"
_cell_formula_units_Z 52
_cell_length_a 15.088378
_cell_length_b 7.587410
_cell_length_c 20.735640
_cell_angle_alpha 90.000000
_cell_angle_beta 90.000000
_cell_angle_gamma 90.000000
_cell_volume 2373.851528
_symmetry_space_group_name_H-M "P C C N"
_symmetry_group_IT_number 56
_symmetry_cell_setting 'orthorhombic'
loop_
_space_group_symop_operation_xyz
x,y,z
1/2-x,1/2-y,z
1/2+x,-y,1/2-z
-x,1/2+y,1/2-z
-x,-y,-z
1/2+x,1/2+y,-z
1/2-x,y,1/2+z
x,1/2-y,1/2+z
loop_
_atom_site_type_symbol
_atom_site_label
_atom_site_fract_x
_atom_site_fract_y
_atom_site_fract_z
Si Si1 0.076565 0.469881 0.949114
Si Si2 0.467750 0.984093 0.168649
Si Si3 0.757232 0.963935 0.985795
Si Si4 0.262745 0.952219 0.157520
Si Si5 0.070193 0.454137 0.444505
Si Si6 0.940232 0.873815 0.190167
Si Si7 0.250000 0.250000 0.760458
O O1 0.081853 0.258293 0.940681
O O2 0.040610 0.551904 0.882334
O O3 0.167093 0.531054 0.981671
O O4 0.000000 0.500000 0.000000
O O5 0.366402 0.001317 0.145912
O O6 0.491008 0.779815 0.174869
O O7 0.468643 0.056249 0.240536
O O8 0.750000 0.750000 0.982845
O O9 0.778197 0.024734 0.913219
O O10 0.836484 0.023116 0.031194
O O11 0.250000 0.750000 0.178222
O O12 0.229130 0.086135 0.212428
O O13 0.052227 0.505358 0.370487
O O14 0.000000 0.500000 0.500000
O O15 0.838181 0.802341 0.198976
#
# Coordination Sequence:
#
# PCOD9430868 Si02
#       7
#     8   8   8   8   8   8   4
#     4  10  20  38  61  90 127 164 215 265 327 395
#     4  10  23  40  61  93 126 173 214 273 331 397
#     4  10  21  38  63  91 127 171 217 268 334 394
#     4  11  23  39  66  98 132 169 225 270 330 399
#     4  10  24  39  64  93 123 166 221 279 329 395
#     4  10  24  42  64  92 129 174 226 267 343 397
#     4  10  24  44  66  94 136 186 214 268 336 406
#
# _framework density 21.905331
#
# number of rings (size 3 to 8) (size 9 to 14) (size 15 to 20)
#    0.000    1.846    2.308    0.000   11.846    1.231 
#    0.000    0.000    0.000    0.923    0.000    0.000 
#    0.000    0.000    0.000    0.000    0.000    0.000 
#
# Total GULP energy -290266.257345 kJ/mol
# GULP energy per Si atom -5582.043410 kJ/mol
# Density = 2.185547 g / cm^3
# Si number density = 21.905331 Si / 1000 Ang^3
#
#
#
# Elastic Constant Matrix: (Units=GPa)
#
#
# Indices 1 2 3 4 5 6 
#
# 1 93.2180 -12.1643 40.2216 0.0000 0.0000 0.0000
# 2 -12.1643 59.0749 12.1457 0.0000 0.0000 0.0000
# 3 40.2216 12.1457 159.1293 0.0000 0.0000 0.0000
# 4 0.0000 0.0000 0.0000 19.2390 0.0000 0.0000
# 5 0.0000 0.0000 0.0000 0.0000 15.6443 0.0000
# 6 0.0000 0.0000 0.0000 0.0000 0.0000 19.8189
#
#
#
# Elastic Compliance Matrix: (Units=1/GPa)
#
#
# Indices 1 2 3 4 5 6 
#
# 1 0.012649 0.003314 -0.003450 0.000000 0.000000 0.000000
# 2 0.003314 0.018066 -0.002216 0.000000 0.000000 0.000000
# 3 -0.003450 -0.002216 0.007325 0.000000 0.000000 0.000000
# 4 0.000000 0.000000 0.000000 0.051978 0.000000 0.000000
# 5 0.000000 0.000000 0.000000 0.000000 0.063921 0.000000
# 6 0.000000 0.000000 0.000000 0.000000 0.000000 0.050457
#
#
# Mechanical properties :
#
#
# Convention : Reuss Voigt Hill
#
# Bulk Modulus (GPa) = 29.99909 43.53650 36.76779
# Shear Modulus (GPa) = 22.70538 29.02172 25.86355
#
# Velocity S-wave (km/s) = 3.22300 3.64383 3.43985
# Velocity P-wave (km/s) = 5.25118 6.13362 5.70947
#
# Compressibility (1/GPa) = 0.03333435
#
# Stress axis : x y z
#
# Youngs Moduli (GPa) = 79.06034 55.35343 136.51142
#
# Poissons Ratio (x) = -0.18343 0.47096
# Poissons Ratio (y) = -0.26199 0.30258
# Poissons Ratio (z) = 0.27276 0.12269
#
# Static dielectric constant tensor:
#      x y z
#    x 1.773900 0.000000 0.000000 
#    y 0.000000 1.767550 0.000000 
#    z 0.000000 0.000000 1.863200 
# 
# From -- ./inp_files/19072.got.cif
#   From: 2010.05.17/outbox.cif.g08.bks.cpg/sg56_10_cif.got.tgz:19072.got - 2010.06.03 13:42:01.
