data_PCOD9430192
_publ_section_title
;
Structure prediction by ZEFSAII (Michael W. Deem and Ramdas Pophale) SiO2 
 PCOD9430192
Probable space group: P C C N
;
_chemical_formula_sum "Si O2"
_cell_formula_units_Z 56
_cell_length_a 21.624449
_cell_length_b 8.357613
_cell_length_c 13.720038
_cell_angle_alpha 90.000000
_cell_angle_beta 90.000000
_cell_angle_gamma 90.000000
_cell_volume 2479.605676
_symmetry_space_group_name_H-M "P C C N"
_symmetry_group_IT_number 56
_symmetry_cell_setting 'orthorhombic'
loop_
_space_group_symop_operation_xyz
x,y,z
1/2-x,1/2-y,z
1/2+x,-y,1/2-z
-x,1/2+y,1/2-z
-x,-y,-z
1/2+x,1/2+y,-z
1/2-x,y,1/2+z
x,1/2-y,1/2+z
loop_
_atom_site_type_symbol
_atom_site_label
_atom_site_fract_x
_atom_site_fract_y
_atom_site_fract_z
Si Si1 0.277794 0.087454 0.737330
Si Si2 0.384123 0.305518 0.961229
Si Si3 0.250000 0.250000 0.434397
Si Si4 0.250000 0.750000 0.286435
Si Si5 0.488530 0.690499 0.498291
Si Si6 0.585579 0.876434 0.236103
Si Si7 0.034737 0.722326 0.721270
Si Si8 0.881316 0.341258 0.630544
O O1 0.250000 0.250000 0.695635
O O2 0.261760 0.108089 0.854339
O O3 0.349414 0.103627 0.712446
O O4 0.254901 0.908928 0.719479
O O5 0.313523 0.272591 0.992348
O O6 0.445754 0.279154 0.024809
O O7 0.395820 0.181038 0.872232
O O8 0.381716 0.484068 0.917188
O O9 0.186885 0.731229 0.350201
O O10 0.500000 0.500000 0.500000
O O11 0.429821 0.736149 0.432147
O O12 0.471278 0.753065 0.606374
O O13 0.532795 0.753480 0.265239
O O14 0.554598 0.047405 0.247346
O O15 0.085037 0.844185 0.764491
#
# Coordination Sequence:
#
# PCOD9430192 Si02
#       8
#     8   8   4   4   8   8   8   8
#     4   9  18  33  56  95 129 166 225 275 324 414
#     4  10  20  37  61  96 129 172 227 285 338 414
#     4   8  16  32  58  86 128 168 220 278 334 406
#     4  12  20  36  70 100 126 188 230 274 350 416
#     4  11  26  41  63 100 139 179 227 284 345 416
#     4  10  19  35  59  92 131 165 220 273 340 403
#     4  11  22  39  65  95 130 175 219 279 342 406
#     4  12  23  41  68  99 131 178 233 279 347 414
#
# _framework density 22.584237000000002
#
# number of rings (size 3 to 8) (size 9 to 14) (size 15 to 20)
#    0.429    1.143    2.857    3.857    2.000    0.000 
#    0.000    0.714    0.000    0.000    7.429    0.000 
#    0.000    0.000    0.000    0.000    0.000    0.000 
#
# Total GULP energy -312287.068095 kJ/mol
# GULP energy per Si atom -5576.554787 kJ/mol
# Density = 2.253283 g / cm^3
# Si number density = 22.584237 Si / 1000 Ang^3
#
#
#
# Elastic Constant Matrix: (Units=GPa)
#
#
# Indices 1 2 3 4 5 6 
#
# 1 235.7749 77.3179 42.5520 0.0000 0.0000 0.0000
# 2 77.3179 167.1155 14.9393 0.0000 0.0000 0.0000
# 3 42.5520 14.9393 76.6567 0.0000 0.0000 0.0000
# 4 0.0000 0.0000 0.0000 1.5900 0.0000 0.0000
# 5 0.0000 0.0000 0.0000 0.0000 -27.5971 0.0000
# 6 0.0000 0.0000 0.0000 0.0000 0.0000 41.6032
#
#
#
# Elastic Compliance Matrix: (Units=1/GPa)
#
#
# Indices 1 2 3 4 5 6 
#
# 1 0.005460 -0.002295 -0.002584 0.000000 0.000000 0.000000
# 2 -0.002295 0.007055 -0.000101 0.000000 0.000000 0.000000
# 3 -0.002584 -0.000101 0.014499 0.000000 0.000000 0.000000
# 4 0.000000 0.000000 0.000000 0.628917 0.000000 0.000000
# 5 0.000000 0.000000 0.000000 0.000000 -0.036236 0.000000
# 6 0.000000 0.000000 0.000000 0.000000 0.000000 0.024037
#
#
# Mechanical properties :
#
#
# Convention : Reuss Voigt Hill
#
# Bulk Modulus (GPa) = 58.63504 83.24061 70.93783
# Shear Modulus (GPa) = 7.58292 26.10175 16.84234
#
# Velocity S-wave (km/s) = 1.83437 3.40332 2.73382
# Velocity P-wave (km/s) = 5.52320 7.23749 6.43766
#
# Compressibility (1/GPa) = 0.01705465
#
# Stress axis : x y z
#
# Youngs Moduli (GPa) = 183.13889 141.74654 68.97018
#
# Poissons Ratio (x) = 0.32535 0.17820
# Poissons Ratio (y) = 0.42036 0.00695
# Poissons Ratio (z) = 0.47318 0.01428
#
# Static dielectric constant tensor:
#      x y z
#    x 1.844460 0.000000 0.000000 
#    y 0.000000 1.870030 0.000000 
#    z 0.000000 0.000000 1.879900 
# 
# From -- ./inp_files/19304.got.cif
#   From: 2010.05.17/outbox.cif.g08.bks.cpg/sg56_10_cif.got.tgz:19304.got - 2010.06.03 13:42:01.
