data_PCOD9430728
_publ_section_title
;
Structure prediction by ZEFSAII (Michael W. Deem and Ramdas Pophale) SiO2 
 PCOD9430728
Probable space group: P C C N
;
_chemical_formula_sum "Si O2"
_cell_formula_units_Z 40
_cell_length_a 5.100167
_cell_length_b 23.255518
_cell_length_c 18.788157
_cell_angle_alpha 90.000000
_cell_angle_beta 90.000000
_cell_angle_gamma 90.000000
_cell_volume 2228.407416
_symmetry_space_group_name_H-M "P C C N"
_symmetry_group_IT_number 56
_symmetry_cell_setting 'orthorhombic'
loop_
_space_group_symop_operation_xyz
x,y,z
1/2-x,1/2-y,z
1/2+x,-y,1/2-z
-x,1/2+y,1/2-z
-x,-y,-z
1/2+x,1/2+y,-z
1/2-x,y,1/2+z
x,1/2-y,1/2+z
loop_
_atom_site_type_symbol
_atom_site_label
_atom_site_fract_x
_atom_site_fract_y
_atom_site_fract_z
Si Si1 0.101338 0.468228 0.222320
Si Si2 0.694402 0.521639 0.438249
Si Si3 0.663720 0.186091 0.365014
Si Si4 0.558664 0.912453 0.552600
Si Si5 0.673282 0.631871 0.684989
O O1 0.322931 0.515951 0.242275
O O2 0.069079 0.465722 0.137582
O O3 0.227789 0.410102 0.253617
O O4 0.500000 0.500000 0.500000
O O5 0.835865 0.576688 0.473806
O O6 0.902171 0.470194 0.428089
O O7 0.750000 0.250000 0.383526
O O8 0.618008 0.143686 0.432505
O O9 0.385819 0.182467 0.325064
O O10 0.883426 0.156399 0.315694
O O11 0.787517 0.904244 0.611226
#
# Coordination Sequence:
#
# PCOD9430728 Si02
#       5
#     8   8   8   8   8
#     4  12  22  36  56  85 122 158 189 234 291 366
#     4  11  21  35  56  86 128 155 188 236 306 364
#     4  10  20  37  61  84 109 150 205 261 283 338
#     4   9  20  34  53  87 113 154 188 235 291 361
#     4  10  20  37  55  89 112 146 203 238 295 348
#
# _framework density 17.950039
#
# number of rings (size 3 to 8) (size 9 to 14) (size 15 to 20)
#    1.200    0.400    2.000    5.400    2.800    0.000 
#    0.000    0.000    0.000    1.200   10.400    0.000 
#    0.000    0.000    0.000    0.000    0.000    0.000 
#
# Total GULP energy -222809.975799 kJ/mol
# GULP energy per Si atom -5570.249395 kJ/mol
# Density = 1.790918 g / cm^3
# Si number density = 17.950039 Si / 1000 Ang^3
#
#
#
# Elastic Constant Matrix: (Units=GPa)
#
#
# Indices 1 2 3 4 5 6 
#
# 1 61.2802 5.9013 7.6814 0.0000 0.0000 0.0000
# 2 5.9013 90.9927 26.8898 0.0000 0.0000 0.0000
# 3 7.6814 26.8898 101.9782 0.0000 0.0000 0.0000
# 4 0.0000 0.0000 0.0000 15.8221 0.0000 0.0000
# 5 0.0000 0.0000 0.0000 0.0000 13.1136 0.0000
# 6 0.0000 0.0000 0.0000 0.0000 0.0000 27.6999
#
#
#
# Elastic Compliance Matrix: (Units=1/GPa)
#
#
# Indices 1 2 3 4 5 6 
#
# 1 0.016523 -0.000763 -0.001043 0.000000 0.000000 0.000000
# 2 -0.000763 0.011954 -0.003095 0.000000 0.000000 0.000000
# 3 -0.001043 -0.003095 0.010701 0.000000 0.000000 0.000000
# 4 0.000000 0.000000 0.000000 0.063203 0.000000 0.000000
# 5 0.000000 0.000000 0.000000 0.000000 0.076257 0.000000
# 6 0.000000 0.000000 0.000000 0.000000 0.000000 0.036101
#
#
# Mechanical properties :
#
#
# Convention : Reuss Voigt Hill
#
# Bulk Modulus (GPa) = 34.04253 37.24401 35.64327
# Shear Modulus (GPa) = 21.33730 25.57904 23.45817
#
# Velocity S-wave (km/s) = 3.45150 3.77903 3.61897
# Velocity P-wave (km/s) = 5.90679 6.31151 6.11250
#
# Compressibility (1/GPa) = 0.02937502
#
# Stress axis : x y z
#
# Youngs Moduli (GPa) = 60.52259 83.65485 93.45288
#
# Poissons Ratio (x) = 0.06385 0.09750
# Poissons Ratio (y) = 0.04619 0.28919
# Poissons Ratio (z) = 0.06314 0.25887
#
# Static dielectric constant tensor:
#      x y z
#    x 1.682930 0.000000 0.000000 
#    y 0.000000 1.625880 0.000000 
#    z 0.000000 0.000000 1.609150 
# 
# From -- ./inp_files/14018.got.cif
#   From: 2010.05.17/outbox.cif.g08.bks.cpg/sg56_8_cif.got.tgz:14018.got - 2010.06.03 13:42:01.
