data_PCOD9430396
_publ_section_title
;
Structure prediction by ZEFSAII (Michael W. Deem and Ramdas Pophale) SiO2 
 PCOD9430396
Probable space group: P C C N
;
_chemical_formula_sum "Si O2"
_cell_formula_units_Z 64
_cell_length_a 17.715245
_cell_length_b 10.612296
_cell_length_c 14.244380
_cell_angle_alpha 90.000000
_cell_angle_beta 90.000000
_cell_angle_gamma 90.000000
_cell_volume 2677.935230
_symmetry_space_group_name_H-M "P C C N"
_symmetry_group_IT_number 56
_symmetry_cell_setting 'orthorhombic'
loop_
_space_group_symop_operation_xyz
x,y,z
1/2-x,1/2-y,z
1/2+x,-y,1/2-z
-x,1/2+y,1/2-z
-x,-y,-z
1/2+x,1/2+y,-z
1/2-x,y,1/2+z
x,1/2-y,1/2+z
loop_
_atom_site_type_symbol
_atom_site_label
_atom_site_fract_x
_atom_site_fract_y
_atom_site_fract_z
Si Si1 0.673672 0.302177 0.161130
Si Si2 0.170615 0.822885 0.148443
Si Si3 0.261881 0.073682 0.567003
Si Si4 0.941285 0.253115 0.504915
Si Si5 0.391607 0.466212 0.476343
Si Si6 0.594765 0.773275 0.417209
Si Si7 0.374762 0.317301 0.297572
Si Si8 0.291768 0.079077 0.269668
O O1 0.750000 0.250000 0.114718
O O2 0.655624 0.198850 0.241422
O O3 0.611281 0.316055 0.083778
O O4 0.689190 0.434686 0.212013
O O5 0.250000 0.750000 0.130570
O O6 0.188323 0.959427 0.107758
O O7 0.097631 0.774381 0.094704
O O8 0.200403 0.029330 0.490820
O O9 0.324882 0.177601 0.541707
O O10 0.214033 0.111608 0.659310
O O11 0.022481 0.315139 0.522409
O O12 0.927788 0.103104 0.521622
O O13 0.414206 0.376158 0.562872
O O14 0.415001 0.389489 0.382319
O O15 0.591091 0.815727 0.307974
O O16 0.352582 0.171826 0.315744
O O17 0.293086 0.385274 0.297521
#
# Coordination Sequence:
#
# PCOD9430396 Si02
#       8
#     8   8   8   8   8   8   8   8
#     4  11  22  40  71 104 132 184 240 301 355 417
#     4  11  22  42  72 104 139 182 240 302 357 419
#     4  11  22  44  74 101 140 181 239 304 351 422
#     4  12  27  44  69 106 144 188 237 290 367 453
#     4  12  24  45  76 100 132 193 250 290 351 445
#     4  11  27  46  63 103 149 186 225 298 375 424
#     4  10  24  39  68 103 132 176 236 298 347 416
#     4  10  19  40  66  98 137 167 232 295 351 407
#
# _framework density 23.899009
#
# number of rings (size 3 to 8) (size 9 to 14) (size 15 to 20)
#    0.000    1.000    5.000    1.875    7.000    1.500 
#    2.250    0.000    0.000    0.000    0.000    0.000 
#    0.000    0.000    0.000    0.000    0.000    0.000 
#
# Total GULP energy -357411.237671 kJ/mol
# GULP energy per Si atom -5584.550589 kJ/mol
# Density = 2.384461 g / cm^3
# Si number density = 23.899009 Si / 1000 Ang^3
#
#
#
# Elastic Constant Matrix: (Units=GPa)
#
#
# Indices 1 2 3 4 5 6 
#
# 1 85.3996 -0.1479 1.8566 0.0000 0.0000 0.0000
# 2 -0.1479 84.1896 -5.0364 0.0000 0.0000 0.0000
# 3 1.8566 -5.0364 76.9838 0.0000 0.0000 0.0000
# 4 0.0000 0.0000 0.0000 29.4314 0.0000 0.0000
# 5 0.0000 0.0000 0.0000 0.0000 -11.0474 0.0000
# 6 0.0000 0.0000 0.0000 0.0000 0.0000 19.8017
#
#
#
# Elastic Compliance Matrix: (Units=1/GPa)
#
#
# Indices 1 2 3 4 5 6 
#
# 1 0.011716 0.000004 -0.000282 0.000000 0.000000 0.000000
# 2 0.000004 0.011925 0.000780 0.000000 0.000000 0.000000
# 3 -0.000282 0.000780 0.013048 0.000000 0.000000 0.000000
# 4 0.000000 0.000000 0.000000 0.033977 0.000000 0.000000
# 5 0.000000 0.000000 0.000000 0.000000 -0.090519 0.000000
# 6 0.000000 0.000000 0.000000 0.000000 0.000000 0.050501
#
#
# Mechanical properties :
#
#
# Convention : Reuss Voigt Hill
#
# Bulk Modulus (GPa) = 26.53162 26.65750 26.59456
# Shear Modulus (GPa) = 118.46022 24.29716 71.37869
#
# Velocity S-wave (km/s) = 7.04802 3.19197 5.47098
# Velocity P-wave (km/s) = 8.79537 4.97628 7.14569
#
# Compressibility (1/GPa) = 0.03769087
#
# Stress axis : x y z
#
# Youngs Moduli (GPa) = 85.35478 83.86006 76.64258
#
# Poissons Ratio (x) = -0.00031 0.02164
# Poissons Ratio (y) = -0.00031 -0.05978
# Poissons Ratio (z) = 0.02410 -0.06541
#
# Static dielectric constant tensor:
#      x y z
#    x 2.333080 0.000000 0.000000 
#    y 0.000000 1.961140 0.000000 
#    z 0.000000 0.000000 1.923170 
# 
# From -- ./inp_files/12874.got.cif
#   From: 2010.05.17/outbox.cif.g08.bks.cpg/sg56_7_cif.got.tgz:12874.got - 2010.06.03 13:42:01.
