data_PCOD9430010
_publ_section_title
;
Structure prediction by ZEFSAII (Michael W. Deem and Ramdas Pophale) SiO2 
 PCOD9430010
Probable space group: P C C N
;
_chemical_formula_sum "Si O2"
_cell_formula_units_Z 48
_cell_length_a 16.318535
_cell_length_b 11.367873
_cell_length_c 8.284748
_cell_angle_alpha 90.000000
_cell_angle_beta 90.000000
_cell_angle_gamma 90.000000
_cell_volume 1536.879024
_symmetry_space_group_name_H-M "P C C N"
_symmetry_group_IT_number 56
_symmetry_cell_setting 'orthorhombic'
loop_
_space_group_symop_operation_xyz
x,y,z
1/2-x,1/2-y,z
1/2+x,-y,1/2-z
-x,1/2+y,1/2-z
-x,-y,-z
1/2+x,1/2+y,-z
1/2-x,y,1/2+z
x,1/2-y,1/2+z
loop_
_atom_site_type_symbol
_atom_site_label
_atom_site_fract_x
_atom_site_fract_y
_atom_site_fract_z
Si Si1 0.750000 0.989152 0.141449
Si Si2 0.424725 0.250000 0.622351
Si Si3 0.916661 0.500965 0.854395
Si Si4 0.085274 0.750000 0.154173
Si Si5 0.750000 0.750000 0.426460
Si Si6 0.250000 0.750000 0.365719
Si Si7 0.416661 0.499035 0.145605
O O1 0.833697 0.991221 0.247553
O O2 0.666302 0.991221 0.247553
O O3 0.750000 0.119077 0.055123
O O4 0.750000 0.872156 0.029578
O O5 0.423824 0.379083 0.542537
O O6 0.501177 0.250000 0.742757
O O7 0.331096 0.250000 0.683630
O O8 0.423824 0.120917 0.542537
O O9 0.913646 0.373636 0.938254
O O10 0.000000 0.500000 0.750000
O O11 0.167348 0.750000 0.259602
O O12 0.086354 0.873636 0.061746
#
# Coordination Sequence:
#
# PCOD9430010 Si02
#       7
#     8   8   8   8   4   4   8
#     4  10  19  34  54  76 104 140 173 212 264 316
#     4  10  19  32  49  78 110 136 171 214 253 311
#     4   9  17  33  57  79  99 133 183 228 258 295
#     4   8  16  31  55  78  97 125 173 229 265 289
#     4  12  24  34  48  78 118 150 166 198 266 332
#     4   8  16  34  52  68  92 130 176 214 254 298
#     4   9  17  33  57  79  99 133 183 228 258 295
#
# _framework density 31.232127999999999
#
# number of rings (size 3 to 8) (size 9 to 14) (size 15 to 20)
#    0.000    2.667    0.000    2.000    0.000    0.000 
#    0.000   16.667    0.000    0.000    0.000    0.000 
#    0.000    0.000    0.000    0.000    0.000    0.000 
#
# Total GULP energy -268415.389149 kJ/mol
# GULP energy per Si atom -5591.987274 kJ/mol
# Density = 3.116104 g / cm^3
# Si number density = 31.232128 Si / 1000 Ang^3
#
#
#
# Elastic Constant Matrix: (Units=GPa)
#
#
# Indices 1 2 3 4 5 6 
#
# 1 385.6249 -12.7998 95.6512 0.0000 0.0000 0.0000
# 2 -12.7998 472.1860 57.8550 0.0000 0.0000 0.0000
# 3 95.6512 57.8550 73.8561 0.0000 0.0000 0.0000
# 4 0.0000 0.0000 0.0000 6.2210 0.0000 0.0000
# 5 0.0000 0.0000 0.0000 0.0000 97.9198 0.0000
# 6 0.0000 0.0000 0.0000 0.0000 0.0000 36.0255
#
#
#
# Elastic Compliance Matrix: (Units=1/GPa)
#
#
# Indices 1 2 3 4 5 6 
#
# 1 0.004103 0.000843 -0.005975 0.000000 0.000000 0.000000
# 2 0.000843 0.002516 -0.003063 0.000000 0.000000 0.000000
# 3 -0.005975 -0.003063 0.023677 0.000000 0.000000 0.000000
# 4 0.000000 0.000000 0.000000 0.160745 0.000000 0.000000
# 5 0.000000 0.000000 0.000000 0.000000 0.010212 0.000000
# 6 0.000000 0.000000 0.000000 0.000000 0.000000 0.027758
#
#
# Mechanical properties :
#
#
# Convention : Reuss Voigt Hill
#
# Bulk Modulus (GPa) = 71.90394 134.78665 103.34529
# Shear Modulus (GPa) = 19.99716 80.76397 50.38056
#
# Velocity S-wave (km/s) = 2.53311 5.09072 4.02070
# Velocity P-wave (km/s) = 5.62387 8.82066 7.39702
#
# Compressibility (1/GPa) = 0.01390744
#
# Stress axis : x y z
#
# Youngs Moduli (GPa) = 243.71710 397.46207 42.23531
#
# Poissons Ratio (x) = -0.33516 0.25234
# Poissons Ratio (y) = -0.20552 0.12937
# Poissons Ratio (z) = 1.45609 1.21742
#
# Static dielectric constant tensor:
#      x y z
#    x 2.358940 0.000000 0.000000 
#    y 0.000000 2.419020 0.000000 
#    z 0.000000 0.000000 2.307830 
# 
# From -- ./inp_files/12238.got.cif
#   From: 2010.05.17/outbox.cif.g08.bks.cpg/sg56_7_cif.got.tgz:12238.got - 2010.06.03 13:42:01.
