data_PCOD9430082
_publ_section_title
;
Structure prediction by ZEFSAII (Michael W. Deem and Ramdas Pophale) SiO2 
 PCOD9430082
Probable space group: P C C N
;
_chemical_formula_sum "Si O2"
_cell_formula_units_Z 40
_cell_length_a 19.891364
_cell_length_b 19.702496
_cell_length_c 5.305610
_cell_angle_alpha 90.000000
_cell_angle_beta 90.000000
_cell_angle_gamma 90.000000
_cell_volume 2079.319067
_symmetry_space_group_name_H-M "P C C N"
_symmetry_group_IT_number 56
_symmetry_cell_setting 'orthorhombic'
loop_
_space_group_symop_operation_xyz
x,y,z
1/2-x,1/2-y,z
1/2+x,-y,1/2-z
-x,1/2+y,1/2-z
-x,-y,-z
1/2+x,1/2+y,-z
1/2-x,y,1/2+z
x,1/2-y,1/2+z
loop_
_atom_site_type_symbol
_atom_site_label
_atom_site_fract_x
_atom_site_fract_y
_atom_site_fract_z
Si Si1 0.979528 0.079818 0.961583
Si Si2 0.564689 0.449305 0.461479
Si Si3 0.938309 0.791177 0.194598
Si Si4 0.709391 0.503372 0.298845
Si Si5 0.211435 0.166043 0.709376
O O1 0.033503 0.133129 0.857508
O O2 0.924272 0.079082 0.741143
O O3 0.958032 0.101439 0.241010
O O4 0.000000 0.000000 0.000000
O O5 0.500000 0.500000 0.500000
O O6 0.633457 0.480465 0.357468
O O7 0.958063 0.756658 0.459493
O O8 0.858377 0.800833 0.214064
O O9 0.757813 0.482619 0.531870
O O10 0.704723 0.584752 0.287523
O O11 0.234183 0.181778 0.425488
#
# Coordination Sequence:
#
# PCOD9430082 Si02
#       5
#     8   8   8   8   8
#     4  10  21  37  59  81 107 148 196 239 295 355
#     4  10  19  33  57  82 112 152 195 237 292 354
#     4  12  25  39  56  82 118 153 198 255 297 341
#     4  10  20  34  54  85 121 152 193 247 291 337
#     4  10  21  35  52  74 109 162 208 234 270 330
#
# _framework density 19.237068000000001
#
# number of rings (size 3 to 8) (size 9 to 14) (size 15 to 20)
#    0.000    1.600    0.000    6.000    0.000   12.000 
#    0.000    0.000    0.000    0.000    0.000    0.000 
#    0.000   56.000    0.000    0.000    0.000    0.000 
#
# Total GULP energy -222867.753822 kJ/mol
# GULP energy per Si atom -5571.693846 kJ/mol
# Density = 1.919328 g / cm^3
# Si number density = 19.237068 Si / 1000 Ang^3
#
#
#
# Elastic Constant Matrix: (Units=GPa)
#
#
# Indices 1 2 3 4 5 6 
#
# 1 89.5046 37.4338 30.8128 0.0000 0.0000 0.0000
# 2 37.4338 68.6508 27.2861 0.0000 0.0000 0.0000
# 3 30.8128 27.2861 174.2193 0.0000 0.0000 0.0000
# 4 0.0000 0.0000 0.0000 29.3920 0.0000 0.0000
# 5 0.0000 0.0000 0.0000 0.0000 27.8748 0.0000
# 6 0.0000 0.0000 0.0000 0.0000 0.0000 33.6684
#
#
#
# Elastic Compliance Matrix: (Units=1/GPa)
#
#
# Indices 1 2 3 4 5 6 
#
# 1 0.014806 -0.007500 -0.001444 0.000000 0.000000 0.000000
# 2 -0.007500 0.019332 -0.001701 0.000000 0.000000 0.000000
# 3 -0.001444 -0.001701 0.006262 0.000000 0.000000 0.000000
# 4 0.000000 0.000000 0.000000 0.034023 0.000000 0.000000
# 5 0.000000 0.000000 0.000000 0.000000 0.035875 0.000000
# 6 0.000000 0.000000 0.000000 0.000000 0.000000 0.029701
#
#
# Mechanical properties :
#
#
# Convention : Reuss Voigt Hill
#
# Bulk Modulus (GPa) = 52.32858 58.16002 55.24430
# Shear Modulus (GPa) = 29.82237 33.97651 31.89944
#
# Velocity S-wave (km/s) = 3.94160 4.20718 4.07655
# Velocity P-wave (km/s) = 6.92647 7.34162 7.13706
#
# Compressibility (1/GPa) = 0.01911002
#
# Stress axis : x y z
#
# Youngs Moduli (GPa) = 67.53868 51.72748 159.69934
#
# Poissons Ratio (x) = 0.38794 0.23062
# Poissons Ratio (y) = 0.50651 0.27171
# Poissons Ratio (z) = 0.09753 0.08801
#
# Static dielectric constant tensor:
#      x y z
#    x 1.728100 0.000000 0.000000 
#    y 0.000000 1.825620 0.000000 
#    z 0.000000 0.000000 2.019850 
# 
# From -- ./inp_files/641.got.cif
#   From: 2010.05.17/outbox.cif.g08.bks.cpg/sg56_1_cif.got.tgz:641.got - 2010.06.03 13:42:01.
