data_PCOD9430607
_publ_section_title
;
Structure prediction by ZEFSAII (Michael W. Deem and Ramdas Pophale) SiO2 
 PCOD9430607
Probable space group: P C C N
;
_chemical_formula_sum "Si O2"
_cell_formula_units_Z 48
_cell_length_a 11.477537
_cell_length_b 14.010467
_cell_length_c 15.351821
_cell_angle_alpha 90.000000
_cell_angle_beta 90.000000
_cell_angle_gamma 90.000000
_cell_volume 2468.659606
_symmetry_space_group_name_H-M "P C C N"
_symmetry_group_IT_number 56
_symmetry_cell_setting 'orthorhombic'
loop_
_space_group_symop_operation_xyz
x,y,z
1/2-x,1/2-y,z
1/2+x,-y,1/2-z
-x,1/2+y,1/2-z
-x,-y,-z
1/2+x,1/2+y,-z
1/2-x,y,1/2+z
x,1/2-y,1/2+z
loop_
_atom_site_type_symbol
_atom_site_label
_atom_site_fract_x
_atom_site_fract_y
_atom_site_fract_z
Si Si1 0.265791 0.637531 0.652610
Si Si2 0.367365 0.188163 0.222385
Si Si3 0.804830 0.049078 0.520281
Si Si4 0.966422 0.836085 0.657727
Si Si5 0.440372 0.137942 0.034712
Si Si6 0.234335 0.013866 0.294246
O O1 0.250000 0.750000 0.665442
O O2 0.235454 0.606096 0.553947
O O3 0.405010 0.621294 0.658289
O O4 0.209860 0.569933 0.725358
O O5 0.250000 0.250000 0.231254
O O6 0.458490 0.243182 0.282692
O O7 0.405793 0.189620 0.122592
O O8 0.334678 0.082854 0.256049
O O9 0.926450 0.102049 0.543611
O O10 0.851526 0.950535 0.477981
O O11 0.738870 0.028833 0.610337
O O12 0.934977 0.809102 0.558099
O O13 0.877119 0.917485 0.689641
#
# Coordination Sequence:
#
# PCOD9430607 Si02
#       6
#     8   8   8   8   8   8
#     4  11  23  38  59  86 118 155 199 242 294 349
#     4  10  20  35  59  91 116 149 195 244 290 345
#     4   9  19  36  56  81 110 155 197 230 287 349
#     4   9  22  39  56  92 118 149 199 239 293 354
#     4   9  17  35  61  76 114 158 187 232 290 352
#     4  10  21  37  62  85 112 157 196 239 288 350
#
# _framework density 19.443750000000001
#
# number of rings (size 3 to 8) (size 9 to 14) (size 15 to 20)
#    0.000    2.333    1.667    1.000    2.333    4.000 
#    3.000    0.000    0.000    2.000    0.000    0.000 
#    0.000    0.000    0.000    0.000    0.000    0.000 
#
# Total GULP energy -267736.495207 kJ/mol
# GULP energy per Si atom -5577.843650 kJ/mol
# Density = 1.939950 g / cm^3
# Si number density = 19.443750 Si / 1000 Ang^3
#
#
#
# Elastic Constant Matrix: (Units=GPa)
#
#
# Indices 1 2 3 4 5 6 
#
# 1 18.9435 -3.1841 19.9286 0.0000 0.0000 0.0000
# 2 -3.1841 83.8800 62.5874 0.0000 0.0000 0.0000
# 3 19.9286 62.5874 140.8904 0.0000 0.0000 0.0000
# 4 0.0000 0.0000 0.0000 35.0970 0.0000 0.0000
# 5 0.0000 0.0000 0.0000 0.0000 5.7045 0.0000
# 6 0.0000 0.0000 0.0000 0.0000 0.0000 9.9802
#
#
#
# Elastic Compliance Matrix: (Units=1/GPa)
#
#
# Indices 1 2 3 4 5 6 
#
# 1 0.073850 0.015852 -0.017488 0.000000 0.000000 0.000000
# 2 0.015852 0.021235 -0.011675 0.000000 0.000000 0.000000
# 3 -0.017488 -0.011675 0.014758 0.000000 0.000000 0.000000
# 4 0.000000 0.000000 0.000000 0.028492 0.000000 0.000000
# 5 0.000000 0.000000 0.000000 0.000000 0.175301 0.000000
# 6 0.000000 0.000000 0.000000 0.000000 0.000000 0.100198
#
#
# Mechanical properties :
#
#
# Convention : Reuss Voigt Hill
#
# Bulk Modulus (GPa) = 12.01627 44.70863 28.36245
# Shear Modulus (GPa) = 10.67926 21.11514 15.89720
#
# Velocity S-wave (km/s) = 2.34613 3.29897 2.86247
# Velocity P-wave (km/s) = 3.67866 6.12819 5.05407
#
# Compressibility (1/GPa) = 0.08322047
#
# Stress axis : x y z
#
# Youngs Moduli (GPa) = 13.54096 47.09152 67.76037
#
# Poissons Ratio (x) = -0.74649 1.18498
# Poissons Ratio (y) = -0.21465 0.79114
# Poissons Ratio (z) = 0.23680 0.54982
#
# Static dielectric constant tensor:
#      x y z
#    x 1.679980 0.000000 0.000000 
#    y 0.000000 1.697900 0.000000 
#    z 0.000000 0.000000 1.701300 
# 
# From -- ./inp_files/11627.got.cif
#   From: 2010.05.17/outbox.cif.g08.bks.cpg/sg56_6_cif.got.tgz:11627.got - 2010.06.03 13:42:01.
