data_PCOD9430617
_publ_section_title
;
Structure prediction by ZEFSAII (Michael W. Deem and Ramdas Pophale) SiO2 
 PCOD9430617
Probable space group: P C C N
;
_chemical_formula_sum "Si O2"
_cell_formula_units_Z 48
_cell_length_a 8.463190
_cell_length_b 30.835321
_cell_length_c 8.669268
_cell_angle_alpha 90.000000
_cell_angle_beta 90.000000
_cell_angle_gamma 90.000000
_cell_volume 2262.377087
_symmetry_space_group_name_H-M "P C C N"
_symmetry_group_IT_number 56
_symmetry_cell_setting 'orthorhombic'
loop_
_space_group_symop_operation_xyz
x,y,z
1/2-x,1/2-y,z
1/2+x,-y,1/2-z
-x,1/2+y,1/2-z
-x,-y,-z
1/2+x,1/2+y,-z
1/2-x,y,1/2+z
x,1/2-y,1/2+z
loop_
_atom_site_type_symbol
_atom_site_label
_atom_site_fract_x
_atom_site_fract_y
_atom_site_fract_z
Si Si1 0.362804 0.367155 0.092553
Si Si2 0.419708 0.045145 0.440545
Si Si3 0.091230 0.229675 0.122281
Si Si4 0.436186 0.043517 0.070007
Si Si5 0.892075 0.217362 0.412008
Si Si6 0.978607 0.871345 0.553102
O O1 0.397889 0.317603 0.045342
O O2 0.404329 0.370887 0.274441
O O3 0.458165 0.406073 0.006934
O O4 0.173506 0.368240 0.061247
O O5 0.432836 0.045352 0.255271
O O6 0.240458 0.044362 0.501618
O O7 0.500000 0.000000 0.500000
O O8 0.250000 0.250000 0.196578
O O9 0.945144 0.223928 0.237398
O O10 0.044076 0.265983 0.002749
O O11 0.540619 0.081957 0.996083
O O12 0.500000 0.000000 0.000000
O O13 0.750000 0.250000 0.444860
O O14 0.891086 0.166530 0.452646
#
# Coordination Sequence:
#
# PCOD9430617 Si02
#       6
#     8   8   8   8   8   8
#     4  10  20  35  61  93 119 160 222 270 314 387
#     4  11  22  40  65  97 132 168 212 272 329 384
#     4  11  22  39  65  90 121 169 226 269 321 401
#     4  11  22  40  66  94 131 170 216 263 326 401
#     4  11  24  40  60  91 131 167 211 278 343 389
#     4  10  20  37  61  90 124 166 214 274 324 388
#
# _framework density 21.216621
#
# number of rings (size 3 to 8) (size 9 to 14) (size 15 to 20)
#    0.000    1.333    1.667    7.000    2.333    1.333 
#    3.000    0.000    3.667    0.000    0.000    0.000 
#    0.000    0.000    0.000    0.000    0.000    0.000 
#
# Total GULP energy -267241.971811 kJ/mol
# GULP energy per Si atom -5567.541079 kJ/mol
# Density = 2.116833 g / cm^3
# Si number density = 21.216621 Si / 1000 Ang^3
#
#
#
# Elastic Constant Matrix: (Units=GPa)
#
#
# Indices 1 2 3 4 5 6 
#
# 1 48.0055 42.3953 14.8697 0.0000 0.0000 0.0000
# 2 42.3953 200.9259 55.5380 0.0000 0.0000 0.0000
# 3 14.8697 55.5380 78.4961 0.0000 0.0000 0.0000
# 4 0.0000 0.0000 0.0000 31.3544 0.0000 0.0000
# 5 0.0000 0.0000 0.0000 0.0000 20.9178 0.0000
# 6 0.0000 0.0000 0.0000 0.0000 0.0000 39.8122
#
#
#
# Elastic Compliance Matrix: (Units=1/GPa)
#
#
# Indices 1 2 3 4 5 6 
#
# 1 0.025705 -0.005069 -0.001283 0.000000 0.000000 0.000000
# 2 -0.005069 0.007187 -0.004124 0.000000 0.000000 0.000000
# 3 -0.001283 -0.004124 0.015901 0.000000 0.000000 0.000000
# 4 0.000000 0.000000 0.000000 0.031893 0.000000 0.000000
# 5 0.000000 0.000000 0.000000 0.000000 0.047806 0.000000
# 6 0.000000 0.000000 0.000000 0.000000 0.000000 0.025118
#
#
# Mechanical properties :
#
#
# Convention : Reuss Voigt Hill
#
# Bulk Modulus (GPa) = 35.92023 61.44818 48.68421
# Shear Modulus (GPa) = 27.19719 32.72517 29.96118
#
# Velocity S-wave (km/s) = 3.58422 3.93164 3.76194
# Velocity P-wave (km/s) = 5.83916 7.04525 6.47037
#
# Compressibility (1/GPa) = 0.02783947
#
# Stress axis : x y z
#
# Youngs Moduli (GPa) = 38.90286 139.14800 62.89060
#
# Poissons Ratio (x) = 0.70537 0.08067
# Poissons Ratio (y) = 0.19721 0.25939
# Poissons Ratio (z) = 0.04990 0.57391
#
# Static dielectric constant tensor:
#      x y z
#    x 1.735220 0.000000 0.000000 
#    y 0.000000 1.729420 0.000000 
#    z 0.000000 0.000000 1.733880 
# 
# From -- ./inp_files/2238.got.cif
#   From: 2010.05.17/outbox.cif.g08.bks.cpg/sg56_2_cif.got.tgz:2238.got - 2010.06.03 13:42:01.
