data_PCOD9430742
_publ_section_title
;
Structure prediction by ZEFSAII (Michael W. Deem and Ramdas Pophale) SiO2 
 PCOD9430742
Probable space group: P C C N
;
_chemical_formula_sum "Si O2"
_cell_formula_units_Z 32
_cell_length_a 8.919390
_cell_length_b 5.162470
_cell_length_c 35.066321
_cell_angle_alpha 90.000000
_cell_angle_beta 90.000000
_cell_angle_gamma 90.000000
_cell_volume 1614.666738
_symmetry_space_group_name_H-M "P C C N"
_symmetry_group_IT_number 56
_symmetry_cell_setting 'orthorhombic'
loop_
_space_group_symop_operation_xyz
x,y,z
1/2-x,1/2-y,z
1/2+x,-y,1/2-z
-x,1/2+y,1/2-z
-x,-y,-z
1/2+x,1/2+y,-z
1/2-x,y,1/2+z
x,1/2-y,1/2+z
loop_
_atom_site_type_symbol
_atom_site_label
_atom_site_fract_x
_atom_site_fract_y
_atom_site_fract_z
Si Si1 0.354625 0.003520 0.614013
Si Si2 0.145468 0.501740 0.770518
Si Si3 0.643047 0.996280 0.472495
Si Si4 0.925901 0.183795 0.810008
O O1 0.250000 0.750000 0.611360
O O2 0.416032 0.031488 0.571276
O O3 0.461506 0.956039 0.650298
O O4 0.250000 0.250000 0.622346
O O5 0.250000 0.250000 0.769123
O O6 0.063431 0.525904 0.729515
O O7 0.023996 0.438722 0.802864
O O8 0.250000 0.750000 0.776822
O O9 0.750000 0.250000 0.475868
O O10 0.750000 0.750000 0.479915
O O11 0.500000 0.000000 0.500000
O O12 0.750000 0.250000 0.811422
#
# Coordination Sequence:
#
# PCOD9430742 Si02
#       4
#     8   8   8   8
#     4   9  19  34  57  86 111 145 195 239 274 334
#     4  11  23  36  54  83 114 147 189 241 291 330
#     4  10  20  37  62  90 119 151 190 235 287 347
#     4  10  20  37  59  79 108 153 197 233 277 341
#
# _framework density 19.818331000000001
#
# number of rings (size 3 to 8) (size 9 to 14) (size 15 to 20)
#    0.000    2.000    0.000    4.500    0.000    6.000 
#    0.000    1.250    0.000    7.500    0.000    0.000 
#    0.000    0.000    0.000    0.000    0.000    0.000 
#
# Total GULP energy -178534.053952 kJ/mol
# GULP energy per Si atom -5579.189186 kJ/mol
# Density = 1.977322 g / cm^3
# Si number density = 19.818331 Si / 1000 Ang^3
#
#
#
# Elastic Constant Matrix: (Units=GPa)
#
#
# Indices 1 2 3 4 5 6 
#
# 1 99.0744 50.8328 70.2417 0.0000 0.0000 0.0000
# 2 50.8328 153.6328 48.9830 0.0000 0.0000 0.0000
# 3 70.2417 48.9830 180.0748 0.0000 0.0000 0.0000
# 4 0.0000 0.0000 0.0000 26.7003 0.0000 0.0000
# 5 0.0000 0.0000 0.0000 0.0000 24.0721 0.0000
# 6 0.0000 0.0000 0.0000 0.0000 0.0000 28.1201
#
#
#
# Elastic Compliance Matrix: (Units=1/GPa)
#
#
# Indices 1 2 3 4 5 6 
#
# 1 0.015504 -0.003506 -0.005094 0.000000 0.000000 0.000000
# 2 -0.003506 0.007920 -0.000787 0.000000 0.000000 0.000000
# 3 -0.005094 -0.000787 0.007754 0.000000 0.000000 0.000000
# 4 0.000000 0.000000 0.000000 0.037453 0.000000 0.000000
# 5 0.000000 0.000000 0.000000 0.000000 0.041542 0.000000
# 6 0.000000 0.000000 0.000000 0.000000 0.000000 0.035562
#
#
# Mechanical properties :
#
#
# Convention : Reuss Voigt Hill
#
# Bulk Modulus (GPa) = 80.61339 85.87744 83.24542
# Shear Modulus (GPa) = 29.64870 33.29349 31.47109
#
# Velocity S-wave (km/s) = 3.87204 4.10315 3.98927
# Velocity P-wave (km/s) = 7.79453 8.11629 7.95704
#
# Compressibility (1/GPa) = 0.01240489
#
# Stress axis : x y z
#
# Youngs Moduli (GPa) = 64.50156 126.26564 128.96146
#
# Poissons Ratio (x) = 0.44264 0.65691
# Poissons Ratio (y) = 0.22612 0.10148
# Poissons Ratio (z) = 0.32856 0.09936
#
# Static dielectric constant tensor:
#      x y z
#    x 1.698380 0.000000 0.000000 
#    y 0.000000 1.747640 0.000000 
#    z 0.000000 0.000000 1.766390 
# 
# From -- ./inp_files/22639.got.cif
#   From: 2010.05.17/outbox.cif.g08.bks.cpg/sg56_12_cif.got.tgz:22639.got - 2010.06.03 13:42:01.
