data_PCOD9430509
_publ_section_title
;
Structure prediction by ZEFSAII (Michael W. Deem and Ramdas Pophale) SiO2 
 PCOD9430509
Probable space group: P C C N
;
_chemical_formula_sum "Si O2"
_cell_formula_units_Z 56
_cell_length_a 11.795660
_cell_length_b 10.821721
_cell_length_c 20.232561
_cell_angle_alpha 90.000000
_cell_angle_beta 90.000000
_cell_angle_gamma 90.000000
_cell_volume 2582.673089
_symmetry_space_group_name_H-M "P C C N"
_symmetry_group_IT_number 56
_symmetry_cell_setting 'orthorhombic'
loop_
_space_group_symop_operation_xyz
x,y,z
1/2-x,1/2-y,z
1/2+x,-y,1/2-z
-x,1/2+y,1/2-z
-x,-y,-z
1/2+x,1/2+y,-z
1/2-x,y,1/2+z
x,1/2-y,1/2+z
loop_
_atom_site_type_symbol
_atom_site_label
_atom_site_fract_x
_atom_site_fract_y
_atom_site_fract_z
Si Si1 0.748561 0.461704 0.936660
Si Si2 0.922213 0.274517 0.429457
Si Si3 0.303854 0.505687 0.704083
Si Si4 0.935262 0.245303 0.276623
Si Si5 0.937374 0.872366 0.481275
Si Si6 0.956740 0.408607 0.151186
Si Si7 0.674152 0.861059 0.184279
O O1 0.637290 0.392671 0.962954
O O2 0.839484 0.346750 0.934447
O O3 0.725843 0.496351 0.860440
O O4 0.809574 0.580100 0.968678
O O5 0.933818 0.297735 0.351343
O O6 0.036951 0.230348 0.464267
O O7 0.338058 0.642054 0.726343
O O8 0.422789 0.458748 0.675671
O O9 0.255431 0.424898 0.762248
O O10 0.915411 0.333443 0.214641
O O11 0.062872 0.188600 0.276372
O O12 0.007592 0.835434 0.414699
O O13 0.000000 0.000000 0.500000
O O14 0.875165 0.527020 0.139200
O O15 0.750000 0.750000 0.154756
#
# Coordination Sequence:
#
# PCOD9430509 Si02
#       7
#     8   8   8   8   8   8   8
#     4   8  15  28  50  75 111 148 192 227 292 355
#     4   9  16  30  52  81 109 149 190 245 289 354
#     4   9  18  33  51  81 116 150 193 236 293 361
#     4  10  20  35  56  86 115 147 200 245 291 354
#     4   9  17  32  51  81 115 149 193 245 287 359
#     4  10  20  34  55  85 116 151 196 245 290 356
#     4  11  20  33  53  80 115 156 184 241 305 334
#
# _framework density 21.682960000000001
#
# number of rings (size 3 to 8) (size 9 to 14) (size 15 to 20)
#    0.000    2.571    1.429    3.429    0.000    1.714 
#    0.000    7.143    0.000    0.000   44.571    5.000 
#    0.000    3.000    0.000    0.000    0.000    0.000 
#
# Total GULP energy -311930.900465 kJ/mol
# GULP energy per Si atom -5570.194651 kJ/mol
# Density = 2.163361 g / cm^3
# Si number density = 21.682960 Si / 1000 Ang^3
#
#
#
# Elastic Constant Matrix: (Units=GPa)
#
#
# Indices 1 2 3 4 5 6 
#
# 1 55.2821 18.3098 14.7791 0.0000 0.0000 0.0000
# 2 18.3098 29.9054 21.0846 0.0000 0.0000 0.0000
# 3 14.7791 21.0846 66.9853 0.0000 0.0000 0.0000
# 4 0.0000 0.0000 0.0000 16.1510 0.0000 0.0000
# 5 0.0000 0.0000 0.0000 0.0000 14.3537 0.0000
# 6 0.0000 0.0000 0.0000 0.0000 0.0000 43.7881
#
#
#
# Elastic Compliance Matrix: (Units=1/GPa)
#
#
# Indices 1 2 3 4 5 6 
#
# 1 0.022725 -0.013339 -0.000815 0.000000 0.000000 0.000000
# 2 -0.013339 0.050805 -0.013049 0.000000 0.000000 0.000000
# 3 -0.000815 -0.013049 0.019216 0.000000 0.000000 0.000000
# 4 0.000000 0.000000 0.000000 0.061916 0.000000 0.000000
# 5 0.000000 0.000000 0.000000 0.000000 0.069669 0.000000
# 6 0.000000 0.000000 0.000000 0.000000 0.000000 0.022837
#
#
# Mechanical properties :
#
#
# Convention : Reuss Voigt Hill
#
# Bulk Modulus (GPa) = 26.08201 28.94665 27.51433
# Shear Modulus (GPa) = 15.90568 21.39184 18.64876
#
# Velocity S-wave (km/s) = 2.71136 3.14438 2.93587
# Velocity P-wave (km/s) = 4.67514 5.15381 4.92030
#
# Compressibility (1/GPa) = 0.03834060
#
# Stress axis : x y z
#
# Youngs Moduli (GPa) = 44.00478 19.68299 52.04042
#
# Poissons Ratio (x) = 0.26254 0.04243
# Poissons Ratio (y) = 0.58696 0.67906
# Poissons Ratio (z) = 0.03588 0.25684
#
# Static dielectric constant tensor:
#      x y z
#    x 1.853790 0.000000 0.000000 
#    y 0.000000 1.862840 0.000000 
#    z 0.000000 0.000000 1.836570 
# 
# From -- ./inp_files/18718.got.cif
#   From: 2010.05.17/outbox.cif.g08.bks.cpg/sg56_10_cif.got.tgz:18718.got - 2010.06.03 13:42:01.
