data_PCOD9430414
_publ_section_title
;
Structure prediction by ZEFSAII (Michael W. Deem and Ramdas Pophale) SiO2 
 PCOD9430414
Probable space group: P C C N
;
_chemical_formula_sum "Si O2"
_cell_formula_units_Z 48
_cell_length_a 9.263561
_cell_length_b 8.572957
_cell_length_c 27.398566
_cell_angle_alpha 90.000000
_cell_angle_beta 90.000000
_cell_angle_gamma 90.000000
_cell_volume 2175.887535
_symmetry_space_group_name_H-M "P C C N"
_symmetry_group_IT_number 56
_symmetry_cell_setting 'orthorhombic'
loop_
_space_group_symop_operation_xyz
x,y,z
1/2-x,1/2-y,z
1/2+x,-y,1/2-z
-x,1/2+y,1/2-z
-x,-y,-z
1/2+x,1/2+y,-z
1/2-x,y,1/2+z
x,1/2-y,1/2+z
loop_
_atom_site_type_symbol
_atom_site_label
_atom_site_fract_x
_atom_site_fract_y
_atom_site_fract_z
Si Si1 0.651793 0.119559 0.738906
Si Si2 0.421431 0.915159 0.431332
Si Si3 0.486386 0.422404 0.592711
Si Si4 0.269607 0.435254 0.022738
Si Si5 0.740034 0.569459 0.649716
Si Si6 0.601482 0.671832 0.303299
O O1 0.750000 0.250000 0.764779
O O2 0.525105 0.210891 0.711358
O O3 0.750301 0.034311 0.698220
O O4 0.589673 0.991251 0.775053
O O5 0.423545 0.728601 0.424993
O O6 0.587818 0.953493 0.443988
O O7 0.315511 0.972529 0.474436
O O8 0.370568 0.005751 0.383487
O O9 0.376831 0.481683 0.551154
O O10 0.598195 0.541624 0.616814
O O11 0.396417 0.359591 0.638985
O O12 0.250000 0.250000 0.011786
O O13 0.750000 0.750000 0.661935
O O14 0.750000 0.750000 0.288032
#
# Coordination Sequence:
#
# PCOD9430414 Si02
#       6
#     8   8   8   8   8   8
#     4  12  25  47  71 103 138 187 236 289 370 437
#     4  10  19  41  70  99 139 181 229 296 359 431
#     4  11  23  44  68 100 140 189 238 296 370 428
#     4   9  20  38  69 105 136 177 236 293 362 428
#     4  12  25  43  68  96 139 185 241 295 357 429
#     4  12  25  43  72 104 142 185 235 298 357 444
#
# _framework density 22.059961999999999
#
# number of rings (size 3 to 8) (size 9 to 14) (size 15 to 20)
#    0.000    1.000    3.333    4.000    2.333    0.667 
#    0.000    4.167    0.000    0.000    0.000    0.000 
#    0.000    0.000    0.000    0.000    0.000    0.000 
#
# Total GULP energy -268558.723735 kJ/mol
# GULP energy per Si atom -5594.973411 kJ/mol
# Density = 2.200975 g / cm^3
# Si number density = 22.059962 Si / 1000 Ang^3
#
#
#
# Elastic Constant Matrix: (Units=GPa)
#
#
# Indices 1 2 3 4 5 6 
#
# 1 104.5738 58.7234 35.5887 0.0000 0.0000 0.0000
# 2 58.7234 109.2496 38.7886 0.0000 0.0000 0.0000
# 3 35.5887 38.7886 90.6192 0.0000 0.0000 0.0000
# 4 0.0000 0.0000 0.0000 30.7131 0.0000 0.0000
# 5 0.0000 0.0000 0.0000 0.0000 22.4964 0.0000
# 6 0.0000 0.0000 0.0000 0.0000 0.0000 33.4247
#
#
#
# Elastic Compliance Matrix: (Units=1/GPa)
#
#
# Indices 1 2 3 4 5 6 
#
# 1 0.014249 -0.006689 -0.002733 0.000000 0.000000 0.000000
# 2 -0.006689 0.013933 -0.003337 0.000000 0.000000 0.000000
# 3 -0.002733 -0.003337 0.013537 0.000000 0.000000 0.000000
# 4 0.000000 0.000000 0.000000 0.032559 0.000000 0.000000
# 5 0.000000 0.000000 0.000000 0.000000 0.044452 0.000000
# 6 0.000000 0.000000 0.000000 0.000000 0.000000 0.029918
#
#
# Mechanical properties :
#
#
# Convention : Reuss Voigt Hill
#
# Bulk Modulus (GPa) = 61.72229 63.40489 62.56359
# Shear Modulus (GPa) = 27.84492 28.74963 28.29728
#
# Velocity S-wave (km/s) = 3.55665 3.61397 3.58543
# Velocity P-wave (km/s) = 6.70123 6.79844 6.75001
#
# Compressibility (1/GPa) = 0.01620160
#
# Stress axis : x y z
#
# Youngs Moduli (GPa) = 70.18210 71.76969 73.87195
#
# Poissons Ratio (x) = 0.48004 0.20188
# Poissons Ratio (y) = 0.46942 0.24653
# Poissons Ratio (z) = 0.19180 0.23952
#
# Static dielectric constant tensor:
#      x y z
#    x 1.837750 0.000000 0.000000 
#    y 0.000000 1.795840 0.000000 
#    z 0.000000 0.000000 1.783200 
# 
# From -- ./inp_files/23199.got.cif
#   From: 2010.05.17/outbox.cif.g08.bks.cpg/sg56_12_cif.got.tgz:23199.got - 2010.06.03 13:42:01.
