data_PCOD9430458
_publ_section_title
;
Structure prediction by ZEFSAII (Michael W. Deem and Ramdas Pophale) SiO2 
 PCOD9430458
Probable space group: P C C N
;
_chemical_formula_sum "Si O2"
_cell_formula_units_Z 48
_cell_length_a 24.786960
_cell_length_b 11.851634
_cell_length_c 8.650068
_cell_angle_alpha 90.000000
_cell_angle_beta 90.000000
_cell_angle_gamma 90.000000
_cell_volume 2541.095685
_symmetry_space_group_name_H-M "P C C N"
_symmetry_group_IT_number 56
_symmetry_cell_setting 'orthorhombic'
loop_
_space_group_symop_operation_xyz
x,y,z
1/2-x,1/2-y,z
1/2+x,-y,1/2-z
-x,1/2+y,1/2-z
-x,-y,-z
1/2+x,1/2+y,-z
1/2-x,y,1/2+z
x,1/2-y,1/2+z
loop_
_atom_site_type_symbol
_atom_site_label
_atom_site_fract_x
_atom_site_fract_y
_atom_site_fract_z
Si Si1 0.368773 0.829338 0.329846
Si Si2 0.268315 0.622802 0.040935
Si Si3 0.330627 0.927570 0.834492
Si Si4 0.007519 0.340182 0.136106
Si Si5 0.521701 0.373654 0.984465
Si Si6 0.583977 0.469842 0.450243
O O1 0.358582 0.695699 0.312693
O O2 0.313054 0.868503 0.406815
O O3 0.418740 0.856418 0.444044
O O4 0.383451 0.891970 0.170700
O O5 0.250000 0.750000 0.092978
O O6 0.214682 0.573357 0.967146
O O7 0.297390 0.555574 0.177899
O O8 0.378928 0.001756 0.902885
O O9 0.059437 0.420548 0.131564
O O10 0.981681 0.341469 0.305227
O O11 0.015567 0.212933 0.080463
O O12 0.965498 0.395675 0.015182
O O13 0.500000 0.500000 0.000000
#
# Coordination Sequence:
#
# PCOD9430458 Si02
#       6
#     8   8   8   8   8   8
#     4  11  20  34  54  84 118 165 199 251 313 376
#     4  10  20  32  53  85 123 161 202 244 311 391
#     4  11  20  34  56  85 127 164 197 254 315 381
#     4  11  25  39  56  89 118 166 218 256 303 380
#     4  12  24  41  62  84 126 167 211 262 316 368
#     4  11  22  37  57  82 126 161 206 254 304 371
#
# _framework density 18.889488
#
# number of rings (size 3 to 8) (size 9 to 14) (size 15 to 20)
#    0.000    1.000    3.333    6.500    2.333    0.000 
#    0.000    0.000    0.000    0.000    0.000    1.167 
#    0.000    0.000    0.000    0.000    0.000    0.000 
#
# Total GULP energy -268105.386100 kJ/mol
# GULP energy per Si atom -5585.528877 kJ/mol
# Density = 1.884649 g / cm^3
# Si number density = 18.889488 Si / 1000 Ang^3
#
#
#
# Elastic Constant Matrix: (Units=GPa)
#
#
# Indices 1 2 3 4 5 6 
#
# 1 79.0065 18.3843 22.9523 0.0000 0.0000 0.0000
# 2 18.3843 66.7991 26.6704 0.0000 0.0000 0.0000
# 3 22.9523 26.6704 102.3980 0.0000 0.0000 0.0000
# 4 0.0000 0.0000 0.0000 18.8791 0.0000 0.0000
# 5 0.0000 0.0000 0.0000 0.0000 46.1558 0.0000
# 6 0.0000 0.0000 0.0000 0.0000 0.0000 16.8878
#
#
#
# Elastic Compliance Matrix: (Units=1/GPa)
#
#
# Indices 1 2 3 4 5 6 
#
# 1 0.014027 -0.002908 -0.002387 0.000000 0.000000 0.000000
# 2 -0.002908 0.017310 -0.003857 0.000000 0.000000 0.000000
# 3 -0.002387 -0.003857 0.011305 0.000000 0.000000 0.000000
# 4 0.000000 0.000000 0.000000 0.052969 0.000000 0.000000
# 5 0.000000 0.000000 0.000000 0.000000 0.021666 0.000000
# 6 0.000000 0.000000 0.000000 0.000000 0.000000 0.059214
#
#
# Mechanical properties :
#
#
# Convention : Reuss Voigt Hill
#
# Bulk Modulus (GPa) = 41.08412 42.69085 41.88749
# Shear Modulus (GPa) = 24.64174 28.39765 26.51970
#
# Velocity S-wave (km/s) = 3.61573 3.88152 3.75098
# Velocity P-wave (km/s) = 6.26325 6.53741 6.40180
#
# Compressibility (1/GPa) = 0.02434030
#
# Stress axis : x y z
#
# Youngs Moduli (GPa) = 71.29021 57.76877 88.45332
#
# Poissons Ratio (x) = 0.16796 0.21113
# Poissons Ratio (y) = 0.20728 0.34116
# Poissons Ratio (z) = 0.17016 0.22281
#
# Static dielectric constant tensor:
#      x y z
#    x 1.667580 0.000000 0.000000 
#    y 0.000000 1.648410 0.000000 
#    z 0.000000 0.000000 1.714760 
# 
# From -- ./inp_files/4939.got.cif
#   From: 2010.05.17/outbox.cif.g08.bks.cpg/sg56_3_cif.got.tgz:4939.got - 2010.06.03 13:42:01.
