data_PCOD9430887
_publ_section_title
;
Structure prediction by ZEFSAII (Michael W. Deem and Ramdas Pophale) SiO2 
 PCOD9430887
Probable space group: P C C N
;
_chemical_formula_sum "Si O2"
_cell_formula_units_Z 36
_cell_length_a 12.997130
_cell_length_b 13.866394
_cell_length_c 8.490151
_cell_angle_alpha 90.000000
_cell_angle_beta 90.000000
_cell_angle_gamma 90.000000
_cell_volume 1530.123247
_symmetry_space_group_name_H-M "P C C N"
_symmetry_group_IT_number 56
_symmetry_cell_setting 'orthorhombic'
loop_
_space_group_symop_operation_xyz
x,y,z
1/2-x,1/2-y,z
1/2+x,-y,1/2-z
-x,1/2+y,1/2-z
-x,-y,-z
1/2+x,1/2+y,-z
1/2-x,y,1/2+z
x,1/2-y,1/2+z
loop_
_atom_site_type_symbol
_atom_site_label
_atom_site_fract_x
_atom_site_fract_y
_atom_site_fract_z
Si Si1 0.332685 0.982821 0.651091
Si Si2 0.522832 0.035861 0.819608
Si Si3 0.198144 0.856148 0.851162
Si Si4 0.750000 0.750000 0.028493
Si Si5 0.840040 0.627014 0.796342
O O1 0.295717 0.918981 0.797797
O O2 0.346455 0.907669 0.508095
O O3 0.421731 0.052291 0.715616
O O4 0.234638 0.050353 0.619824
O O5 0.608217 0.119343 0.781084
O O6 0.562974 0.934233 0.748733
O O7 0.500000 0.000000 0.000000
O O8 0.250000 0.750000 0.868613
O O9 0.712134 0.667401 0.142563
O O10 0.843542 0.714043 0.919166
#
# Coordination Sequence:
#
# PCOD9430887 Si02
#       5
#     8   8   8   4   8
#     4  11  22  43  70  96 138 187 231 283 362 422
#     4  11  23  43  70 100 137 187 235 284 362 433
#     4  11  24  44  69 102 144 187 238 298 356 427
#     4  10  20  38  62  92 122 168 220 274 332 398
#     4  10  21  40  64  90 133 172 215 278 347 395
#
# _framework density 23.527515999999999
#
# number of rings (size 3 to 8) (size 9 to 14) (size 15 to 20)
#    0.000    1.333    0.000    8.000    0.000    0.000 
#   16.000    1.111    0.000    0.000    0.000    0.000 
#    0.000    0.000    0.000    0.000    0.000    0.000 
#
# Total GULP energy -200483.952601 kJ/mol
# GULP energy per Si atom -5568.998683 kJ/mol
# Density = 2.347397 g / cm^3
# Si number density = 23.527516 Si / 1000 Ang^3
#
#
#
# Elastic Constant Matrix: (Units=GPa)
#
#
# Indices 1 2 3 4 5 6 
#
# 1 54.9299 8.0841 6.2758 0.0000 0.0000 0.0000
# 2 8.0841 95.7962 33.6806 0.0000 0.0000 0.0000
# 3 6.2758 33.6806 108.2385 0.0000 0.0000 0.0000
# 4 0.0000 0.0000 0.0000 24.4803 0.0000 0.0000
# 5 0.0000 0.0000 0.0000 0.0000 20.1989 0.0000
# 6 0.0000 0.0000 0.0000 0.0000 0.0000 34.7022
#
#
#
# Elastic Compliance Matrix: (Units=1/GPa)
#
#
# Indices 1 2 3 4 5 6 
#
# 1 0.018476 -0.001328 -0.000658 0.000000 0.000000 0.000000
# 2 -0.001328 0.011817 -0.003600 0.000000 0.000000 0.000000
# 3 -0.000658 -0.003600 0.010397 0.000000 0.000000 0.000000
# 4 0.000000 0.000000 0.000000 0.040849 0.000000 0.000000
# 5 0.000000 0.000000 0.000000 0.000000 0.049508 0.000000
# 6 0.000000 0.000000 0.000000 0.000000 0.000000 0.028817
#
#
# Mechanical properties :
#
#
# Convention : Reuss Voigt Hill
#
# Bulk Modulus (GPa) = 33.87789 39.44950 36.66369
# Shear Modulus (GPa) = 27.64362 29.93791 28.79077
#
# Velocity S-wave (km/s) = 3.43147 3.57103 3.50195
# Velocity P-wave (km/s) = 5.48913 5.81436 5.65408
#
# Compressibility (1/GPa) = 0.02951778
#
# Stress axis : x y z
#
# Youngs Moduli (GPa) = 54.12541 84.62688 96.17959
#
# Poissons Ratio (x) = 0.11236 0.06329
# Poissons Ratio (y) = 0.07187 0.34624
# Poissons Ratio (z) = 0.03562 0.30465
#
# Static dielectric constant tensor:
#      x y z
#    x 1.848340 0.000000 0.000000 
#    y 0.000000 2.337900 0.000000 
#    z 0.000000 0.000000 1.978590 
# 
# From -- ./inp_files/3148.got.cif
#   From: 2010.05.17/outbox.cif.g08.bks.cpg/sg56_2_cif.got.tgz:3148.got - 2010.06.03 13:42:01.
