data_PCOD9430877
_publ_section_title
;
Structure prediction by ZEFSAII (Michael W. Deem and Ramdas Pophale) SiO2 
 PCOD9430877
Probable space group: P C C N
;
_chemical_formula_sum "Si O2"
_cell_formula_units_Z 36
_cell_length_a 14.810871
_cell_length_b 7.650937
_cell_length_c 15.024124
_cell_angle_alpha 90.000000
_cell_angle_beta 90.000000
_cell_angle_gamma 90.000000
_cell_volume 1702.489274
_symmetry_space_group_name_H-M "P C C N"
_symmetry_group_IT_number 56
_symmetry_cell_setting 'orthorhombic'
loop_
_space_group_symop_operation_xyz
x,y,z
1/2-x,1/2-y,z
1/2+x,-y,1/2-z
-x,1/2+y,1/2-z
-x,-y,-z
1/2+x,1/2+y,-z
1/2-x,y,1/2+z
x,1/2-y,1/2+z
loop_
_atom_site_type_symbol
_atom_site_label
_atom_site_fract_x
_atom_site_fract_y
_atom_site_fract_z
Si Si1 0.945397 0.818587 0.507739
Si Si2 0.218927 0.950109 0.863070
Si Si3 0.400821 0.066534 0.801085
Si Si4 0.970276 0.319357 0.651185
Si Si5 0.750000 0.750000 0.995461
O O1 0.847638 0.810031 0.458089
O O2 0.006495 0.682342 0.453625
O O3 0.924223 0.811581 0.613313
O O4 0.000000 0.000000 0.500000
O O5 0.250000 0.750000 0.884101
O O6 0.293495 0.033987 0.797921
O O7 0.117778 0.934009 0.828281
O O8 0.223811 0.077263 0.947524
O O9 0.442891 0.877822 0.823673
O O10 0.446014 0.128911 0.711468
#
# Coordination Sequence:
#
# PCOD9430877 Si02
#       5
#     8   8   8   8   4
#     4   9  20  40  60  90 128 162 213 263 314 378
#     4   9  20  38  61  85 125 164 206 263 316 372
#     4   9  20  38  60  89 124 159 207 261 313 376
#     4  10  20  38  62  86 123 166 201 257 320 370
#     4  10  20  38  64  90 120 168 212 254 330 372
#
# _framework density 21.145508
#
# number of rings (size 3 to 8) (size 9 to 14) (size 15 to 20)
#    0.000    2.667    0.000    1.333    6.222    0.889 
#    8.000    0.000    0.000    0.000    0.000    0.000 
#    0.000    0.000    0.000    0.000    0.000    0.000 
#
# Total GULP energy -200404.924588 kJ/mol
# GULP energy per Si atom -5566.803461 kJ/mol
# Density = 2.109738 g / cm^3
# Si number density = 21.145508 Si / 1000 Ang^3
#
#
#
# Elastic Constant Matrix: (Units=GPa)
#
#
# Indices 1 2 3 4 5 6 
#
# 1 158.9189 41.9302 45.4047 0.0000 0.0000 0.0000
# 2 41.9302 70.0882 38.6394 0.0000 0.0000 0.0000
# 3 45.4047 38.6394 70.3242 0.0000 0.0000 0.0000
# 4 0.0000 0.0000 0.0000 21.7571 0.0000 0.0000
# 5 0.0000 0.0000 0.0000 0.0000 25.3499 0.0000
# 6 0.0000 0.0000 0.0000 0.0000 0.0000 27.6721
#
#
#
# Elastic Compliance Matrix: (Units=1/GPa)
#
#
# Indices 1 2 3 4 5 6 
#
# 1 0.008084 -0.002810 -0.003676 0.000000 0.000000 0.000000
# 2 -0.002810 0.021444 -0.009968 0.000000 0.000000 0.000000
# 3 -0.003676 -0.009968 0.022070 0.000000 0.000000 0.000000
# 4 0.000000 0.000000 0.000000 0.045962 0.000000 0.000000
# 5 0.000000 0.000000 0.000000 0.000000 0.039448 0.000000
# 6 0.000000 0.000000 0.000000 0.000000 0.000000 0.036137
#
#
# Mechanical properties :
#
#
# Convention : Reuss Voigt Hill
#
# Bulk Modulus (GPa) = 53.50215 61.25332 57.37774
# Shear Modulus (GPa) = 23.55341 26.51294 25.03318
#
# Velocity S-wave (km/s) = 3.34109 3.54479 3.44445
# Velocity P-wave (km/s) = 6.34356 6.76642 6.55840
#
# Compressibility (1/GPa) = 0.01869084
#
# Stress axis : x y z
#
# Youngs Moduli (GPa) = 123.70031 46.63255 45.31050
#
# Poissons Ratio (x) = 0.13104 0.16654
# Poissons Ratio (y) = 0.34760 0.45166
# Poissons Ratio (z) = 0.45466 0.46484
#
# Static dielectric constant tensor:
#      x y z
#    x 1.817370 0.000000 0.000000 
#    y 0.000000 1.781790 0.000000 
#    z 0.000000 0.000000 1.746920 
# 
# From -- ./inp_files/10285.got.cif
#   From: 2010.05.17/outbox.cif.g08.bks.cpg/sg56_6_cif.got.tgz:10285.got - 2010.06.03 13:42:01.
