data_PCOD9430500
_publ_section_title
;
Structure prediction by ZEFSAII (Michael W. Deem and Ramdas Pophale) SiO2 
 PCOD9430500
Probable space group: P C C N
;
_chemical_formula_sum "Si O2"
_cell_formula_units_Z 44
_cell_length_a 20.393720
_cell_length_b 11.268847
_cell_length_c 9.375193
_cell_angle_alpha 90.000000
_cell_angle_beta 90.000000
_cell_angle_gamma 90.000000
_cell_volume 2154.547889
_symmetry_space_group_name_H-M "P C C N"
_symmetry_group_IT_number 56
_symmetry_cell_setting 'orthorhombic'
loop_
_space_group_symop_operation_xyz
x,y,z
1/2-x,1/2-y,z
1/2+x,-y,1/2-z
-x,1/2+y,1/2-z
-x,-y,-z
1/2+x,1/2+y,-z
1/2-x,y,1/2+z
x,1/2-y,1/2+z
loop_
_atom_site_type_symbol
_atom_site_label
_atom_site_fract_x
_atom_site_fract_y
_atom_site_fract_z
Si Si1 0.083119 0.258761 0.101396
Si Si2 0.602021 0.593634 0.653793
Si Si3 0.334636 0.844920 0.923017
Si Si4 0.016859 0.471405 0.265286
Si Si5 0.944637 0.151031 0.007863
Si Si6 0.750000 0.250000 0.836094
O O1 0.116158 0.156517 0.195275
O O2 0.061756 0.373780 0.192410
O O3 0.014248 0.207501 0.047218
O O4 0.118622 0.307766 0.963415
O O5 0.636290 0.473548 0.606260
O O6 0.523531 0.560733 0.662611
O O7 0.388903 0.748293 0.972178
O O8 0.302820 0.802928 0.773897
O O9 0.282536 0.842854 0.053220
O O10 0.958166 0.405159 0.352807
O O11 0.060371 0.545018 0.377436
#
# Coordination Sequence:
#
# PCOD9430500 Si02
#       6
#     8   8   8   8   8   4
#     4  11  21  36  54  98 130 161 197 227 289 415
#     4  11  23  36  61  85 133 165 199 236 310 359
#     4  11  23  43  65  90 113 166 200 273 307 342
#     4  10  20  34  53  94 133 166 190 231 283 409
#     4  10  21  34  59  91 133 158 194 239 309 361
#     4  10  26  44  64  92 114 140 238 268 300 350
#
# _framework density 20.421917000000001
#
# number of rings (size 3 to 8) (size 9 to 14) (size 15 to 20)
#    0.000    1.455    3.636    1.636    2.545    0.000 
#    0.000    0.000    0.000    3.273    0.000    0.000 
#    0.000    0.000    0.000    0.000    0.000    0.000 
#
# Total GULP energy -245600.841324 kJ/mol
# GULP energy per Si atom -5581.837303 kJ/mol
# Density = 2.037544 g / cm^3
# Si number density = 20.421917 Si / 1000 Ang^3
#
#
#
# Elastic Constant Matrix: (Units=GPa)
#
#
# Indices 1 2 3 4 5 6 
#
# 1 33.0906 18.0820 25.3722 0.0000 0.0000 0.0000
# 2 18.0820 65.6224 28.8527 0.0000 0.0000 0.0000
# 3 25.3722 28.8527 105.9915 0.0000 0.0000 0.0000
# 4 0.0000 0.0000 0.0000 35.5302 0.0000 0.0000
# 5 0.0000 0.0000 0.0000 0.0000 16.4679 0.0000
# 6 0.0000 0.0000 0.0000 0.0000 0.0000 6.3462
#
#
#
# Elastic Compliance Matrix: (Units=1/GPa)
#
#
# Indices 1 2 3 4 5 6 
#
# 1 0.040233 -0.007783 -0.007512 0.000000 0.000000 0.000000
# 2 -0.007783 0.018816 -0.003259 0.000000 0.000000 0.000000
# 3 -0.007512 -0.003259 0.012120 0.000000 0.000000 0.000000
# 4 0.000000 0.000000 0.000000 0.028145 0.000000 0.000000
# 5 0.000000 0.000000 0.000000 0.000000 0.060724 0.000000
# 6 0.000000 0.000000 0.000000 0.000000 0.000000 0.157574
#
#
# Mechanical properties :
#
#
# Convention : Reuss Voigt Hill
#
# Bulk Modulus (GPa) = 29.35933 38.81315 34.08624
# Shear Modulus (GPa) = 13.65841 20.49537 17.07689
#
# Velocity S-wave (km/s) = 2.58894 3.17140 2.89486
# Velocity P-wave (km/s) = 4.83161 5.69713 5.28212
#
# Compressibility (1/GPa) = 0.03406072
#
# Stress axis : x y z
#
# Youngs Moduli (GPa) = 24.85520 53.14571 82.50726
#
# Poissons Ratio (x) = 0.41364 0.61982
# Poissons Ratio (y) = 0.19345 0.26889
# Poissons Ratio (z) = 0.18672 0.17320
#
# Static dielectric constant tensor:
#      x y z
#    x 1.720920 0.000000 0.000000 
#    y 0.000000 1.757980 0.000000 
#    z 0.000000 0.000000 1.812780 
# 
# From -- ./inp_files/4724.got.cif
#   From: 2010.05.17/outbox.cif.g08.bks.cpg/sg56_3_cif.got.tgz:4724.got - 2010.06.03 13:42:01.
