data_PCOD9430092
_publ_section_title
;
Structure prediction by ZEFSAII (Michael W. Deem and Ramdas Pophale) SiO2 
 PCOD9430092
Probable space group: P C C N
;
_chemical_formula_sum "Si O2"
_cell_formula_units_Z 48
_cell_length_a 11.617071
_cell_length_b 7.987523
_cell_length_c 22.149558
_cell_angle_alpha 90.000000
_cell_angle_beta 90.000000
_cell_angle_gamma 90.000000
_cell_volume 2055.293409
_symmetry_space_group_name_H-M "P C C N"
_symmetry_group_IT_number 56
_symmetry_cell_setting 'orthorhombic'
loop_
_space_group_symop_operation_xyz
x,y,z
1/2-x,1/2-y,z
1/2+x,-y,1/2-z
-x,1/2+y,1/2-z
-x,-y,-z
1/2+x,1/2+y,-z
1/2-x,y,1/2+z
x,1/2-y,1/2+z
loop_
_atom_site_type_symbol
_atom_site_label
_atom_site_fract_x
_atom_site_fract_y
_atom_site_fract_z
Si Si1 0.132086 0.568184 0.791079
Si Si2 0.487018 0.691644 0.473447
Si Si3 0.583075 0.557048 0.358713
Si Si4 0.472072 0.194418 0.399312
Si Si5 0.750000 0.250000 0.095784
Si Si6 0.684998 0.406589 0.842060
Si Si7 0.750000 0.750000 0.173937
O O1 0.197359 0.624050 0.852711
O O2 0.157335 0.646025 0.726408
O O3 0.177659 0.379324 0.786350
O O4 0.998269 0.601331 0.803024
O O5 0.500000 0.500000 0.500000
O O6 0.563930 0.681025 0.413987
O O7 0.530000 0.803455 0.528694
O O8 0.360477 0.750386 0.449840
O O9 0.524026 0.376338 0.377966
O O10 0.715577 0.541914 0.343410
O O11 0.564800 0.063320 0.374450
O O12 0.348086 0.171670 0.369607
O O13 0.750000 0.250000 0.873722
#
# Coordination Sequence:
#
# PCOD9430092 Si02
#       7
#     8   8   8   8   4   8   4
#     4  10  20  37  56  87 121 163 201 255 314 381
#     4   9  18  33  59  87 119 152 208 259 305 368
#     4   8  18  33  54  86 114 150 200 257 303 354
#     4   9  19  34  57  84 109 160 196 250 308 364
#     4  10  20  36  62  92 114 160 212 258 314 372
#     4  10  19  33  59  88 116 150 211 261 301 370
#     4  10  22  40  56  82 128 164 194 246 338 374
#
# _framework density 23.354330000000001
#
# number of rings (size 3 to 8) (size 9 to 14) (size 15 to 20)
#    0.000    2.667    0.833    1.000    8.167    0.000 
#    0.000    0.833    0.000    0.000    0.000    0.000 
#    0.000    0.000    0.000    0.000    0.000    0.000 
#
# Total GULP energy -267280.954530 kJ/mol
# GULP energy per Si atom -5568.353219 kJ/mol
# Density = 2.330117 g / cm^3
# Si number density = 23.354330 Si / 1000 Ang^3
#
#
#
# Elastic Constant Matrix: (Units=GPa)
#
#
# Indices 1 2 3 4 5 6 
#
# 1 184.0127 14.1465 47.4603 0.0000 0.0000 0.0000
# 2 14.1465 29.4309 0.8034 0.0000 0.0000 0.0000
# 3 47.4603 0.8034 59.7834 0.0000 0.0000 0.0000
# 4 0.0000 0.0000 0.0000 83.5739 0.0000 0.0000
# 5 0.0000 0.0000 0.0000 0.0000 17.1112 0.0000
# 6 0.0000 0.0000 0.0000 0.0000 0.0000 16.8270
#
#
#
# Elastic Compliance Matrix: (Units=1/GPa)
#
#
# Indices 1 2 3 4 5 6 
#
# 1 0.007136 -0.003277 -0.005621 0.000000 0.000000 0.000000
# 2 -0.003277 0.035495 0.002124 0.000000 0.000000 0.000000
# 3 -0.005621 0.002124 0.021161 0.000000 0.000000 0.000000
# 4 0.000000 0.000000 0.000000 0.011965 0.000000 0.000000
# 5 0.000000 0.000000 0.000000 0.000000 0.058441 0.000000
# 6 0.000000 0.000000 0.000000 0.000000 0.000000 0.059428
#
#
# Mechanical properties :
#
#
# Convention : Reuss Voigt Hill
#
# Bulk Modulus (GPa) = 19.90253 44.22748 32.06501
# Shear Modulus (GPa) = 22.32917 37.55687 29.94302
#
# Velocity S-wave (km/s) = 3.09545 4.01450 3.58455
# Velocity P-wave (km/s) = 4.61695 6.36137 5.55802
#
# Compressibility (1/GPa) = 0.05024486
#
# Stress axis : x y z
#
# Youngs Moduli (GPa) = 140.13273 28.17305 47.25696
#
# Poissons Ratio (x) = 0.09231 0.26564
# Poissons Ratio (y) = 0.45916 -0.10038
# Poissons Ratio (z) = 0.78770 -0.05985
#
# Static dielectric constant tensor:
#      x y z
#    x 1.909090 0.000000 0.000000 
#    y 0.000000 2.030620 0.000000 
#    z 0.000000 0.000000 1.837740 
# 
# From -- ./inp_files/20947.got.cif
#   From: 2010.05.17/outbox.cif.g08.bks.cpg/sg56_11_cif.got.tgz:20947.got - 2010.06.03 13:42:01.
