data_PCOD9430488
_publ_section_title
;
Structure prediction by ZEFSAII (Michael W. Deem and Ramdas Pophale) SiO2 
 PCOD9430488
Probable space group: P C C N
;
_chemical_formula_sum "Si O2"
_cell_formula_units_Z 64
_cell_length_a 22.832247
_cell_length_b 7.523847
_cell_length_c 20.548197
_cell_angle_alpha 90.000000
_cell_angle_beta 90.000000
_cell_angle_gamma 90.000000
_cell_volume 3529.899414
_symmetry_space_group_name_H-M "P C C N"
_symmetry_group_IT_number 56
_symmetry_cell_setting 'orthorhombic'
loop_
_space_group_symop_operation_xyz
x,y,z
1/2-x,1/2-y,z
1/2+x,-y,1/2-z
-x,1/2+y,1/2-z
-x,-y,-z
1/2+x,1/2+y,-z
1/2-x,y,1/2+z
x,1/2-y,1/2+z
loop_
_atom_site_type_symbol
_atom_site_label
_atom_site_fract_x
_atom_site_fract_y
_atom_site_fract_z
Si Si1 0.510091 0.063372 0.337611
Si Si2 0.435967 0.534412 0.029622
Si Si3 0.476616 0.430040 0.396109
Si Si4 0.564079 0.219941 0.206937
Si Si5 0.085087 0.951671 0.527033
Si Si6 0.326366 0.086226 0.449007
Si Si7 0.802638 0.515674 0.034280
Si Si8 0.683988 0.274129 0.147989
O O1 0.555333 0.000238 0.393615
O O2 0.475254 0.227856 0.371099
O O3 0.542589 0.152078 0.276602
O O4 0.469450 0.900869 0.314325
O O5 0.422317 0.741192 0.017459
O O6 0.500000 0.500000 0.000000
O O7 0.383214 0.434458 0.994054
O O8 0.451600 0.566601 0.344650
O O9 0.443012 0.451358 0.464414
O O10 0.543822 0.487442 0.411524
O O11 0.633579 0.242959 0.200072
O O12 0.153419 0.994911 0.526124
O O13 0.316131 0.292545 0.434630
O O14 0.266055 0.015368 0.482434
O O15 0.329130 0.964642 0.385006
O O16 0.817911 0.365040 0.087232
O O17 0.750000 0.250000 0.173404
#
# Coordination Sequence:
#
# PCOD9430488 Si02
#       8
#     8   8   8   8   8   8   8   8
#     4  11  25  37  58  85 114 152 193 233 294 348
#     4  11  22  36  58  90 114 147 189 243 299 353
#     4  10  21  36  54  86 116 145 185 234 287 339
#     4  12  22  40  57  82 113 158 189 242 288 341
#     4  10  20  33  57  88 116 146 185 236 287 341
#     4  10  21  35  55  86 119 146 189 236 293 343
#     4  10  20  34  55  88 116 154 182 234 292 345
#     4  10  21  37  59  82 114 149 197 237 279 341
#
# _framework density 18.130828999999999
#
# number of rings (size 3 to 8) (size 9 to 14) (size 15 to 20)
#    0.000    1.500    3.750    1.500    8.750    0.000 
#    0.000    0.000    5.500    0.000    0.000    0.000 
#    0.000    0.000    0.000    0.000    0.000    0.000 
#
# Total GULP energy -357136.349990 kJ/mol
# GULP energy per Si atom -5580.255469 kJ/mol
# Density = 1.808956 g / cm^3
# Si number density = 18.130829 Si / 1000 Ang^3
#
#
#
# Elastic Constant Matrix: (Units=GPa)
#
#
# Indices 1 2 3 4 5 6 
#
# 1 118.7041 21.7616 30.7001 0.0000 0.0000 0.0000
# 2 21.7616 77.8785 18.3095 0.0000 0.0000 0.0000
# 3 30.7001 18.3095 56.3775 0.0000 0.0000 0.0000
# 4 0.0000 0.0000 0.0000 18.1977 0.0000 0.0000
# 5 0.0000 0.0000 0.0000 0.0000 20.1702 0.0000
# 6 0.0000 0.0000 0.0000 0.0000 0.0000 25.0101
#
#
#
# Elastic Compliance Matrix: (Units=1/GPa)
#
#
# Indices 1 2 3 4 5 6 
#
# 1 0.009995 -0.001638 -0.004910 0.000000 0.000000 0.000000
# 2 -0.001638 0.014171 -0.003710 0.000000 0.000000 0.000000
# 3 -0.004910 -0.003710 0.021616 0.000000 0.000000 0.000000
# 4 0.000000 0.000000 0.000000 0.054952 0.000000 0.000000
# 5 0.000000 0.000000 0.000000 0.000000 0.049578 0.000000
# 6 0.000000 0.000000 0.000000 0.000000 0.000000 0.039984
#
#
# Mechanical properties :
#
#
# Convention : Reuss Voigt Hill
#
# Bulk Modulus (GPa) = 39.58189 43.83362 41.70776
# Shear Modulus (GPa) = 22.80663 24.82152 23.81407
#
# Velocity S-wave (km/s) = 3.55053 3.70404 3.62810
# Velocity P-wave (km/s) = 6.21989 6.52089 6.37217
#
# Compressibility (1/GPa) = 0.02526408
#
# Stress axis : x y z
#
# Youngs Moduli (GPa) = 100.05366 70.56889 46.26111
#
# Poissons Ratio (x) = 0.11562 0.22716
# Poissons Ratio (y) = 0.16392 0.17163
# Poissons Ratio (z) = 0.49131 0.26181
#
# Static dielectric constant tensor:
#      x y z
#    x 1.675540 0.000000 0.000000 
#    y 0.000000 1.658590 0.000000 
#    z 0.000000 0.000000 1.602860 
# 
# From -- ./inp_files/19632.got.cif
#   From: 2010.05.17/outbox.cif.g08.bks.cpg/sg56_10_cif.got.tgz:19632.got - 2010.06.03 13:42:01.
