data_PCOD9430239
_publ_section_title
;
Structure prediction by ZEFSAII (Michael W. Deem and Ramdas Pophale) SiO2 
 PCOD9430239
Probable space group: P C C N
;
_chemical_formula_sum "Si O2"
_cell_formula_units_Z 60
_cell_length_a 9.161294
_cell_length_b 12.151291
_cell_length_c 23.021234
_cell_angle_alpha 90.000000
_cell_angle_beta 90.000000
_cell_angle_gamma 90.000000
_cell_volume 2562.759436
_symmetry_space_group_name_H-M "P C C N"
_symmetry_group_IT_number 56
_symmetry_cell_setting 'orthorhombic'
loop_
_space_group_symop_operation_xyz
x,y,z
1/2-x,1/2-y,z
1/2+x,-y,1/2-z
-x,1/2+y,1/2-z
-x,-y,-z
1/2+x,1/2+y,-z
1/2-x,y,1/2+z
x,1/2-y,1/2+z
loop_
_atom_site_type_symbol
_atom_site_label
_atom_site_fract_x
_atom_site_fract_y
_atom_site_fract_z
Si Si1 0.975586 0.790389 0.177372
Si Si2 0.891908 0.054248 0.695211
Si Si3 0.810641 0.363197 0.459745
Si Si4 0.208878 0.390505 0.230681
Si Si5 0.133945 0.319872 0.446251
Si Si6 0.250000 0.750000 0.731202
Si Si7 0.775129 0.436770 0.582350
Si Si8 0.414391 0.470063 0.133067
O O1 0.114585 0.716152 0.191160
O O2 0.030246 0.918273 0.166990
O O3 0.876105 0.793189 0.234677
O O4 0.903694 0.762437 0.115905
O O5 0.816878 0.154675 0.729945
O O6 0.850522 0.076649 0.629107
O O7 0.063524 0.046039 0.707386
O O8 0.800649 0.950618 0.718781
O O9 0.750000 0.250000 0.432708
O O10 0.736916 0.381129 0.521561
O O11 0.820369 0.470658 0.418314
O O12 0.980174 0.342077 0.474907
O O13 0.318836 0.393729 0.175593
O O14 0.250000 0.250000 0.480988
O O15 0.205727 0.435277 0.431992
O O16 0.937059 0.411916 0.609939
#
# Coordination Sequence:
#
# PCOD9430239 Si02
#       8
#     8   8   8   8   8   4   8   8
#     4   9  19  34  54  87 122 155 191 238 301 359
#     4  11  21  34  59  84 121 161 198 239 306 356
#     4  10  23  41  65  86 114 162 213 247 304 363
#     4  11  18  36  58  90 120 155 194 244 291 373
#     4  10  21  38  62  91 119 150 202 254 306 348
#     4  10  20  32  52  82 122 158 196 230 292 366
#     4  10  21  43  60  84 120 168 198 251 307 353
#     4  10  19  36  62  85 114 158 204 241 302 354
#
# _framework density 23.412264
#
# number of rings (size 3 to 8) (size 9 to 14) (size 15 to 20)
#    0.000    2.133    5.333    1.600    4.667    2.133 
#    2.400    4.000    0.000    0.000    0.000    0.000 
#    0.000    0.000    0.000    0.000    0.000    0.000 
#
# Total GULP energy -334726.008481 kJ/mol
# GULP energy per Si atom -5578.766808 kJ/mol
# Density = 2.335898 g / cm^3
# Si number density = 23.412264 Si / 1000 Ang^3
#
#
#
# Elastic Constant Matrix: (Units=GPa)
#
#
# Indices 1 2 3 4 5 6 
#
# 1 64.3607 -1.9824 7.3510 0.0000 0.0000 0.0000
# 2 -1.9824 31.6805 -5.9248 0.0000 0.0000 0.0000
# 3 7.3510 -5.9248 100.8480 0.0000 0.0000 0.0000
# 4 0.0000 0.0000 0.0000 -16.8870 0.0000 0.0000
# 5 0.0000 0.0000 0.0000 0.0000 21.4851 0.0000
# 6 0.0000 0.0000 0.0000 0.0000 0.0000 32.0692
#
#
#
# Elastic Compliance Matrix: (Units=1/GPa)
#
#
# Indices 1 2 3 4 5 6 
#
# 1 0.015687 0.000776 -0.001098 0.000000 0.000000 0.000000
# 2 0.000776 0.031954 0.001821 0.000000 0.000000 0.000000
# 3 -0.001098 0.001821 0.010103 0.000000 0.000000 0.000000
# 4 0.000000 0.000000 0.000000 -0.059217 0.000000 0.000000
# 5 0.000000 0.000000 0.000000 0.000000 0.046544 0.000000
# 6 0.000000 0.000000 0.000000 0.000000 0.000000 0.031183
#
#
# Mechanical properties :
#
#
# Convention : Reuss Voigt Hill
#
# Bulk Modulus (GPa) = 16.46303 21.75299 19.10801
# Shear Modulus (GPa) = 53.47474 20.49650 36.98562
#
# Velocity S-wave (km/s) = 4.78436 2.96203 3.97892
# Velocity P-wave (km/s) = 6.12920 4.58362 5.41187
#
# Compressibility (1/GPa) = 0.06074217
#
# Stress axis : x y z
#
# Youngs Moduli (GPa) = 63.74818 31.29479 98.98144
#
# Poissons Ratio (x) = -0.02429 0.10866
# Poissons Ratio (y) = -0.04949 -0.18022
# Poissons Ratio (z) = 0.06998 -0.05698
#
# Static dielectric constant tensor:
#      x y z
#    x 1.932730 0.000000 0.000000 
#    y 0.000000 2.001920 0.000000 
#    z 0.000000 0.000000 1.932710 
# 
# From -- ./inp_files/20609.got.cif
#   From: 2010.05.17/outbox.cif.g08.bks.cpg/sg56_11_cif.got.tgz:20609.got - 2010.06.03 13:42:01.
