data_PCOD9430164
_publ_section_title
;
Structure prediction by ZEFSAII (Michael W. Deem and Ramdas Pophale) SiO2 
 PCOD9430164
Probable space group: P C C N
;
_chemical_formula_sum "Si O2"
_cell_formula_units_Z 32
_cell_length_a 13.765554
_cell_length_b 5.478463
_cell_length_c 13.072737
_cell_angle_alpha 90.000000
_cell_angle_beta 90.000000
_cell_angle_gamma 90.000000
_cell_volume 985.868411
_symmetry_space_group_name_H-M "P C C N"
_symmetry_group_IT_number 56
_symmetry_cell_setting 'orthorhombic'
loop_
_space_group_symop_operation_xyz
x,y,z
1/2-x,1/2-y,z
1/2+x,-y,1/2-z
-x,1/2+y,1/2-z
-x,-y,-z
1/2+x,1/2+y,-z
1/2-x,y,1/2+z
x,1/2-y,1/2+z
loop_
_atom_site_type_symbol
_atom_site_label
_atom_site_fract_x
_atom_site_fract_y
_atom_site_fract_z
Si Si1 0.402344 0.386530 0.229129
Si Si2 0.199177 0.953821 0.984853
Si Si3 0.107214 0.108946 0.478771
Si Si4 0.131880 0.889740 0.757384
O O1 0.392341 0.386353 0.353659
O O2 0.517483 0.383316 0.214853
O O3 0.355833 0.134024 0.192429
O O4 0.348176 0.635845 0.201265
O O5 0.250000 0.250000 0.986602
O O6 0.103376 0.106380 0.021261
O O7 0.185273 0.926027 0.862489
O O8 0.181352 0.635650 0.007019
O O9 0.000000 0.000000 0.500000
#
# Coordination Sequence:
#
# PCOD9430164 Si02
#       4
#     8   8   8   8
#     4   9  17  32  53  84 111 147 193 247 310 371
#     4  10  19  35  57  84 114 158 212 258 312 379
#     4  10  21  35  56  85 123 166 206 255 318 385
#     4   9  17  31  56  81 111 142 194 254 307 366
#
# _framework density 32.458694999999999
#
# number of rings (size 3 to 8) (size 9 to 14) (size 15 to 20)
#    0.000    2.500    2.500    0.000    0.000    1.000 
#    0.000    0.000    0.000   19.500    0.000    0.000 
#    0.000    0.000    0.000    0.000    0.000    0.000 
#
# Total GULP energy -178879.557557 kJ/mol
# GULP energy per Si atom -5589.986174 kJ/mol
# Density = 3.238482 g / cm^3
# Si number density = 32.458695 Si / 1000 Ang^3
#
#
#
# Elastic Constant Matrix: (Units=GPa)
#
#
# Indices 1 2 3 4 5 6 
#
# 1 200.3559 140.5725 34.4391 0.0000 0.0000 0.0000
# 2 140.5725 451.3748 61.9069 0.0000 0.0000 0.0000
# 3 34.4391 61.9069 106.6535 0.0000 0.0000 0.0000
# 4 0.0000 0.0000 0.0000 76.7708 0.0000 0.0000
# 5 0.0000 0.0000 0.0000 0.0000 41.0520 0.0000
# 6 0.0000 0.0000 0.0000 0.0000 0.0000 82.1940
#
#
#
# Elastic Compliance Matrix: (Units=1/GPa)
#
#
# Indices 1 2 3 4 5 6 
#
# 1 0.006484 -0.001882 -0.001001 0.000000 0.000000 0.000000
# 2 -0.001882 0.002953 -0.001107 0.000000 0.000000 0.000000
# 3 -0.001001 -0.001107 0.010342 0.000000 0.000000 0.000000
# 4 0.000000 0.000000 0.000000 0.013026 0.000000 0.000000
# 5 0.000000 0.000000 0.000000 0.000000 0.024359 0.000000
# 6 0.000000 0.000000 0.000000 0.000000 0.000000 0.012166
#
#
# Mechanical properties :
#
#
# Convention : Reuss Voigt Hill
#
# Bulk Modulus (GPa) = 84.75113 136.91346 110.83229
# Shear Modulus (GPa) = 61.54407 74.76773 68.15590
#
# Velocity S-wave (km/s) = 4.35912 4.80466 4.58730
# Velocity P-wave (km/s) = 7.17656 8.54705 7.89161
#
# Compressibility (1/GPa) = 0.01179925
#
# Stress axis : x y z
#
# Youngs Moduli (GPa) = 154.23608 338.60492 96.69515
#
# Poissons Ratio (x) = 0.63721 0.09682
# Poissons Ratio (y) = 0.29025 0.10700
# Poissons Ratio (z) = 0.15443 0.37469
#
# Static dielectric constant tensor:
#      x y z
#    x 1.229510 0.000000 0.000000 
#    y 0.000000 2.591020 0.000000 
#    z 0.000000 0.000000 2.534450 
# 
# From -- ./inp_files/9423.got.cif
#   From: 2010.05.17/outbox.cif.g08.bks.cpg/sg56_5_cif.got.tgz:9423.got - 2010.06.03 13:42:01.
