data_PCOD9430590
_publ_section_title
;
Structure prediction by ZEFSAII (Michael W. Deem and Ramdas Pophale) SiO2 
 PCOD9430590
Probable space group: P C C N
;
_chemical_formula_sum "Si O2"
_cell_formula_units_Z 48
_cell_length_a 6.392206
_cell_length_b 13.525424
_cell_length_c 28.205075
_cell_angle_alpha 90.000000
_cell_angle_beta 90.000000
_cell_angle_gamma 90.000000
_cell_volume 2438.534531
_symmetry_space_group_name_H-M "P C C N"
_symmetry_group_IT_number 56
_symmetry_cell_setting 'orthorhombic'
loop_
_space_group_symop_operation_xyz
x,y,z
1/2-x,1/2-y,z
1/2+x,-y,1/2-z
-x,1/2+y,1/2-z
-x,-y,-z
1/2+x,1/2+y,-z
1/2-x,y,1/2+z
x,1/2-y,1/2+z
loop_
_atom_site_type_symbol
_atom_site_label
_atom_site_fract_x
_atom_site_fract_y
_atom_site_fract_z
Si Si1 0.119130 0.350075 0.395625
Si Si2 0.468910 0.432191 0.639226
Si Si3 0.482602 0.437634 0.452655
Si Si4 0.403450 0.121782 0.707640
Si Si5 0.750000 0.250000 0.660121
Si Si6 0.750000 0.250000 0.443484
Si Si7 0.714824 0.555732 0.201157
O O1 0.250000 0.250000 0.391421
O O2 0.248076 0.415287 0.433416
O O3 0.109293 0.394458 0.343910
O O4 0.893745 0.321890 0.413197
O O5 0.430219 0.496285 0.591633
O O6 0.256071 0.395163 0.663965
O O7 0.634667 0.340577 0.632274
O O8 0.582974 0.503037 0.677611
O O9 0.500000 0.500000 0.500000
O O10 0.591238 0.331405 0.465001
O O11 0.564451 0.206535 0.692640
O O12 0.273590 0.128246 0.756175
O O13 0.551853 0.027375 0.717071
#
# Coordination Sequence:
#
# PCOD9430590 Si02
#       7
#     8   8   8   8   4   4   8
#     4   9  20  38  57  87 119 150 202 248 298 363
#     4  10  21  40  58  84 121 159 203 252 305 365
#     4  10  22  40  65  91 119 156 202 255 309 367
#     4  11  20  38  57  85 119 160 206 248 301 366
#     4  10  24  37  57  84 124 166 202 250 300 380
#     4  10  20  41  63  90 120 156 196 258 308 368
#     4  10  20  35  58  83 116 160 199 249 301 358
#
# _framework density 19.683954
#
# number of rings (size 3 to 8) (size 9 to 14) (size 15 to 20)
#    0.000    2.000    1.667    1.500    0.000    2.667 
#    0.000    9.167    0.000    0.000    0.000    0.000 
#    0.000    0.000    0.000    0.000    0.000    0.000 
#
# Total GULP energy -267414.058988 kJ/mol
# GULP energy per Si atom -5571.126229 kJ/mol
# Density = 1.963915 g / cm^3
# Si number density = 19.683954 Si / 1000 Ang^3
#
#
#
# Elastic Constant Matrix: (Units=GPa)
#
#
# Indices 1 2 3 4 5 6 
#
# 1 64.9140 25.4244 29.6570 0.0000 0.0000 0.0000
# 2 25.4244 91.3078 47.8913 0.0000 0.0000 0.0000
# 3 29.6570 47.8913 112.3503 0.0000 0.0000 0.0000
# 4 0.0000 0.0000 0.0000 21.1201 0.0000 0.0000
# 5 0.0000 0.0000 0.0000 0.0000 -14.0424 0.0000
# 6 0.0000 0.0000 0.0000 0.0000 0.0000 38.0867
#
#
#
# Elastic Compliance Matrix: (Units=1/GPa)
#
#
# Indices 1 2 3 4 5 6 
#
# 1 0.018255 -0.003291 -0.003416 0.000000 0.000000 0.000000
# 2 -0.003291 0.014699 -0.005397 0.000000 0.000000 0.000000
# 3 -0.003416 -0.005397 0.012103 0.000000 0.000000 0.000000
# 4 0.000000 0.000000 0.000000 0.047348 0.000000 0.000000
# 5 0.000000 0.000000 0.000000 0.000000 -0.071213 0.000000
# 6 0.000000 0.000000 0.000000 0.000000 0.000000 0.026256
#
#
# Mechanical properties :
#
#
# Convention : Reuss Voigt Hill
#
# Bulk Modulus (GPa) = 47.96465 52.72414 50.34439
# Shear Modulus (GPa) = 63.60894 20.07284 41.84089
#
# Velocity S-wave (km/s) = 5.69081 3.19683 4.61546
# Velocity P-wave (km/s) = 8.22196 6.36158 7.35086
#
# Compressibility (1/GPa) = 0.02084869
#
# Stress axis : x y z
#
# Youngs Moduli (GPa) = 54.78065 68.03101 82.62483
#
# Poissons Ratio (x) = 0.22392 0.28222
# Poissons Ratio (y) = 0.18031 0.44592
# Poissons Ratio (z) = 0.18711 0.36716
#
# Static dielectric constant tensor:
#      x y z
#    x 1.756490 0.000000 0.000000 
#    y 0.000000 1.735600 0.000000 
#    z 0.000000 0.000000 1.652540 
# 
# From -- ./inp_files/21709.got.cif
#   From: 2010.05.17/outbox.cif.g08.bks.cpg/sg56_11_cif.got.tgz:21709.got - 2010.06.03 13:42:01.
