data_PCOD9430874
_publ_section_title
;
Structure prediction by ZEFSAII (Michael W. Deem and Ramdas Pophale) SiO2 
 PCOD9430874
Probable space group: P C C N
;
_chemical_formula_sum "Si O2"
_cell_formula_units_Z 56
_cell_length_a 9.192596
_cell_length_b 12.442315
_cell_length_c 20.784087
_cell_angle_alpha 90.000000
_cell_angle_beta 90.000000
_cell_angle_gamma 90.000000
_cell_volume 2377.225158
_symmetry_space_group_name_H-M "P C C N"
_symmetry_group_IT_number 56
_symmetry_cell_setting 'orthorhombic'
loop_
_space_group_symop_operation_xyz
x,y,z
1/2-x,1/2-y,z
1/2+x,-y,1/2-z
-x,1/2+y,1/2-z
-x,-y,-z
1/2+x,1/2+y,-z
1/2-x,y,1/2+z
x,1/2-y,1/2+z
loop_
_atom_site_type_symbol
_atom_site_label
_atom_site_fract_x
_atom_site_fract_y
_atom_site_fract_z
Si Si1 0.998064 0.847815 0.661538
Si Si2 0.502832 0.878201 0.301923
Si Si3 0.292654 0.071451 0.491615
Si Si4 0.218340 0.460848 0.129709
Si Si5 0.733549 0.498892 0.144569
Si Si6 0.446496 0.814237 0.891941
Si Si7 0.519009 0.718431 0.525373
O O1 0.008765 0.813505 0.735340
O O2 0.021959 0.771074 0.600213
O O3 0.117367 0.941193 0.651113
O O4 0.835482 0.898471 0.657379
O O5 0.660674 0.923430 0.319975
O O6 0.391731 0.978089 0.304105
O O7 0.450175 0.799731 0.358222
O O8 0.289839 0.013202 0.560018
O O9 0.394147 0.175871 0.495673
O O10 0.129665 0.116561 0.477304
O O11 0.332891 0.008737 0.427143
O O12 0.109188 0.361957 0.115348
O O13 0.842273 0.397980 0.142922
O O14 0.409003 0.806492 0.967670
#
# Coordination Sequence:
#
# PCOD9430874 Si02
#       7
#     8   8   8   8   8   8   8
#     4  10  22  39  59  90 120 164 197 253 308 365
#     4  12  22  37  58  88 126 158 203 246 305 371
#     4   9  17  35  62  91 114 152 203 263 288 349
#     4  10  20  38  62  85 119 160 209 245 303 364
#     4  10  22  38  59  87 120 157 197 250 309 360
#     4  10  20  39  63  84 114 162 204 248 297 366
#     4   9  17  36  62  89 117 147 213 252 293 349
#
# _framework density 23.556875999999999
#
# number of rings (size 3 to 8) (size 9 to 14) (size 15 to 20)
#    0.000    2.000    1.429    2.571    0.000    4.000 
#   15.429    0.000    0.000    0.000    0.000    0.000 
#    0.000    0.000    0.000    0.000    0.000    0.000 
#
# Total GULP energy -312926.419404 kJ/mol
# GULP energy per Si atom -5587.971775 kJ/mol
# Density = 2.350326 g / cm^3
# Si number density = 23.556876 Si / 1000 Ang^3
#
#
#
# Elastic Constant Matrix: (Units=GPa)
#
#
# Indices 1 2 3 4 5 6 
#
# 1 56.8928 1.9952 18.1956 0.0000 0.0000 0.0000
# 2 1.9952 14.8663 -5.4923 0.0000 0.0000 0.0000
# 3 18.1956 -5.4923 139.8277 0.0000 0.0000 0.0000
# 4 0.0000 0.0000 0.0000 25.6937 0.0000 0.0000
# 5 0.0000 0.0000 0.0000 0.0000 15.0132 0.0000
# 6 0.0000 0.0000 0.0000 0.0000 0.0000 -0.2531
#
#
#
# Elastic Compliance Matrix: (Units=1/GPa)
#
#
# Indices 1 2 3 4 5 6 
#
# 1 0.018510 -0.003424 -0.002543 0.000000 0.000000 0.000000
# 2 -0.003424 0.068890 0.003151 0.000000 0.000000 0.000000
# 3 -0.002543 0.003151 0.007606 0.000000 0.000000 0.000000
# 4 0.000000 0.000000 0.000000 0.038920 0.000000 0.000000
# 5 0.000000 0.000000 0.000000 0.000000 0.066608 0.000000
# 6 0.000000 0.000000 0.000000 0.000000 0.000000 -3.950405
#
#
# Mechanical properties :
#
#
# Convention : Reuss Voigt Hill
#
# Bulk Modulus (GPa) = 11.18874 26.77599 18.98236
# Shear Modulus (GPa) = -1.34610 21.21664 9.93527
#
# Velocity S-wave (km/s) = -0.75675 3.00435 2.05590
# Velocity P-wave (km/s) = 1.99911 4.84004 3.70287
#
# Compressibility (1/GPa) = 0.08937556
#
# Stress axis : x y z
#
# Youngs Moduli (GPa) = 54.02382 14.51591 131.46837
#
# Poissons Ratio (x) = 0.04970 0.33435
# Poissons Ratio (y) = 0.18497 -0.41432
# Poissons Ratio (z) = 0.13739 -0.04575
#
# Static dielectric constant tensor:
#      x y z
#    x 1.916710 0.000000 0.000000 
#    y 0.000000 1.870280 0.000000 
#    z 0.000000 0.000000 1.943170 
# 
# From -- ./inp_files/18208.got.cif
#   From: 2010.05.17/outbox.cif.g08.bks.cpg/sg56_10_cif.got.tgz:18208.got - 2010.06.03 13:42:01.
