data_PCOD9430800
_publ_section_title
;
Structure prediction by ZEFSAII (Michael W. Deem and Ramdas Pophale) SiO2 
 PCOD9430800
Probable space group: P C C N
;
_chemical_formula_sum "Si O2"
_cell_formula_units_Z 32
_cell_length_a 9.513162
_cell_length_b 8.728380
_cell_length_c 15.729294
_cell_angle_alpha 90.000000
_cell_angle_beta 90.000000
_cell_angle_gamma 90.000000
_cell_volume 1306.073952
_symmetry_space_group_name_H-M "P C C N"
_symmetry_group_IT_number 56
_symmetry_cell_setting 'orthorhombic'
loop_
_space_group_symop_operation_xyz
x,y,z
1/2-x,1/2-y,z
1/2+x,-y,1/2-z
-x,1/2+y,1/2-z
-x,-y,-z
1/2+x,1/2+y,-z
1/2-x,y,1/2+z
x,1/2-y,1/2+z
loop_
_atom_site_type_symbol
_atom_site_label
_atom_site_fract_x
_atom_site_fract_y
_atom_site_fract_z
Si Si1 0.894737 0.665826 0.099085
Si Si2 0.979019 0.392540 0.716843
Si Si3 0.246567 0.568864 0.664224
Si Si4 0.518612 0.641863 0.422985
O O1 0.750000 0.750000 0.105179
O O2 0.963755 0.664305 0.191612
O O3 0.898271 0.486504 0.073796
O O4 0.968645 0.727569 0.012919
O O5 0.980309 0.254742 0.651884
O O6 0.825113 0.448158 0.744041
O O7 0.411852 0.987015 0.677548
O O8 0.250000 0.750000 0.640413
O O9 0.338014 0.452109 0.604903
#
# Coordination Sequence:
#
# PCOD9430800 Si02
#       4
#     8   8   8   8
#     4  10  20  37  65  95 126 169 216 264 321 384
#     4  11  23  41  65  92 128 170 216 268 323 386
#     4  11  22  38  62  92 126 169 216 267 326 383
#     4  10  22  40  63  93 129 169 214 265 323 385
#
# _framework density 24.500910999999999
#
# number of rings (size 3 to 8) (size 9 to 14) (size 15 to 20)
#    0.000    1.500    0.000    6.750    0.000    2.000 
#    0.000    8.750    0.000   37.500    0.000    0.000 
#    0.000    0.000    0.000    0.000    0.000    0.000 
#
# Total GULP energy -178830.413338 kJ/mol
# GULP energy per Si atom -5588.450417 kJ/mol
# Density = 2.444515 g / cm^3
# Si number density = 24.500911 Si / 1000 Ang^3
#
#
#
# Elastic Constant Matrix: (Units=GPa)
#
#
# Indices 1 2 3 4 5 6 
#
# 1 36.1590 19.6194 -30.0645 0.0000 0.0000 0.0000
# 2 19.6194 46.9696 0.8976 0.0000 0.0000 0.0000
# 3 -30.0645 0.8976 140.7093 0.0000 0.0000 0.0000
# 4 0.0000 0.0000 0.0000 45.7229 0.0000 0.0000
# 5 0.0000 0.0000 0.0000 0.0000 11.7797 0.0000
# 6 0.0000 0.0000 0.0000 0.0000 0.0000 44.4713
#
#
#
# Elastic Compliance Matrix: (Units=1/GPa)
#
#
# Indices 1 2 3 4 5 6 
#
# 1 0.046777 -0.019732 0.010120 0.000000 0.000000 0.000000
# 2 -0.019732 0.029617 -0.004405 0.000000 0.000000 0.000000
# 3 0.010120 -0.004405 0.009297 0.000000 0.000000 0.000000
# 4 0.000000 0.000000 0.000000 0.021871 0.000000 0.000000
# 5 0.000000 0.000000 0.000000 0.000000 0.084892 0.000000
# 6 0.000000 0.000000 0.000000 0.000000 0.000000 0.022486
#
#
# Mechanical properties :
#
#
# Convention : Reuss Voigt Hill
#
# Bulk Modulus (GPa) = 17.34393 22.74921 20.04657
# Shear Modulus (GPa) = 19.06997 35.95381 27.51189
#
# Velocity S-wave (km/s) = 2.79290 3.83488 3.35459
# Velocity P-wave (km/s) = 4.18266 5.37714 4.81707
#
# Compressibility (1/GPa) = 0.05765705
#
# Stress axis : x y z
#
# Youngs Moduli (GPa) = 21.37820 33.76470 107.55808
#
# Poissons Ratio (x) = 0.66625 -1.08852
# Poissons Ratio (y) = 0.42184 0.47379
# Poissons Ratio (z) = -0.21635 0.14873
#
# Static dielectric constant tensor:
#      x y z
#    x 2.040730 0.000000 0.000000 
#    y 0.000000 1.973930 0.000000 
#    z 0.000000 0.000000 1.956650 
# 
# From -- ./inp_files/15345.got.cif
#   From: 2010.05.17/outbox.cif.g08.bks.cpg/sg56_8_cif.got.tgz:15345.got - 2010.06.03 13:42:01.
