data_PCOD9430560
_publ_section_title
;
Structure prediction by ZEFSAII (Michael W. Deem and Ramdas Pophale) SiO2 
 PCOD9430560
Probable space group: P C C N
;
_chemical_formula_sum "Si O2"
_cell_formula_units_Z 48
_cell_length_a 14.986031
_cell_length_b 8.189434
_cell_length_c 15.828632
_cell_angle_alpha 90.000000
_cell_angle_beta 90.000000
_cell_angle_gamma 90.000000
_cell_volume 1942.602289
_symmetry_space_group_name_H-M "P C C N"
_symmetry_group_IT_number 56
_symmetry_cell_setting 'orthorhombic'
loop_
_space_group_symop_operation_xyz
x,y,z
1/2-x,1/2-y,z
1/2+x,-y,1/2-z
-x,1/2+y,1/2-z
-x,-y,-z
1/2+x,1/2+y,-z
1/2-x,y,1/2+z
x,1/2-y,1/2+z
loop_
_atom_site_type_symbol
_atom_site_label
_atom_site_fract_x
_atom_site_fract_y
_atom_site_fract_z
Si Si1 0.074356 0.468373 0.802753
Si Si2 0.514235 0.175796 0.044048
Si Si3 0.849877 0.808651 0.371427
Si Si4 0.569377 0.622988 0.192295
Si Si5 0.324052 0.861077 0.045418
Si Si6 0.755354 0.058263 0.134622
O O1 0.051003 0.621136 0.864473
O O2 0.043541 0.298138 0.847287
O O3 0.182018 0.472546 0.805382
O O4 0.014821 0.513533 0.720750
O O5 0.421338 0.264324 0.061930
O O6 0.595929 0.248552 0.991975
O O7 0.500000 0.000000 0.000000
O O8 0.750000 0.750000 0.382010
O O9 0.885719 0.799620 0.277033
O O10 0.852925 0.001299 0.390798
O O11 0.647407 0.521016 0.147236
O O12 0.250000 0.750000 0.086448
O O13 0.280135 0.949184 0.962557
O O14 0.750000 0.250000 0.155571
#
# Coordination Sequence:
#
# PCOD9430560 Si02
#       6
#     8   8   8   8   8   8
#     4  10  20  35  56  80 111 147 184 233 286 339
#     4   8  17  34  54  75 106 144 182 223 276 332
#     4  10  20  35  55  80 112 147 183 230 284 338
#     4  11  22  37  56  84 114 148 190 234 285 343
#     4   9  19  36  56  79 108 146 188 231 280 337
#     4  10  20  35  56  82 110 144 188 235 280 339
#
# _framework density 24.709123000000002
#
# number of rings (size 3 to 8) (size 9 to 14) (size 15 to 20)
#    0.000    2.333    0.000    2.500    0.000    6.000 
#    0.000    7.500    0.000    0.000    0.000    0.000 
#    0.000    0.000    0.000    0.000    0.000    0.000 
#
# Total GULP energy -267869.149735 kJ/mol
# GULP energy per Si atom -5580.607286 kJ/mol
# Density = 2.465288 g / cm^3
# Si number density = 24.709123 Si / 1000 Ang^3
#
#
#
# Elastic Constant Matrix: (Units=GPa)
#
#
# Indices 1 2 3 4 5 6 
#
# 1 88.9433 4.4834 9.1990 0.0000 0.0000 0.0000
# 2 4.4834 86.1266 2.1915 0.0000 0.0000 0.0000
# 3 9.1990 2.1915 34.2994 0.0000 0.0000 0.0000
# 4 0.0000 0.0000 0.0000 61.2117 0.0000 0.0000
# 5 0.0000 0.0000 0.0000 0.0000 5.4176 0.0000
# 6 0.0000 0.0000 0.0000 0.0000 0.0000 50.1164
#
#
#
# Elastic Compliance Matrix: (Units=1/GPa)
#
#
# Indices 1 2 3 4 5 6 
#
# 1 0.011588 -0.000525 -0.003074 0.000000 0.000000 0.000000
# 2 -0.000525 0.011654 -0.000604 0.000000 0.000000 0.000000
# 3 -0.003074 -0.000604 0.030018 0.000000 0.000000 0.000000
# 4 0.000000 0.000000 0.000000 0.016337 0.000000 0.000000
# 5 0.000000 0.000000 0.000000 0.000000 0.184582 0.000000
# 6 0.000000 0.000000 0.000000 0.000000 0.000000 0.019954
#
#
# Mechanical properties :
#
#
# Convention : Reuss Voigt Hill
#
# Bulk Modulus (GPa) = 22.29494 26.79079 24.54287
# Shear Modulus (GPa) = 16.80738 36.24884 26.52811
#
# Velocity S-wave (km/s) = 2.61091 3.83433 3.28016
# Velocity P-wave (km/s) = 4.25813 5.51985 4.92953
#
# Compressibility (1/GPa) = 0.04485322
#
# Stress axis : x y z
#
# Youngs Moduli (GPa) = 86.29968 85.81107 33.31325
#
# Poissons Ratio (x) = 0.04505 0.10241
# Poissons Ratio (y) = 0.04531 0.02011
# Poissons Ratio (z) = 0.26530 0.05181
#
# Static dielectric constant tensor:
#      x y z
#    x 2.089830 0.000000 0.000000 
#    y 0.000000 2.089450 0.000000 
#    z 0.000000 0.000000 2.031170 
# 
# From -- ./inp_files/16165.got.cif
#   From: 2010.05.17/outbox.cif.g08.bks.cpg/sg56_9_cif.got.tgz:16165.got - 2010.06.03 13:42:01.
