data_PCOD9430244
_publ_section_title
;
Structure prediction by ZEFSAII (Michael W. Deem and Ramdas Pophale) SiO2 
 PCOD9430244
Probable space group: P C C N
;
_chemical_formula_sum "Si O2"
_cell_formula_units_Z 56
_cell_length_a 14.710886
_cell_length_b 29.829721
_cell_length_c 5.427882
_cell_angle_alpha 90.000000
_cell_angle_beta 90.000000
_cell_angle_gamma 90.000000
_cell_volume 2381.872000
_symmetry_space_group_name_H-M "P C C N"
_symmetry_group_IT_number 56
_symmetry_cell_setting 'orthorhombic'
loop_
_space_group_symop_operation_xyz
x,y,z
1/2-x,1/2-y,z
1/2+x,-y,1/2-z
-x,1/2+y,1/2-z
-x,-y,-z
1/2+x,1/2+y,-z
1/2-x,y,1/2+z
x,1/2-y,1/2+z
loop_
_atom_site_type_symbol
_atom_site_label
_atom_site_fract_x
_atom_site_fract_y
_atom_site_fract_z
Si Si1 0.053240 0.147014 0.484659
Si Si2 0.786065 0.299558 0.658703
Si Si3 0.924847 0.958549 0.493878
Si Si4 0.695122 0.088213 0.448955
Si Si5 0.457327 0.836586 0.518612
Si Si6 0.390622 0.491302 0.006473
Si Si7 0.352152 0.269445 0.605348
O O1 0.045523 0.093364 0.524110
O O2 0.141938 0.177395 0.549179
O O3 0.987583 0.166900 0.698841
O O4 0.029875 0.156228 0.199000
O O5 0.750000 0.250000 0.696457
O O6 0.731095 0.320722 0.427539
O O7 0.889638 0.298142 0.574196
O O8 0.873600 0.962489 0.751528
O O9 0.867518 0.968588 0.251054
O O10 0.000000 0.000000 0.500000
O O11 0.763279 0.093610 0.678114
O O12 0.609465 0.120373 0.491998
O O13 0.658438 0.037971 0.466999
O O14 0.500000 0.500000 0.000000
O O15 0.250000 0.250000 0.623029
O O16 0.395000 0.255615 0.868164
#
# Coordination Sequence:
#
# PCOD9430244 Si02
#       7
#     8   8   8   8   8   8   8
#     4  12  24  41  71 111 130 179 243 287 363 438
#     4  10  21  40  56  77 122 179 212 263 348 396
#     4  10  19  36  62  96 137 170 215 281 349 402
#     4  12  24  40  66  95 145 197 236 276 356 432
#     4  12  23  40  62 101 138 173 232 293 323 420
#     4  10  20  37  62  91 129 181 223 283 338 399
#     4  10  23  48  76  99 141 183 225 300 383 438
#
# _framework density 23.510922000000001
#
# number of rings (size 3 to 8) (size 9 to 14) (size 15 to 20)
#    0.000    1.143    0.000    8.571    0.000    0.000 
#   15.429    0.000   18.857    0.000    0.000    0.000 
#    0.000    0.000    0.000    0.000    0.000    0.000 
#
# Total GULP energy -312595.628292 kJ/mol
# GULP energy per Si atom -5582.064791 kJ/mol
# Density = 2.345741 g / cm^3
# Si number density = 23.510922 Si / 1000 Ang^3
#
#
#
# Elastic Constant Matrix: (Units=GPa)
#
#
# Indices 1 2 3 4 5 6 
#
# 1 40.8597 17.3792 14.3954 0.0000 0.0000 0.0000
# 2 17.3792 104.7927 18.0864 0.0000 0.0000 0.0000
# 3 14.3954 18.0864 205.3647 0.0000 0.0000 0.0000
# 4 0.0000 0.0000 0.0000 33.0586 0.0000 0.0000
# 5 0.0000 0.0000 0.0000 0.0000 23.6751 0.0000
# 6 0.0000 0.0000 0.0000 0.0000 0.0000 46.4884
#
#
#
# Elastic Compliance Matrix: (Units=1/GPa)
#
#
# Indices 1 2 3 4 5 6 
#
# 1 0.026784 -0.004182 -0.001509 0.000000 0.000000 0.000000
# 2 -0.004182 0.010343 -0.000618 0.000000 0.000000 0.000000
# 3 -0.001509 -0.000618 0.005030 0.000000 0.000000 0.000000
# 4 0.000000 0.000000 0.000000 0.030249 0.000000 0.000000
# 5 0.000000 0.000000 0.000000 0.000000 0.042238 0.000000
# 6 0.000000 0.000000 0.000000 0.000000 0.000000 0.021511
#
#
# Mechanical properties :
#
#
# Convention : Reuss Voigt Hill
#
# Bulk Modulus (GPa) = 33.85288 50.08210 41.96749
# Shear Modulus (GPa) = 31.52215 40.72151 36.12183
#
# Velocity S-wave (km/s) = 3.66559 4.16628 3.92393
# Velocity P-wave (km/s) = 5.68731 6.67021 6.19827
#
# Compressibility (1/GPa) = 0.02953958
#
# Stress axis : x y z
#
# Youngs Moduli (GPa) = 37.33536 96.68608 198.82359
#
# Poissons Ratio (x) = 0.40429 0.30007
# Poissons Ratio (y) = 0.15612 0.12283
# Poissons Ratio (z) = 0.05635 0.05973
#
# Static dielectric constant tensor:
#      x y z
#    x 2.038090 0.000000 0.000000 
#    y 0.000000 1.971120 0.000000 
#    z 0.000000 0.000000 1.964440 
# 
# From -- ./inp_files/581.got.cif
#   From: 2010.05.17/outbox.cif.g08.bks.cpg/sg56_1_cif.got.tgz:581.got - 2010.06.03 13:42:01.
