data_PCOD9430852
_publ_section_title
;
Structure prediction by ZEFSAII (Michael W. Deem and Ramdas Pophale) SiO2 
 PCOD9430852
Probable space group: P C C N
;
_chemical_formula_sum "Si O2"
_cell_formula_units_Z 48
_cell_length_a 8.233474
_cell_length_b 24.453474
_cell_length_c 9.493803
_cell_angle_alpha 90.000000
_cell_angle_beta 90.000000
_cell_angle_gamma 90.000000
_cell_volume 1911.454217
_symmetry_space_group_name_H-M "P C C N"
_symmetry_group_IT_number 56
_symmetry_cell_setting 'orthorhombic'
loop_
_space_group_symop_operation_xyz
x,y,z
1/2-x,1/2-y,z
1/2+x,-y,1/2-z
-x,1/2+y,1/2-z
-x,-y,-z
1/2+x,1/2+y,-z
1/2-x,y,1/2+z
x,1/2-y,1/2+z
loop_
_atom_site_type_symbol
_atom_site_label
_atom_site_fract_x
_atom_site_fract_y
_atom_site_fract_z
Si Si1 0.250000 0.250000 0.890247
Si Si2 0.005584 0.086387 0.015717
Si Si3 0.358641 0.864195 0.024993
Si Si4 0.136862 0.959397 0.734787
Si Si5 0.250000 0.750000 0.439683
Si Si6 0.991268 0.566865 0.797159
Si Si7 0.067378 0.193396 0.142281
O O1 0.339074 0.209528 0.782627
O O2 0.128536 0.221459 0.998091
O O3 0.969049 0.037153 0.122365
O O4 0.100410 0.130656 0.106062
O O5 0.825232 0.113417 0.999164
O O6 0.072564 0.080735 0.858914
O O7 0.408217 0.903032 0.155054
O O8 0.336343 0.799117 0.026246
O O9 0.479941 0.881808 0.899100
O O10 0.324297 0.954547 0.775066
O O11 0.107365 0.014562 0.646807
O O12 0.383895 0.782918 0.348657
#
# Coordination Sequence:
#
# PCOD9430852 Si02
#       7
#     4   8   8   8   4   8   8
#     4  10  24  44  60  90 144 172 200 290 348 406
#     4   9  20  38  59  87 125 164 207 267 325 387
#     4   9  20  37  62  95 125 159 219 282 323 384
#     4  10  20  38  60  89 127 166 211 273 328 397
#     4  10  22  40  72 102 122 176 236 282 332 406
#     4  10  20  38  60  89 127 166 211 273 328 397
#     4  10  23  43  65  92 131 172 219 274 342 406
#
# _framework density 25.111768999999999
#
# number of rings (size 3 to 8) (size 9 to 14) (size 15 to 20)
#    0.000    2.333    0.000    1.000    4.667    0.667 
#    3.000    0.000    0.000    0.000    0.000    0.000 
#    0.000    0.000    0.000    0.000    0.000    0.000 
#
# Total GULP energy -268005.808477 kJ/mol
# GULP energy per Si atom -5583.454343 kJ/mol
# Density = 2.505461 g / cm^3
# Si number density = 25.111769 Si / 1000 Ang^3
#
#
#
# Elastic Constant Matrix: (Units=GPa)
#
#
# Indices 1 2 3 4 5 6 
#
# 1 37.1213 4.6496 16.4543 0.0000 0.0000 0.0000
# 2 4.6496 118.2327 26.2570 0.0000 0.0000 0.0000
# 3 16.4543 26.2570 120.1885 0.0000 0.0000 0.0000
# 4 0.0000 0.0000 0.0000 59.2209 0.0000 0.0000
# 5 0.0000 0.0000 0.0000 0.0000 -329.7397 0.0000
# 6 0.0000 0.0000 0.0000 0.0000 0.0000 23.9890
#
#
#
# Elastic Compliance Matrix: (Units=1/GPa)
#
#
# Indices 1 2 3 4 5 6 
#
# 1 0.028687 -0.000269 -0.003869 0.000000 0.000000 0.000000
# 2 -0.000269 0.008892 -0.001906 0.000000 0.000000 0.000000
# 3 -0.003869 -0.001906 0.009266 0.000000 0.000000 0.000000
# 4 0.000000 0.000000 0.000000 0.016886 0.000000 0.000000
# 5 0.000000 0.000000 0.000000 0.000000 -0.003033 0.000000
# 6 0.000000 0.000000 0.000000 0.000000 0.000000 0.041686
#
#
# Mechanical properties :
#
#
# Convention : Reuss Voigt Hill
#
# Bulk Modulus (GPa) = 28.76998 41.14050 34.95524
# Shear Modulus (GPa) = 39.66463 -34.09384 2.78539
#
# Velocity S-wave (km/s) = 3.97863 -3.68867 1.05433
# Velocity P-wave (km/s) = 5.70856 1.31272 3.92839
#
# Compressibility (1/GPa) = 0.03475845
#
# Stress axis : x y z
#
# Youngs Moduli (GPa) = 34.85873 112.46456 107.91878
#
# Poissons Ratio (x) = 0.03025 0.41750
# Poissons Ratio (y) = 0.00938 0.20566
# Poissons Ratio (z) = 0.13486 0.21432
#
# Static dielectric constant tensor:
#      x y z
#    x 2.563350 0.000000 0.000000 
#    y 0.000000 2.014530 0.000000 
#    z 0.000000 0.000000 1.989200 
# 
# From -- ./inp_files/2285.got.cif
#   From: 2010.05.17/outbox.cif.g08.bks.cpg/sg56_2_cif.got.tgz:2285.got - 2010.06.03 13:42:01.
