data_PCOD9430829
_publ_section_title
;
Structure prediction by ZEFSAII (Michael W. Deem and Ramdas Pophale) SiO2 
 PCOD9430829
Probable space group: P C C N
;
_chemical_formula_sum "Si O2"
_cell_formula_units_Z 56
_cell_length_a 16.944725
_cell_length_b 11.653678
_cell_length_c 12.291019
_cell_angle_alpha 90.000000
_cell_angle_beta 90.000000
_cell_angle_gamma 90.000000
_cell_volume 2427.087475
_symmetry_space_group_name_H-M "P C C N"
_symmetry_group_IT_number 56
_symmetry_cell_setting 'orthorhombic'
loop_
_space_group_symop_operation_xyz
x,y,z
1/2-x,1/2-y,z
1/2+x,-y,1/2-z
-x,1/2+y,1/2-z
-x,-y,-z
1/2+x,1/2+y,-z
1/2-x,y,1/2+z
x,1/2-y,1/2+z
loop_
_atom_site_type_symbol
_atom_site_label
_atom_site_fract_x
_atom_site_fract_y
_atom_site_fract_z
Si Si1 0.750000 0.750000 0.454174
Si Si2 0.608547 0.596546 0.920525
Si Si3 0.179299 0.910335 0.939583
Si Si4 0.750000 0.250000 0.874430
Si Si5 0.171550 0.040916 0.440053
Si Si6 0.458998 0.759061 0.922486
Si Si7 0.963685 0.481088 0.219505
Si Si8 0.107234 0.608066 0.131271
O O1 0.813426 0.671091 0.389938
O O2 0.797133 0.834692 0.533167
O O3 0.536479 0.682968 0.935542
O O4 0.578189 0.502653 0.833851
O O5 0.632277 0.524675 0.026612
O O6 0.116971 0.818756 0.896756
O O7 0.260788 0.958081 0.887869
O O8 0.211494 0.845685 0.047413
O O9 0.823072 0.314088 0.819201
O O10 0.095242 0.040260 0.366335
O O11 0.148137 0.989556 0.557519
O O12 0.471290 0.852682 0.827187
O O13 0.439251 0.820395 0.037661
O O14 0.046471 0.547160 0.211312
#
# Coordination Sequence:
#
# PCOD9430829 Si02
#       8
#     4   8   8   4   8   8   8   8
#     4  10  20  38  60  80 116 160 190 240 294 350
#     4  11  23  37  56  89 121 148 193 246 296 344
#     4   9  19  37  61  82 109 152 195 234 284 355
#     4   8  16  32  58  82 104 138 192 238 272 330
#     4   9  18  36  59  82 108 151 200 230 282 359
#     4  10  20  38  59  80 113 155 193 236 286 349
#     4  11  22  35  56  87 118 149 193 244 292 346
#     4   9  17  34  58  80 106 152 198 234 282 353
#
# _framework density 23.072922999999999
#
# number of rings (size 3 to 8) (size 9 to 14) (size 15 to 20)
#    0.000    2.286    0.000    4.714    0.000    2.857 
#    0.000   10.000    0.000    3.429    0.000    0.000 
#    0.000    0.000    0.000    0.000    0.000    0.000 
#
# Total GULP energy -312787.401970 kJ/mol
# GULP energy per Si atom -5585.489321 kJ/mol
# Density = 2.302041 g / cm^3
# Si number density = 23.072923 Si / 1000 Ang^3
#
#
#
# Elastic Constant Matrix: (Units=GPa)
#
#
# Indices 1 2 3 4 5 6 
#
# 1 123.7142 49.7429 14.1250 0.0000 0.0000 0.0000
# 2 49.7429 90.8700 11.8830 0.0000 0.0000 0.0000
# 3 14.1250 11.8830 25.2279 0.0000 0.0000 0.0000
# 4 0.0000 0.0000 0.0000 33.3117 0.0000 0.0000
# 5 0.0000 0.0000 0.0000 0.0000 18.5470 0.0000
# 6 0.0000 0.0000 0.0000 0.0000 0.0000 47.1304
#
#
#
# Elastic Compliance Matrix: (Units=1/GPa)
#
#
# Indices 1 2 3 4 5 6 
#
# 1 0.010635 -0.005374 -0.003423 0.000000 0.000000 0.000000
# 2 -0.005374 0.014443 -0.003794 0.000000 0.000000 0.000000
# 3 -0.003423 -0.003794 0.043342 0.000000 0.000000 0.000000
# 4 0.000000 0.000000 0.000000 0.030019 0.000000 0.000000
# 5 0.000000 0.000000 0.000000 0.000000 0.053917 0.000000
# 6 0.000000 0.000000 0.000000 0.000000 0.000000 0.021218
#
#
# Mechanical properties :
#
#
# Convention : Reuss Voigt Hill
#
# Bulk Modulus (GPa) = 23.12799 43.47932 33.30365
# Shear Modulus (GPa) = 23.45565 30.73526 27.09545
#
# Velocity S-wave (km/s) = 3.19186 3.65374 3.43058
# Velocity P-wave (km/s) = 4.86102 6.05681 5.49156
#
# Compressibility (1/GPa) = 0.04323765
#
# Stress axis : x y z
#
# Youngs Moduli (GPa) = 94.03189 69.23975 23.07211
#
# Poissons Ratio (x) = 0.37209 0.07898
# Poissons Ratio (y) = 0.50532 0.08754
# Poissons Ratio (z) = 0.32188 0.26270
#
# Static dielectric constant tensor:
#      x y z
#    x 1.885740 0.000000 0.000000 
#    y 0.000000 1.889490 0.000000 
#    z 0.000000 0.000000 1.851950 
# 
# From -- ./inp_files/12311.got.cif
#   From: 2010.05.17/outbox.cif.g08.bks.cpg/sg56_7_cif.got.tgz:12311.got - 2010.06.03 13:42:01.
