data_PCOD9430696
_publ_section_title
;
Structure prediction by ZEFSAII (Michael W. Deem and Ramdas Pophale) SiO2 
 PCOD9430696
Probable space group: P C C N
;
_chemical_formula_sum "Si O2"
_cell_formula_units_Z 60
_cell_length_a 27.554665
_cell_length_b 11.703939
_cell_length_c 8.909411
_cell_angle_alpha 90.000000
_cell_angle_beta 90.000000
_cell_angle_gamma 90.000000
_cell_volume 2873.268283
_symmetry_space_group_name_H-M "P C C N"
_symmetry_group_IT_number 56
_symmetry_cell_setting 'orthorhombic'
loop_
_space_group_symop_operation_xyz
x,y,z
1/2-x,1/2-y,z
1/2+x,-y,1/2-z
-x,1/2+y,1/2-z
-x,-y,-z
1/2+x,1/2+y,-z
1/2-x,y,1/2+z
x,1/2-y,1/2+z
loop_
_atom_site_type_symbol
_atom_site_label
_atom_site_fract_x
_atom_site_fract_y
_atom_site_fract_z
Si Si1 0.362219 0.006402 0.242223
Si Si2 0.725596 0.088438 0.883573
Si Si3 0.070200 0.183680 0.581715
Si Si4 0.905615 0.220583 0.404047
Si Si5 0.659861 0.052194 0.417726
Si Si6 0.962608 0.361985 0.187034
Si Si7 0.250000 0.750000 0.868892
Si Si8 0.413936 0.408329 0.252024
O O1 0.312245 0.010962 0.145382
O O2 0.386739 0.887044 0.190524
O O3 0.351382 0.000419 0.418679
O O4 0.396595 0.108793 0.193035
O O5 0.782468 0.059743 0.893812
O O6 0.719413 0.169501 0.738758
O O7 0.717516 0.167975 0.028170
O O8 0.085384 0.152422 0.413083
O O9 0.075709 0.315532 0.624839
O O10 0.014740 0.149863 0.613138
O O11 0.866615 0.323891 0.411630
O O12 0.952729 0.276475 0.324605
O O13 0.921736 0.172371 0.564894
O O14 0.635474 0.973714 0.290929
O O15 0.953510 0.490737 0.240828
#
# Coordination Sequence:
#
# PCOD9430696 Si02
#       8
#     8   8   8   8   8   8   4   8
#     4  12  25  41  65  98 142 181 229 285 342 416
#     4  11  23  37  64  98 141 180 227 278 356 418
#     4  12  26  45  71  96 138 185 240 285 350 407
#     4  11  22  40  67 103 140 176 222 281 351 421
#     4  11  25  43  66 102 140 183 228 285 351 420
#     4  11  24  43  71 102 142 181 226 290 351 421
#     4  10  20  36  62  96 136 180 214 278 352 422
#     4  11  26  45  70  97 134 181 235 287 342 411
#
# _framework density 20.882144
#
# number of rings (size 3 to 8) (size 9 to 14) (size 15 to 20)
#    0.000    0.800    4.000    3.600    3.733    0.000 
#    0.000    4.000    0.000    3.200    0.000    0.000 
#    0.000    0.000    0.000    0.000    0.000    0.000 
#
# Total GULP energy -335638.400470 kJ/mol
# GULP energy per Si atom -5593.973341 kJ/mol
# Density = 2.083461 g / cm^3
# Si number density = 20.882144 Si / 1000 Ang^3
#
#
#
# Elastic Constant Matrix: (Units=GPa)
#
#
# Indices 1 2 3 4 5 6 
#
# 1 110.2527 38.4829 8.8449 0.0000 0.0000 0.0000
# 2 38.4829 96.3372 13.5240 0.0000 0.0000 0.0000
# 3 8.8449 13.5240 48.0370 0.0000 0.0000 0.0000
# 4 0.0000 0.0000 0.0000 41.8525 0.0000 0.0000
# 5 0.0000 0.0000 0.0000 0.0000 17.3274 0.0000
# 6 0.0000 0.0000 0.0000 0.0000 0.0000 26.0284
#
#
#
# Elastic Compliance Matrix: (Units=1/GPa)
#
#
# Indices 1 2 3 4 5 6 
#
# 1 0.010568 -0.004111 -0.000789 0.000000 0.000000 0.000000
# 2 -0.004111 0.012406 -0.002736 0.000000 0.000000 0.000000
# 3 -0.000789 -0.002736 0.021733 0.000000 0.000000 0.000000
# 4 0.000000 0.000000 0.000000 0.023893 0.000000 0.000000
# 5 0.000000 0.000000 0.000000 0.000000 0.057712 0.000000
# 6 0.000000 0.000000 0.000000 0.000000 0.000000 0.038420
#
#
# Mechanical properties :
#
#
# Convention : Reuss Voigt Hill
#
# Bulk Modulus (GPa) = 33.97120 41.81450 37.89285
# Shear Modulus (GPa) = 26.34143 29.96002 28.15073
#
# Velocity S-wave (km/s) = 3.55552 3.79188 3.67560
# Velocity P-wave (km/s) = 5.75839 6.26408 6.01655
#
# Compressibility (1/GPa) = 0.02943670
#
# Stress axis : x y z
#
# Youngs Moduli (GPa) = 94.62344 80.60352 46.01361
#
# Poissons Ratio (x) = 0.33135 0.03628
# Poissons Ratio (y) = 0.38899 0.12589
# Poissons Ratio (z) = 0.07461 0.22052
#
# Static dielectric constant tensor:
#      x y z
#    x 1.768110 0.000000 0.000000 
#    y 0.000000 1.735580 0.000000 
#    z 0.000000 0.000000 1.774880 
# 
# From -- ./inp_files/4971.got.cif
#   From: 2010.05.17/outbox.cif.g08.bks.cpg/sg56_3_cif.got.tgz:4971.got - 2010.06.03 13:42:01.
