data_PCOD9430518
_publ_section_title
;
Structure prediction by ZEFSAII (Michael W. Deem and Ramdas Pophale) SiO2 
 PCOD9430518
Probable space group: P C C N
;
_chemical_formula_sum "Si O2"
_cell_formula_units_Z 60
_cell_length_a 15.549665
_cell_length_b 16.517061
_cell_length_c 10.146822
_cell_angle_alpha 90.000000
_cell_angle_beta 90.000000
_cell_angle_gamma 90.000000
_cell_volume 2606.056647
_symmetry_space_group_name_H-M "P C C N"
_symmetry_group_IT_number 56
_symmetry_cell_setting 'orthorhombic'
loop_
_space_group_symop_operation_xyz
x,y,z
1/2-x,1/2-y,z
1/2+x,-y,1/2-z
-x,1/2+y,1/2-z
-x,-y,-z
1/2+x,1/2+y,-z
1/2-x,y,1/2+z
x,1/2-y,1/2+z
loop_
_atom_site_type_symbol
_atom_site_label
_atom_site_fract_x
_atom_site_fract_y
_atom_site_fract_z
Si Si1 0.528509 0.907148 0.870065
Si Si2 0.089126 0.345610 0.754236
Si Si3 0.768230 0.094342 0.726545
Si Si4 0.050994 0.260092 0.495564
Si Si5 0.110213 0.634223 0.554887
Si Si6 0.750000 0.250000 0.073026
Si Si7 0.861371 0.983731 0.581183
Si Si8 0.919600 0.052529 0.216114
O O1 0.516335 0.813255 0.908450
O O2 0.441581 0.953358 0.913738
O O3 0.552851 0.959558 0.740054
O O4 0.612178 0.930414 0.957834
O O5 0.099537 0.313973 0.605787
O O6 0.145989 0.421313 0.797352
O O7 0.993145 0.385792 0.768682
O O8 0.098492 0.278641 0.869390
O O9 0.785972 0.183011 0.671091
O O10 0.778129 0.037371 0.598404
O O11 0.672393 0.078466 0.779016
O O12 0.845604 0.084556 0.828724
O O13 0.975659 0.313062 0.428815
O O14 0.180506 0.701536 0.511102
O O15 0.089248 0.574442 0.435787
#
# Coordination Sequence:
#
# PCOD9430518 Si02
#       8
#     8   8   8   8   8   4   8   8
#     4   9  18  36  59  74 105 155 197 226 267 348
#     4   9  20  38  55  84 112 145 198 235 280 339
#     4  11  22  34  54  82 120 154 176 232 286 336
#     4  10  20  34  57  80 109 144 191 243 278 326
#     4  10  22  32  48  84 115 143 183 229 276 340
#     4  10  22  32  48  78 116 162 180 198 276 360
#     4   9  19  35  56  80 107 153 191 228 278 337
#     4   9  21  36  51  81 114 148 190 221 274 357
#
# _framework density 23.023291
#
# number of rings (size 3 to 8) (size 9 to 14) (size 15 to 20)
#    0.000    2.400    0.000    2.000   13.067    0.000 
#    2.400    2.000    0.000    0.800    0.000    3.733 
#    0.000    0.000    0.000    0.000    0.000    0.000 
#
# Total GULP energy -334228.328085 kJ/mol
# GULP energy per Si atom -5570.472135 kJ/mol
# Density = 2.297089 g / cm^3
# Si number density = 23.023291 Si / 1000 Ang^3
#
#
#
# Elastic Constant Matrix: (Units=GPa)
#
#
# Indices 1 2 3 4 5 6 
#
# 1 14.7814 13.5528 4.1356 0.0000 0.0000 0.0000
# 2 13.5528 57.7728 11.8866 0.0000 0.0000 0.0000
# 3 4.1356 11.8866 57.8296 0.0000 0.0000 0.0000
# 4 0.0000 0.0000 0.0000 35.4081 0.0000 0.0000
# 5 0.0000 0.0000 0.0000 0.0000 3.7952 0.0000
# 6 0.0000 0.0000 0.0000 0.0000 0.0000 22.7355
#
#
#
# Elastic Compliance Matrix: (Units=1/GPa)
#
#
# Indices 1 2 3 4 5 6 
#
# 1 0.086436 -0.019844 -0.002102 0.000000 0.000000 0.000000
# 2 -0.019844 0.022629 -0.003232 0.000000 0.000000 0.000000
# 3 -0.002102 -0.003232 0.018107 0.000000 0.000000 0.000000
# 4 0.000000 0.000000 0.000000 0.028242 0.000000 0.000000
# 5 0.000000 0.000000 0.000000 0.000000 0.263488 0.000000
# 6 0.000000 0.000000 0.000000 0.000000 0.000000 0.043984
#
#
# Mechanical properties :
#
#
# Convention : Reuss Voigt Hill
#
# Bulk Modulus (GPa) = 13.01841 21.05933 17.03887
# Shear Modulus (GPa) = 9.27903 19.10836 14.19370
#
# Velocity S-wave (km/s) = 2.00973 2.88402 2.48562
# Velocity P-wave (km/s) = 3.32447 4.50077 3.95658
#
# Compressibility (1/GPa) = 0.07681428
#
# Stress axis : x y z
#
# Youngs Moduli (GPa) = 11.56929 44.19021 55.22758
#
# Poissons Ratio (x) = 0.87692 0.11611
# Poissons Ratio (y) = 0.22958 0.17851
# Poissons Ratio (z) = 0.02432 0.14283
#
# Static dielectric constant tensor:
#      x y z
#    x 1.865720 0.000000 0.000000 
#    y 0.000000 1.865140 0.000000 
#    z 0.000000 0.000000 1.995310 
# 
# From -- ./inp_files/8397.got.cif
#   From: 2010.05.17/outbox.cif.g08.bks.cpg/sg56_5_cif.got.tgz:8397.got - 2010.06.03 13:42:01.
