data_PCOD9430639
_publ_section_title
;
Structure prediction by ZEFSAII (Michael W. Deem and Ramdas Pophale) SiO2 
 PCOD9430639
Probable space group: P C C N
;
_chemical_formula_sum "Si O2"
_cell_formula_units_Z 60
_cell_length_a 24.047187
_cell_length_b 14.546332
_cell_length_c 8.912477
_cell_angle_alpha 90.000000
_cell_angle_beta 90.000000
_cell_angle_gamma 90.000000
_cell_volume 3117.569890
_symmetry_space_group_name_H-M "P C C N"
_symmetry_group_IT_number 56
_symmetry_cell_setting 'orthorhombic'
loop_
_space_group_symop_operation_xyz
x,y,z
1/2-x,1/2-y,z
1/2+x,-y,1/2-z
-x,1/2+y,1/2-z
-x,-y,-z
1/2+x,1/2+y,-z
1/2-x,y,1/2+z
x,1/2-y,1/2+z
loop_
_atom_site_type_symbol
_atom_site_label
_atom_site_fract_x
_atom_site_fract_y
_atom_site_fract_z
Si Si1 0.957962 0.579934 0.043479
Si Si2 0.948090 0.541425 0.401077
Si Si3 0.727137 0.117924 0.811024
Si Si4 0.250000 0.750000 0.444196
Si Si5 0.073748 0.723544 0.233986
Si Si6 0.495052 0.284679 0.995961
Si Si7 0.857458 0.403527 0.282515
Si Si8 0.125744 0.547002 0.067398
O O1 0.956201 0.569565 0.224983
O O2 0.975224 0.680282 0.992742
O O3 0.904788 0.549571 0.947072
O O4 0.000000 0.500000 0.000000
O O5 0.946491 0.642072 0.477993
O O6 0.896959 0.468710 0.386095
O O7 0.000000 0.500000 0.500000
O O8 0.719807 0.176478 0.660489
O O9 0.791944 0.091613 0.821632
O O10 0.682054 0.040601 0.836737
O O11 0.713752 0.188766 0.945686
O O12 0.122967 0.797404 0.221455
O O13 0.090376 0.631014 0.143156
O O14 0.048273 0.697495 0.394767
O O15 0.022734 0.783190 0.166709
O O16 0.864513 0.432139 0.108702
#
# Coordination Sequence:
#
# PCOD9430639 Si02
#       8
#     8   8   8   4   8   8   8   8
#     4  11  22  41  59  86 121 161 202 247 308 368
#     4  11  23  39  61  88 118 160 203 252 304 365
#     4  11  22  38  54  85 119 161 200 250 295 366
#     4  10  20  36  56  80 124 152 196 238 302 360
#     4  12  21  35  59  86 123 159 192 239 302 365
#     4  12  22  38  59  90 122 156 198 251 301 362
#     4  11  23  38  58  84 123 159 204 246 302 364
#     4  11  23  39  60  82 120 168 200 244 303 366
#
# _framework density 19.245757999999999
#
# number of rings (size 3 to 8) (size 9 to 14) (size 15 to 20)
#    0.000    0.800    6.667    2.400    0.000    1.067 
#    2.400    0.000    0.000    0.800    0.000    3.733 
#    0.000    0.000    0.000    0.000    0.000    0.000 
#
# Total GULP energy -334162.479148 kJ/mol
# GULP energy per Si atom -5569.374652 kJ/mol
# Density = 1.920195 g / cm^3
# Si number density = 19.245758 Si / 1000 Ang^3
#
#
#
# Elastic Constant Matrix: (Units=GPa)
#
#
# Indices 1 2 3 4 5 6 
#
# 1 87.9595 41.7577 14.2128 0.0000 0.0000 0.0000
# 2 41.7577 93.4726 12.3192 0.0000 0.0000 0.0000
# 3 14.2128 12.3192 70.9792 0.0000 0.0000 0.0000
# 4 0.0000 0.0000 0.0000 25.3300 0.0000 0.0000
# 5 0.0000 0.0000 0.0000 0.0000 22.0202 0.0000
# 6 0.0000 0.0000 0.0000 0.0000 0.0000 30.0393
#
#
#
# Elastic Compliance Matrix: (Units=1/GPa)
#
#
# Indices 1 2 3 4 5 6 
#
# 1 0.014660 -0.006307 -0.001841 0.000000 0.000000 0.000000
# 2 -0.006307 0.013662 -0.001108 0.000000 0.000000 0.000000
# 3 -0.001841 -0.001108 0.014650 0.000000 0.000000 0.000000
# 4 0.000000 0.000000 0.000000 0.039479 0.000000 0.000000
# 5 0.000000 0.000000 0.000000 0.000000 0.045413 0.000000
# 6 0.000000 0.000000 0.000000 0.000000 0.000000 0.033290
#
#
# Mechanical properties :
#
#
# Convention : Reuss Voigt Hill
#
# Bulk Modulus (GPa) = 40.88333 43.22119 42.05226
# Shear Modulus (GPa) = 26.62144 27.75267 27.18706
#
# Velocity S-wave (km/s) = 3.72322 3.80151 3.76257
# Velocity P-wave (km/s) = 6.30651 6.46335 6.38541
#
# Compressibility (1/GPa) = 0.02445984
#
# Stress axis : x y z
#
# Youngs Moduli (GPa) = 68.21109 73.19663 68.26108
#
# Poissons Ratio (x) = 0.46163 0.12567
# Poissons Ratio (y) = 0.43019 0.07566
# Poissons Ratio (z) = 0.12557 0.08113
#
# Static dielectric constant tensor:
#      x y z
#    x 1.828780 0.000000 0.000000 
#    y 0.000000 1.661210 0.000000 
#    z 0.000000 0.000000 1.828150 
# 
# From -- ./inp_files/4806.got.cif
#   From: 2010.05.17/outbox.cif.g08.bks.cpg/sg56_3_cif.got.tgz:4806.got - 2010.06.03 13:42:01.
