data_PCOD9430207
_publ_section_title
;
Structure prediction by ZEFSAII (Michael W. Deem and Ramdas Pophale) SiO2 
 PCOD9430207
Probable space group: P C C N
;
_chemical_formula_sum "Si O2"
_cell_formula_units_Z 48
_cell_length_a 19.106515
_cell_length_b 7.469044
_cell_length_c 14.044868
_cell_angle_alpha 90.000000
_cell_angle_beta 90.000000
_cell_angle_gamma 90.000000
_cell_volume 2004.306613
_symmetry_space_group_name_H-M "P C C N"
_symmetry_group_IT_number 56
_symmetry_cell_setting 'orthorhombic'
loop_
_space_group_symop_operation_xyz
x,y,z
1/2-x,1/2-y,z
1/2+x,-y,1/2-z
-x,1/2+y,1/2-z
-x,-y,-z
1/2+x,1/2+y,-z
1/2-x,y,1/2+z
x,1/2-y,1/2+z
loop_
_atom_site_type_symbol
_atom_site_label
_atom_site_fract_x
_atom_site_fract_y
_atom_site_fract_z
Si Si1 0.276875 0.955541 0.280287
Si Si2 0.502631 0.362510 0.142613
Si Si3 0.647310 0.943080 0.332827
Si Si4 0.173783 0.327351 0.451609
Si Si5 0.524078 0.733112 0.566826
Si Si6 0.097870 0.660743 0.184310
O O1 0.250000 0.750000 0.288824
O O2 0.209483 0.066898 0.243817
O O3 0.336787 0.969475 0.198789
O O4 0.317690 0.012077 0.375703
O O5 0.426746 0.352949 0.193471
O O6 0.515526 0.571286 0.116716
O O7 0.562072 0.300793 0.213902
O O8 0.498735 0.263724 0.042014
O O9 0.631200 0.153426 0.348537
O O10 0.664835 0.878538 0.438522
O O11 0.250000 0.250000 0.442829
O O12 0.107099 0.201418 0.428310
O O13 0.466858 0.608401 0.617354
#
# Coordination Sequence:
#
# PCOD9430207 Si02
#       6
#     8   8   8   8   8   8
#     4  10  22  40  63  95 126 172 217 269 323 386
#     4   9  17  36  62  84 121 163 206 259 330 375
#     4   9  22  40  57  91 127 167 213 265 321 388
#     4  11  23  41  64  91 130 176 214 262 330 390
#     4   9  19  36  59  90 121 164 209 263 318 382
#     4  10  19  35  65  92 121 166 215 265 327 379
#
# _framework density 23.948433000000001
#
# number of rings (size 3 to 8) (size 9 to 14) (size 15 to 20)
#    0.000    2.333    1.667    1.000    2.333    2.667 
#    6.000    0.000    0.000    5.000    0.000    0.000 
#    0.000    0.000    0.000    0.000    0.000    0.000 
#
# Total GULP energy -268189.845028 kJ/mol
# GULP energy per Si atom -5587.288438 kJ/mol
# Density = 2.389392 g / cm^3
# Si number density = 23.948433 Si / 1000 Ang^3
#
#
#
# Elastic Constant Matrix: (Units=GPa)
#
#
# Indices 1 2 3 4 5 6 
#
# 1 151.3297 1.4099 20.3519 0.0000 0.0000 0.0000
# 2 1.4099 31.0484 2.9153 0.0000 0.0000 0.0000
# 3 20.3519 2.9153 54.2483 0.0000 0.0000 0.0000
# 4 0.0000 0.0000 0.0000 18.5859 0.0000 0.0000
# 5 0.0000 0.0000 0.0000 0.0000 -10.6328 0.0000
# 6 0.0000 0.0000 0.0000 0.0000 0.0000 26.2426
#
#
#
# Elastic Compliance Matrix: (Units=1/GPa)
#
#
# Indices 1 2 3 4 5 6 
#
# 1 0.006959 -0.000071 -0.002607 0.000000 0.000000 0.000000
# 2 -0.000071 0.032372 -0.001713 0.000000 0.000000 0.000000
# 3 -0.002607 -0.001713 0.019504 0.000000 0.000000 0.000000
# 4 0.000000 0.000000 0.000000 0.053804 0.000000 0.000000
# 5 0.000000 0.000000 0.000000 0.000000 -0.094048 0.000000
# 6 0.000000 0.000000 0.000000 0.000000 0.000000 0.038106
#
#
# Mechanical properties :
#
#
# Convention : Reuss Voigt Hill
#
# Bulk Modulus (GPa) = 19.97896 31.77560 25.87728
# Shear Modulus (GPa) = 60.85419 20.96909 40.91164
#
# Velocity S-wave (km/s) = 5.04635 2.96225 4.13767
# Velocity P-wave (km/s) = 6.50499 4.99971 5.80138
#
# Compressibility (1/GPa) = 0.05005265
#
# Stress axis : x y z
#
# Youngs Moduli (GPa) = 143.69122 30.89107 51.27184
#
# Poissons Ratio (x) = 0.00220 0.13367
# Poissons Ratio (y) = 0.01023 0.08782
# Poissons Ratio (z) = 0.37461 0.05291
#
# Static dielectric constant tensor:
#      x y z
#    x 1.953910 0.000000 0.000000 
#    y 0.000000 1.988430 0.000000 
#    z 0.000000 0.000000 1.912190 
# 
# From -- ./inp_files/12679.got.cif
#   From: 2010.05.17/outbox.cif.g08.bks.cpg/sg56_7_cif.got.tgz:12679.got - 2010.06.03 13:42:01.
