data_PCOD9430230
_publ_section_title
;
Structure prediction by ZEFSAII (Michael W. Deem and Ramdas Pophale) SiO2 
 PCOD9430230
Probable space group: P C C N
;
_chemical_formula_sum "Si O2"
_cell_formula_units_Z 60
_cell_length_a 11.578190
_cell_length_b 22.606720
_cell_length_c 9.624714
_cell_angle_alpha 90.000000
_cell_angle_beta 90.000000
_cell_angle_gamma 90.000000
_cell_volume 2519.219798
_symmetry_space_group_name_H-M "P C C N"
_symmetry_group_IT_number 56
_symmetry_cell_setting 'orthorhombic'
loop_
_space_group_symop_operation_xyz
x,y,z
1/2-x,1/2-y,z
1/2+x,-y,1/2-z
-x,1/2+y,1/2-z
-x,-y,-z
1/2+x,1/2+y,-z
1/2-x,y,1/2+z
x,1/2-y,1/2+z
loop_
_atom_site_type_symbol
_atom_site_label
_atom_site_fract_x
_atom_site_fract_y
_atom_site_fract_z
Si Si1 0.519290 0.301798 0.197819
Si Si2 0.702896 0.938227 0.141532
Si Si3 0.250000 0.750000 0.242395
Si Si4 0.190670 0.134575 0.093062
Si Si5 0.250853 0.930624 0.895918
Si Si6 0.474676 0.611437 0.547365
Si Si7 0.071846 0.322291 0.211509
Si Si8 0.136118 0.632603 0.633398
O O1 0.646227 0.276767 0.165844
O O2 0.426086 0.327934 0.091909
O O3 0.537730 0.352505 0.311280
O O4 0.453244 0.244275 0.257658
O O5 0.682059 0.921360 0.301801
O O6 0.767127 0.999936 0.123963
O O7 0.770400 0.887451 0.056977
O O8 0.578020 0.935133 0.067574
O O9 0.306900 0.697804 0.150806
O O10 0.295367 0.169405 0.168894
O O11 0.360975 0.920095 0.995280
O O12 0.292238 0.904577 0.748869
O O13 0.151983 0.896439 0.982010
O O14 0.508756 0.660979 0.434080
O O15 0.996004 0.363878 0.313511
#
# Coordination Sequence:
#
# PCOD9430230 Si02
#       8
#     8   8   4   8   8   8   8   8
#     4  10  19  36  60  86 117 156 199 249 305 371
#     4  10  21  37  61  85 118 160 209 256 298 363
#     4  10  20  40  56  92 118 152 196 248 306 372
#     4  10  21  39  59  88 120 157 205 250 308 364
#     4  11  20  39  58  86 118 160 207 254 306 359
#     4   9  19  36  58  83 115 162 207 244 304 370
#     4   9  20  37  55  86 122 157 196 252 309 372
#     4  10  22  37  60  85 121 157 200 251 309 369
#
# _framework density 23.816897999999998
#
# number of rings (size 3 to 8) (size 9 to 14) (size 15 to 20)
#    0.000    2.133    1.333    1.600    0.000    1.600 
#    9.600    4.667    0.000    0.000    0.000    0.000 
#    0.000    0.000    0.000    0.000    0.000    0.000 
#
# Total GULP energy -335179.682515 kJ/mol
# GULP energy per Si atom -5586.328042 kJ/mol
# Density = 2.376269 g / cm^3
# Si number density = 23.816898 Si / 1000 Ang^3
#
#
#
# Elastic Constant Matrix: (Units=GPa)
#
#
# Indices 1 2 3 4 5 6 
#
# 1 128.7698 17.8616 18.6510 0.0000 0.0000 0.0000
# 2 17.8616 83.7622 12.6939 0.0000 0.0000 0.0000
# 3 18.6510 12.6939 101.2760 0.0000 0.0000 0.0000
# 4 0.0000 0.0000 0.0000 13.0495 0.0000 0.0000
# 5 0.0000 0.0000 0.0000 0.0000 27.6212 0.0000
# 6 0.0000 0.0000 0.0000 0.0000 0.0000 24.1924
#
#
#
# Elastic Compliance Matrix: (Units=1/GPa)
#
#
# Indices 1 2 3 4 5 6 
#
# 1 0.008170 -0.001543 -0.001311 0.000000 0.000000 0.000000
# 2 -0.001543 0.012461 -0.001278 0.000000 0.000000 0.000000
# 3 -0.001311 -0.001278 0.010276 0.000000 0.000000 0.000000
# 4 0.000000 0.000000 0.000000 0.076631 0.000000 0.000000
# 5 0.000000 0.000000 0.000000 0.000000 0.036204 0.000000
# 6 0.000000 0.000000 0.000000 0.000000 0.000000 0.041335
#
#
# Mechanical properties :
#
#
# Convention : Reuss Voigt Hill
#
# Bulk Modulus (GPa) = 44.16511 45.80233 44.98372
# Shear Modulus (GPa) = 24.88932 30.61271 27.75101
#
# Velocity S-wave (km/s) = 3.23620 3.58905 3.41718
# Velocity P-wave (km/s) = 5.70507 6.03720 5.87348
#
# Compressibility (1/GPa) = 0.02264231
#
# Stress axis : x y z
#
# Youngs Moduli (GPa) = 122.40225 80.24835 97.31791
#
# Poissons Ratio (x) = 0.12386 0.12759
# Poissons Ratio (y) = 0.18892 0.12434
# Poissons Ratio (z) = 0.16048 0.10253
#
# Static dielectric constant tensor:
#      x y z
#    x 1.925920 0.000000 0.000000 
#    y 0.000000 1.894590 0.000000 
#    z 0.000000 0.000000 1.897140 
# 
# From -- ./inp_files/7331.got.cif
#   From: 2010.05.17/outbox.cif.g08.bks.cpg/sg56_4_cif.got.tgz:7331.got - 2010.06.03 13:42:01.
