data_PCOD9430034
_publ_section_title
;
Structure prediction by ZEFSAII (Michael W. Deem and Ramdas Pophale) SiO2 
 PCOD9430034
Probable space group: P C C N
;
_chemical_formula_sum "Si O2"
_cell_formula_units_Z 64
_cell_length_a 14.237437
_cell_length_b 12.891960
_cell_length_c 19.729265
_cell_angle_alpha 90.000000
_cell_angle_beta 90.000000
_cell_angle_gamma 90.000000
_cell_volume 3621.276372
_symmetry_space_group_name_H-M "P C C N"
_symmetry_group_IT_number 56
_symmetry_cell_setting 'orthorhombic'
loop_
_space_group_symop_operation_xyz
x,y,z
1/2-x,1/2-y,z
1/2+x,-y,1/2-z
-x,1/2+y,1/2-z
-x,-y,-z
1/2+x,1/2+y,-z
1/2-x,y,1/2+z
x,1/2-y,1/2+z
loop_
_atom_site_type_symbol
_atom_site_label
_atom_site_fract_x
_atom_site_fract_y
_atom_site_fract_z
Si Si1 0.354225 0.703530 0.868989
Si Si2 0.757502 0.478044 0.697033
Si Si3 0.464945 0.790077 0.140979
Si Si4 0.077666 0.836575 0.493971
Si Si5 0.071409 0.852745 0.263630
Si Si6 0.320150 0.341459 0.395220
Si Si7 0.871109 0.563519 0.970798
Si Si8 0.106071 0.016479 0.683155
O O1 0.250000 0.750000 0.863222
O O2 0.332391 0.585381 0.849487
O O3 0.420221 0.752305 0.811742
O O4 0.392355 0.752600 0.938503
O O5 0.672145 0.409281 0.728145
O O6 0.707987 0.559974 0.648841
O O7 0.815540 0.525179 0.759243
O O8 0.420137 0.781843 0.066673
O O9 0.447626 0.692384 0.189184
O O10 0.574640 0.809894 0.125927
O O11 0.421997 0.895699 0.172669
O O12 0.975068 0.885404 0.478218
O O13 0.134856 0.944823 0.500972
O O14 0.987535 0.923526 0.292416
O O15 0.250000 0.250000 0.378808
O O16 0.313214 0.369661 0.475114
O O17 0.857212 0.557194 0.890020
#
# Coordination Sequence:
#
# PCOD9430034 Si02
#       8
#     8   8   8   8   8   8   8   8
#     4  10  19  32  55  85 116 152 189 247 302 349
#     4  11  23  37  61  91 121 160 205 255 309 362
#     4  10  21  37  61  86 118 164 198 250 305 360
#     4   9  17  34  57  85 109 147 203 241 296 358
#     4  11  20  38  59  87 127 156 202 255 299 368
#     4  11  22  41  62  86 121 161 208 244 306 379
#     4   9  18  34  61  83 108 153 201 247 287 353
#     4  11  20  37  63  88 120 157 204 251 304 359
#
# _framework density 17.673325999999999
#
# number of rings (size 3 to 8) (size 9 to 14) (size 15 to 20)
#    0.000    1.750    3.750    3.000    0.000    0.000 
#    6.750    1.875    5.500    3.750    0.000    0.000 
#    0.000    0.000    0.000    0.000    0.000    0.000 
#
# Total GULP energy -356418.580045 kJ/mol
# GULP energy per Si atom -5569.040313 kJ/mol
# Density = 1.763310 g / cm^3
# Si number density = 17.673326 Si / 1000 Ang^3
#
#
#
# Elastic Constant Matrix: (Units=GPa)
#
#
# Indices 1 2 3 4 5 6 
#
# 1 50.8793 17.5466 25.9981 0.0000 0.0000 0.0000
# 2 17.5466 57.3605 43.0145 0.0000 0.0000 0.0000
# 3 25.9981 43.0145 120.9687 0.0000 0.0000 0.0000
# 4 0.0000 0.0000 0.0000 13.4830 0.0000 0.0000
# 5 0.0000 0.0000 0.0000 0.0000 26.1952 0.0000
# 6 0.0000 0.0000 0.0000 0.0000 0.0000 19.8395
#
#
#
# Elastic Compliance Matrix: (Units=1/GPa)
#
#
# Indices 1 2 3 4 5 6 
#
# 1 0.022908 -0.004521 -0.003316 0.000000 0.000000 0.000000
# 2 -0.004521 0.024665 -0.007799 0.000000 0.000000 0.000000
# 3 -0.003316 -0.007799 0.011752 0.000000 0.000000 0.000000
# 4 0.000000 0.000000 0.000000 0.074167 0.000000 0.000000
# 5 0.000000 0.000000 0.000000 0.000000 0.038175 0.000000
# 6 0.000000 0.000000 0.000000 0.000000 0.000000 0.050405
#
#
# Mechanical properties :
#
#
# Convention : Reuss Voigt Hill
#
# Bulk Modulus (GPa) = 35.64562 44.70299 40.17430
# Shear Modulus (GPa) = 19.03355 21.41349 20.22352
#
# Velocity S-wave (km/s) = 3.28527 3.48462 3.38641
# Velocity P-wave (km/s) = 5.88249 6.44508 6.17020
#
# Compressibility (1/GPa) = 0.02805394
#
# Stress axis : x y z
#
# Youngs Moduli (GPa) = 43.65339 40.54342 85.08976
#
# Poissons Ratio (x) = 0.18330 0.28212
# Poissons Ratio (y) = 0.19736 0.66360
# Poissons Ratio (z) = 0.14474 0.31619
#
# Static dielectric constant tensor:
#      x y z
#    x 1.589670 0.000000 0.000000 
#    y 0.000000 1.617500 0.000000 
#    z 0.000000 0.000000 1.622630 
# 
# From -- ./inp_files/16357.got.cif
#   From: 2010.05.17/outbox.cif.g08.bks.cpg/sg56_9_cif.got.tgz:16357.got - 2010.06.03 13:42:01.
