data_PCOD9430983
_publ_section_title
;
Structure prediction by ZEFSAII (Michael W. Deem and Ramdas Pophale) SiO2 
 PCOD9430983
Probable space group: P C C N
;
_chemical_formula_sum "Si O2"
_cell_formula_units_Z 60
_cell_length_a 9.043965
_cell_length_b 13.875514
_cell_length_c 25.304589
_cell_angle_alpha 90.000000
_cell_angle_beta 90.000000
_cell_angle_gamma 90.000000
_cell_volume 3175.464345
_symmetry_space_group_name_H-M "P C C N"
_symmetry_group_IT_number 56
_symmetry_cell_setting 'orthorhombic'
loop_
_space_group_symop_operation_xyz
x,y,z
1/2-x,1/2-y,z
1/2+x,-y,1/2-z
-x,1/2+y,1/2-z
-x,-y,-z
1/2+x,1/2+y,-z
1/2-x,y,1/2+z
x,1/2-y,1/2+z
loop_
_atom_site_type_symbol
_atom_site_label
_atom_site_fract_x
_atom_site_fract_y
_atom_site_fract_z
Si Si1 0.053880 0.343415 0.979947
Si Si2 0.205487 0.442583 0.326897
Si Si3 0.250000 0.250000 0.892572
Si Si4 0.174444 0.998561 0.551381
Si Si5 0.225880 0.363246 0.211832
Si Si6 0.039825 0.910213 0.359555
Si Si7 0.059246 0.448262 0.622495
Si Si8 0.588599 0.268155 0.069737
O O1 0.119341 0.287315 0.930548
O O2 0.900880 0.399110 0.966838
O O3 0.163884 0.427078 0.002091
O O4 0.029601 0.268512 0.027249
O O5 0.213146 0.341021 0.356674
O O6 0.241286 0.422579 0.265712
O O7 0.326696 0.518397 0.347690
O O8 0.046189 0.485304 0.342242
O O9 0.332747 0.998572 0.580314
O O10 0.060472 0.041253 0.594872
O O11 0.250000 0.250000 0.222012
O O12 0.336265 0.392251 0.164231
O O13 0.063403 0.388369 0.190154
O O14 0.088357 0.807187 0.381938
O O15 0.957439 0.372491 0.590434
O O16 0.750000 0.250000 0.045650
#
# Coordination Sequence:
#
# PCOD9430983 Si02
#       8
#     8   8   4   8   8   8   8   8
#     4  10  21  38  61  90 127 170 207 246 317 378
#     4  12  24  41  61  91 127 160 208 257 319 369
#     4  12  24  40  62  86 124 172 204 252 308 390
#     4   9  20  38  63  90 121 166 206 251 309 371
#     4  11  22  40  66  92 120 162 208 254 317 384
#     4  10  20  39  64  84 124 160 197 255 307 365
#     4  11  23  39  66  95 124 160 216 266 309 375
#     4  11  21  37  62  94 123 158 207 263 305 361
#
# _framework density 18.894874999999999
#
# number of rings (size 3 to 8) (size 9 to 14) (size 15 to 20)
#    0.000    1.333    4.667    1.600    0.000    1.067 
#    0.000    2.000    0.000    0.000    0.000    0.000 
#    0.000    0.000    0.000    0.000    0.000    0.000 
#
# Total GULP energy -334881.976489 kJ/mol
# GULP energy per Si atom -5581.366275 kJ/mol
# Density = 1.885187 g / cm^3
# Si number density = 18.894875 Si / 1000 Ang^3
#
#
#
# Elastic Constant Matrix: (Units=GPa)
#
#
# Indices 1 2 3 4 5 6 
#
# 1 69.2984 20.7282 1.4815 0.0000 0.0000 0.0000
# 2 20.7282 63.8780 15.8175 0.0000 0.0000 0.0000
# 3 1.4815 15.8175 54.7940 0.0000 0.0000 0.0000
# 4 0.0000 0.0000 0.0000 11.9868 0.0000 0.0000
# 5 0.0000 0.0000 0.0000 0.0000 21.5846 0.0000
# 6 0.0000 0.0000 0.0000 0.0000 0.0000 24.7384
#
#
#
# Elastic Compliance Matrix: (Units=1/GPa)
#
#
# Indices 1 2 3 4 5 6 
#
# 1 0.016049 -0.005493 0.001152 0.000000 0.000000 0.000000
# 2 -0.005493 0.018740 -0.005261 0.000000 0.000000 0.000000
# 3 0.001152 -0.005261 0.019738 0.000000 0.000000 0.000000
# 4 0.000000 0.000000 0.000000 0.083425 0.000000 0.000000
# 5 0.000000 0.000000 0.000000 0.000000 0.046329 0.000000
# 6 0.000000 0.000000 0.000000 0.000000 0.000000 0.040423
#
#
# Mechanical properties :
#
#
# Convention : Reuss Voigt Hill
#
# Bulk Modulus (GPa) = 28.31117 29.33609 28.82363
# Shear Modulus (GPa) = 19.55550 21.65820 20.60685
#
# Velocity S-wave (km/s) = 3.22057 3.38930 3.30601
# Velocity P-wave (km/s) = 5.37080 5.55663 5.46451
#
# Compressibility (1/GPa) = 0.03532175
#
# Stress axis : x y z
#
# Youngs Moduli (GPa) = 62.31018 53.36164 50.66426
#
# Poissons Ratio (x) = 0.29311 -0.05835
# Poissons Ratio (y) = 0.34227 0.26656
# Poissons Ratio (z) = -0.07177 0.28075
#
# Static dielectric constant tensor:
#      x y z
#    x 1.686160 0.000000 0.000000 
#    y 0.000000 1.643780 0.000000 
#    z 0.000000 0.000000 1.637430 
# 
# From -- ./inp_files/20622.got.cif
#   From: 2010.05.17/outbox.cif.g08.bks.cpg/sg56_11_cif.got.tgz:20622.got - 2010.06.03 13:42:01.
