data_PCOD9430002
_publ_section_title
;
Structure prediction by ZEFSAII (Michael W. Deem and Ramdas Pophale) SiO2 
 PCOD9430002
Probable space group: P C C N
;
_chemical_formula_sum "Si O2"
_cell_formula_units_Z 64
_cell_length_a 29.000257
_cell_length_b 5.586277
_cell_length_c 18.368976
_cell_angle_alpha 90.000000
_cell_angle_beta 90.000000
_cell_angle_gamma 90.000000
_cell_volume 2975.837828
_symmetry_space_group_name_H-M "P C C N"
_symmetry_group_IT_number 56
_symmetry_cell_setting 'orthorhombic'
loop_
_space_group_symop_operation_xyz
x,y,z
1/2-x,1/2-y,z
1/2+x,-y,1/2-z
-x,1/2+y,1/2-z
-x,-y,-z
1/2+x,1/2+y,-z
1/2-x,y,1/2+z
x,1/2-y,1/2+z
loop_
_atom_site_type_symbol
_atom_site_label
_atom_site_fract_x
_atom_site_fract_y
_atom_site_fract_z
Si Si1 0.460866 0.869380 0.181836
Si Si2 0.946963 0.906019 0.175993
Si Si3 0.497641 0.250073 0.068173
Si Si4 0.827103 0.277231 0.477799
Si Si5 0.150695 0.222434 0.362373
Si Si6 0.696997 0.224246 0.646752
Si Si7 0.431999 0.657723 0.039623
Si Si8 0.803112 0.772893 0.480460
O O1 0.433689 0.939815 0.253517
O O2 0.476600 0.085452 0.130079
O O3 0.509273 0.747593 0.202731
O O4 0.432727 0.705775 0.125924
O O5 0.903805 0.753612 0.148974
O O6 0.968132 0.070616 0.112945
O O7 0.455297 0.397809 0.033401
O O8 0.532157 0.172129 0.003493
O O9 0.803949 0.278249 0.557779
O O10 0.881687 0.295140 0.489485
O O11 0.813621 0.525559 0.439314
O O12 0.812553 0.026414 0.442239
O O13 0.174727 0.467303 0.332474
O O14 0.164308 0.221879 0.448123
O O15 0.169314 0.967386 0.332992
O O16 0.750000 0.250000 0.670101
O O17 0.750000 0.750000 0.504158
#
# Coordination Sequence:
#
# PCOD9430002 Si02
#       8
#     8   8   8   8   8   8   8   8
#     4  11  23  39  58  80 124 166 206 264 296 373
#     4  11  23  37  60  86 116 171 217 252 311 360
#     4  10  21  40  57  81 122 156 211 254 306 354
#     4  10  19  31  54  81 119 155 189 240 301 380
#     4  10  20  31  56  86 117 156 197 250 299 376
#     4  10  19  35  56  90 128 151 190 258 328 366
#     4  10  23  36  57  88 115 164 201 256 307 361
#     4  10  19  33  54  87 125 150 189 254 324 367
#
# _framework density 21.506549
#
# number of rings (size 3 to 8) (size 9 to 14) (size 15 to 20)
#    0.000    1.750    1.250    5.625    7.000    0.000 
#    0.000    0.000    0.000    0.000    0.000    5.250 
#    0.000    0.000    0.000    0.000    0.000    0.000 
#
# Total GULP energy -356964.476624 kJ/mol
# GULP energy per Si atom -5577.569947 kJ/mol
# Density = 2.145760 g / cm^3
# Si number density = 21.506549 Si / 1000 Ang^3
#
#
#
# Elastic Constant Matrix: (Units=GPa)
#
#
# Indices 1 2 3 4 5 6 
#
# 1 86.1211 7.2797 -0.4230 0.0000 0.0000 0.0000
# 2 7.2797 124.4416 -0.8743 0.0000 0.0000 0.0000
# 3 -0.4230 -0.8743 48.1915 0.0000 0.0000 0.0000
# 4 0.0000 0.0000 0.0000 12.2142 0.0000 0.0000
# 5 0.0000 0.0000 0.0000 0.0000 -0.2809 0.0000
# 6 0.0000 0.0000 0.0000 0.0000 0.0000 9.3974
#
#
#
# Elastic Compliance Matrix: (Units=1/GPa)
#
#
# Indices 1 2 3 4 5 6 
#
# 1 0.011670 -0.000682 0.000090 0.000000 0.000000 0.000000
# 2 -0.000682 0.008077 0.000141 0.000000 0.000000 0.000000
# 3 0.000090 0.000141 0.020754 0.000000 0.000000 0.000000
# 4 0.000000 0.000000 0.000000 0.081872 0.000000 0.000000
# 5 0.000000 0.000000 0.000000 0.000000 -3.559547 0.000000
# 6 0.000000 0.000000 0.000000 0.000000 0.000000 0.106413
#
#
# Mechanical properties :
#
#
# Convention : Reuss Voigt Hill
#
# Bulk Modulus (GPa) = 25.25416 30.07990 27.66703
# Shear Modulus (GPa) = -1.50754 21.11759 9.80502
#
# Velocity S-wave (km/s) = -0.83815 3.13695 2.13752
# Velocity P-wave (km/s) = 3.29111 5.20935 4.35711
#
# Compressibility (1/GPa) = 0.03959743
#
# Stress axis : x y z
#
# Youngs Moduli (GPa) = 85.69241 123.81165 48.18379
#
# Poissons Ratio (x) = 0.08444 -0.00434
# Poissons Ratio (y) = 0.05844 -0.00677
# Poissons Ratio (z) = -0.00772 -0.01740
#
# Static dielectric constant tensor:
#      x y z
#    x 1.760110 0.000000 0.000000 
#    y 0.000000 1.964720 0.000000 
#    z 0.000000 0.000000 1.770750 
# 
# From -- ./inp_files/19670.got.cif
#   From: 2010.05.17/outbox.cif.g08.bks.cpg/sg56_10_cif.got.tgz:19670.got - 2010.06.03 13:42:01.
