data_PCOD9430700
_publ_section_title
;
Structure prediction by ZEFSAII (Michael W. Deem and Ramdas Pophale) SiO2 
 PCOD9430700
Probable space group: P C C N
;
_chemical_formula_sum "Si O2"
_cell_formula_units_Z 44
_cell_length_a 13.549589
_cell_length_b 12.646582
_cell_length_c 10.148158
_cell_angle_alpha 90.000000
_cell_angle_beta 90.000000
_cell_angle_gamma 90.000000
_cell_volume 1738.947644
_symmetry_space_group_name_H-M "P C C N"
_symmetry_group_IT_number 56
_symmetry_cell_setting 'orthorhombic'
loop_
_space_group_symop_operation_xyz
x,y,z
1/2-x,1/2-y,z
1/2+x,-y,1/2-z
-x,1/2+y,1/2-z
-x,-y,-z
1/2+x,1/2+y,-z
1/2-x,y,1/2+z
x,1/2-y,1/2+z
loop_
_atom_site_type_symbol
_atom_site_label
_atom_site_fract_x
_atom_site_fract_y
_atom_site_fract_z
Si Si1 0.250000 0.250000 0.538396
Si Si2 0.956101 0.420968 0.189475
Si Si3 0.589571 0.898899 0.033324
Si Si4 0.600899 0.923006 0.419546
Si Si5 0.897671 0.212722 0.339718
Si Si6 0.379046 0.868471 0.432808
O O1 0.177513 0.180622 0.449798
O O2 0.317965 0.164656 0.613070
O O3 0.891912 0.481108 0.078488
O O4 0.940227 0.503464 0.304603
O O5 0.927807 0.309589 0.245374
O O6 0.061370 0.407064 0.120530
O O7 0.493051 0.850999 0.106840
O O8 0.499316 0.863918 0.456224
O O9 0.643301 0.011219 0.520221
O O10 0.847363 0.143993 0.221127
O O11 0.849420 0.274185 0.465134
#
# Coordination Sequence:
#
# PCOD9430700 Si02
#       6
#     4   8   8   8   8   8
#     4  12  24  42  66 114 148 172 224 330 374 400
#     4  10  22  40  62  98 136 194 237 281 344 457
#     4  11  23  38  64 103 142 176 236 294 369 418
#     4  10  21  38  64  97 145 181 233 283 374 410
#     4  11  18  37  64  94 126 178 242 284 327 415
#     4  10  20  36  63  95 129 190 234 276 332 447
#
# _framework density 25.302659999999999
#
# number of rings (size 3 to 8) (size 9 to 14) (size 15 to 20)
#    0.000    1.455    5.455    0.000    0.000    0.727 
#    0.000    0.000    0.000    1.091    9.455    0.000 
#    0.000    0.000    0.000    0.000    0.000    0.000 
#
# Total GULP energy -245300.248134 kJ/mol
# GULP energy per Si atom -5575.005639 kJ/mol
# Density = 2.524507 g / cm^3
# Si number density = 25.302660 Si / 1000 Ang^3
#
#
#
# Elastic Constant Matrix: (Units=GPa)
#
#
# Indices 1 2 3 4 5 6 
#
# 1 83.0874 44.7207 24.9476 0.0000 0.0000 0.0000
# 2 44.7207 145.3451 38.0280 0.0000 0.0000 0.0000
# 3 24.9476 38.0280 106.1820 0.0000 0.0000 0.0000
# 4 0.0000 0.0000 0.0000 36.0699 0.0000 0.0000
# 5 0.0000 0.0000 0.0000 0.0000 -1.3872 0.0000
# 6 0.0000 0.0000 0.0000 0.0000 0.0000 20.3942
#
#
#
# Elastic Compliance Matrix: (Units=1/GPa)
#
#
# Indices 1 2 3 4 5 6 
#
# 1 0.014814 -0.004025 -0.002039 0.000000 0.000000 0.000000
# 2 -0.004025 0.008685 -0.002165 0.000000 0.000000 0.000000
# 3 -0.002039 -0.002165 0.010672 0.000000 0.000000 0.000000
# 4 0.000000 0.000000 0.000000 0.027724 0.000000 0.000000
# 5 0.000000 0.000000 0.000000 0.000000 -0.720855 0.000000
# 6 0.000000 0.000000 0.000000 0.000000 0.000000 0.049034
#
#
# Mechanical properties :
#
#
# Convention : Reuss Voigt Hill
#
# Bulk Modulus (GPa) = 56.45277 61.11188 58.78233
# Shear Modulus (GPa) = -8.50970 26.14324 8.81677
#
# Velocity S-wave (km/s) = -1.83588 3.21786 1.86871
# Velocity P-wave (km/s) = 4.22676 6.16530 5.28566
#
# Compressibility (1/GPa) = 0.01771392
#
# Stress axis : x y z
#
# Youngs Moduli (GPa) = 67.50390 115.14273 93.70123
#
# Poissons Ratio (x) = 0.46339 0.19108
# Poissons Ratio (y) = 0.27167 0.20285
# Poissons Ratio (z) = 0.13765 0.24926
#
# Static dielectric constant tensor:
#      x y z
#    x 1.977430 0.000000 0.000000 
#    y 0.000000 2.031610 0.000000 
#    z 0.000000 0.000000 2.226480 
# 
# From -- ./inp_files/7766.got.cif
#   From: 2010.05.17/outbox.cif.g08.bks.cpg/sg56_4_cif.got.tgz:7766.got - 2010.06.03 13:42:01.
