data_PCOD9430593
_publ_section_title
;
Structure prediction by ZEFSAII (Michael W. Deem and Ramdas Pophale) SiO2 
 PCOD9430593
Probable space group: P C C N
;
_chemical_formula_sum "Si O2"
_cell_formula_units_Z 40
_cell_length_a 4.974390
_cell_length_b 14.887258
_cell_length_c 26.545896
_cell_angle_alpha 90.000000
_cell_angle_beta 90.000000
_cell_angle_gamma 90.000000
_cell_volume 1965.857054
_symmetry_space_group_name_H-M "P C C N"
_symmetry_group_IT_number 56
_symmetry_cell_setting 'orthorhombic'
loop_
_space_group_symop_operation_xyz
x,y,z
1/2-x,1/2-y,z
1/2+x,-y,1/2-z
-x,1/2+y,1/2-z
-x,-y,-z
1/2+x,1/2+y,-z
1/2-x,y,1/2+z
x,1/2-y,1/2+z
loop_
_atom_site_type_symbol
_atom_site_label
_atom_site_fract_x
_atom_site_fract_y
_atom_site_fract_z
Si Si1 0.050937 0.668937 0.426695
Si Si2 0.049700 0.055674 0.550418
Si Si3 0.609496 0.500191 0.340421
Si Si4 0.989246 0.189592 0.292938
Si Si5 0.404882 0.615371 0.817304
O O1 0.250000 0.750000 0.443091
O O2 0.251296 0.586651 0.435247
O O3 0.010169 0.673879 0.366267
O O4 0.766313 0.639075 0.451460
O O5 0.146591 0.000118 0.599212
O O6 0.000000 0.000000 0.500000
O O7 0.505609 0.405650 0.320654
O O8 0.393584 0.576987 0.325644
O O9 0.890951 0.530850 0.316398
O O10 0.250000 0.250000 0.297382
O O11 0.750000 0.250000 0.313874
O O12 0.933949 0.167661 0.234365
#
# Coordination Sequence:
#
# PCOD9430593 Si02
#       5
#     8   8   8   8   8
#     4  10  20  35  58  87 111 135 182 243 285 319
#     4  10  21  38  59  80 110 150 188 226 279 341
#     4  10  21  38  57  78 109 149 187 223 270 335
#     4  12  23  35  54  83 115 146 180 223 270 327
#     4  10  20  36  58  80 109 146 182 223 276 334
#
# _framework density 20.347359999999998
#
# number of rings (size 3 to 8) (size 9 to 14) (size 15 to 20)
#    0.000    1.600    0.000    5.400    0.000    3.200 
#    0.000    3.000    0.000    0.000    0.000    0.000 
#    0.000    0.000    0.000    0.000    0.000    0.000 
#
# Total GULP energy -223180.868869 kJ/mol
# GULP energy per Si atom -5579.521722 kJ/mol
# Density = 2.030105 g / cm^3
# Si number density = 20.347360 Si / 1000 Ang^3
#
#
#
# Elastic Constant Matrix: (Units=GPa)
#
#
# Indices 1 2 3 4 5 6 
#
# 1 110.0874 26.2950 23.3288 0.0000 0.0000 0.0000
# 2 26.2950 62.0791 31.7016 0.0000 0.0000 0.0000
# 3 23.3288 31.7016 66.6041 0.0000 0.0000 0.0000
# 4 0.0000 0.0000 0.0000 13.9330 0.0000 0.0000
# 5 0.0000 0.0000 0.0000 0.0000 20.5305 0.0000
# 6 0.0000 0.0000 0.0000 0.0000 0.0000 48.7328
#
#
#
# Elastic Compliance Matrix: (Units=1/GPa)
#
#
# Indices 1 2 3 4 5 6 
#
# 1 0.010309 -0.003333 -0.002024 0.000000 0.000000 0.000000
# 2 -0.003333 0.022359 -0.009475 0.000000 0.000000 0.000000
# 3 -0.002024 -0.009475 0.020233 0.000000 0.000000 0.000000
# 4 0.000000 0.000000 0.000000 0.071772 0.000000 0.000000
# 5 0.000000 0.000000 0.000000 0.000000 0.048708 0.000000
# 6 0.000000 0.000000 0.000000 0.000000 0.000000 0.020520
#
#
# Mechanical properties :
#
#
# Convention : Reuss Voigt Hill
#
# Bulk Modulus (GPa) = 43.03593 44.60239 43.81916
# Shear Modulus (GPa) = 21.61606 27.13560 24.37583
#
# Velocity S-wave (km/s) = 3.26291 3.65583 3.46495
# Velocity P-wave (km/s) = 5.94912 6.30779 6.13108
#
# Compressibility (1/GPa) = 0.02323640
#
# Stress axis : x y z
#
# Youngs Moduli (GPa) = 97.00512 44.72568 49.42453
#
# Poissons Ratio (x) = 0.14906 0.10006
# Poissons Ratio (y) = 0.32329 0.46828
# Poissons Ratio (z) = 0.19639 0.42376
#
# Static dielectric constant tensor:
#      x y z
#    x 1.724050 0.000000 0.000000 
#    y 0.000000 1.752040 0.000000 
#    z 0.000000 0.000000 1.736160 
# 
# From -- ./inp_files/21062.got.cif
#   From: 2010.05.17/outbox.cif.g08.bks.cpg/sg56_11_cif.got.tgz:21062.got - 2010.06.03 13:42:01.
