data_PCOD9430084
_publ_section_title
;
Structure prediction by ZEFSAII (Michael W. Deem and Ramdas Pophale) SiO2 
 PCOD9430084
Probable space group: P C C N
;
_chemical_formula_sum "Si O2"
_cell_formula_units_Z 52
_cell_length_a 7.107355
_cell_length_b 15.558181
_cell_length_c 21.705560
_cell_angle_alpha 90.000000
_cell_angle_beta 90.000000
_cell_angle_gamma 90.000000
_cell_volume 2400.146898
_symmetry_space_group_name_H-M "P C C N"
_symmetry_group_IT_number 56
_symmetry_cell_setting 'orthorhombic'
loop_
_space_group_symop_operation_xyz
x,y,z
1/2-x,1/2-y,z
1/2+x,-y,1/2-z
-x,1/2+y,1/2-z
-x,-y,-z
1/2+x,1/2+y,-z
1/2-x,y,1/2+z
x,1/2-y,1/2+z
loop_
_atom_site_type_symbol
_atom_site_label
_atom_site_fract_x
_atom_site_fract_y
_atom_site_fract_z
Si Si1 0.508883 0.110980 0.827030
Si Si2 0.048261 0.222207 0.887490
Si Si3 0.971305 0.635739 0.313706
Si Si4 0.750000 0.750000 0.994004
Si Si5 0.565421 0.943217 0.679079
Si Si6 0.068036 0.710200 0.905174
Si Si7 0.058458 0.425166 0.180212
O O1 0.554017 0.187795 0.874488
O O2 0.540901 0.142927 0.756956
O O3 0.289703 0.077107 0.826691
O O4 0.612265 0.021271 0.840384
O O5 0.250000 0.250000 0.856241
O O6 0.975075 0.135967 0.857471
O O7 0.111303 0.203321 0.957467
O O8 0.745030 0.632282 0.314746
O O9 0.031853 0.541760 0.338411
O O10 0.031413 0.714554 0.355497
O O11 0.609047 0.801397 0.950340
O O12 0.493537 0.935659 0.749427
O O13 0.250000 0.750000 0.939130
O O14 0.081510 0.623181 0.865675
#
# Coordination Sequence:
#
# PCOD9430084 Si02
#       7
#     8   8   8   4   8   8   8
#     4   9  17  33  58  88 117 155 188 235 309 363
#     4   8  17  35  62  73 114 154 200 242 291 338
#     4  10  19  33  57  90 124 147 188 244 303 365
#     4  10  22  42  60  84 112 162 216 248 276 342
#     4   9  17  33  58  88 117 155 188 235 309 363
#     4  12  23  39  62  82 119 159 203 250 298 342
#     4  10  19  33  57  90 124 147 188 244 303 365
#
# _framework density 21.66534
#
# number of rings (size 3 to 8) (size 9 to 14) (size 15 to 20)
#    0.462    1.846    1.538    1.846    0.000    3.692 
#    0.000    3.846    0.000    0.000    0.000    0.000 
#    0.000    0.000    0.000    0.000    0.000    0.000 
#
# Total GULP energy -289705.332139 kJ/mol
# GULP energy per Si atom -5571.256387 kJ/mol
# Density = 2.161603 g / cm^3
# Si number density = 21.665340 Si / 1000 Ang^3
#
#
#
# Elastic Constant Matrix: (Units=GPa)
#
#
# Indices 1 2 3 4 5 6 
#
# 1 54.6042 10.1034 11.0470 0.0000 0.0000 0.0000
# 2 10.1034 125.3579 61.7509 0.0000 0.0000 0.0000
# 3 11.0470 61.7509 66.4467 0.0000 0.0000 0.0000
# 4 0.0000 0.0000 0.0000 2.7916 0.0000 0.0000
# 5 0.0000 0.0000 0.0000 0.0000 18.9171 0.0000
# 6 0.0000 0.0000 0.0000 0.0000 0.0000 29.6405
#
#
#
# Elastic Compliance Matrix: (Units=1/GPa)
#
#
# Indices 1 2 3 4 5 6 
#
# 1 0.018951 0.000045 -0.003193 0.000000 0.000000 0.000000
# 2 0.000045 0.014712 -0.013680 0.000000 0.000000 0.000000
# 3 -0.003193 -0.013680 0.028294 0.000000 0.000000 0.000000
# 4 0.000000 0.000000 0.000000 0.358223 0.000000 0.000000
# 5 0.000000 0.000000 0.000000 0.000000 0.052862 0.000000
# 6 0.000000 0.000000 0.000000 0.000000 0.000000 0.033738
#
#
# Mechanical properties :
#
#
# Convention : Reuss Voigt Hill
#
# Bulk Modulus (GPa) = 35.33310 45.80128 40.56719
# Shear Modulus (GPa) = 9.09307 21.17034 15.13171
#
# Velocity S-wave (km/s) = 2.05090 3.12934 2.64565
# Velocity P-wave (km/s) = 4.68532 5.85177 5.30073
#
# Compressibility (1/GPa) = 0.02830207
#
# Stress axis : x y z
#
# Youngs Moduli (GPa) = 52.76723 67.97040 35.34342
#
# Poissons Ratio (x) = -0.00309 0.11285
# Poissons Ratio (y) = -0.00240 0.48350
# Poissons Ratio (z) = 0.16848 0.92984
#
# Static dielectric constant tensor:
#      x y z
#    x 1.945720 0.000000 0.000000 
#    y 0.000000 1.820680 0.000000 
#    z 0.000000 0.000000 1.779030 
# 
# From -- ./inp_files/20588.got.cif
#   From: 2010.05.17/outbox.cif.g08.bks.cpg/sg56_11_cif.got.tgz:20588.got - 2010.06.03 13:42:01.
