data_PCOD9430439
_publ_section_title
;
Structure prediction by ZEFSAII (Michael W. Deem and Ramdas Pophale) SiO2 
 PCOD9430439
Probable space group: P C C N
;
_chemical_formula_sum "Si O2"
_cell_formula_units_Z 48
_cell_length_a 5.174571
_cell_length_b 16.971835
_cell_length_c 21.121786
_cell_angle_alpha 90.000000
_cell_angle_beta 90.000000
_cell_angle_gamma 90.000000
_cell_volume 1854.956755
_symmetry_space_group_name_H-M "P C C N"
_symmetry_group_IT_number 56
_symmetry_cell_setting 'orthorhombic'
loop_
_space_group_symop_operation_xyz
x,y,z
1/2-x,1/2-y,z
1/2+x,-y,1/2-z
-x,1/2+y,1/2-z
-x,-y,-z
1/2+x,1/2+y,-z
1/2-x,y,1/2+z
x,1/2-y,1/2+z
loop_
_atom_site_type_symbol
_atom_site_label
_atom_site_fract_x
_atom_site_fract_y
_atom_site_fract_z
Si Si1 0.750000 0.250000 0.370593
Si Si2 0.093631 0.160837 0.956154
Si Si3 0.749378 0.048914 0.522567
Si Si4 0.001763 0.201651 0.193739
Si Si5 0.307229 0.588647 0.708349
Si Si6 0.750000 0.750000 0.931993
Si Si7 0.794307 0.526365 0.645220
O O1 0.505412 0.233591 0.414699
O O2 0.703529 0.328881 0.330299
O O3 0.198181 0.097438 0.906544
O O4 0.822165 0.129054 0.986887
O O5 0.272661 0.179387 0.016924
O O6 0.500000 0.000000 0.500000
O O7 0.723349 0.048853 0.598537
O O8 0.000000 0.000000 0.500000
O O9 0.250000 0.250000 0.222452
O O10 0.050622 0.213480 0.118804
O O11 0.750000 0.250000 0.208622
O O12 0.927630 0.117559 0.224164
O O13 0.523991 0.532043 0.680187
O O14 0.031211 0.548335 0.692173
#
# Coordination Sequence:
#
# PCOD9430439 Si02
#       7
#     4   8   8   8   8   4   8
#     4  10  20  30  58  86 120 146 194 248 326 362
#     4  10  21  36  56  89 127 157 196 251 309 400
#     4  10  20  38  57  84 122 163 203 245 309 377
#     4  10  22  38  56  81 118 157 203 244 306 387
#     4  11  20  35  58  84 115 149 200 263 303 365
#     4  10  24  36  58  86 126 160 200 240 326 386
#     4  10  21  35  59  86 114 154 200 253 311 357
#
# _framework density 25.876612000000002
#
# number of rings (size 3 to 8) (size 9 to 14) (size 15 to 20)
#    0.500    1.333    0.833    5.000    3.500    1.333 
#    0.000    0.000    0.000    2.000    0.000    0.000 
#    0.000    0.000    0.000    0.000    0.000    0.000 
#
# Total GULP energy -267654.576859 kJ/mol
# GULP energy per Si atom -5576.137018 kJ/mol
# Density = 2.581772 g / cm^3
# Si number density = 25.876612 Si / 1000 Ang^3
#
#
#
# Elastic Constant Matrix: (Units=GPa)
#
#
# Indices 1 2 3 4 5 6 
#
# 1 155.1469 12.4191 37.4706 0.0000 0.0000 0.0000
# 2 12.4191 76.5356 35.6918 0.0000 0.0000 0.0000
# 3 37.4706 35.6918 165.8935 0.0000 0.0000 0.0000
# 4 0.0000 0.0000 0.0000 56.7549 0.0000 0.0000
# 5 0.0000 0.0000 0.0000 0.0000 16.1982 0.0000
# 6 0.0000 0.0000 0.0000 0.0000 0.0000 18.5876
#
#
#
# Elastic Compliance Matrix: (Units=1/GPa)
#
#
# Indices 1 2 3 4 5 6 
#
# 1 0.006830 -0.000432 -0.001450 0.000000 0.000000 0.000000
# 2 -0.000432 0.014550 -0.003033 0.000000 0.000000 0.000000
# 3 -0.001450 -0.003033 0.007008 0.000000 0.000000 0.000000
# 4 0.000000 0.000000 0.000000 0.017620 0.000000 0.000000
# 5 0.000000 0.000000 0.000000 0.000000 0.061735 0.000000
# 6 0.000000 0.000000 0.000000 0.000000 0.000000 0.053799
#
#
# Mechanical properties :
#
#
# Convention : Reuss Voigt Hill
#
# Bulk Modulus (GPa) = 53.88283 63.19323 58.53803
# Shear Modulus (GPa) = 28.15975 39.10777 33.63376
#
# Velocity S-wave (km/s) = 3.30241 3.89178 3.60915
# Velocity P-wave (km/s) = 5.95058 6.68346 6.32764
#
# Compressibility (1/GPa) = 0.01855879
#
# Stress axis : x y z
#
# Youngs Moduli (GPa) = 146.40758 68.72713 142.69527
#
# Poissons Ratio (x) = 0.02971 0.20687
# Poissons Ratio (y) = 0.06328 0.43277
# Poissons Ratio (z) = 0.21226 0.20844
#
# Static dielectric constant tensor:
#      x y z
#    x 1.924220 0.000000 0.000000 
#    y 0.000000 2.203100 0.000000 
#    z 0.000000 0.000000 2.115560 
# 
# From -- ./inp_files/17524.got.cif
#   From: 2010.05.17/outbox.cif.g08.bks.cpg/sg56_9_cif.got.tgz:17524.got - 2010.06.03 13:42:01.
