data_PCOD9430806
_publ_section_title
;
Structure prediction by ZEFSAII (Michael W. Deem and Ramdas Pophale) SiO2 
 PCOD9430806
Probable space group: P C C N
;
_chemical_formula_sum "Si O2"
_cell_formula_units_Z 32
_cell_length_a 13.099745
_cell_length_b 6.987348
_cell_length_c 14.566268
_cell_angle_alpha 90.000000
_cell_angle_beta 90.000000
_cell_angle_gamma 90.000000
_cell_volume 1333.286591
_symmetry_space_group_name_H-M "P C C N"
_symmetry_group_IT_number 56
_symmetry_cell_setting 'orthorhombic'
loop_
_space_group_symop_operation_xyz
x,y,z
1/2-x,1/2-y,z
1/2+x,-y,1/2-z
-x,1/2+y,1/2-z
-x,-y,-z
1/2+x,1/2+y,-z
1/2-x,y,1/2+z
x,1/2-y,1/2+z
loop_
_atom_site_type_symbol
_atom_site_label
_atom_site_fract_x
_atom_site_fract_y
_atom_site_fract_z
Si Si1 0.454500 0.897243 0.910899
Si Si2 0.607469 0.886737 0.385169
Si Si3 0.723310 0.475431 0.720385
Si Si4 0.896083 0.527421 0.587308
O O1 0.551075 0.808901 0.856555
O O2 0.377209 0.003424 0.843695
O O3 0.393615 0.701430 0.937222
O O4 0.500000 0.000000 0.000000
O O5 0.514682 0.044474 0.383356
O O6 0.697251 0.947255 0.320220
O O7 0.631156 0.868345 0.493059
O O8 0.750000 0.250000 0.728102
O O9 0.818265 0.565525 0.667715
#
# Coordination Sequence:
#
# PCOD9430806 Si02
#       4
#     8   8   8   8
#     4   9  19  37  63  90 126 164 209 270 329 379
#     4   9  19  39  64  89 123 167 214 265 321 394
#     4  10  20  37  66  96 123 169 220 264 330 402
#     4   8  19  40  61  89 125 166 214 264 325 400
#
# _framework density 24.000841000000001
#
# number of rings (size 3 to 8) (size 9 to 14) (size 15 to 20)
#    1.500    1.500    0.000    0.000    0.000    5.000 
#    4.500    1.250    0.000    0.000    0.000    0.000 
#    0.000    0.000    0.000    0.000    0.000    0.000 
#
# Total GULP energy -178587.904873 kJ/mol
# GULP energy per Si atom -5580.872027 kJ/mol
# Density = 2.394621 g / cm^3
# Si number density = 24.000841 Si / 1000 Ang^3
#
#
#
# Elastic Constant Matrix: (Units=GPa)
#
#
# Indices 1 2 3 4 5 6 
#
# 1 112.9420 26.0629 84.3689 0.0000 0.0000 0.0000
# 2 26.0629 74.2491 23.3625 0.0000 0.0000 0.0000
# 3 84.3689 23.3625 129.4499 0.0000 0.0000 0.0000
# 4 0.0000 0.0000 0.0000 27.1019 0.0000 0.0000
# 5 0.0000 0.0000 0.0000 0.0000 58.2282 0.0000
# 6 0.0000 0.0000 0.0000 0.0000 0.0000 30.5655
#
#
#
# Elastic Compliance Matrix: (Units=1/GPa)
#
#
# Indices 1 2 3 4 5 6 
#
# 1 0.017769 -0.002749 -0.011085 0.000000 0.000000 0.000000
# 2 -0.002749 0.014704 -0.000862 0.000000 0.000000 0.000000
# 3 -0.011085 -0.000862 0.015105 0.000000 0.000000 0.000000
# 4 0.000000 0.000000 0.000000 0.036898 0.000000 0.000000
# 5 0.000000 0.000000 0.000000 0.000000 0.017174 0.000000
# 6 0.000000 0.000000 0.000000 0.000000 0.000000 0.032717
#
#
# Mechanical properties :
#
#
# Convention : Reuss Voigt Hill
#
# Bulk Modulus (GPa) = 54.98607 64.91440 59.95024
# Shear Modulus (GPa) = 29.44279 35.36889 32.40584
#
# Velocity S-wave (km/s) = 3.50628 3.84298 3.67849
# Velocity P-wave (km/s) = 6.27310 6.84082 6.56310
#
# Compressibility (1/GPa) = 0.01818643
#
# Stress axis : x y z
#
# Youngs Moduli (GPa) = 56.27786 68.00656 66.20324
#
# Poissons Ratio (x) = 0.18698 0.73384
# Poissons Ratio (y) = 0.15473 0.05706
# Poissons Ratio (z) = 0.62382 0.05861
#
# Static dielectric constant tensor:
#      x y z
#    x 1.942050 0.000000 0.000000 
#    y 0.000000 2.028450 0.000000 
#    z 0.000000 0.000000 1.866990 
# 
# From -- ./inp_files/11229.got.cif
#   From: 2010.05.17/outbox.cif.g08.bks.cpg/sg56_6_cif.got.tgz:11229.got - 2010.06.03 13:42:01.
