data_PCOD9430972
_publ_section_title
;
Structure prediction by ZEFSAII (Michael W. Deem and Ramdas Pophale) SiO2 
 PCOD9430972
Probable space group: P C C N
;
_chemical_formula_sum "Si O2"
_cell_formula_units_Z 52
_cell_length_a 8.511461
_cell_length_b 17.507377
_cell_length_c 18.241886
_cell_angle_alpha 90.000000
_cell_angle_beta 90.000000
_cell_angle_gamma 90.000000
_cell_volume 2718.284663
_symmetry_space_group_name_H-M "P C C N"
_symmetry_group_IT_number 56
_symmetry_cell_setting 'orthorhombic'
loop_
_space_group_symop_operation_xyz
x,y,z
1/2-x,1/2-y,z
1/2+x,-y,1/2-z
-x,1/2+y,1/2-z
-x,-y,-z
1/2+x,1/2+y,-z
1/2-x,y,1/2+z
x,1/2-y,1/2+z
loop_
_atom_site_type_symbol
_atom_site_label
_atom_site_fract_x
_atom_site_fract_y
_atom_site_fract_z
Si Si1 0.565820 0.004951 0.686804
Si Si2 0.362200 0.101832 0.795126
Si Si3 0.013194 0.209671 0.588774
Si Si4 0.794935 0.666083 0.057229
Si Si5 0.750000 0.750000 0.788579
Si Si6 0.529893 0.427817 0.947828
Si Si7 0.318994 0.635728 0.924090
O O1 0.489310 0.050959 0.753111
O O2 0.635103 0.067359 0.630036
O O3 0.701113 0.946573 0.710008
O O4 0.447002 0.956014 0.635121
O O5 0.389665 0.119562 0.880997
O O6 0.336564 0.183872 0.756902
O O7 0.946119 0.296163 0.583534
O O8 0.855302 0.161198 0.595564
O O9 0.111127 0.182050 0.517729
O O10 0.126260 0.207911 0.658311
O O11 0.750000 0.750000 0.086425
O O12 0.630091 0.621690 0.047786
O O13 0.500000 0.500000 0.000000
O O14 0.669766 0.385491 0.989797
#
# Coordination Sequence:
#
# PCOD9430972 Si02
#       7
#     8   8   8   8   4   8   8
#     4  10  23  42  60  88 129 166 210 252 317 379
#     4  11  25  41  64  88 129 167 206 256 315 379
#     4  11  22  35  68  90 123 158 213 260 306 374
#     4  11  20  39  62  91 120 161 210 250 305 375
#     4  12  22  40  64  92 118 174 210 252 318 374
#     4   9  19  37  61  86 122 161 194 259 311 359
#     4  10  20  39  61  96 122 156 208 267 312 358
#
# _framework density 19.129712000000001
#
# number of rings (size 3 to 8) (size 9 to 14) (size 15 to 20)
#    0.000    1.538    4.615    0.000    4.308    1.231 
#    0.000    6.923    6.769    0.000    0.000    0.000 
#    0.000    0.000    0.000    0.000    0.000    0.000 
#
# Total GULP energy -289934.952709 kJ/mol
# GULP energy per Si atom -5575.672167 kJ/mol
# Density = 1.908617 g / cm^3
# Si number density = 19.129712 Si / 1000 Ang^3
#
#
#
# Elastic Constant Matrix: (Units=GPa)
#
#
# Indices 1 2 3 4 5 6 
#
# 1 37.5939 12.1931 23.8952 0.0000 0.0000 0.0000
# 2 12.1931 62.5394 22.0821 0.0000 0.0000 0.0000
# 3 23.8952 22.0821 80.0094 0.0000 0.0000 0.0000
# 4 0.0000 0.0000 0.0000 34.7051 0.0000 0.0000
# 5 0.0000 0.0000 0.0000 0.0000 21.4579 0.0000
# 6 0.0000 0.0000 0.0000 0.0000 0.0000 31.5188
#
#
#
# Elastic Compliance Matrix: (Units=1/GPa)
#
#
# Indices 1 2 3 4 5 6 
#
# 1 0.033442 -0.003317 -0.009072 0.000000 0.000000 0.000000
# 2 -0.003317 0.018045 -0.003990 0.000000 0.000000 0.000000
# 3 -0.009072 -0.003990 0.016309 0.000000 0.000000 0.000000
# 4 0.000000 0.000000 0.000000 0.028814 0.000000 0.000000
# 5 0.000000 0.000000 0.000000 0.000000 0.046603 0.000000
# 6 0.000000 0.000000 0.000000 0.000000 0.000000 0.031727
#
#
# Mechanical properties :
#
#
# Convention : Reuss Voigt Hill
#
# Bulk Modulus (GPa) = 28.53961 32.94259 30.74110
# Shear Modulus (GPa) = 22.79165 25.66784 24.22975
#
# Velocity S-wave (km/s) = 3.45545 3.66700 3.56280
# Velocity P-wave (km/s) = 5.55622 5.93188 5.74712
#
# Compressibility (1/GPa) = 0.03503902
#
# Stress axis : x y z
#
# Youngs Moduli (GPa) = 29.90228 55.41589 61.31512
#
# Poissons Ratio (x) = 0.18380 0.55627
# Poissons Ratio (y) = 0.09918 0.24464
# Poissons Ratio (z) = 0.27128 0.22110
#
# Static dielectric constant tensor:
#      x y z
#    x 1.637600 0.000000 0.000000 
#    y 0.000000 1.687620 0.000000 
#    z 0.000000 0.000000 1.686950 
# 
# From -- ./inp_files/15066.got.cif
#   From: 2010.05.17/outbox.cif.g08.bks.cpg/sg56_8_cif.got.tgz:15066.got - 2010.06.03 13:42:01.
