data_PCOD9430559
_publ_section_title
;
Structure prediction by ZEFSAII (Michael W. Deem and Ramdas Pophale) SiO2 
 PCOD9430559
Probable space group: P C C N
;
_chemical_formula_sum "Si O2"
_cell_formula_units_Z 48
_cell_length_a 28.433548
_cell_length_b 8.033092
_cell_length_c 8.141703
_cell_angle_alpha 90.000000
_cell_angle_beta 90.000000
_cell_angle_gamma 90.000000
_cell_volume 1859.640740
_symmetry_space_group_name_H-M "P C C N"
_symmetry_group_IT_number 56
_symmetry_cell_setting 'orthorhombic'
loop_
_space_group_symop_operation_xyz
x,y,z
1/2-x,1/2-y,z
1/2+x,-y,1/2-z
-x,1/2+y,1/2-z
-x,-y,-z
1/2+x,1/2+y,-z
1/2-x,y,1/2+z
x,1/2-y,1/2+z
loop_
_atom_site_type_symbol
_atom_site_label
_atom_site_fract_x
_atom_site_fract_y
_atom_site_fract_z
Si Si1 0.308497 0.856473 0.561675
Si Si2 0.636311 0.839640 0.032620
Si Si3 0.061881 0.507271 0.156023
Si Si4 0.399907 0.483381 0.119689
Si Si5 0.775838 0.015461 0.584881
Si Si6 0.028318 0.669991 0.813329
O O1 0.280198 0.973442 0.433582
O O2 0.294283 0.668176 0.527206
O O3 0.364310 0.872374 0.562641
O O4 0.289934 0.926657 0.733954
O O5 0.610777 0.663714 0.006954
O O6 0.614131 0.949367 0.885038
O O7 0.692877 0.856806 0.034282
O O8 0.619911 0.914824 0.205893
O O9 0.050609 0.648722 0.288375
O O10 0.027937 0.349347 0.191866
O O11 0.043949 0.590858 0.985580
O O12 0.450083 0.556474 0.167288
#
# Coordination Sequence:
#
# PCOD9430559 Si02
#       6
#     8   8   8   8   8   8
#     4  10  20  35  55  79 106 138 178 220 265 316
#     4  10  22  37  54  79 109 141 178 219 263 314
#     4  10  21  37  57  82 110 140 177 218 262 314
#     4  10  22  37  54  79 109 141 178 219 263 314
#     4  10  20  35  55  79 106 138 178 220 265 316
#     4  10  21  37  57  82 110 140 177 218 262 314
#
# _framework density 25.811436
#
# number of rings (size 3 to 8) (size 9 to 14) (size 15 to 20)
#    0.000    2.000    0.000    4.000    0.000    5.333 
#    0.000    3.333    0.000    0.000    0.000    0.000 
#    0.000    0.000    0.000    0.000    0.000    0.000 
#
# Total GULP energy -268445.157665 kJ/mol
# GULP energy per Si atom -5592.607451 kJ/mol
# Density = 2.575269 g / cm^3
# Si number density = 25.811436 Si / 1000 Ang^3
#
#
#
# Elastic Constant Matrix: (Units=GPa)
#
#
# Indices 1 2 3 4 5 6 
#
# 1 54.7125 -26.0036 2.9677 0.0000 0.0000 0.0000
# 2 -26.0036 64.0880 -7.8070 0.0000 0.0000 0.0000
# 3 2.9677 -7.8070 75.3959 0.0000 0.0000 0.0000
# 4 0.0000 0.0000 0.0000 24.0613 0.0000 0.0000
# 5 0.0000 0.0000 0.0000 0.0000 -3.0193 0.0000
# 6 0.0000 0.0000 0.0000 0.0000 0.0000 37.0405
#
#
#
# Elastic Compliance Matrix: (Units=1/GPa)
#
#
# Indices 1 2 3 4 5 6 
#
# 1 0.022644 0.009195 0.000061 0.000000 0.000000 0.000000
# 2 0.009195 0.019537 0.001661 0.000000 0.000000 0.000000
# 3 0.000061 0.001661 0.013433 0.000000 0.000000 0.000000
# 4 0.000000 0.000000 0.000000 0.041561 0.000000 0.000000
# 5 0.000000 0.000000 0.000000 0.000000 -0.331207 0.000000
# 6 0.000000 0.000000 0.000000 0.000000 0.000000 0.026998
#
#
# Mechanical properties :
#
#
# Convention : Reuss Voigt Hill
#
# Bulk Modulus (GPa) = 12.91179 14.72341 13.81760
# Shear Modulus (GPa) = -24.62411 26.61912 0.99750
#
# Velocity S-wave (km/s) = -3.09204 3.21486 0.62233
# Velocity P-wave (km/s) = 2.78108 4.41554 2.42514
#
# Compressibility (1/GPa) = 0.07744862
#
# Stress axis : x y z
#
# Youngs Moduli (GPa) = 44.16097 51.18524 74.44402
#
# Poissons Ratio (x) = -0.47067 -0.00453
# Poissons Ratio (y) = -0.40608 -0.12365
# Poissons Ratio (z) = -0.00269 -0.08502
#
# Static dielectric constant tensor:
#      x y z
#    x 1.994000 0.000000 0.000000 
#    y 0.000000 2.051830 0.000000 
#    z 0.000000 0.000000 2.037110 
# 
# From -- ./inp_files/2242.got.cif
#   From: 2010.05.17/outbox.cif.g08.bks.cpg/sg56_2_cif.got.tgz:2242.got - 2010.06.03 13:42:01.
