data_PCOD9430044
_publ_section_title
;
Structure prediction by ZEFSAII (Michael W. Deem and Ramdas Pophale) SiO2 
 PCOD9430044
Probable space group: P C C N
;
_chemical_formula_sum "Si O2"
_cell_formula_units_Z 48
_cell_length_a 10.604816
_cell_length_b 20.840983
_cell_length_c 10.789897
_cell_angle_alpha 90.000000
_cell_angle_beta 90.000000
_cell_angle_gamma 90.000000
_cell_volume 2384.726819
_symmetry_space_group_name_H-M "P C C N"
_symmetry_group_IT_number 56
_symmetry_cell_setting 'orthorhombic'
loop_
_space_group_symop_operation_xyz
x,y,z
1/2-x,1/2-y,z
1/2+x,-y,1/2-z
-x,1/2+y,1/2-z
-x,-y,-z
1/2+x,1/2+y,-z
1/2-x,y,1/2+z
x,1/2-y,1/2+z
loop_
_atom_site_type_symbol
_atom_site_label
_atom_site_fract_x
_atom_site_fract_y
_atom_site_fract_z
Si Si1 0.616699 0.288175 0.307558
Si Si2 0.632512 0.913449 0.533321
Si Si3 0.046323 0.990224 0.168187
Si Si4 0.534014 0.298248 0.030533
Si Si5 0.745693 0.105712 0.443253
Si Si6 0.630159 0.510961 0.567261
O O1 0.750000 0.250000 0.288194
O O2 0.540017 0.283175 0.177863
O O3 0.548431 0.257725 0.428369
O O4 0.654920 0.359549 0.352995
O O5 0.583057 0.949514 0.658586
O O6 0.585023 0.841697 0.512615
O O7 0.777845 0.932651 0.520469
O O8 0.553092 0.952968 0.431010
O O9 0.151899 0.937530 0.137104
O O10 0.088097 0.021793 0.293992
O O11 0.660905 0.340322 0.008208
O O12 0.799106 0.056555 0.544236
O O13 0.500000 0.500000 0.500000
#
# Coordination Sequence:
#
# PCOD9430044 Si02
#       6
#     8   8   8   8   8   8
#     4  10  19  32  58  90 119 158 214 259 306 349
#     4   9  21  37  56  84 123 161 188 247 316 356
#     4   9  19  35  57  82 123 158 189 242 313 365
#     4  10  20  36  59  86 121 162 202 260 305 354
#     4   9  19  34  55  90 123 154 193 262 302 358
#     4  11  23  34  58  93 119 158 203 238 299 379
#
# _framework density 20.128091999999999
#
# number of rings (size 3 to 8) (size 9 to 14) (size 15 to 20)
#    0.000    2.333    0.000    3.500    7.000    2.667 
#    0.000    0.000    0.000    1.000    0.000    0.000 
#    0.000    0.000    0.000    0.000    0.000    0.000 
#
# Total GULP energy -267396.308453 kJ/mol
# GULP energy per Si atom -5570.756426 kJ/mol
# Density = 2.008228 g / cm^3
# Si number density = 20.128092 Si / 1000 Ang^3
#
#
#
# Elastic Constant Matrix: (Units=GPa)
#
#
# Indices 1 2 3 4 5 6 
#
# 1 76.1680 17.9733 11.9606 0.0000 0.0000 0.0000
# 2 17.9733 54.2679 8.3509 0.0000 0.0000 0.0000
# 3 11.9606 8.3509 81.6377 0.0000 0.0000 0.0000
# 4 0.0000 0.0000 0.0000 17.4883 0.0000 0.0000
# 5 0.0000 0.0000 0.0000 0.0000 13.6779 0.0000
# 6 0.0000 0.0000 0.0000 0.0000 0.0000 20.6212
#
#
#
# Elastic Compliance Matrix: (Units=1/GPa)
#
#
# Indices 1 2 3 4 5 6 
#
# 1 0.014459 -0.004534 -0.001655 0.000000 0.000000 0.000000
# 2 -0.004534 0.020144 -0.001396 0.000000 0.000000 0.000000
# 3 -0.001655 -0.001396 0.012634 0.000000 0.000000 0.000000
# 4 0.000000 0.000000 0.000000 0.057181 0.000000 0.000000
# 5 0.000000 0.000000 0.000000 0.000000 0.073111 0.000000
# 6 0.000000 0.000000 0.000000 0.000000 0.000000 0.048494
#
#
# Mechanical properties :
#
#
# Convention : Reuss Voigt Hill
#
# Bulk Modulus (GPa) = 31.18463 32.07146 31.62805
# Shear Modulus (GPa) = 19.85065 21.94339 20.89702
#
# Velocity S-wave (km/s) = 3.14381 3.30538 3.22561
# Velocity P-wave (km/s) = 5.35769 5.52591 5.44245
#
# Compressibility (1/GPa) = 0.03206708
#
# Stress axis : x y z
#
# Youngs Moduli (GPa) = 69.16318 49.64357 79.14852
#
# Poissons Ratio (x) = 0.22508 0.13095
# Poissons Ratio (y) = 0.31359 0.11051
# Poissons Ratio (z) = 0.11443 0.06931
#
# Static dielectric constant tensor:
#      x y z
#    x 1.742470 0.000000 0.000000 
#    y 0.000000 1.696320 0.000000 
#    z 0.000000 0.000000 -2.175160 
# 
# From -- ./inp_files/7129.got.cif
#   From: 2010.05.17/outbox.cif.g08.bks.cpg/sg56_4_cif.got.tgz:7129.got - 2010.06.03 13:42:01.
