data_PCOD9430283
_publ_section_title
;
Structure prediction by ZEFSAII (Michael W. Deem and Ramdas Pophale) SiO2 
 PCOD9430283
Probable space group: P C C N
;
_chemical_formula_sum "Si O2"
_cell_formula_units_Z 60
_cell_length_a 25.655354
_cell_length_b 6.759490
_cell_length_c 17.926928
_cell_angle_alpha 90.000000
_cell_angle_beta 90.000000
_cell_angle_gamma 90.000000
_cell_volume 3108.836024
_symmetry_space_group_name_H-M "P C C N"
_symmetry_group_IT_number 56
_symmetry_cell_setting 'orthorhombic'
loop_
_space_group_symop_operation_xyz
x,y,z
1/2-x,1/2-y,z
1/2+x,-y,1/2-z
-x,1/2+y,1/2-z
-x,-y,-z
1/2+x,1/2+y,-z
1/2-x,y,1/2+z
x,1/2-y,1/2+z
loop_
_atom_site_type_symbol
_atom_site_label
_atom_site_fract_x
_atom_site_fract_y
_atom_site_fract_z
Si Si1 0.604582 0.229329 0.136971
Si Si2 0.521124 0.236902 0.841545
Si Si3 0.102957 0.021741 0.215447
Si Si4 0.923885 0.580444 0.733076
Si Si5 0.049554 0.645335 0.505003
Si Si6 0.250000 0.250000 0.523313
Si Si7 0.299136 0.869953 0.964466
Si Si8 0.838155 0.058609 0.925317
O O1 0.608637 0.440185 0.178592
O O2 0.653691 0.163937 0.090045
O O3 0.599689 0.074311 0.203466
O O4 0.559048 0.254486 0.075490
O O5 0.550306 0.444471 0.823351
O O6 0.462926 0.288731 0.817588
O O7 0.534530 0.204283 0.928046
O O8 0.544715 0.065701 0.788982
O O9 0.107042 0.256829 0.220073
O O10 0.147121 0.934834 0.161432
O O11 0.105619 0.543228 0.529542
O O12 0.000000 0.500000 0.500000
O O13 0.283269 0.406188 0.476311
O O14 0.294590 0.112282 0.562500
O O15 0.250000 0.750000 0.934409
O O16 0.314392 0.761382 0.042113
#
# Coordination Sequence:
#
# PCOD9430283 Si02
#       8
#     8   8   8   8   8   4   8   8
#     4  10  22  37  59  88 124 157 201 254 311 365
#     4  10  20  35  57  80 117 168 208 248 296 360
#     4  10  22  36  56  84 121 161 204 251 305 365
#     4  11  20  36  57  81 119 167 206 250 303 365
#     4  10  19  37  61  91 127 160 201 252 305 376
#     4  10  20  40  68  86 114 162 210 252 318 378
#     4   9  20  41  64  89 117 153 196 257 312 369
#     4   9  21  38  62  89 120 154 206 262 304 369
#
# _framework density 19.299827000000001
#
# number of rings (size 3 to 8) (size 9 to 14) (size 15 to 20)
#    0.000    2.133    2.667    0.000    0.000    7.467 
#    0.000    6.000    0.000    0.000    0.000    0.000 
#    0.000    0.000    0.000    0.000    0.000    0.000 
#
# Total GULP energy -334116.067440 kJ/mol
# GULP energy per Si atom -5568.601124 kJ/mol
# Density = 1.925590 g / cm^3
# Si number density = 19.299827 Si / 1000 Ang^3
#
#
#
# Elastic Constant Matrix: (Units=GPa)
#
#
# Indices 1 2 3 4 5 6 
#
# 1 82.3021 27.7981 23.0200 0.0000 0.0000 0.0000
# 2 27.7981 105.8866 43.9084 0.0000 0.0000 0.0000
# 3 23.0200 43.9084 94.7046 0.0000 0.0000 0.0000
# 4 0.0000 0.0000 0.0000 1.8857 0.0000 0.0000
# 5 0.0000 0.0000 0.0000 0.0000 7.1344 0.0000
# 6 0.0000 0.0000 0.0000 0.0000 0.0000 14.6499
#
#
#
# Elastic Compliance Matrix: (Units=1/GPa)
#
#
# Indices 1 2 3 4 5 6 
#
# 1 0.013647 -0.002732 -0.002050 0.000000 0.000000 0.000000
# 2 -0.002732 0.012239 -0.005010 0.000000 0.000000 0.000000
# 3 -0.002050 -0.005010 0.013380 0.000000 0.000000 0.000000
# 4 0.000000 0.000000 0.000000 0.530317 0.000000 0.000000
# 5 0.000000 0.000000 0.000000 0.000000 0.140165 0.000000
# 6 0.000000 0.000000 0.000000 0.000000 0.000000 0.068260
#
#
# Mechanical properties :
#
#
# Convention : Reuss Voigt Hill
#
# Bulk Modulus (GPa) = 50.81238 52.48291 51.64765
# Shear Modulus (GPa) = 6.21771 17.27845 11.74808
#
# Velocity S-wave (km/s) = 1.79684 2.99534 2.46989
# Velocity P-wave (km/s) = 5.53985 6.26221 5.91207
#
# Compressibility (1/GPa) = 0.01968024
#
# Stress axis : x y z
#
# Youngs Moduli (GPa) = 73.27773 81.70583 74.73585
#
# Poissons Ratio (x) = 0.22326 0.15323
# Poissons Ratio (y) = 0.20023 0.37445
# Poissons Ratio (z) = 0.15024 0.40937
#
# Static dielectric constant tensor:
#      x y z
#    x 1.588790 0.000000 0.000000 
#    y 0.000000 1.683970 0.000000 
#    z 0.000000 0.000000 1.716990 
# 
# From -- ./inp_files/17111.got.cif
#   From: 2010.05.17/outbox.cif.g08.bks.cpg/sg56_9_cif.got.tgz:17111.got - 2010.06.03 13:42:01.
