data_PCOD9430468
_publ_section_title
;
Structure prediction by ZEFSAII (Michael W. Deem and Ramdas Pophale) SiO2 
 PCOD9430468
Probable space group: P C C N
;
_chemical_formula_sum "Si O2"
_cell_formula_units_Z 36
_cell_length_a 5.138211
_cell_length_b 17.925101
_cell_length_c 21.516423
_cell_angle_alpha 90.000000
_cell_angle_beta 90.000000
_cell_angle_gamma 90.000000
_cell_volume 1981.726056
_symmetry_space_group_name_H-M "P C C N"
_symmetry_group_IT_number 56
_symmetry_cell_setting 'orthorhombic'
loop_
_space_group_symop_operation_xyz
x,y,z
1/2-x,1/2-y,z
1/2+x,-y,1/2-z
-x,1/2+y,1/2-z
-x,-y,-z
1/2+x,1/2+y,-z
1/2-x,y,1/2+z
x,1/2-y,1/2+z
loop_
_atom_site_type_symbol
_atom_site_label
_atom_site_fract_x
_atom_site_fract_y
_atom_site_fract_z
Si Si1 0.563942 0.530352 0.782232
Si Si2 0.250000 0.750000 0.419452
Si Si3 0.271432 0.485308 0.581258
Si Si4 0.498641 0.707285 0.795163
Si Si5 0.765326 0.408054 0.529841
O O1 0.293339 0.490108 0.765935
O O2 0.679634 0.505407 0.848597
O O3 0.511977 0.619294 0.784529
O O4 0.467557 0.776400 0.369397
O O5 0.298361 0.678183 0.461042
O O6 0.558142 0.450537 0.574179
O O7 0.271167 0.559401 0.539115
O O8 0.056941 0.430243 0.550235
O O9 0.750000 0.750000 0.772157
O O10 0.250000 0.750000 0.767550
#
# Coordination Sequence:
#
# PCOD9430468 Si02
#       5
#     8   4   8   8   8
#     4  12  23  36  60  87 118 162 205 239 288 357
#     4  10  20  32  62  88 106 146 188 250 292 346
#     4  10  20  38  52  88 116 149 181 241 296 346
#     4  10  20  35  57  83 115 141 196 250 288 335
#     4  10  20  33  62  82 117 139 185 245 302 341
#
# _framework density 18.165983000000001
#
# number of rings (size 3 to 8) (size 9 to 14) (size 15 to 20)
#    0.667    0.889    2.222    4.000    0.000    0.000 
#    0.000    0.000    7.333    0.000    0.000    0.000 
#    0.000    0.000    0.000    0.000    0.000    0.000 
#
# Total GULP energy -200658.596702 kJ/mol
# GULP energy per Si atom -5573.849908 kJ/mol
# Density = 1.812464 g / cm^3
# Si number density = 18.165983 Si / 1000 Ang^3
#
#
#
# Elastic Constant Matrix: (Units=GPa)
#
#
# Indices 1 2 3 4 5 6 
#
# 1 109.6506 46.7204 10.0127 0.0000 0.0000 0.0000
# 2 46.7204 140.3366 44.4147 0.0000 0.0000 0.0000
# 3 10.0127 44.4147 51.9971 0.0000 0.0000 0.0000
# 4 0.0000 0.0000 0.0000 23.6054 0.0000 0.0000
# 5 0.0000 0.0000 0.0000 0.0000 15.4830 0.0000
# 6 0.0000 0.0000 0.0000 0.0000 0.0000 22.4781
#
#
#
# Elastic Compliance Matrix: (Units=1/GPa)
#
#
# Indices 1 2 3 4 5 6 
#
# 1 0.010696 -0.003987 0.001346 0.000000 0.000000 0.000000
# 2 -0.003987 0.011252 -0.008843 0.000000 0.000000 0.000000
# 3 0.001346 -0.008843 0.026526 0.000000 0.000000 0.000000
# 4 0.000000 0.000000 0.000000 0.042363 0.000000 0.000000
# 5 0.000000 0.000000 0.000000 0.000000 0.064587 0.000000
# 6 0.000000 0.000000 0.000000 0.000000 0.000000 0.044488
#
#
# Mechanical properties :
#
#
# Convention : Reuss Voigt Hill
#
# Bulk Modulus (GPa) = 39.20744 56.03111 47.61928
# Shear Modulus (GPa) = 21.60930 25.70240 23.65585
#
# Velocity S-wave (km/s) = 3.45272 3.76555 3.61252
# Velocity P-wave (km/s) = 6.12575 7.05810 6.60839
#
# Compressibility (1/GPa) = 0.02550536
#
# Stress axis : x y z
#
# Youngs Moduli (GPa) = 93.49599 88.87520 37.69827
#
# Poissons Ratio (x) = 0.35432 -0.05073
# Poissons Ratio (y) = 0.37274 0.33338
# Poissons Ratio (z) = -0.12582 0.78595
#
# Static dielectric constant tensor:
#      x y z
#    x 1.886890 0.000000 0.000000 
#    y 0.000000 1.601820 0.000000 
#    z 0.000000 0.000000 1.642270 
# 
# From -- ./inp_files/17409.got.cif
#   From: 2010.05.17/outbox.cif.g08.bks.cpg/sg56_9_cif.got.tgz:17409.got - 2010.06.03 13:42:01.
