data_PCOD9430795
_publ_section_title
;
Structure prediction by ZEFSAII (Michael W. Deem and Ramdas Pophale) SiO2 
 PCOD9430795
Probable space group: P C C N
;
_chemical_formula_sum "Si O2"
_cell_formula_units_Z 64
_cell_length_a 17.331259
_cell_length_b 10.502693
_cell_length_c 18.743474
_cell_angle_alpha 90.000000
_cell_angle_beta 90.000000
_cell_angle_gamma 90.000000
_cell_volume 3411.778841
_symmetry_space_group_name_H-M "P C C N"
_symmetry_group_IT_number 56
_symmetry_cell_setting 'orthorhombic'
loop_
_space_group_symop_operation_xyz
x,y,z
1/2-x,1/2-y,z
1/2+x,-y,1/2-z
-x,1/2+y,1/2-z
-x,-y,-z
1/2+x,1/2+y,-z
1/2-x,y,1/2+z
x,1/2-y,1/2+z
loop_
_atom_site_type_symbol
_atom_site_label
_atom_site_fract_x
_atom_site_fract_y
_atom_site_fract_z
Si Si1 0.398291 0.659423 0.208103
Si Si2 0.705746 0.870486 0.655959
Si Si3 0.262964 0.601200 0.103395
Si Si4 0.958649 0.748473 0.612505
Si Si5 0.041916 0.373188 0.027094
Si Si6 0.276776 0.107426 0.996759
Si Si7 0.485932 0.530232 0.330252
Si Si8 0.147074 0.941845 0.726867
O O1 0.335798 0.598397 0.155850
O O2 0.473025 0.688472 0.159147
O O3 0.422504 0.578621 0.275816
O O4 0.364431 0.791857 0.238292
O O5 0.750000 0.750000 0.690550
O O6 0.622391 0.820403 0.627655
O O7 0.757113 0.906467 0.587041
O O8 0.691356 0.983165 0.711507
O O9 0.250000 0.750000 0.082959
O O10 0.267044 0.504409 0.038269
O O11 0.191886 0.554306 0.151933
O O12 0.976525 0.758501 0.527732
O O13 0.957436 0.896519 0.636893
O O14 0.133084 0.396948 0.016880
O O15 0.011639 0.369283 0.108349
O O16 0.000000 0.500000 0.000000
O O17 0.250000 0.250000 0.016829
O O18 0.563374 0.502053 0.285542
#
# Coordination Sequence:
#
# PCOD9430795 Si02
#       8
#     8   8   8   8   8   8   8   8
#     4  10  22  41  62  88 126 161 209 265 309 374
#     4  11  22  38  62  91 132 157 205 267 321 363
#     4  10  23  43  64  85 127 173 209 255 324 384
#     4  10  20  39  59  89 124 164 199 257 318 371
#     4  10  20  37  64  89 120 167 210 250 312 386
#     4  11  22  42  63  95 129 162 211 265 310 381
#     4  10  20  38  64  87 120 161 215 246 309 384
#     4  10  21  40  61  88 122 163 205 255 313 376
#
# _framework density 18.758543
#
# number of rings (size 3 to 8) (size 9 to 14) (size 15 to 20)
#    0.000    1.750    5.000    0.000    3.500    0.500 
#    6.750    2.500    0.000    0.000    0.000    0.000 
#    0.000    0.000    0.000    0.000    0.000    0.000 
#
# Total GULP energy -356902.923039 kJ/mol
# GULP energy per Si atom -5576.608172 kJ/mol
# Density = 1.871585 g / cm^3
# Si number density = 18.758543 Si / 1000 Ang^3
#
#
#
# Elastic Constant Matrix: (Units=GPa)
#
#
# Indices 1 2 3 4 5 6 
#
# 1 59.0815 18.1823 5.4391 0.0000 0.0000 0.0000
# 2 18.1823 52.8233 43.6720 0.0000 0.0000 0.0000
# 3 5.4391 43.6720 71.0815 0.0000 0.0000 0.0000
# 4 0.0000 0.0000 0.0000 26.5328 0.0000 0.0000
# 5 0.0000 0.0000 0.0000 0.0000 13.8081 0.0000
# 6 0.0000 0.0000 0.0000 0.0000 0.0000 25.8800
#
#
#
# Elastic Compliance Matrix: (Units=1/GPa)
#
#
# Indices 1 2 3 4 5 6 
#
# 1 0.019924 -0.011376 0.005465 0.000000 0.000000 0.000000
# 2 -0.011376 0.044970 -0.026759 0.000000 0.000000 0.000000
# 3 0.005465 -0.026759 0.030091 0.000000 0.000000 0.000000
# 4 0.000000 0.000000 0.000000 0.037689 0.000000 0.000000
# 5 0.000000 0.000000 0.000000 0.000000 0.072421 0.000000
# 6 0.000000 0.000000 0.000000 0.000000 0.000000 0.038640
#
#
# Mechanical properties :
#
#
# Convention : Reuss Voigt Hill
#
# Bulk Modulus (GPa) = 33.73336 35.28590 34.50963
# Shear Modulus (GPa) = 15.67619 20.95704 18.31661
#
# Velocity S-wave (km/s) = 2.89395 3.34608 3.12820
# Velocity P-wave (km/s) = 5.40265 5.81203 5.61108
#
# Compressibility (1/GPa) = 0.02964424
#
# Stress axis : x y z
#
# Youngs Moduli (GPa) = 50.19166 22.23722 33.23302
#
# Poissons Ratio (x) = 0.25297 -0.18161
# Poissons Ratio (y) = 0.57098 0.88927
# Poissons Ratio (z) = -0.27429 0.59504
#
# Static dielectric constant tensor:
#      x y z
#    x 1.668170 0.000000 0.000000 
#    y 0.000000 1.644180 0.000000 
#    z 0.000000 0.000000 1.687920 
# 
# From -- ./inp_files/16728.got.cif
#   From: 2010.05.17/outbox.cif.g08.bks.cpg/sg56_9_cif.got.tgz:16728.got - 2010.06.03 13:42:01.
