data_PCOD9430907
_publ_section_title
;
Structure prediction by ZEFSAII (Michael W. Deem and Ramdas Pophale) SiO2 
 PCOD9430907
Probable space group: P C C N
;
_chemical_formula_sum "Si O2"
_cell_formula_units_Z 64
_cell_length_a 15.421213
_cell_length_b 18.638391
_cell_length_c 8.995458
_cell_angle_alpha 90.000000
_cell_angle_beta 90.000000
_cell_angle_gamma 90.000000
_cell_volume 2585.533887
_symmetry_space_group_name_H-M "P C C N"
_symmetry_group_IT_number 56
_symmetry_cell_setting 'orthorhombic'
loop_
_space_group_symop_operation_xyz
x,y,z
1/2-x,1/2-y,z
1/2+x,-y,1/2-z
-x,1/2+y,1/2-z
-x,-y,-z
1/2+x,1/2+y,-z
1/2-x,y,1/2+z
x,1/2-y,1/2+z
loop_
_atom_site_type_symbol
_atom_site_label
_atom_site_fract_x
_atom_site_fract_y
_atom_site_fract_z
Si Si1 0.335524 0.720729 0.639938
Si Si2 0.863186 0.484172 0.386676
Si Si3 0.588037 0.350395 0.721593
Si Si4 0.511304 0.757246 0.952408
Si Si5 0.607341 0.424464 0.404484
Si Si6 0.708336 0.967514 0.062081
Si Si7 0.678557 0.690733 0.624346
Si Si8 0.040110 0.386767 0.681593
O O1 0.250000 0.750000 0.558495
O O2 0.347230 0.782815 0.763447
O O3 0.429762 0.725682 0.559897
O O4 0.329901 0.635419 0.672287
O O5 0.899469 0.405651 0.354346
O O6 0.794436 0.489555 0.517758
O O7 0.933566 0.545578 0.414444
O O8 0.819912 0.511174 0.229466
O O9 0.497222 0.311126 0.688407
O O10 0.602641 0.396875 0.574018
O O11 0.603192 0.772503 0.026119
O O12 0.493067 0.676862 0.902077
O O13 0.641358 0.504372 0.434400
O O14 0.517016 0.417770 0.317778
O O15 0.717973 0.881621 0.050748
O O16 0.750000 0.750000 0.661804
O O17 0.624320 0.656281 0.759573
#
# Coordination Sequence:
#
# PCOD9430907 Si02
#       8
#     8   8   8   8   8   8   8   8
#     4  11  22  40  64  93 129 173 221 280 347 404
#     4  10  23  41  68  93 131 177 225 281 342 410
#     4  10  20  38  64  90 128 170 220 276 333 408
#     4  11  22  41  62  98 133 171 224 283 340 413
#     4  10  21  40  64  94 125 178 219 276 339 412
#     4  10  23  42  65  98 131 173 232 280 340 414
#     4  11  23  40  69  97 132 181 228 285 343 407
#     4  11  22  42  66  92 136 175 229 273 346 415
#
# _framework density 24.753107
#
# number of rings (size 3 to 8) (size 9 to 14) (size 15 to 20)
#    0.000    1.500    3.750    1.500    1.750    6.000 
#    9.000    1.875    0.000    0.000    0.000    0.000 
#    0.000    0.000    0.000    0.000    0.000    0.000 
#
# Total GULP energy -357179.252628 kJ/mol
# GULP energy per Si atom -5580.925822 kJ/mol
# Density = 2.469677 g / cm^3
# Si number density = 24.753107 Si / 1000 Ang^3
#
#
#
# Elastic Constant Matrix: (Units=GPa)
#
#
# Indices 1 2 3 4 5 6 
#
# 1 64.3645 30.1249 12.6478 0.0000 0.0000 0.0000
# 2 30.1249 111.2221 25.0697 0.0000 0.0000 0.0000
# 3 12.6478 25.0697 29.5919 0.0000 0.0000 0.0000
# 4 0.0000 0.0000 0.0000 23.6024 0.0000 0.0000
# 5 0.0000 0.0000 0.0000 0.0000 28.3988 0.0000
# 6 0.0000 0.0000 0.0000 0.0000 0.0000 46.9427
#
#
#
# Elastic Compliance Matrix: (Units=1/GPa)
#
#
# Indices 1 2 3 4 5 6 
#
# 1 0.018258 -0.003938 -0.004467 0.000000 0.000000 0.000000
# 2 -0.003938 0.011963 -0.008451 0.000000 0.000000 0.000000
# 3 -0.004467 -0.008451 0.042862 0.000000 0.000000 0.000000
# 4 0.000000 0.000000 0.000000 0.042368 0.000000 0.000000
# 5 0.000000 0.000000 0.000000 0.000000 0.035213 0.000000
# 6 0.000000 0.000000 0.000000 0.000000 0.000000 0.021303
#
#
# Mechanical properties :
#
#
# Convention : Reuss Voigt Hill
#
# Bulk Modulus (GPa) = 25.40059 37.87371 31.63715
# Shear Modulus (GPa) = 22.85167 28.94451 25.89809
#
# Velocity S-wave (km/s) = 3.04169 3.42325 3.23810
# Velocity P-wave (km/s) = 4.75602 5.56405 5.17583
#
# Compressibility (1/GPa) = 0.03936916
#
# Stress axis : x y z
#
# Youngs Moduli (GPa) = 54.77184 83.59352 23.33062
#
# Poissons Ratio (x) = 0.32921 0.10422
# Poissons Ratio (y) = 0.21571 0.19717
# Poissons Ratio (z) = 0.24467 0.70647
#
# Static dielectric constant tensor:
#      x y z
#    x 2.051880 0.000000 0.000000 
#    y 0.000000 2.055610 0.000000 
#    z 0.000000 0.000000 2.069440 
# 
# From -- ./inp_files/8059.got.cif
#   From: 2010.05.17/outbox.cif.g08.bks.cpg/sg56_5_cif.got.tgz:8059.got - 2010.06.03 13:42:01.
