data_PCOD9430353
_publ_section_title
;
Structure prediction by ZEFSAII (Michael W. Deem and Ramdas Pophale) SiO2 
 PCOD9430353
Probable space group: P C C N
;
_chemical_formula_sum "Si O2"
_cell_formula_units_Z 44
_cell_length_a 12.230969
_cell_length_b 8.066901
_cell_length_c 20.615394
_cell_angle_alpha 90.000000
_cell_angle_beta 90.000000
_cell_angle_gamma 90.000000
_cell_volume 2034.038795
_symmetry_space_group_name_H-M "P C C N"
_symmetry_group_IT_number 56
_symmetry_cell_setting 'orthorhombic'
loop_
_space_group_symop_operation_xyz
x,y,z
1/2-x,1/2-y,z
1/2+x,-y,1/2-z
-x,1/2+y,1/2-z
-x,-y,-z
1/2+x,1/2+y,-z
1/2-x,y,1/2+z
x,1/2-y,1/2+z
loop_
_atom_site_type_symbol
_atom_site_label
_atom_site_fract_x
_atom_site_fract_y
_atom_site_fract_z
Si Si1 0.750000 0.750000 0.491376
Si Si2 0.679436 0.094450 0.496168
Si Si3 0.511397 0.819617 0.034209
Si Si4 0.007559 0.085779 0.326847
Si Si5 0.143100 0.341619 0.248233
Si Si6 0.758371 0.436911 0.144582
O O1 0.785818 0.574424 0.458859
O O2 0.860041 0.783640 0.531422
O O3 0.750000 0.250000 0.471836
O O4 0.557753 0.171214 0.498003
O O5 0.716087 0.063036 0.570775
O O6 0.471189 0.823938 0.107916
O O7 0.500000 0.000000 0.000000
O O8 0.052743 0.210863 0.272608
O O9 0.114912 0.984949 0.349755
O O10 0.914458 0.968157 0.299681
O O11 0.250000 0.250000 0.220339
O O12 0.188608 0.438560 0.311443
O O13 0.750000 0.250000 0.169934
#
# Coordination Sequence:
#
# PCOD9430353 Si02
#       6
#     4   8   8   8   8   8
#     4  12  22  42  68  96 136 188 230 274 344 408
#     4  11  22  41  67 104 138 186 230 279 344 419
#     4  12  24  43  70 103 142 184 235 289 349 428
#     4  11  22  42  69  95 140 177 229 293 341 418
#     4  10  23  41  68 103 132 176 233 284 349 408
#     4  10  19  38  69  97 134 175 234 274 338 424
#
# _framework density 21.631837000000001
#
# number of rings (size 3 to 8) (size 9 to 14) (size 15 to 20)
#    0.000    1.091    3.636    3.818    2.545    0.000 
#    1.636    4.545    0.000    0.000    0.000    0.000 
#    0.000    0.000    0.000    0.000    0.000    0.000 
#
# Total GULP energy -245718.200595 kJ/mol
# GULP energy per Si atom -5584.504559 kJ/mol
# Density = 2.158260 g / cm^3
# Si number density = 21.631837 Si / 1000 Ang^3
#
#
#
# Elastic Constant Matrix: (Units=GPa)
#
#
# Indices 1 2 3 4 5 6 
#
# 1 130.4966 54.6460 35.9628 0.0000 0.0000 0.0000
# 2 54.6460 147.5345 4.5410 0.0000 0.0000 0.0000
# 3 35.9628 4.5410 32.4721 0.0000 0.0000 0.0000
# 4 0.0000 0.0000 0.0000 0.9620 0.0000 0.0000
# 5 0.0000 0.0000 0.0000 0.0000 -1.0850 0.0000
# 6 0.0000 0.0000 0.0000 0.0000 0.0000 58.7979
#
#
#
# Elastic Compliance Matrix: (Units=1/GPa)
#
#
# Indices 1 2 3 4 5 6 
#
# 1 0.013530 -0.004570 -0.014346 0.000000 0.000000 0.000000
# 2 -0.004570 0.008351 0.003893 0.000000 0.000000 0.000000
# 3 -0.014346 0.003893 0.046139 0.000000 0.000000 0.000000
# 4 0.000000 0.000000 0.000000 1.039523 0.000000 0.000000
# 5 0.000000 0.000000 0.000000 0.000000 -0.921643 0.000000
# 6 0.000000 0.000000 0.000000 0.000000 0.000000 0.017007
#
#
# Mechanical properties :
#
#
# Convention : Reuss Voigt Hill
#
# Bulk Modulus (GPa) = 26.33258 55.64476 40.98867
# Shear Modulus (GPa) = 20.35750 26.09187 23.22469
#
# Velocity S-wave (km/s) = 3.07105 3.47678 3.28019
# Velocity P-wave (km/s) = 4.97741 6.47277 5.77370
#
# Compressibility (1/GPa) = 0.03797577
#
# Stress axis : x y z
#
# Youngs Moduli (GPa) = 73.90920 119.74718 21.67371
#
# Poissons Ratio (x) = 0.54724 0.31092
# Poissons Ratio (y) = 0.33776 -0.08438
# Poissons Ratio (z) = 1.06027 -0.46622
#
# Static dielectric constant tensor:
#      x y z
#    x 1.852480 0.000000 0.000000 
#    y 0.000000 1.891980 0.000000 
#    z 0.000000 0.000000 1.762570 
# 
# From -- ./inp_files/20843.got.cif
#   From: 2010.05.17/outbox.cif.g08.bks.cpg/sg56_11_cif.got.tgz:20843.got - 2010.06.03 13:42:01.
