data_PCOD9430737
_publ_section_title
;
Structure prediction by ZEFSAII (Michael W. Deem and Ramdas Pophale) SiO2 
 PCOD9430737
Probable space group: P C C N
;
_chemical_formula_sum "Si O2"
_cell_formula_units_Z 48
_cell_length_a 17.819788
_cell_length_b 7.745618
_cell_length_c 13.667875
_cell_angle_alpha 90.000000
_cell_angle_beta 90.000000
_cell_angle_gamma 90.000000
_cell_volume 1886.512147
_symmetry_space_group_name_H-M "P C C N"
_symmetry_group_IT_number 56
_symmetry_cell_setting 'orthorhombic'
loop_
_space_group_symop_operation_xyz
x,y,z
1/2-x,1/2-y,z
1/2+x,-y,1/2-z
-x,1/2+y,1/2-z
-x,-y,-z
1/2+x,1/2+y,-z
1/2-x,y,1/2+z
x,1/2-y,1/2+z
loop_
_atom_site_type_symbol
_atom_site_label
_atom_site_fract_x
_atom_site_fract_y
_atom_site_fract_z
Si Si1 0.814952 0.969235 0.581782
Si Si2 0.250000 0.250000 0.245779
Si Si3 0.405868 0.164439 0.239202
Si Si4 0.418580 0.158590 0.458837
Si Si5 0.750000 0.250000 0.460720
Si Si6 0.554377 0.446749 0.695240
Si Si7 0.916610 0.174048 0.906959
O O1 0.754184 0.075251 0.523710
O O2 0.884979 0.090586 0.612353
O O3 0.778822 0.899862 0.681922
O O4 0.854914 0.804496 0.533092
O O5 0.323225 0.176390 0.194528
O O6 0.406291 0.079047 0.348362
O O7 0.430294 0.359194 0.267226
O O8 0.467731 0.080970 0.170766
O O9 0.503591 0.236384 0.453823
O O10 0.413085 0.016245 0.542548
O O11 0.667283 0.250895 0.413111
O O12 0.568703 0.335243 0.791435
#
# Coordination Sequence:
#
# PCOD9430737 Si02
#       7
#     8   4   8   8   4   8   8
#     4  10  21  38  57  81 110 151 190 227 281 348
#     4   8  16  34  56  76 104 136 184 226 270 332
#     4   9  17  34  57  81 107 145 183 225 274 334
#     4   8  18  38  59  75 109 151 182 216 283 356
#     4  12  24  34  56  86 114 146 188 242 294 318
#     4   9  20  36  57  82 111 146 191 227 274 337
#     4  10  20  37  58  84 112 145 186 239 284 332
#
# _framework density 25.44378
#
# number of rings (size 3 to 8) (size 9 to 14) (size 15 to 20)
#    0.000    3.000    0.000    2.000    0.000    6.667 
#    0.000   18.333    0.000    0.000    0.000    0.000 
#    0.000    0.000    0.000    0.000    0.000    0.000 
#
# Total GULP energy -268045.962042 kJ/mol
# GULP energy per Si atom -5584.290876 kJ/mol
# Density = 2.538587 g / cm^3
# Si number density = 25.443780 Si / 1000 Ang^3
#
#
#
# Elastic Constant Matrix: (Units=GPa)
#
#
# Indices 1 2 3 4 5 6 
#
# 1 183.5059 22.1598 10.7961 0.0000 0.0000 0.0000
# 2 22.1598 31.3505 -7.1797 0.0000 0.0000 0.0000
# 3 10.7961 -7.1797 55.9545 0.0000 0.0000 0.0000
# 4 0.0000 0.0000 0.0000 20.0319 0.0000 0.0000
# 5 0.0000 0.0000 0.0000 0.0000 19.3483 0.0000
# 6 0.0000 0.0000 0.0000 0.0000 0.0000 53.6841
#
#
#
# Elastic Compliance Matrix: (Units=1/GPa)
#
#
# Indices 1 2 3 4 5 6 
#
# 1 0.006127 -0.004741 -0.001791 0.000000 0.000000 0.000000
# 2 -0.004741 0.036532 0.005602 0.000000 0.000000 0.000000
# 3 -0.001791 0.005602 0.018936 0.000000 0.000000 0.000000
# 4 0.000000 0.000000 0.000000 0.049920 0.000000 0.000000
# 5 0.000000 0.000000 0.000000 0.000000 0.051684 0.000000
# 6 0.000000 0.000000 0.000000 0.000000 0.000000 0.018628
#
#
# Mechanical properties :
#
#
# Convention : Reuss Voigt Hill
#
# Bulk Modulus (GPa) = 16.74032 35.81814 26.27923
# Shear Modulus (GPa) = 24.55822 34.94849 29.75336
#
# Velocity S-wave (km/s) = 3.11013 3.71017 3.42332
# Velocity P-wave (km/s) = 4.41484 5.69752 5.09670
#
# Compressibility (1/GPa) = 0.05973603
#
# Stress axis : x y z
#
# Youngs Moduli (GPa) = 163.20451 27.37356 52.80953
#
# Poissons Ratio (x) = 0.12978 0.09456
# Poissons Ratio (y) = 0.77376 -0.29585
# Poissons Ratio (z) = 0.29223 -0.15335
#
# Static dielectric constant tensor:
#      x y z
#    x 2.090500 0.000000 0.000000 
#    y 0.000000 2.029020 0.000000 
#    z 0.000000 0.000000 2.018290 
# 
# From -- ./inp_files/15005.got.cif
#   From: 2010.05.17/outbox.cif.g08.bks.cpg/sg56_8_cif.got.tgz:15005.got - 2010.06.03 13:42:01.
