data_PCOD9430812
_publ_section_title
;
Structure prediction by ZEFSAII (Michael W. Deem and Ramdas Pophale) SiO2 
 PCOD9430812
Probable space group: P C C N
;
_chemical_formula_sum "Si O2"
_cell_formula_units_Z 60
_cell_length_a 24.354899
_cell_length_b 8.646816
_cell_length_c 13.425482
_cell_angle_alpha 90.000000
_cell_angle_beta 90.000000
_cell_angle_gamma 90.000000
_cell_volume 2827.303540
_symmetry_space_group_name_H-M "P C C N"
_symmetry_group_IT_number 56
_symmetry_cell_setting 'orthorhombic'
loop_
_space_group_symop_operation_xyz
x,y,z
1/2-x,1/2-y,z
1/2+x,-y,1/2-z
-x,1/2+y,1/2-z
-x,-y,-z
1/2+x,1/2+y,-z
1/2-x,y,1/2+z
x,1/2-y,1/2+z
loop_
_atom_site_type_symbol
_atom_site_label
_atom_site_fract_x
_atom_site_fract_y
_atom_site_fract_z
Si Si1 0.065164 0.870311 0.165365
Si Si2 0.660534 0.416879 0.578107
Si Si3 0.945186 0.059227 0.448072
Si Si4 0.250000 0.250000 0.681391
Si Si5 0.866232 0.352471 0.701665
Si Si6 0.636832 0.628438 0.761096
Si Si7 0.942031 0.897375 0.231429
Si Si8 0.220986 0.914956 0.623908
O O1 0.058437 0.742071 0.079223
O O2 0.089154 0.770559 0.257473
O O3 0.003725 0.919207 0.193690
O O4 0.109783 0.009102 0.157845
O O5 0.603544 0.462136 0.525758
O O6 0.664287 0.240723 0.616179
O O7 0.663957 0.524847 0.674269
O O8 0.702475 0.435624 0.489330
O O9 0.938700 0.963688 0.344772
O O10 0.000000 0.000000 0.500000
O O11 0.185613 0.249624 0.717331
O O12 0.246511 0.427153 0.642940
O O13 0.900389 0.499090 0.667186
O O14 0.827656 0.397025 0.794467
O O15 0.582822 0.725733 0.728597
O O16 0.250000 0.750000 0.633489
#
# Coordination Sequence:
#
# PCOD9430812 Si02
#       8
#     8   8   8   4   8   8   8   8
#     4  10  20  37  68  95 133 185 231 278 361 425
#     4  11  23  42  67  98 132 182 239 286 357 433
#     4  11  21  38  63  99 139 177 238 289 348 432
#     4  12  26  46  74 102 142 190 242 292 374 438
#     4  10  21  43  65  95 135 178 227 280 360 425
#     4  11  23  42  68  98 138 185 234 298 360 433
#     4  11  20  41  65  96 139 184 225 293 360 421
#     4  12  25  48  73  98 139 188 232 302 361 422
#
# _framework density 21.221633000000001
#
# number of rings (size 3 to 8) (size 9 to 14) (size 15 to 20)
#    0.000    1.067    4.000    5.600    0.000    2.133 
#    2.400    4.000    0.000    0.000    0.000    0.000 
#    0.000    0.000    0.000    0.000    0.000    0.000 
#
# Total GULP energy -334114.071016 kJ/mol
# GULP energy per Si atom -5568.567850 kJ/mol
# Density = 2.117333 g / cm^3
# Si number density = 21.221633 Si / 1000 Ang^3
#
#
#
# Elastic Constant Matrix: (Units=GPa)
#
#
# Indices 1 2 3 4 5 6 
#
# 1 89.0963 30.2274 14.5710 0.0000 0.0000 0.0000
# 2 30.2274 106.6530 8.6204 0.0000 0.0000 0.0000
# 3 14.5710 8.6204 40.4101 0.0000 0.0000 0.0000
# 4 0.0000 0.0000 0.0000 165.4846 0.0000 0.0000
# 5 0.0000 0.0000 0.0000 0.0000 22.1796 0.0000
# 6 0.0000 0.0000 0.0000 0.0000 0.0000 46.4922
#
#
#
# Elastic Compliance Matrix: (Units=1/GPa)
#
#
# Indices 1 2 3 4 5 6 
#
# 1 0.013016 -0.003368 -0.003975 0.000000 0.000000 0.000000
# 2 -0.003368 0.010412 -0.001007 0.000000 0.000000 0.000000
# 3 -0.003975 -0.001007 0.026394 0.000000 0.000000 0.000000
# 4 0.000000 0.000000 0.000000 0.006043 0.000000 0.000000
# 5 0.000000 0.000000 0.000000 0.000000 0.045087 0.000000
# 6 0.000000 0.000000 0.000000 0.000000 0.000000 0.021509
#
#
# Mechanical properties :
#
#
# Convention : Reuss Voigt Hill
#
# Bulk Modulus (GPa) = 30.18989 38.11079 34.15034
# Shear Modulus (GPa) = 33.28857 59.01400 46.15129
#
# Velocity S-wave (km/s) = 3.96487 5.27909 4.66846
# Velocity P-wave (km/s) = 5.93440 7.42670 6.72209
#
# Compressibility (1/GPa) = 0.03312367
#
# Stress axis : x y z
#
# Youngs Moduli (GPa) = 76.82573 96.04236 37.88688
#
# Poissons Ratio (x) = 0.32345 0.15060
# Poissons Ratio (y) = 0.25873 0.03814
# Poissons Ratio (z) = 0.30538 0.09669
#
# Static dielectric constant tensor:
#      x y z
#    x 1.830150 0.000000 0.000000 
#    y 0.000000 1.813530 0.000000 
#    z 0.000000 0.000000 1.770650 
# 
# From -- ./inp_files/9081.got.cif
#   From: 2010.05.17/outbox.cif.g08.bks.cpg/sg56_5_cif.got.tgz:9081.got - 2010.06.03 13:42:01.
