data_PCOD9430882
_publ_section_title
;
Structure prediction by ZEFSAII (Michael W. Deem and Ramdas Pophale) SiO2 
 PCOD9430882
Probable space group: P C C N
;
_chemical_formula_sum "Si O2"
_cell_formula_units_Z 56
_cell_length_a 6.174172
_cell_length_b 14.275449
_cell_length_c 31.217116
_cell_angle_alpha 90.000000
_cell_angle_beta 90.000000
_cell_angle_gamma 90.000000
_cell_volume 2751.447807
_symmetry_space_group_name_H-M "P C C N"
_symmetry_group_IT_number 56
_symmetry_cell_setting 'orthorhombic'
loop_
_space_group_symop_operation_xyz
x,y,z
1/2-x,1/2-y,z
1/2+x,-y,1/2-z
-x,1/2+y,1/2-z
-x,-y,-z
1/2+x,1/2+y,-z
1/2-x,y,1/2+z
x,1/2-y,1/2+z
loop_
_atom_site_type_symbol
_atom_site_label
_atom_site_fract_x
_atom_site_fract_y
_atom_site_fract_z
Si Si1 0.102101 0.501262 0.355217
Si Si2 0.633767 0.650296 0.216734
Si Si3 0.087647 0.872759 0.977861
Si Si4 0.533972 0.079742 0.088051
Si Si5 0.750000 0.250000 0.747912
Si Si6 0.662101 0.045581 0.437160
Si Si7 0.750000 0.750000 0.431923
Si Si8 0.366056 0.344542 0.196430
O O1 0.165023 0.427486 0.318866
O O2 0.309251 0.559169 0.372114
O O3 0.990814 0.449395 0.395656
O O4 0.929135 0.575050 0.336337
O O5 0.750000 0.750000 0.206919
O O6 0.384235 0.677719 0.223316
O O7 0.723197 0.619674 0.263362
O O8 0.303280 0.892790 0.950470
O O9 0.949117 0.786175 0.960828
O O10 0.141313 0.872538 0.028091
O O11 0.925992 0.956831 0.964292
O O12 0.360124 0.163424 0.093258
O O13 0.401574 0.985439 0.076820
O O14 0.585816 0.193060 0.718253
O O15 0.250000 0.250000 0.179987
#
# Coordination Sequence:
#
# PCOD9430882 Si02
#       8
#     8   8   8   8   4   8   4   8
#     4  11  23  39  63  98 127 166 213 268 326 375
#     4   9  21  41  65  90 121 168 218 267 320 386
#     4   9  18  38  61  83 118 167 201 253 312 378
#     4  10  21  38  60  92 127 166 211 260 312 386
#     4   8  18  40  62  84 116 160 212 262 306 378
#     4   9  20  37  58  89 119 155 210 257 309 376
#     4  10  20  38  62  90 128 168 212 252 322 380
#     4   9  21  41  59  91 124 165 214 262 315 390
#
# _framework density 20.352922
#
# number of rings (size 3 to 8) (size 9 to 14) (size 15 to 20)
#    0.000    2.857    0.000    0.857    2.000    5.714 
#   23.143    0.000    3.143    0.000    0.000    0.000 
#    0.000    0.000    0.000    0.000    0.000    0.000 
#
# Total GULP energy -312324.381819 kJ/mol
# GULP energy per Si atom -5577.221104 kJ/mol
# Density = 2.030660 g / cm^3
# Si number density = 20.352922 Si / 1000 Ang^3
#
#
#
# Elastic Constant Matrix: (Units=GPa)
#
#
# Indices 1 2 3 4 5 6 
#
# 1 94.1979 29.2714 38.4225 0.0000 0.0000 0.0000
# 2 29.2714 61.2845 51.4251 0.0000 0.0000 0.0000
# 3 38.4225 51.4251 125.6918 0.0000 0.0000 0.0000
# 4 0.0000 0.0000 0.0000 23.0746 0.0000 0.0000
# 5 0.0000 0.0000 0.0000 0.0000 -0.0055 0.0000
# 6 0.0000 0.0000 0.0000 0.0000 0.0000 16.5660
#
#
#
# Elastic Compliance Matrix: (Units=1/GPa)
#
#
# Indices 1 2 3 4 5 6 
#
# 1 0.012839 -0.004323 -0.002156 0.000000 0.000000 0.000000
# 2 -0.004323 0.026304 -0.009440 0.000000 0.000000 0.000000
# 3 -0.002156 -0.009440 0.012477 0.000000 0.000000 0.000000
# 4 0.000000 0.000000 0.000000 0.043338 0.000000 0.000000
# 5 0.000000 0.000000 0.000000 0.000000********** 0.000000
# 6 0.000000 0.000000 0.000000 0.000000 0.000000 0.060365
#
#
# Mechanical properties :
#
#
# Convention : Reuss Voigt Hill
#
# Bulk Modulus (GPa) = 50.55301 57.71246 54.13273
# Shear Modulus (GPa) = -0.02753 18.73070 9.35158
#
# Velocity S-wave (km/s) = -0.11643 3.03693 2.14585
# Velocity P-wave (km/s) = 4.98739 6.38080 5.72664
#
# Compressibility (1/GPa) = 0.01978122
#
# Stress axis : x y z
#
# Youngs Moduli (GPa) = 77.88950 38.01738 80.14500
#
# Poissons Ratio (x) = 0.16435 0.17279
# Poissons Ratio (y) = 0.33672 0.75659
# Poissons Ratio (z) = 0.16792 0.35890
#
# Static dielectric constant tensor:
#      x y z
#    x 1.731670 0.000000 0.000000 
#    y 0.000000 1.768900 0.000000 
#    z 0.000000 0.000000 1.743980 
# 
# From -- ./inp_files/22893.got.cif
#   From: 2010.05.17/outbox.cif.g08.bks.cpg/sg56_12_cif.got.tgz:22893.got - 2010.06.03 13:42:01.
