data_PCOD9430744
_publ_section_title
;
Structure prediction by ZEFSAII (Michael W. Deem and Ramdas Pophale) SiO2 
 PCOD9430744
Probable space group: P C C N
;
_chemical_formula_sum "Si O2"
_cell_formula_units_Z 40
_cell_length_a 8.313118
_cell_length_b 8.179092
_cell_length_c 27.417500
_cell_angle_alpha 90.000000
_cell_angle_beta 90.000000
_cell_angle_gamma 90.000000
_cell_volume 1864.218831
_symmetry_space_group_name_H-M "P C C N"
_symmetry_group_IT_number 56
_symmetry_cell_setting 'orthorhombic'
loop_
_space_group_symop_operation_xyz
x,y,z
1/2-x,1/2-y,z
1/2+x,-y,1/2-z
-x,1/2+y,1/2-z
-x,-y,-z
1/2+x,1/2+y,-z
1/2-x,y,1/2+z
x,1/2-y,1/2+z
loop_
_atom_site_type_symbol
_atom_site_label
_atom_site_fract_x
_atom_site_fract_y
_atom_site_fract_z
Si Si1 0.187711 0.935128 0.387194
Si Si2 0.188835 0.066005 0.187283
Si Si3 0.816847 0.561480 0.511521
Si Si4 0.314550 0.566293 0.787711
Si Si5 0.813265 0.562034 0.911959
O O1 0.250000 0.750000 0.382629
O O2 0.223322 0.013424 0.334218
O O3 0.000082 0.937279 0.399129
O O4 0.278874 0.003459 0.434066
O O5 0.250000 0.250000 0.181068
O O6 0.223631 0.984291 0.134782
O O7 0.001438 0.061671 0.199184
O O8 0.283030 0.005293 0.234605
O O9 0.750000 0.750000 0.512724
O O10 0.719286 0.486806 0.465202
O O11 0.000000 0.500000 0.500000
O O12 0.250000 0.750000 0.783704
O O13 0.750000 0.750000 0.915986
#
# Coordination Sequence:
#
# PCOD9430744 Si02
#       5
#     8   8   8   8   8
#     4  11  21  38  62  88 119 159 201 247 305 370
#     4  11  21  38  60  84 116 156 199 246 296 359
#     4  11  23  41  63  91 125 162 205 257 313 374
#     4  11  22  38  59  87 118 156 198 246 303 360
#     4  10  20  37  59  86 116 155 197 246 302 361
#
# _framework density 21.456707999999999
#
# number of rings (size 3 to 8) (size 9 to 14) (size 15 to 20)
#    0.000    1.200    0.000   11.400    0.000    0.800 
#    0.000    7.000    0.000    0.000    0.000    0.000 
#    0.000    0.000    0.000    0.000    0.000    0.000 
#
# Total GULP energy -223072.329771 kJ/mol
# GULP energy per Si atom -5576.808244 kJ/mol
# Density = 2.140787 g / cm^3
# Si number density = 21.456708 Si / 1000 Ang^3
#
#
#
# Elastic Constant Matrix: (Units=GPa)
#
#
# Indices 1 2 3 4 5 6 
#
# 1 56.4184 -12.7298 -51.1345 0.0000 0.0000 0.0000
# 2 -12.7298 30.1451 15.1544 0.0000 0.0000 0.0000
# 3 -51.1345 15.1544 140.8065 0.0000 0.0000 0.0000
# 4 0.0000 0.0000 0.0000 55.3590 0.0000 0.0000
# 5 0.0000 0.0000 0.0000 0.0000 51.5424 0.0000
# 6 0.0000 0.0000 0.0000 0.0000 0.0000 24.3564
#
#
#
# Elastic Compliance Matrix: (Units=1/GPa)
#
#
# Indices 1 2 3 4 5 6 
#
# 1 0.027764 0.007036 0.009325 0.000000 0.000000 0.000000
# 2 0.007036 0.036854 -0.001411 0.000000 0.000000 0.000000
# 3 0.009325 -0.001411 0.010640 0.000000 0.000000 0.000000
# 4 0.000000 0.000000 0.000000 0.018064 0.000000 0.000000
# 5 0.000000 0.000000 0.000000 0.000000 0.019402 0.000000
# 6 0.000000 0.000000 0.000000 0.000000 0.000000 0.041057
#
#
# Mechanical properties :
#
#
# Convention : Reuss Voigt Hill
#
# Bulk Modulus (GPa) = 9.50930 14.43890 11.97410
# Shear Modulus (GPa) = 31.45990 44.65690 38.05840
#
# Velocity S-wave (km/s) = 3.83326 4.56703 4.21614
# Velocity P-wave (km/s) = 4.90238 5.87829 5.41237
#
# Compressibility (1/GPa) = 0.10516026
#
# Stress axis : x y z
#
# Youngs Moduli (GPa) = 36.01727 27.13435 93.98145
#
# Poissons Ratio (x) = -0.19093 -0.87642
# Poissons Ratio (y) = -0.25343 0.13261
# Poissons Ratio (z) = -0.33588 0.03829
#
# Static dielectric constant tensor:
#      x y z
#    x 1.766710 0.000000 0.000000 
#    y 0.000000 1.700510 0.000000 
#    z 0.000000 0.000000 1.879410 
# 
# From -- ./inp_files/21952.got.cif
#   From: 2010.05.17/outbox.cif.g08.bks.cpg/sg56_11_cif.got.tgz:21952.got - 2010.06.03 13:42:01.
