data_PCOD9430524
_publ_section_title
;
Structure prediction by ZEFSAII (Michael W. Deem and Ramdas Pophale) SiO2 
 PCOD9430524
Probable space group: P C C N
;
_chemical_formula_sum "Si O2"
_cell_formula_units_Z 36
_cell_length_a 12.658883
_cell_length_b 5.618738
_cell_length_c 17.914548
_cell_angle_alpha 90.000000
_cell_angle_beta 90.000000
_cell_angle_gamma 90.000000
_cell_volume 1274.207105
_symmetry_space_group_name_H-M "P C C N"
_symmetry_group_IT_number 56
_symmetry_cell_setting 'orthorhombic'
loop_
_space_group_symop_operation_xyz
x,y,z
1/2-x,1/2-y,z
1/2+x,-y,1/2-z
-x,1/2+y,1/2-z
-x,-y,-z
1/2+x,1/2+y,-z
1/2-x,y,1/2+z
x,1/2-y,1/2+z
loop_
_atom_site_type_symbol
_atom_site_label
_atom_site_fract_x
_atom_site_fract_y
_atom_site_fract_z
Si Si1 0.929007 0.552079 0.403649
Si Si2 0.091897 0.153891 0.272120
Si Si3 0.856142 0.169940 0.250489
Si Si4 0.750000 0.750000 0.003601
Si Si5 0.899297 0.336495 0.016645
O O1 0.911932 0.617807 0.317524
O O2 0.846449 0.706357 0.449042
O O3 0.891576 0.299379 0.437246
O O4 0.048130 0.628672 0.429472
O O5 0.148085 0.405439 0.284140
O O6 0.968513 0.165546 0.293078
O O7 0.133541 0.903554 0.302228
O O8 0.750000 0.250000 0.292532
O O9 0.798121 0.503416 0.039974
O O10 0.000000 0.500000 0.000000
#
# Coordination Sequence:
#
# PCOD9430524 Si02
#       5
#     8   8   8   4   8
#     4  10  21  36  59  87 120 160 210 253 308 376
#     4  10  23  39  64  92 125 161 215 262 312 381
#     4  10  22  41  62  91 127 163 204 268 325 372
#     4  10  20  34  58  84 118 158 200 252 310 364
#     4   9  20  37  54  83 124 154 200 255 303 363
#
# _framework density 28.252865
#
# number of rings (size 3 to 8) (size 9 to 14) (size 15 to 20)
#    0.000    2.222    0.000    1.333    9.333    0.000 
#    0.000    6.667    0.000    0.000    0.000    0.000 
#    0.000    0.000    0.000    0.000    0.000    0.000 
#
# Total GULP energy -200466.708257 kJ/mol
# GULP energy per Si atom -5568.519674 kJ/mol
# Density = 2.818856 g / cm^3
# Si number density = 28.252865 Si / 1000 Ang^3
#
#
#
# Elastic Constant Matrix: (Units=GPa)
#
#
# Indices 1 2 3 4 5 6 
#
# 1 167.0634 60.6595 40.8892 0.0000 0.0000 0.0000
# 2 60.6595 248.0806 35.7768 0.0000 0.0000 0.0000
# 3 40.8892 35.7768 117.5128 0.0000 0.0000 0.0000
# 4 0.0000 0.0000 0.0000 13.7151 0.0000 0.0000
# 5 0.0000 0.0000 0.0000 0.0000 49.5547 0.0000
# 6 0.0000 0.0000 0.0000 0.0000 0.0000 77.0639
#
#
#
# Elastic Compliance Matrix: (Units=1/GPa)
#
#
# Indices 1 2 3 4 5 6 
#
# 1 0.006991 -0.001421 -0.002000 0.000000 0.000000 0.000000
# 2 -0.001421 0.004505 -0.000877 0.000000 0.000000 0.000000
# 3 -0.002000 -0.000877 0.009473 0.000000 0.000000 0.000000
# 4 0.000000 0.000000 0.000000 0.072912 0.000000 0.000000
# 5 0.000000 0.000000 0.000000 0.000000 0.020180 0.000000
# 6 0.000000 0.000000 0.000000 0.000000 0.000000 0.012976
#
#
# Mechanical properties :
#
#
# Convention : Reuss Voigt Hill
#
# Bulk Modulus (GPa) = 80.82390 89.70086 85.26238
# Shear Modulus (GPa) = 35.77632 54.42217 45.09924
#
# Velocity S-wave (km/s) = 3.56236 4.39367 3.99967
# Velocity P-wave (km/s) = 6.75203 7.58666 7.18148
#
# Compressibility (1/GPa) = 0.01237258
#
# Stress axis : x y z
#
# Youngs Moduli (GPa) = 143.03647 221.98063 105.56719
#
# Poissons Ratio (x) = 0.31544 0.21113
# Poissons Ratio (y) = 0.20326 0.09259
# Poissons Ratio (z) = 0.28607 0.19469
#
# Static dielectric constant tensor:
#      x y z
#    x 2.280050 0.000000 0.000000 
#    y 0.000000 3.255090 0.000000 
#    z 0.000000 0.000000 2.206230 
# 
# From -- ./inp_files/19859.got.cif
#   From: 2010.05.17/outbox.cif.g08.bks.cpg/sg56_10_cif.got.tgz:19859.got - 2010.06.03 13:42:01.
