data_PCOD9430745
_publ_section_title
;
Structure prediction by ZEFSAII (Michael W. Deem and Ramdas Pophale) SiO2 
 PCOD9430745
Probable space group: P C C N
;
_chemical_formula_sum "Si O2"
_cell_formula_units_Z 60
_cell_length_a 25.380237
_cell_length_b 12.036919
_cell_length_c 8.513548
_cell_angle_alpha 90.000000
_cell_angle_beta 90.000000
_cell_angle_gamma 90.000000
_cell_volume 2600.887696
_symmetry_space_group_name_H-M "P C C N"
_symmetry_group_IT_number 56
_symmetry_cell_setting 'orthorhombic'
loop_
_space_group_symop_operation_xyz
x,y,z
1/2-x,1/2-y,z
1/2+x,-y,1/2-z
-x,1/2+y,1/2-z
-x,-y,-z
1/2+x,1/2+y,-z
1/2-x,y,1/2+z
x,1/2-y,1/2+z
loop_
_atom_site_type_symbol
_atom_site_label
_atom_site_fract_x
_atom_site_fract_y
_atom_site_fract_z
Si Si1 0.957688 0.249420 0.533324
Si Si2 0.086636 0.595503 0.241880
Si Si3 0.135574 0.281556 0.353082
Si Si4 0.250000 0.750000 0.875569
Si Si5 0.292565 0.348917 0.573925
Si Si6 0.298267 0.906793 0.117594
Si Si7 0.066755 0.353816 0.617187
Si Si8 0.990731 0.465404 0.182079
O O1 0.940496 0.180536 0.382185
O O2 0.915093 0.338107 0.594588
O O3 0.967834 0.343925 0.166691
O O4 0.014102 0.310766 0.529771
O O5 0.142022 0.567829 0.166533
O O6 0.047864 0.490514 0.254899
O O7 0.163559 0.178090 0.442074
O O8 0.179302 0.335000 0.242222
O O9 0.113043 0.360636 0.489228
O O10 0.089199 0.235040 0.242742
O O11 0.227397 0.847273 0.767043
O O12 0.292610 0.812874 0.983902
O O13 0.250000 0.250000 0.560147
O O14 0.273008 0.475708 0.565754
O O15 0.049310 0.458940 0.719456
O O16 0.000000 0.500000 0.000000
#
# Coordination Sequence:
#
# PCOD9430745 Si02
#       8
#     8   8   8   4   8   8   8   8
#     4  10  20  37  59  87 133 167 217 262 316 391
#     4  10  21  38  61  91 119 174 213 268 322 401
#     4  10  23  40  65  96 132 173 223 276 355 415
#     4  10  26  50  70  98 130 182 220 310 348 410
#     4  11  26  44  70 102 134 174 227 299 365 424
#     4  11  25  47  73  98 135 172 241 279 358 425
#     4  10  20  39  58  96 130 176 220 273 330 409
#     4   9  19  33  58  87 129 170 206 254 324 380
#
# _framework density 23.069047000000001
#
# number of rings (size 3 to 8) (size 9 to 14) (size 15 to 20)
#    0.000    1.867    0.000    3.600   11.200    0.000 
#    4.800    2.000    0.000    0.000    0.000    0.000 
#    0.000    0.000    0.000    0.000    0.000    0.000 
#
# Total GULP energy -335301.509062 kJ/mol
# GULP energy per Si atom -5588.358484 kJ/mol
# Density = 2.301654 g / cm^3
# Si number density = 23.069047 Si / 1000 Ang^3
#
#
#
# Elastic Constant Matrix: (Units=GPa)
#
#
# Indices 1 2 3 4 5 6 
#
# 1 58.3100 21.9215 10.8654 0.0000 0.0000 0.0000
# 2 21.9215 106.4170 20.5234 0.0000 0.0000 0.0000
# 3 10.8654 20.5234 83.1699 0.0000 0.0000 0.0000
# 4 0.0000 0.0000 0.0000 35.0008 0.0000 0.0000
# 5 0.0000 0.0000 0.0000 0.0000 18.1672 0.0000
# 6 0.0000 0.0000 0.0000 0.0000 0.0000 22.2247
#
#
#
# Elastic Compliance Matrix: (Units=1/GPa)
#
#
# Indices 1 2 3 4 5 6 
#
# 1 0.018784 -0.003566 -0.001574 0.000000 0.000000 0.000000
# 2 -0.003566 0.010543 -0.002136 0.000000 0.000000 0.000000
# 3 -0.001574 -0.002136 0.012756 0.000000 0.000000 0.000000
# 4 0.000000 0.000000 0.000000 0.028571 0.000000 0.000000
# 5 0.000000 0.000000 0.000000 0.000000 0.055044 0.000000
# 6 0.000000 0.000000 0.000000 0.000000 0.000000 0.044995
#
#
# Mechanical properties :
#
#
# Convention : Reuss Voigt Hill
#
# Bulk Modulus (GPa) = 36.32149 39.39083 37.85616
# Shear Modulus (GPa) = 25.71726 28.05099 26.88412
#
# Velocity S-wave (km/s) = 3.34248 3.49084 3.41746
# Velocity P-wave (km/s) = 5.53851 5.77583 5.65841
#
# Compressibility (1/GPa) = 0.02753191
#
# Stress axis : x y z
#
# Youngs Moduli (GPa) = 53.23800 94.84548 78.39279
#
# Poissons Ratio (x) = 0.33820 0.12339
# Poissons Ratio (y) = 0.18984 0.16744
# Poissons Ratio (z) = 0.08380 0.20258
#
# Static dielectric constant tensor:
#      x y z
#    x 1.786870 0.000000 0.000000 
#    y 0.000000 1.870410 0.000000 
#    z 0.000000 0.000000 1.463950 
# 
# From -- ./inp_files/4985.got.cif
#   From: 2010.05.17/outbox.cif.g08.bks.cpg/sg56_3_cif.got.tgz:4985.got - 2010.06.03 13:42:01.
