data_PCOD9430725
_publ_section_title
;
Structure prediction by ZEFSAII (Michael W. Deem and Ramdas Pophale) SiO2 
 PCOD9430725
Probable space group: P C C N
;
_chemical_formula_sum "Si O2"
_cell_formula_units_Z 32
_cell_length_a 22.001542
_cell_length_b 15.024206
_cell_length_c 5.166981
_cell_angle_alpha 90.000000
_cell_angle_beta 90.000000
_cell_angle_gamma 90.000000
_cell_volume 1707.975018
_symmetry_space_group_name_H-M "P C C N"
_symmetry_group_IT_number 56
_symmetry_cell_setting 'orthorhombic'
loop_
_space_group_symop_operation_xyz
x,y,z
1/2-x,1/2-y,z
1/2+x,-y,1/2-z
-x,1/2+y,1/2-z
-x,-y,-z
1/2+x,1/2+y,-z
1/2-x,y,1/2+z
x,1/2-y,1/2+z
loop_
_atom_site_type_symbol
_atom_site_label
_atom_site_fract_x
_atom_site_fract_y
_atom_site_fract_z
Si Si1 0.432700 0.504644 0.124504
Si Si2 0.407607 0.104165 0.148161
Si Si3 0.775822 0.849252 0.503917
Si Si4 0.035560 0.694507 0.781386
O O1 0.427780 0.448385 0.388696
O O2 0.426048 0.607339 0.204513
O O3 0.500000 0.500000 0.000000
O O4 0.394611 0.461437 0.890659
O O5 0.463959 0.166835 0.227449
O O6 0.345638 0.153863 0.077182
O O7 0.750000 0.750000 0.546131
O O8 0.736385 0.894023 0.278716
O O9 0.046971 0.770198 0.568937
#
# Coordination Sequence:
#
# PCOD9430725 Si02
#       4
#     8   8   8   8
#     4  10  20  37  51  76 106 147 192 228 271 345
#     4  11  21  35  56  71 113 159 180 220 288 319
#     4  10  22  35  51  76 113 140 193 230 252 320
#     4  11  21  31  53  79 108 137 189 227 271 329
#
# _framework density 18.735636
#
# number of rings (size 3 to 8) (size 9 to 14) (size 15 to 20)
#    0.000    1.500    0.000    9.000    7.000    0.000 
#    0.000    0.000    0.000    0.000    0.000    0.000 
#    0.000   70.000    0.000    0.000    0.000    0.000 
#
# Total GULP energy -178465.567544 kJ/mol
# GULP energy per Si atom -5577.048986 kJ/mol
# Density = 1.869299 g / cm^3
# Si number density = 18.735636 Si / 1000 Ang^3
#
#
#
# Elastic Constant Matrix: (Units=GPa)
#
#
# Indices 1 2 3 4 5 6 
#
# 1 38.1177 13.5750 8.5233 0.0000 0.0000 0.0000
# 2 13.5750 56.4856 20.3129 0.0000 0.0000 0.0000
# 3 8.5233 20.3129 134.1337 0.0000 0.0000 0.0000
# 4 0.0000 0.0000 0.0000 37.1652 0.0000 0.0000
# 5 0.0000 0.0000 0.0000 0.0000 26.6076 0.0000
# 6 0.0000 0.0000 0.0000 0.0000 0.0000 20.4103
#
#
#
# Elastic Compliance Matrix: (Units=1/GPa)
#
#
# Indices 1 2 3 4 5 6 
#
# 1 0.028776 -0.006619 -0.000826 0.000000 0.000000 0.000000
# 2 -0.006619 0.020246 -0.002645 0.000000 0.000000 0.000000
# 3 -0.000826 -0.002645 0.007908 0.000000 0.000000 0.000000
# 4 0.000000 0.000000 0.000000 0.026907 0.000000 0.000000
# 5 0.000000 0.000000 0.000000 0.000000 0.037583 0.000000
# 6 0.000000 0.000000 0.000000 0.000000 0.000000 0.048995
#
#
# Mechanical properties :
#
#
# Convention : Reuss Voigt Hill
#
# Bulk Modulus (GPa) = 27.21099 34.83993 31.02546
# Shear Modulus (GPa) = 24.64929 29.25836 26.95383
#
# Velocity S-wave (km/s) = 3.63111 3.95605 3.79705
# Velocity P-wave (km/s) = 5.66878 6.28514 5.98490
#
# Compressibility (1/GPa) = 0.03674986
#
# Stress axis : x y z
#
# Youngs Moduli (GPa) = 34.75069 49.39353 126.44849
#
# Poissons Ratio (x) = 0.32692 0.10448
# Poissons Ratio (y) = 0.23000 0.33450
# Poissons Ratio (z) = 0.02871 0.13066
#
# Static dielectric constant tensor:
#      x y z
#    x 1.653840 0.000000 0.000000 
#    y 0.000000 1.624030 0.000000 
#    z 0.000000 0.000000 1.752370 
# 
# From -- ./inp_files/229.got.cif
#   From: 2010.05.17/outbox.cif.g08.bks.cpg/sg56_1_cif.got.tgz:229.got - 2010.06.03 13:42:01.
