data_PCOD9430658
_publ_section_title
;
Structure prediction by ZEFSAII (Michael W. Deem and Ramdas Pophale) SiO2 
 PCOD9430658
Probable space group: P C C N
;
_chemical_formula_sum "Si O2"
_cell_formula_units_Z 48
_cell_length_a 8.762924
_cell_length_b 12.702677
_cell_length_c 18.836868
_cell_angle_alpha 90.000000
_cell_angle_beta 90.000000
_cell_angle_gamma 90.000000
_cell_volume 2096.780624
_symmetry_space_group_name_H-M "P C C N"
_symmetry_group_IT_number 56
_symmetry_cell_setting 'orthorhombic'
loop_
_space_group_symop_operation_xyz
x,y,z
1/2-x,1/2-y,z
1/2+x,-y,1/2-z
-x,1/2+y,1/2-z
-x,-y,-z
1/2+x,1/2+y,-z
1/2-x,y,1/2+z
x,1/2-y,1/2+z
loop_
_atom_site_type_symbol
_atom_site_label
_atom_site_fract_x
_atom_site_fract_y
_atom_site_fract_z
Si Si1 0.010927 0.275036 0.314205
Si Si2 0.089695 0.990181 0.113393
Si Si3 0.750000 0.750000 0.067074
Si Si4 0.609923 0.042316 0.160840
Si Si5 0.209905 0.088139 0.722012
Si Si6 0.722922 0.515396 0.030170
Si Si7 0.750000 0.250000 0.723826
O O1 0.934811 0.385304 0.340050
O O2 0.881340 0.207479 0.276812
O O3 0.105146 0.232609 0.380655
O O4 0.127867 0.309235 0.252978
O O5 0.927371 0.015198 0.076726
O O6 0.158192 0.081116 0.163085
O O7 0.202530 0.969191 0.047608
O O8 0.722698 0.642700 0.024901
O O9 0.436322 0.031602 0.186044
O O10 0.673411 0.158782 0.178181
O O11 0.716804 0.966871 0.208779
O O12 0.636165 0.019138 0.078269
#
# Coordination Sequence:
#
# PCOD9430658 Si02
#       7
#     8   8   4   8   8   8   4
#     4  10  21  37  60  93 117 164 206 258 313 362
#     4  10  20  40  61  86 120 163 208 247 322 365
#     4  10  20  36  58  92 118 160 216 246 308 376
#     4  11  21  37  60  89 120 162 202 256 303 365
#     4  11  19  37  62  89 116 157 213 246 309 362
#     4  10  22  39  62  85 128 167 199 261 311 375
#     4  10  22  36  58  90 128 154 204 262 308 356
#
# _framework density 22.892239
#
# number of rings (size 3 to 8) (size 9 to 14) (size 15 to 20)
#    0.000    1.667    6.667    0.000    2.333    2.000 
#    0.000   11.667    0.000    0.000    0.000    0.000 
#    0.000    0.000    0.000    0.000    0.000    0.000 
#
# Total GULP energy -268153.819471 kJ/mol
# GULP energy per Si atom -5586.537906 kJ/mol
# Density = 2.284014 g / cm^3
# Si number density = 22.892239 Si / 1000 Ang^3
#
#
#
# Elastic Constant Matrix: (Units=GPa)
#
#
# Indices 1 2 3 4 5 6 
#
# 1 79.7247 29.8380 21.6547 0.0000 0.0000 0.0000
# 2 29.8380 48.4915 9.3648 0.0000 0.0000 0.0000
# 3 21.6547 9.3648 99.9041 0.0000 0.0000 0.0000
# 4 0.0000 0.0000 0.0000 8.6032 0.0000 0.0000
# 5 0.0000 0.0000 0.0000 0.0000 25.6118 0.0000
# 6 0.0000 0.0000 0.0000 0.0000 0.0000 33.5541
#
#
#
# Elastic Compliance Matrix: (Units=1/GPa)
#
#
# Indices 1 2 3 4 5 6 
#
# 1 0.017010 -0.009934 -0.002756 0.000000 0.000000 0.000000
# 2 -0.009934 0.026804 -0.000359 0.000000 0.000000 0.000000
# 3 -0.002756 -0.000359 0.010641 0.000000 0.000000 0.000000
# 4 0.000000 0.000000 0.000000 0.116236 0.000000 0.000000
# 5 0.000000 0.000000 0.000000 0.000000 0.039045 0.000000
# 6 0.000000 0.000000 0.000000 0.000000 0.000000 0.029803
#
#
# Mechanical properties :
#
#
# Convention : Reuss Voigt Hill
#
# Bulk Modulus (GPa) = 35.26579 38.87058 37.06819
# Shear Modulus (GPa) = 18.17597 24.70466 21.44031
#
# Velocity S-wave (km/s) = 2.82082 3.28864 3.06367
# Velocity P-wave (km/s) = 5.10372 5.60686 5.36119
#
# Compressibility (1/GPa) = 0.02835609
#
# Stress axis : x y z
#
# Youngs Moduli (GPa) = 58.78996 37.30734 93.97970
#
# Poissons Ratio (x) = 0.37062 0.25898
# Poissons Ratio (y) = 0.58404 0.03376
# Poissons Ratio (z) = 0.16201 0.01340
#
# Static dielectric constant tensor:
#      x y z
#    x 1.908610 0.000000 0.000000 
#    y 0.000000 1.885720 0.000000 
#    z 0.000000 0.000000 1.825440 
# 
# From -- ./inp_files/18095.got.cif
#   From: 2010.05.17/outbox.cif.g08.bks.cpg/sg56_10_cif.got.tgz:18095.got - 2010.06.03 13:42:01.
