data_PCOD9430080
_publ_section_title
;
Structure prediction by ZEFSAII (Michael W. Deem and Ramdas Pophale) SiO2 
 PCOD9430080
Probable space group: P C C N
;
_chemical_formula_sum "Si O2"
_cell_formula_units_Z 64
_cell_length_a 17.092109
_cell_length_b 7.139273
_cell_length_c 28.774580
_cell_angle_alpha 90.000000
_cell_angle_beta 90.000000
_cell_angle_gamma 90.000000
_cell_volume 3511.224809
_symmetry_space_group_name_H-M "P C C N"
_symmetry_group_IT_number 56
_symmetry_cell_setting 'orthorhombic'
loop_
_space_group_symop_operation_xyz
x,y,z
1/2-x,1/2-y,z
1/2+x,-y,1/2-z
-x,1/2+y,1/2-z
-x,-y,-z
1/2+x,1/2+y,-z
1/2-x,y,1/2+z
x,1/2-y,1/2+z
loop_
_atom_site_type_symbol
_atom_site_label
_atom_site_fract_x
_atom_site_fract_y
_atom_site_fract_z
Si Si1 0.890209 0.495155 0.165719
Si Si2 0.530386 0.316604 0.921588
Si Si3 0.858502 0.931414 0.075160
Si Si4 0.978635 0.200092 0.817482
Si Si5 0.598736 0.973193 0.061598
Si Si6 0.778532 0.033878 0.171870
Si Si7 0.837058 0.286092 0.494538
Si Si8 0.422761 0.871596 0.274970
O O1 0.946815 0.670750 0.170364
O O2 0.888468 0.432408 0.111812
O O3 0.804063 0.564085 0.179728
O O4 0.919945 0.322274 0.196181
O O5 0.453870 0.451992 0.923482
O O6 0.559168 0.322429 0.868262
O O7 0.600223 0.356077 0.956778
O O8 0.488763 0.117648 0.936239
O O9 0.651894 0.786628 0.062767
O O10 0.820786 0.974288 0.124615
O O11 0.826239 0.063615 0.035506
O O12 0.932165 0.314563 0.778409
O O13 0.009263 0.007471 0.794339
O O14 0.623617 0.107063 0.020222
O O15 0.750000 0.250000 0.166941
O O16 0.840915 0.028984 0.213051
O O17 0.750000 0.250000 0.475255
#
# Coordination Sequence:
#
# PCOD9430080 Si02
#       8
#     8   8   8   8   8   8   8   8
#     4  10  20  34  55  87 111 137 175 234 297 320
#     4   9  22  40  54  82 112 152 187 227 275 338
#     4  10  20  36  58  83 115 144 184 234 288 332
#     4  11  21  37  58  78 109 151 186 220 280 336
#     4   9  21  35  59  82 114 146 187 229 286 335
#     4  10  19  33  56  89 114 136 176 240 296 332
#     4  12  22  36  56  82 115 153 191 229 271 326
#     4  11  20  35  56  81 112 141 180 225 274 346
#
# _framework density 18.227257000000002
#
# number of rings (size 3 to 8) (size 9 to 14) (size 15 to 20)
#    0.750    1.000    2.500    3.375    0.000    3.500 
#    0.000    1.875    0.000    0.000    0.000    0.000 
#    0.000    0.000    0.000    0.000    0.000    0.000 
#
# Total GULP energy -356777.787508 kJ/mol
# GULP energy per Si atom -5574.652930 kJ/mol
# Density = 1.818577 g / cm^3
# Si number density = 18.227257 Si / 1000 Ang^3
#
#
#
# Elastic Constant Matrix: (Units=GPa)
#
#
# Indices 1 2 3 4 5 6 
#
# 1 66.7034 7.3418 40.6172 0.0000 0.0000 0.0000
# 2 7.3418 33.0882 11.5958 0.0000 0.0000 0.0000
# 3 40.6172 11.5958 66.7089 0.0000 0.0000 0.0000
# 4 0.0000 0.0000 0.0000 18.3899 0.0000 0.0000
# 5 0.0000 0.0000 0.0000 0.0000 20.3732 0.0000
# 6 0.0000 0.0000 0.0000 0.0000 0.0000 22.2631
#
#
#
# Elastic Compliance Matrix: (Units=1/GPa)
#
#
# Indices 1 2 3 4 5 6 
#
# 1 0.023826 -0.000216 -0.014470 0.000000 0.000000 0.000000
# 2 -0.000216 0.032185 -0.005463 0.000000 0.000000 0.000000
# 3 -0.014470 -0.005463 0.024750 0.000000 0.000000 0.000000
# 4 0.000000 0.000000 0.000000 0.054378 0.000000 0.000000
# 5 0.000000 0.000000 0.000000 0.000000 0.049084 0.000000
# 6 0.000000 0.000000 0.000000 0.000000 0.000000 0.044917
#
#
# Mechanical properties :
#
#
# Convention : Reuss Voigt Hill
#
# Bulk Modulus (GPa) = 24.71327 31.73447 28.22387
# Shear Modulus (GPa) = 17.67245 19.33495 18.50370
#
# Velocity S-wave (km/s) = 3.11716 3.26048 3.18962
# Velocity P-wave (km/s) = 5.15203 5.62339 5.39286
#
# Compressibility (1/GPa) = 0.04046409
#
# Stress axis : x y z
#
# Youngs Moduli (GPa) = 41.97018 31.07065 40.40342
#
# Poissons Ratio (x) = 0.00670 0.58463
# Poissons Ratio (y) = 0.00906 0.22073
# Poissons Ratio (z) = 0.60730 0.16975
#
# Static dielectric constant tensor:
#      x y z
#    x 1.668870 0.000000 0.000000 
#    y 0.000000 1.681130 0.000000 
#    z 0.000000 0.000000 1.619060 
# 
# From -- ./inp_files/21190.got.cif
#   From: 2010.05.17/outbox.cif.g08.bks.cpg/sg56_11_cif.got.tgz:21190.got - 2010.06.03 13:42:01.
