data_PCOD9430498
_publ_section_title
;
Structure prediction by ZEFSAII (Michael W. Deem and Ramdas Pophale) SiO2 
 PCOD9430498
Probable space group: P C C N
;
_chemical_formula_sum "Si O2"
_cell_formula_units_Z 48
_cell_length_a 9.638184
_cell_length_b 13.799562
_cell_length_c 17.546834
_cell_angle_alpha 90.000000
_cell_angle_beta 90.000000
_cell_angle_gamma 90.000000
_cell_volume 2333.776609
_symmetry_space_group_name_H-M "P C C N"
_symmetry_group_IT_number 56
_symmetry_cell_setting 'orthorhombic'
loop_
_space_group_symop_operation_xyz
x,y,z
1/2-x,1/2-y,z
1/2+x,-y,1/2-z
-x,1/2+y,1/2-z
-x,-y,-z
1/2+x,1/2+y,-z
1/2-x,y,1/2+z
x,1/2-y,1/2+z
loop_
_atom_site_type_symbol
_atom_site_label
_atom_site_fract_x
_atom_site_fract_y
_atom_site_fract_z
Si Si1 0.177949 0.943943 0.042139
Si Si2 0.403751 0.703543 0.172069
Si Si3 0.100233 0.210976 0.691823
Si Si4 0.215940 0.135995 0.543261
Si Si5 0.109239 0.702112 0.416558
Si Si6 0.029060 0.851970 0.552676
O O1 0.108634 0.883452 0.110752
O O2 0.341634 0.923275 0.056775
O O3 0.160604 0.059063 0.042740
O O4 0.143088 0.896646 0.960573
O O5 0.250000 0.750000 0.187202
O O6 0.495805 0.674390 0.243997
O O7 0.482552 0.791188 0.129457
O O8 0.250000 0.250000 0.719481
O O9 0.140099 0.134900 0.625346
O O10 0.011233 0.292668 0.646016
O O11 0.250000 0.250000 0.531687
O O12 0.114503 0.105471 0.475146
O O13 0.250000 0.750000 0.383476
O O14 0.069022 0.774811 0.486051
#
# Coordination Sequence:
#
# PCOD9430498 Si02
#       6
#     8   8   8   8   8   8
#     4   9  17  34  59  84 106 143 193 235 270 326
#     4   9  18  35  59  81 107 146 191 232 275 337
#     4  10  20  34  52  79 119 153 177 226 291 338
#     4  10  20  34  53  82 116 148 182 233 286 329
#     4   8  15  31  57  83 106 139 187 231 273 327
#     4   8  16  32  56  81 104 135 183 235 278 323
#
# _framework density 20.567520999999999
#
# number of rings (size 3 to 8) (size 9 to 14) (size 15 to 20)
#    0.000    3.000    0.000    3.000    0.000    0.667 
#    0.000   22.500    0.000   10.000    0.000    0.000 
#    0.000    0.000    0.000    0.000    0.000    0.000 
#
# Total GULP energy -267411.956279 kJ/mol
# GULP energy per Si atom -5571.082422 kJ/mol
# Density = 2.052071 g / cm^3
# Si number density = 20.567521 Si / 1000 Ang^3
#
#
#
# Elastic Constant Matrix: (Units=GPa)
#
#
# Indices 1 2 3 4 5 6 
#
# 1 99.9980 23.6790 36.6836 0.0000 0.0000 0.0000
# 2 23.6790 101.1313 22.2302 0.0000 0.0000 0.0000
# 3 36.6836 22.2302 62.1122 0.0000 0.0000 0.0000
# 4 0.0000 0.0000 0.0000 16.5705 0.0000 0.0000
# 5 0.0000 0.0000 0.0000 0.0000 40.7541 0.0000
# 6 0.0000 0.0000 0.0000 0.0000 0.0000 19.9114
#
#
#
# Elastic Compliance Matrix: (Units=1/GPa)
#
#
# Indices 1 2 3 4 5 6 
#
# 1 0.012964 -0.001468 -0.007131 0.000000 0.000000 0.000000
# 2 -0.001468 0.010899 -0.003034 0.000000 0.000000 0.000000
# 3 -0.007131 -0.003034 0.021397 0.000000 0.000000 0.000000
# 4 0.000000 0.000000 0.000000 0.060348 0.000000 0.000000
# 5 0.000000 0.000000 0.000000 0.000000 0.024537 0.000000
# 6 0.000000 0.000000 0.000000 0.000000 0.000000 0.050222
#
#
# Mechanical properties :
#
#
# Convention : Reuss Voigt Hill
#
# Bulk Modulus (GPa) = 45.46615 47.60303 46.53459
# Shear Modulus (GPa) = 23.70063 27.49043 25.59553
#
# Velocity S-wave (km/s) = 3.39829 3.65991 3.53152
# Velocity P-wave (km/s) = 6.12793 6.40741 6.26923
#
# Compressibility (1/GPa) = 0.02199439
#
# Stress axis : x y z
#
# Youngs Moduli (GPa) = 77.13801 91.75413 46.73476
#
# Poissons Ratio (x) = 0.13468 0.33327
# Poissons Ratio (y) = 0.11323 0.14178
# Poissons Ratio (z) = 0.55008 0.27836
#
# Static dielectric constant tensor:
#      x y z
#    x 1.827290 0.000000 0.000000 
#    y 0.000000 1.780720 0.000000 
#    z 0.000000 0.000000 1.717000 
# 
# From -- ./inp_files/15690.got.cif
#   From: 2010.05.17/outbox.cif.g08.bks.cpg/sg56_8_cif.got.tgz:15690.got - 2010.06.03 13:42:01.
