data_PCOD9430701
_publ_section_title
;
Structure prediction by ZEFSAII (Michael W. Deem and Ramdas Pophale) SiO2 
 PCOD9430701
Probable space group: P C C N
;
_chemical_formula_sum "Si O2"
_cell_formula_units_Z 40
_cell_length_a 8.696941
_cell_length_b 10.336204
_cell_length_c 17.821962
_cell_angle_alpha 90.000000
_cell_angle_beta 90.000000
_cell_angle_gamma 90.000000
_cell_volume 1602.075981
_symmetry_space_group_name_H-M "P C C N"
_symmetry_group_IT_number 56
_symmetry_cell_setting 'orthorhombic'
loop_
_space_group_symop_operation_xyz
x,y,z
1/2-x,1/2-y,z
1/2+x,-y,1/2-z
-x,1/2+y,1/2-z
-x,-y,-z
1/2+x,1/2+y,-z
1/2-x,y,1/2+z
x,1/2-y,1/2+z
loop_
_atom_site_type_symbol
_atom_site_label
_atom_site_fract_x
_atom_site_fract_y
_atom_site_fract_z
Si Si1 0.648929 0.381171 0.323892
Si Si2 0.421857 0.296175 0.048189
Si Si3 0.350385 0.620921 0.502208
Si Si4 0.116899 0.460059 0.411035
Si Si5 0.697406 0.888511 0.238338
O O1 0.750000 0.250000 0.314392
O O2 0.615932 0.402669 0.411520
O O3 0.756061 0.494810 0.292175
O O4 0.482986 0.381473 0.282815
O O5 0.250000 0.250000 0.061105
O O6 0.497446 0.418381 0.092548
O O7 0.515960 0.163730 0.053703
O O8 0.447188 0.342175 0.960686
O O9 0.250000 0.750000 0.500233
O O10 0.252498 0.508884 0.465326
O O11 0.194747 0.414213 0.335031
O O12 0.750000 0.750000 0.269247
#
# Coordination Sequence:
#
# PCOD9430701 Si02
#       5
#     8   8   8   8   8
#     4  11  25  46  72 100 136 183 233 286 350 422
#     4  10  20  36  63  98 136 175 226 290 349 404
#     4   9  20  41  65  94 132 174 222 277 337 405
#     4  10  22  40  66  97 136 182 226 281 350 415
#     4  12  26  47  70  98 139 184 233 291 352 418
#
# _framework density 24.967606
#
# number of rings (size 3 to 8) (size 9 to 14) (size 15 to 20)
#    0.000    1.600    0.000    4.200    0.000   12.000 
#    0.000    7.000    0.000    0.000    0.000    0.000 
#    0.000    0.000    0.000    0.000    0.000    0.000 
#
# Total GULP energy -223990.836303 kJ/mol
# GULP energy per Si atom -5599.770908 kJ/mol
# Density = 2.491078 g / cm^3
# Si number density = 24.967606 Si / 1000 Ang^3
#
#
#
# Elastic Constant Matrix: (Units=GPa)
#
#
# Indices 1 2 3 4 5 6 
#
# 1 178.4190 65.0619 3.4381 0.0000 0.0000 0.0000
# 2 65.0619 177.6903 37.8480 0.0000 0.0000 0.0000
# 3 3.4381 37.8480 51.7824 0.0000 0.0000 0.0000
# 4 0.0000 0.0000 0.0000 -25.0965 0.0000 0.0000
# 5 0.0000 0.0000 0.0000 0.0000 34.4499 0.0000
# 6 0.0000 0.0000 0.0000 0.0000 0.0000 60.1016
#
#
#
# Elastic Compliance Matrix: (Units=1/GPa)
#
#
# Indices 1 2 3 4 5 6 
#
# 1 0.006574 -0.002741 0.001567 0.000000 0.000000 0.000000
# 2 -0.002741 0.007808 -0.005525 0.000000 0.000000 0.000000
# 3 0.001567 -0.005525 0.023246 0.000000 0.000000 0.000000
# 4 0.000000 0.000000 0.000000 -0.039846 0.000000 0.000000
# 5 0.000000 0.000000 0.000000 0.000000 0.029028 0.000000
# 6 0.000000 0.000000 0.000000 0.000000 0.000000 0.016638
#
#
# Mechanical properties :
#
#
# Convention : Reuss Voigt Hill
#
# Bulk Modulus (GPa) = 41.27136 68.95421 55.11278
# Shear Modulus (GPa) = 77.01450 33.99390 55.50420
#
# Velocity S-wave (km/s) = 5.55992 3.69388 4.72004
# Velocity P-wave (km/s) = 7.60150 6.77277 7.19907
#
# Compressibility (1/GPa) = 0.02422988
#
# Stress axis : x y z
#
# Youngs Moduli (GPa) = 152.11291 128.07089 43.01848
#
# Poissons Ratio (x) = 0.35102 -0.06740
# Poissons Ratio (y) = 0.41692 0.23768
# Poissons Ratio (z) = -0.23833 0.70760
#
# Static dielectric constant tensor:
#      x y z
#    x 2.127340 0.000000 0.000000 
#    y 0.000000 1.961080 0.000000 
#    z 0.000000 0.000000 1.950680 
# 
# From -- ./inp_files/14412.got.cif
#   From: 2010.05.17/outbox.cif.g08.bks.cpg/sg56_8_cif.got.tgz:14412.got - 2010.06.03 13:42:01.
