data_PCOD9430943
_publ_section_title
;
Structure prediction by ZEFSAII (Michael W. Deem and Ramdas Pophale) SiO2 
 PCOD9430943
Probable space group: P C C N
;
_chemical_formula_sum "Si O2"
_cell_formula_units_Z 32
_cell_length_a 12.729202
_cell_length_b 7.980835
_cell_length_c 12.363393
_cell_angle_alpha 90.000000
_cell_angle_beta 90.000000
_cell_angle_gamma 90.000000
_cell_volume 1255.992902
_symmetry_space_group_name_H-M "P C C N"
_symmetry_group_IT_number 56
_symmetry_cell_setting 'orthorhombic'
loop_
_space_group_symop_operation_xyz
x,y,z
1/2-x,1/2-y,z
1/2+x,-y,1/2-z
-x,1/2+y,1/2-z
-x,-y,-z
1/2+x,1/2+y,-z
1/2-x,y,1/2+z
x,1/2-y,1/2+z
loop_
_atom_site_type_symbol
_atom_site_label
_atom_site_fract_x
_atom_site_fract_y
_atom_site_fract_z
Si Si1 0.909063 0.514358 0.270346
Si Si2 0.250000 0.750000 0.210982
Si Si3 0.589863 0.431205 0.399122
Si Si4 0.931742 0.792535 0.994327
Si Si5 0.250000 0.250000 0.856224
O O1 0.854720 0.333830 0.242063
O O2 0.935562 0.590119 0.389272
O O3 0.824637 0.639608 0.218218
O O4 0.014763 0.521271 0.200309
O O5 0.206624 0.601582 0.138498
O O6 0.543060 0.257866 0.449623
O O7 0.596534 0.597002 0.470517
O O8 0.836243 0.849649 0.071493
#
# Coordination Sequence:
#
# PCOD9430943 Si02
#       5
#     8   4   8   8   4
#     4  11  23  41  65  95 134 174 221 278 334 399
#     4  12  24  40  68 100 130 176 230 276 342 410
#     4  10  23  42  65  97 133 174 222 279 340 408
#     4  10  21  43  65  90 133 174 221 277 336 408
#     4  10  20  38  68  90 122 178 216 264 336 392
#
# _framework density 25.477853
#
# number of rings (size 3 to 8) (size 9 to 14) (size 15 to 20)
#    0.000    1.500    0.000    5.250    0.000    3.000 
#    0.000   31.250    0.000    0.000    0.000    0.000 
#    0.000    0.000    0.000    0.000    0.000    0.000 
#
# Total GULP energy -178596.456398 kJ/mol
# GULP energy per Si atom -5581.139262 kJ/mol
# Density = 2.541986 g / cm^3
# Si number density = 25.477853 Si / 1000 Ang^3
#
#
#
# Elastic Constant Matrix: (Units=GPa)
#
#
# Indices 1 2 3 4 5 6 
#
# 1 79.4647 12.9004 7.6761 0.0000 0.0000 0.0000
# 2 12.9004 89.6098 9.4288 0.0000 0.0000 0.0000
# 3 7.6761 9.4288 75.4082 0.0000 0.0000 0.0000
# 4 0.0000 0.0000 0.0000 24.2295 0.0000 0.0000
# 5 0.0000 0.0000 0.0000 0.0000 -5.7685 0.0000
# 6 0.0000 0.0000 0.0000 0.0000 0.0000 46.7010
#
#
#
# Elastic Compliance Matrix: (Units=1/GPa)
#
#
# Indices 1 2 3 4 5 6 
#
# 1 0.012975 -0.001752 -0.001102 0.000000 0.000000 0.000000
# 2 -0.001752 0.011545 -0.001265 0.000000 0.000000 0.000000
# 3 -0.001102 -0.001265 0.013532 0.000000 0.000000 0.000000
# 4 0.000000 0.000000 0.000000 0.041272 0.000000 0.000000
# 5 0.000000 0.000000 0.000000 0.000000 -0.173354 0.000000
# 6 0.000000 0.000000 0.000000 0.000000 0.000000 0.021413
#
#
# Mechanical properties :
#
#
# Convention : Reuss Voigt Hill
#
# Bulk Modulus (GPa) = 33.54176 33.83260 33.68718
# Shear Modulus (GPa) = -91.84015 27.33088 -32.25464
#
# Velocity S-wave (km/s) = -6.01043 3.27881 -3.56193
# Velocity P-wave (km/s) = 5.91383 5.25758 1.91458
#
# Compressibility (1/GPa) = 0.02981358
#
# Stress axis : x y z
#
# Youngs Moduli (GPa) = 77.07106 86.61881 73.90157
#
# Poissons Ratio (x) = 0.15175 0.08142
# Poissons Ratio (y) = 0.13503 0.09350
# Poissons Ratio (z) = 0.08491 0.10959
#
# Static dielectric constant tensor:
#      x y z
#    x 1.991190 0.000000 0.000000 
#    y 0.000000 2.100580 0.000000 
#    z 0.000000 0.000000 2.134790 
# 
# From -- ./inp_files/6030.got.cif
#   From: 2010.05.17/outbox.cif.g08.bks.cpg/sg56_4_cif.got.tgz:6030.got - 2010.06.03 13:42:01.
