data_PCOD9430346
_publ_section_title
;
Structure prediction by ZEFSAII (Michael W. Deem and Ramdas Pophale) SiO2 
 PCOD9430346
Probable space group: P C C N
;
_chemical_formula_sum "Si O2"
_cell_formula_units_Z 32
_cell_length_a 5.073067
_cell_length_b 18.782871
_cell_length_c 13.708379
_cell_angle_alpha 90.000000
_cell_angle_beta 90.000000
_cell_angle_gamma 90.000000
_cell_volume 1306.227061
_symmetry_space_group_name_H-M "P C C N"
_symmetry_group_IT_number 56
_symmetry_cell_setting 'orthorhombic'
loop_
_space_group_symop_operation_xyz
x,y,z
1/2-x,1/2-y,z
1/2+x,-y,1/2-z
-x,1/2+y,1/2-z
-x,-y,-z
1/2+x,1/2+y,-z
1/2-x,y,1/2+z
x,1/2-y,1/2+z
loop_
_atom_site_type_symbol
_atom_site_label
_atom_site_fract_x
_atom_site_fract_y
_atom_site_fract_z
Si Si1 0.009022 0.952578 0.404524
Si Si2 0.992645 0.705365 0.915043
Si Si3 0.159754 0.325715 0.306678
Si Si4 0.814632 0.421063 0.784354
O O1 0.250312 0.933423 0.330705
O O2 0.949440 0.875035 0.447486
O O3 0.000000 0.000000 0.500000
O O4 0.835621 0.000541 0.330987
O O5 0.750000 0.750000 0.949149
O O6 0.963613 0.698677 0.797685
O O7 0.250000 0.750000 0.940142
O O8 0.250000 0.250000 0.350620
O O9 0.418271 0.375107 0.294646
O O10 0.919964 0.377187 0.339298
#
# Coordination Sequence:
#
# PCOD9430346 Si02
#       4
#     8   8   8   8
#     4  11  24  45  71 100 137 178 221 281 342 392
#     4  10  20  38  63  91 127 173 220 266 327 399
#     4  10  19  38  66  94 133 179 220 273 333 388
#     4  11  23  41  65  99 134 172 230 276 326 407
#
# _framework density 24.498038000000001
#
# number of rings (size 3 to 8) (size 9 to 14) (size 15 to 20)
#    0.000    1.500    0.000    9.750    0.000    2.000 
#    0.000   35.000    0.000    3.000    0.000    0.000 
#    0.000    0.000    0.000    0.000    0.000    0.000 
#
# Total GULP energy -178478.902218 kJ/mol
# GULP energy per Si atom -5577.465694 kJ/mol
# Density = 2.444228 g / cm^3
# Si number density = 24.498038 Si / 1000 Ang^3
#
#
#
# Elastic Constant Matrix: (Units=GPa)
#
#
# Indices 1 2 3 4 5 6 
#
# 1 193.7429 110.7306 -0.6302 0.0000 0.0000 0.0000
# 2 110.7306 287.0452 28.8982 0.0000 0.0000 0.0000
# 3 -0.6302 28.8982 75.3663 0.0000 0.0000 0.0000
# 4 0.0000 0.0000 0.0000 13.2954 0.0000 0.0000
# 5 0.0000 0.0000 0.0000 0.0000 -8.0816 0.0000
# 6 0.0000 0.0000 0.0000 0.0000 0.0000 59.2005
#
#
#
# Elastic Compliance Matrix: (Units=1/GPa)
#
#
# Indices 1 2 3 4 5 6 
#
# 1 0.006706 -0.002697 0.001090 0.000000 0.000000 0.000000
# 2 -0.002697 0.004708 -0.001828 0.000000 0.000000 0.000000
# 3 0.001090 -0.001828 0.013978 0.000000 0.000000 0.000000
# 4 0.000000 0.000000 0.000000 0.075214 0.000000 0.000000
# 5 0.000000 0.000000 0.000000 0.000000 -0.123737 0.000000
# 6 0.000000 0.000000 0.000000 0.000000 0.000000 0.016892
#
#
# Mechanical properties :
#
#
# Convention : Reuss Voigt Hill
#
# Bulk Modulus (GPa) = 53.98406 92.68351 73.33379
# Shear Modulus (GPa) = 734.76233 40.69325 387.72779
#
# Velocity S-wave (km/s) = 17.33719 4.08006 12.59415
# Velocity P-wave (km/s) = 20.56343 7.75313 15.53972
#
# Compressibility (1/GPa) = 0.01852399
#
# Stress axis : x y z
#
# Youngs Moduli (GPa) = 149.11293 212.40004 71.53846
#
# Poissons Ratio (x) = 0.57280 -0.07799
# Poissons Ratio (y) = 0.40213 0.13076
# Poissons Ratio (z) = -0.16255 0.38823
#
# Static dielectric constant tensor:
#      x y z
#    x 1.995960 0.000000 0.000000 
#    y 0.000000 1.975240 0.000000 
#    z 0.000000 0.000000 2.022420 
# 
# From -- ./inp_files/9386.got.cif
#   From: 2010.05.17/outbox.cif.g08.bks.cpg/sg56_5_cif.got.tgz:9386.got - 2010.06.03 13:42:01.
