data_PCOD9430844
_publ_section_title
;
Structure prediction by ZEFSAII (Michael W. Deem and Ramdas Pophale) SiO2 
 PCOD9430844
Probable space group: P C C N
;
_chemical_formula_sum "Si O2"
_cell_formula_units_Z 36
_cell_length_a 9.932207
_cell_length_b 7.917006
_cell_length_c 20.898116
_cell_angle_alpha 90.000000
_cell_angle_beta 90.000000
_cell_angle_gamma 90.000000
_cell_volume 1643.288711
_symmetry_space_group_name_H-M "P C C N"
_symmetry_group_IT_number 56
_symmetry_cell_setting 'orthorhombic'
loop_
_space_group_symop_operation_xyz
x,y,z
1/2-x,1/2-y,z
1/2+x,-y,1/2-z
-x,1/2+y,1/2-z
-x,-y,-z
1/2+x,1/2+y,-z
1/2-x,y,1/2+z
x,1/2-y,1/2+z
loop_
_atom_site_type_symbol
_atom_site_label
_atom_site_fract_x
_atom_site_fract_y
_atom_site_fract_z
Si Si1 0.089389 0.954503 0.310514
Si Si2 0.501425 0.387292 0.062453
Si Si3 0.582680 0.532218 0.435108
Si Si4 0.250000 0.750000 0.007837
Si Si5 0.900428 0.047624 0.191684
O O1 0.245221 0.015075 0.305308
O O2 0.099896 0.751395 0.311680
O O3 0.009410 0.014924 0.373915
O O4 0.994296 0.997997 0.250671
O O5 0.395822 0.234662 0.070377
O O6 0.526865 0.498729 0.124999
O O7 0.500000 0.500000 0.000000
O O8 0.634589 0.285340 0.043398
O O9 0.500000 0.500000 0.500000
O O10 0.710233 0.408816 0.446755
#
# Coordination Sequence:
#
# PCOD9430844 Si02
#       5
#     8   8   8   4   8
#     4  10  22  40  62  86 121 160 203 253 308 372
#     4  10  21  38  61  88 120 160 206 257 314 377
#     4   9  19  37  61  88 119 159 203 255 313 373
#     4  10  20  38  60  86 122 160 204 260 314 372
#     4  10  22  41  60  86 121 161 202 251 309 371
#
# _framework density 21.907288000000001
#
# number of rings (size 3 to 8) (size 9 to 14) (size 15 to 20)
#    0.000    2.222    0.000    4.000    0.000    8.889 
#    0.000    6.667    0.000    0.000    0.000    0.000 
#    0.000    0.000    0.000    0.000    0.000    0.000 
#
# Total GULP energy -200559.557070 kJ/mol
# GULP energy per Si atom -5571.098807 kJ/mol
# Density = 2.185743 g / cm^3
# Si number density = 21.907288 Si / 1000 Ang^3
#
#
#
# Elastic Constant Matrix: (Units=GPa)
#
#
# Indices 1 2 3 4 5 6 
#
# 1 126.5306 27.9806 78.2573 0.0000 0.0000 0.0000
# 2 27.9806 51.2010 26.7498 0.0000 0.0000 0.0000
# 3 78.2573 26.7498 222.6301 0.0000 0.0000 0.0000
# 4 0.0000 0.0000 0.0000 35.1984 0.0000 0.0000
# 5 0.0000 0.0000 0.0000 0.0000 37.2866 0.0000
# 6 0.0000 0.0000 0.0000 0.0000 0.0000 32.1272
#
#
#
# Elastic Compliance Matrix: (Units=1/GPa)
#
#
# Indices 1 2 3 4 5 6 
#
# 1 0.010890 -0.004216 -0.003321 0.000000 0.000000 0.000000
# 2 -0.004216 0.022471 -0.001218 0.000000 0.000000 0.000000
# 3 -0.003321 -0.001218 0.005806 0.000000 0.000000 0.000000
# 4 0.000000 0.000000 0.000000 0.028410 0.000000 0.000000
# 5 0.000000 0.000000 0.000000 0.000000 0.026819 0.000000
# 6 0.000000 0.000000 0.000000 0.000000 0.000000 0.031126
#
#
# Mechanical properties :
#
#
# Convention : Reuss Voigt Hill
#
# Bulk Modulus (GPa) = 46.17662 74.03745 60.10703
# Shear Modulus (GPa) = 33.27752 38.74735 36.01243
#
# Velocity S-wave (km/s) = 3.90168 4.21015 4.05885
# Velocity P-wave (km/s) = 6.43595 7.58307 7.03294
#
# Compressibility (1/GPa) = 0.02165598
#
# Stress axis : x y z
#
# Youngs Moduli (GPa) = 91.82998 44.50151 172.24759
#
# Poissons Ratio (x) = 0.18761 0.57209
# Poissons Ratio (y) = 0.38714 0.20981
# Poissons Ratio (z) = 0.30500 0.05421
#
# Static dielectric constant tensor:
#      x y z
#    x 1.846870 0.000000 0.000000 
#    y 0.000000 1.835220 0.000000 
#    z 0.000000 0.000000 1.828200 
# 
# From -- ./inp_files/17862.got.cif
#   From: 2010.05.17/outbox.cif.g08.bks.cpg/sg56_9_cif.got.tgz:17862.got - 2010.06.03 13:42:01.
