data_PCOD9430792
_publ_section_title
;
Structure prediction by ZEFSAII (Michael W. Deem and Ramdas Pophale) SiO2 
 PCOD9430792
Probable space group: P C C N
;
_chemical_formula_sum "Si O2"
_cell_formula_units_Z 32
_cell_length_a 17.813796
_cell_length_b 5.013762
_cell_length_c 16.866283
_cell_angle_alpha 90.000000
_cell_angle_beta 90.000000
_cell_angle_gamma 90.000000
_cell_volume 1506.397451
_symmetry_space_group_name_H-M "P C C N"
_symmetry_group_IT_number 56
_symmetry_cell_setting 'orthorhombic'
loop_
_space_group_symop_operation_xyz
x,y,z
1/2-x,1/2-y,z
1/2+x,-y,1/2-z
-x,1/2+y,1/2-z
-x,-y,-z
1/2+x,1/2+y,-z
1/2-x,y,1/2+z
x,1/2-y,1/2+z
loop_
_atom_site_type_symbol
_atom_site_label
_atom_site_fract_x
_atom_site_fract_y
_atom_site_fract_z
Si Si1 0.036536 0.479173 0.129674
Si Si2 0.432141 0.205532 0.484542
Si Si3 0.090429 0.844004 0.260309
Si Si4 0.334179 0.354412 0.836948
O O1 0.073838 0.732632 0.172402
O O2 0.970406 0.571434 0.070907
O O3 0.989695 0.310493 0.194009
O O4 0.090508 0.318895 0.070458
O O5 0.366797 0.110635 0.426195
O O6 0.500000 0.000000 0.500000
O O7 0.150286 0.635916 0.295752
O O8 0.120892 0.135490 0.283234
O O9 0.250000 0.250000 0.840180
#
# Coordination Sequence:
#
# PCOD9430792 Si02
#       4
#     8   8   8   8
#     4  10  21  36  62  97 121 155 213 277 321 367
#     4  10  20  37  63  95 123 161 216 272 325 375
#     4  11  22  38  65  94 126 165 213 269 325 386
#     4  11  24  42  63  88 132 180 215 256 334 408
#
# _framework density 21.242736000000001
#
# number of rings (size 3 to 8) (size 9 to 14) (size 15 to 20)
#    0.000    1.500    2.500    3.750    3.500    0.000 
#    0.000    1.250    5.500    0.000    0.000    0.000 
#    0.000    0.000    0.000    0.000    0.000    0.000 
#
# Total GULP energy -178425.724943 kJ/mol
# GULP energy per Si atom -5575.803904 kJ/mol
# Density = 2.119439 g / cm^3
# Si number density = 21.242736 Si / 1000 Ang^3
#
#
#
# Elastic Constant Matrix: (Units=GPa)
#
#
# Indices 1 2 3 4 5 6 
#
# 1 86.9549 -0.2144 16.1647 0.0000 0.0000 0.0000
# 2 -0.2144 72.7601 14.5736 0.0000 0.0000 0.0000
# 3 16.1647 14.5736 103.0029 0.0000 0.0000 0.0000
# 4 0.0000 0.0000 0.0000 32.4122 0.0000 0.0000
# 5 0.0000 0.0000 0.0000 0.0000 24.4474 0.0000
# 6 0.0000 0.0000 0.0000 0.0000 0.0000 23.7719
#
#
#
# Elastic Compliance Matrix: (Units=1/GPa)
#
#
# Indices 1 2 3 4 5 6 
#
# 1 0.011858 0.000420 -0.001920 0.000000 0.000000 0.000000
# 2 0.000420 0.014159 -0.002069 0.000000 0.000000 0.000000
# 3 -0.001920 -0.002069 0.010303 0.000000 0.000000 0.000000
# 4 0.000000 0.000000 0.000000 0.030853 0.000000 0.000000
# 5 0.000000 0.000000 0.000000 0.000000 0.040904 0.000000
# 6 0.000000 0.000000 0.000000 0.000000 0.000000 0.042066
#
#
# Mechanical properties :
#
#
# Convention : Reuss Voigt Hill
#
# Bulk Modulus (GPa) = 34.26962 35.97395 35.12179
# Shear Modulus (GPa) = 29.93829 31.60591 30.77210
#
# Velocity S-wave (km/s) = 3.75819 3.86144 3.81017
# Velocity P-wave (km/s) = 5.91603 6.07062 5.99383
#
# Compressibility (1/GPa) = 0.02918037
#
# Stress axis : x y z
#
# Youngs Moduli (GPa) = 84.32959 70.62398 97.06287
#
# Poissons Ratio (x) = -0.02963 0.18639
# Poissons Ratio (y) = -0.03538 0.20085
# Poissons Ratio (z) = 0.16194 0.14614
#
# Static dielectric constant tensor:
#      x y z
#    x 1.775020 0.000000 0.000000 
#    y 0.000000 1.909610 0.000000 
#    z 0.000000 0.000000 1.905420 
# 
# From -- ./inp_files/9418.got.cif
#   From: 2010.05.17/outbox.cif.g08.bks.cpg/sg56_5_cif.got.tgz:9418.got - 2010.06.03 13:42:01.
