data_PCOD9430112
_publ_section_title
;
Structure prediction by ZEFSAII (Michael W. Deem and Ramdas Pophale) SiO2 
 PCOD9430112
Probable space group: P C C N
;
_chemical_formula_sum "Si O2"
_cell_formula_units_Z 48
_cell_length_a 26.057894
_cell_length_b 5.065130
_cell_length_c 16.352379
_cell_angle_alpha 90.000000
_cell_angle_beta 90.000000
_cell_angle_gamma 90.000000
_cell_volume 2158.295244
_symmetry_space_group_name_H-M "P C C N"
_symmetry_group_IT_number 56
_symmetry_cell_setting 'orthorhombic'
loop_
_space_group_symop_operation_xyz
x,y,z
1/2-x,1/2-y,z
1/2+x,-y,1/2-z
-x,1/2+y,1/2-z
-x,-y,-z
1/2+x,1/2+y,-z
1/2-x,y,1/2+z
x,1/2-y,1/2+z
loop_
_atom_site_type_symbol
_atom_site_label
_atom_site_fract_x
_atom_site_fract_y
_atom_site_fract_z
Si Si1 0.629401 0.861673 0.160813
Si Si2 0.371206 0.780161 0.636822
Si Si3 0.588777 0.533746 0.499929
Si Si4 0.309296 0.275394 0.695818
Si Si5 0.069735 0.634876 0.282449
Si Si6 0.502682 0.708471 0.924575
O O1 0.681205 0.794468 0.208416
O O2 0.589527 0.661732 0.204117
O O3 0.610977 0.162256 0.175880
O O4 0.624640 0.818435 0.064135
O O5 0.382957 0.704922 0.544097
O O6 0.332112 0.559712 0.672902
O O7 0.423693 0.733776 0.689544
O O8 0.344110 0.057379 0.650528
O O9 0.539348 0.430103 0.550333
O O10 0.561408 0.703395 0.429559
O O11 0.250000 0.250000 0.674638
O O12 0.017061 0.644239 0.333452
O O13 0.500000 0.500000 0.000000
#
# Coordination Sequence:
#
# PCOD9430112 Si02
#       6
#     8   8   8   8   8   8
#     4   9  18  34  58  78 110 145 193 232 287 348
#     4  10  22  37  59  87 119 150 192 249 303 348
#     4  10  21  35  54  87 115 157 193 247 290 330
#     4  10  21  40  63  84 110 152 190 238 304 374
#     4   9  18  35  51  80 112 155 192 233 282 340
#     4  10  19  34  55  75 118 161 203 233 274 348
#
# _framework density 22.239771999999999
#
# number of rings (size 3 to 8) (size 9 to 14) (size 15 to 20)
#    0.000    2.333    1.667    0.500    2.333    0.000 
#    3.000    0.833    0.000   10.000    0.000    0.000 
#    0.000    0.000    0.000    0.000    0.000    0.000 
#
# Total GULP energy -267692.864898 kJ/mol
# GULP energy per Si atom -5576.934685 kJ/mol
# Density = 2.218915 g / cm^3
# Si number density = 22.239772 Si / 1000 Ang^3
#
#
#
# Elastic Constant Matrix: (Units=GPa)
#
#
# Indices 1 2 3 4 5 6 
#
# 1 78.9149 28.3003 27.6846 0.0000 0.0000 0.0000
# 2 28.3003 83.3994 0.1309 0.0000 0.0000 0.0000
# 3 27.6846 0.1309 58.8665 0.0000 0.0000 0.0000
# 4 0.0000 0.0000 0.0000 28.5007 0.0000 0.0000
# 5 0.0000 0.0000 0.0000 0.0000 24.3395 0.0000
# 6 0.0000 0.0000 0.0000 0.0000 0.0000 21.0668
#
#
#
# Elastic Compliance Matrix: (Units=1/GPa)
#
#
# Indices 1 2 3 4 5 6 
#
# 1 0.017751 -0.006011 -0.008335 0.000000 0.000000 0.000000
# 2 -0.006011 0.014026 0.002796 0.000000 0.000000 0.000000
# 3 -0.008335 0.002796 0.020901 0.000000 0.000000 0.000000
# 4 0.000000 0.000000 0.000000 0.035087 0.000000 0.000000
# 5 0.000000 0.000000 0.000000 0.000000 0.041086 0.000000
# 6 0.000000 0.000000 0.000000 0.000000 0.000000 0.047468
#
#
# Mechanical properties :
#
#
# Convention : Reuss Voigt Hill
#
# Bulk Modulus (GPa) = 33.80855 37.04581 35.42718
# Shear Modulus (GPa) = 23.89161 25.78573 24.83867
#
# Velocity S-wave (km/s) = 3.28117 3.40875 3.34557
# Velocity P-wave (km/s) = 5.43963 5.67331 5.55770
#
# Compressibility (1/GPa) = 0.02957832
#
# Stress axis : x y z
#
# Youngs Moduli (GPa) = 56.33345 71.29766 47.84388
#
# Poissons Ratio (x) = 0.42854 0.39878
# Poissons Ratio (y) = 0.33860 -0.13375
# Poissons Ratio (z) = 0.46954 -0.19932
#
# Static dielectric constant tensor:
#      x y z
#    x 1.790480 0.000000 0.000000 
#    y 0.000000 1.897180 0.000000 
#    z 0.000000 0.000000 1.938380 
# 
# From -- ./inp_files/13436.got.cif
#   From: 2010.05.17/outbox.cif.g08.bks.cpg/sg56_7_cif.got.tgz:13436.got - 2010.06.03 13:42:01.
