data_PCOD9430303
_publ_section_title
;
Structure prediction by ZEFSAII (Michael W. Deem and Ramdas Pophale) SiO2 
 PCOD9430303
Probable space group: P C C N
;
_chemical_formula_sum "Si O2"
_cell_formula_units_Z 40
_cell_length_a 5.607530
_cell_length_b 20.652669
_cell_length_c 14.164368
_cell_angle_alpha 90.000000
_cell_angle_beta 90.000000
_cell_angle_gamma 90.000000
_cell_volume 1640.381988
_symmetry_space_group_name_H-M "P C C N"
_symmetry_group_IT_number 56
_symmetry_cell_setting 'orthorhombic'
loop_
_space_group_symop_operation_xyz
x,y,z
1/2-x,1/2-y,z
1/2+x,-y,1/2-z
-x,1/2+y,1/2-z
-x,-y,-z
1/2+x,1/2+y,-z
1/2-x,y,1/2+z
x,1/2-y,1/2+z
loop_
_atom_site_type_symbol
_atom_site_label
_atom_site_fract_x
_atom_site_fract_y
_atom_site_fract_z
Si Si1 0.000092 0.237756 0.531611
Si Si2 0.431387 0.596277 0.549799
Si Si3 0.002911 0.215078 0.823375
Si Si4 0.717903 0.013984 0.596184
Si Si5 0.386935 0.925970 0.714535
O O1 0.750000 0.250000 0.583255
O O2 0.998961 0.165507 0.490011
O O3 0.995007 0.283776 0.438589
O O4 0.250000 0.250000 0.582296
O O5 0.649056 0.546379 0.547549
O O6 0.216483 0.568097 0.484861
O O7 0.351557 0.595309 0.658766
O O8 0.750000 0.250000 0.797234
O O9 0.250000 0.250000 0.798951
O O10 0.025305 0.141766 0.787305
O O11 0.865002 0.047589 0.680560
O O12 0.496725 0.983929 0.652121
#
# Coordination Sequence:
#
# PCOD9430303 Si02
#       5
#     8   8   8   8   8
#     4  10  19  37  65  92 124 177 213 269 340 391
#     4  11  23  43  64  95 133 174 226 278 337 413
#     4  10  20  36  66  93 125 180 218 271 344 397
#     4  11  25  40  66  98 129 178 223 278 346 401
#     4  12  22  42  67  95 136 173 227 283 340 412
#
# _framework density 24.384567000000001
#
# number of rings (size 3 to 8) (size 9 to 14) (size 15 to 20)
#    0.000    1.200    6.000    3.000    0.000    0.000 
#    0.000    2.000    0.000    0.000    0.000    1.400 
#    0.000    0.000    0.000    0.000    0.000    0.000 
#
# Total GULP energy -223455.965496 kJ/mol
# GULP energy per Si atom -5586.399137 kJ/mol
# Density = 2.432907 g / cm^3
# Si number density = 24.384567 Si / 1000 Ang^3
#
#
#
# Elastic Constant Matrix: (Units=GPa)
#
#
# Indices 1 2 3 4 5 6 
#
# 1 139.1157 30.0486 12.1752 0.0000 0.0000 0.0000
# 2 30.0486 105.1338 8.3534 0.0000 0.0000 0.0000
# 3 12.1752 8.3534 101.3508 0.0000 0.0000 0.0000
# 4 0.0000 0.0000 0.0000 -3.8524 0.0000 0.0000
# 5 0.0000 0.0000 0.0000 0.0000 29.6133 0.0000
# 6 0.0000 0.0000 0.0000 0.0000 0.0000 30.1253
#
#
#
# Elastic Compliance Matrix: (Units=1/GPa)
#
#
# Indices 1 2 3 4 5 6 
#
# 1 0.007717 -0.002146 -0.000750 0.000000 0.000000 0.000000
# 2 -0.002146 0.010171 -0.000581 0.000000 0.000000 0.000000
# 3 -0.000750 -0.000581 0.010005 0.000000 0.000000 0.000000
# 4 0.000000 0.000000 0.000000 -0.259581 0.000000 0.000000
# 5 0.000000 0.000000 0.000000 0.000000 0.033769 0.000000
# 6 0.000000 0.000000 0.000000 0.000000 0.000000 0.033195
#
#
# Mechanical properties :
#
#
# Convention : Reuss Voigt Hill
#
# Bulk Modulus (GPa) = 47.75627 49.63940 48.69784
# Shear Modulus (GPa) = -33.15846 30.84546 -1.15650
#
# Velocity S-wave (km/s) = -3.69157 3.56048 -0.68942
# Velocity P-wave (km/s) = 1.20704 6.10768 4.40231
#
# Compressibility (1/GPa) = 0.02093966
#
# Stress axis : x y z
#
# Youngs Moduli (GPa) = 129.57597 98.31675 99.95318
#
# Poissons Ratio (x) = 0.21100 0.07499
# Poissons Ratio (y) = 0.27809 0.05802
# Poissons Ratio (z) = 0.09721 0.05707
#
# Static dielectric constant tensor:
#      x y z
#    x 2.075510 0.000000 0.000000 
#    y 0.000000 1.939840 0.000000 
#    z 0.000000 0.000000 1.906590 
# 
# From -- ./inp_files/13841.got.cif
#   From: 2010.05.17/outbox.cif.g08.bks.cpg/sg56_7_cif.got.tgz:13841.got - 2010.06.03 13:42:01.
