data_PCOD9430647
_publ_section_title
;
Structure prediction by ZEFSAII (Michael W. Deem and Ramdas Pophale) SiO2 
 PCOD9430647
Probable space group: P C C N
;
_chemical_formula_sum "Si O2"
_cell_formula_units_Z 56
_cell_length_a 9.136845
_cell_length_b 21.462295
_cell_length_c 14.945368
_cell_angle_alpha 90.000000
_cell_angle_beta 90.000000
_cell_angle_gamma 90.000000
_cell_volume 2930.751734
_symmetry_space_group_name_H-M "P C C N"
_symmetry_group_IT_number 56
_symmetry_cell_setting 'orthorhombic'
loop_
_space_group_symop_operation_xyz
x,y,z
1/2-x,1/2-y,z
1/2+x,-y,1/2-z
-x,1/2+y,1/2-z
-x,-y,-z
1/2+x,1/2+y,-z
1/2-x,y,1/2+z
x,1/2-y,1/2+z
loop_
_atom_site_type_symbol
_atom_site_label
_atom_site_fract_x
_atom_site_fract_y
_atom_site_fract_z
Si Si1 0.534586 0.142279 0.202231
Si Si2 0.351060 0.440388 0.828963
Si Si3 0.765240 0.681663 0.892475
Si Si4 0.923598 0.264221 0.367786
Si Si5 0.975439 0.874944 0.006537
Si Si6 0.653705 0.086691 0.664756
Si Si7 0.408959 0.349887 0.287110
O O1 0.444566 0.085124 0.245466
O O2 0.433683 0.166382 0.122449
O O3 0.549318 0.195387 0.277713
O O4 0.693927 0.121604 0.174856
O O5 0.323570 0.513242 0.822675
O O6 0.204126 0.398314 0.831754
O O7 0.448400 0.424050 0.915145
O O8 0.750000 0.750000 0.931403
O O9 0.676679 0.635046 0.954498
O O10 0.684740 0.680678 0.794798
O O11 0.750000 0.250000 0.375703
O O12 0.974615 0.309898 0.447713
O O13 0.021104 0.202091 0.352262
O O14 0.088187 0.898289 0.932507
O O15 0.540362 0.113360 0.738243
#
# Coordination Sequence:
#
# PCOD9430647 Si02
#       7
#     8   8   8   8   8   8   8
#     4  10  21  37  66  90 116 161 203 257 296 358
#     4  10  22  40  62  89 123 163 209 248 296 366
#     4  10  20  36  57  89 119 153 194 246 305 367
#     4  11  21  40  61  93 123 150 204 257 313 356
#     4  10  25  37  59  88 125 168 189 256 313 361
#     4  11  21  42  61  90 122 164 206 248 305 360
#     4  10  21  37  65  88 116 159 205 254 297 358
#
# _framework density 19.107726
#
# number of rings (size 3 to 8) (size 9 to 14) (size 15 to 20)
#    0.000    1.714    2.857    1.286    2.000    1.143 
#    0.000    0.714    0.000    0.000    0.000    0.000 
#    0.000    0.000    0.000    0.000    0.000    0.000 
#
# Total GULP energy -312748.945169 kJ/mol
# GULP energy per Si atom -5584.802592 kJ/mol
# Density = 1.906424 g / cm^3
# Si number density = 19.107726 Si / 1000 Ang^3
#
#
#
# Elastic Constant Matrix: (Units=GPa)
#
#
# Indices 1 2 3 4 5 6 
#
# 1 124.3486 31.5248 10.0345 0.0000 0.0000 0.0000
# 2 31.5248 84.3714 3.3930 0.0000 0.0000 0.0000
# 3 10.0345 3.3930 23.0854 0.0000 0.0000 0.0000
# 4 0.0000 0.0000 0.0000 8.5691 0.0000 0.0000
# 5 0.0000 0.0000 0.0000 0.0000 14.7970 0.0000
# 6 0.0000 0.0000 0.0000 0.0000 0.0000 16.9239
#
#
#
# Elastic Compliance Matrix: (Units=1/GPa)
#
#
# Indices 1 2 3 4 5 6 
#
# 1 0.009156 -0.003280 -0.003498 0.000000 0.000000 0.000000
# 2 -0.003280 0.013098 -0.000499 0.000000 0.000000 0.000000
# 3 -0.003498 -0.000499 0.044911 0.000000 0.000000 0.000000
# 4 0.000000 0.000000 0.000000 0.116698 0.000000 0.000000
# 5 0.000000 0.000000 0.000000 0.000000 0.067581 0.000000
# 6 0.000000 0.000000 0.000000 0.000000 0.000000 0.059088
#
#
# Mechanical properties :
#
#
# Convention : Reuss Voigt Hill
#
# Bulk Modulus (GPa) = 19.00758 35.74558 27.37658
# Shear Modulus (GPa) = 14.59328 20.51489 17.55408
#
# Velocity S-wave (km/s) = 2.76658 3.28020 3.03428
# Velocity P-wave (km/s) = 4.49160 5.75277 5.16085
#
# Compressibility (1/GPa) = 0.05261060
#
# Stress axis : x y z
#
# Youngs Moduli (GPa) = 109.22061 76.34690 22.26619
#
# Poissons Ratio (x) = 0.25044 0.07788
# Poissons Ratio (y) = 0.35828 0.01112
# Poissons Ratio (z) = 0.38201 0.03812
#
# Static dielectric constant tensor:
#      x y z
#    x 1.656080 0.000000 0.000000 
#    y 0.000000 1.647730 0.000000 
#    z 0.000000 0.000000 1.653450 
# 
# From -- ./inp_files/10859.got.cif
#   From: 2010.05.17/outbox.cif.g08.bks.cpg/sg56_6_cif.got.tgz:10859.got - 2010.06.03 13:42:01.
