data_PCOD9430964
_publ_section_title
;
Structure prediction by ZEFSAII (Michael W. Deem and Ramdas Pophale) SiO2 
 PCOD9430964
Probable space group: P C C N
;
_chemical_formula_sum "Si O2"
_cell_formula_units_Z 44
_cell_length_a 12.774473
_cell_length_b 16.309428
_cell_length_c 8.463400
_cell_angle_alpha 90.000000
_cell_angle_beta 90.000000
_cell_angle_gamma 90.000000
_cell_volume 1763.301552
_symmetry_space_group_name_H-M "P C C N"
_symmetry_group_IT_number 56
_symmetry_cell_setting 'orthorhombic'
loop_
_space_group_symop_operation_xyz
x,y,z
1/2-x,1/2-y,z
1/2+x,-y,1/2-z
-x,1/2+y,1/2-z
-x,-y,-z
1/2+x,1/2+y,-z
1/2-x,y,1/2+z
x,1/2-y,1/2+z
loop_
_atom_site_type_symbol
_atom_site_label
_atom_site_fract_x
_atom_site_fract_y
_atom_site_fract_z
Si Si1 0.727976 0.848570 0.141244
Si Si2 0.420254 0.055370 0.103810
Si Si3 0.585305 0.863923 0.449766
Si Si4 0.250000 0.750000 0.857331
Si Si5 0.029525 0.804832 0.473707
Si Si6 0.109561 0.895285 0.769419
O O1 0.750000 0.750000 0.136038
O O2 0.666989 0.869031 0.302779
O O3 0.656774 0.890539 0.005509
O O4 0.843803 0.884026 0.102289
O O5 0.500089 0.127565 0.157643
O O6 0.363465 0.983534 0.199428
O O7 0.500000 0.000000 0.000000
O O8 0.549547 0.769702 0.465153
O O9 0.473762 0.907461 0.413141
O O10 0.354721 0.771665 0.948570
O O11 0.211085 0.836981 0.784008
O O12 0.037124 0.844621 0.646132
#
# Coordination Sequence:
#
# PCOD9430964 Si02
#       6
#     8   8   8   4   8   8
#     4  12  22  37  64 100 130 177 221 275 341 406
#     4  10  20  40  62  91 133 176 223 277 338 396
#     4  11  22  38  64  97 130 169 227 272 333 406
#     4  10  22  36  66  88 124 178 232 268 338 404
#     4  10  20  39  59  90 128 170 222 275 324 404
#     4  10  21  41  62  91 128 181 223 280 333 409
#
# _framework density 24.953192000000001
#
# number of rings (size 3 to 8) (size 9 to 14) (size 15 to 20)
#    0.000    1.455    5.455    1.091    0.000    1.455 
#    0.000    0.000    0.000    1.091    0.000    0.000 
#    0.000    0.000    0.000    0.000    0.000    0.000 
#
# Total GULP energy -245175.919802 kJ/mol
# GULP energy per Si atom -5572.179995 kJ/mol
# Density = 2.489640 g / cm^3
# Si number density = 24.953192 Si / 1000 Ang^3
#
#
#
# Elastic Constant Matrix: (Units=GPa)
#
#
# Indices 1 2 3 4 5 6 
#
# 1 121.1151 10.3469 23.3041 0.0000 0.0000 0.0000
# 2 10.3469 108.9619 23.2093 0.0000 0.0000 0.0000
# 3 23.3041 23.2093 28.1814 0.0000 0.0000 0.0000
# 4 0.0000 0.0000 0.0000 32.4530 0.0000 0.0000
# 5 0.0000 0.0000 0.0000 0.0000 36.0896 0.0000
# 6 0.0000 0.0000 0.0000 0.0000 0.0000 42.4130
#
#
#
# Elastic Compliance Matrix: (Units=1/GPa)
#
#
# Indices 1 2 3 4 5 6 
#
# 1 0.009904 0.000975 -0.008993 0.000000 0.000000 0.000000
# 2 0.000975 0.011226 -0.010052 0.000000 0.000000 0.000000
# 3 -0.008993 -0.010052 0.051199 0.000000 0.000000 0.000000
# 4 0.000000 0.000000 0.000000 0.030814 0.000000 0.000000
# 5 0.000000 0.000000 0.000000 0.000000 0.027709 0.000000
# 6 0.000000 0.000000 0.000000 0.000000 0.000000 0.023578
#
#
# Mechanical properties :
#
#
# Convention : Reuss Voigt Hill
#
# Bulk Modulus (GPa) = 27.63194 41.33100 34.48147
# Shear Modulus (GPa) = 24.67548 35.61766 30.14657
#
# Velocity S-wave (km/s) = 3.14804 3.78217 3.47958
# Velocity P-wave (km/s) = 4.93063 5.97264 5.47647
#
# Compressibility (1/GPa) = 0.03619001
#
# Stress axis : x y z
#
# Youngs Moduli (GPa) = 100.97342 89.07925 19.53171
#
# Poissons Ratio (x) = -0.08685 0.17564
# Poissons Ratio (y) = -0.09845 0.19633
# Poissons Ratio (z) = 0.90801 0.89539
#
# Static dielectric constant tensor:
#      x y z
#    x 2.059330 0.000000 0.000000 
#    y 0.000000 1.973180 0.000000 
#    z 0.000000 0.000000 2.205040 
# 
# From -- ./inp_files/7085.got.cif
#   From: 2010.05.17/outbox.cif.g08.bks.cpg/sg56_4_cif.got.tgz:7085.got - 2010.06.03 13:42:01.
