data_PCOD9430229
_publ_section_title
;
Structure prediction by ZEFSAII (Michael W. Deem and Ramdas Pophale) SiO2 
 PCOD9430229
Probable space group: P C C N
;
_chemical_formula_sum "Si O2"
_cell_formula_units_Z 64
_cell_length_a 17.213967
_cell_length_b 8.835943
_cell_length_c 23.300930
_cell_angle_alpha 90.000000
_cell_angle_beta 90.000000
_cell_angle_gamma 90.000000
_cell_volume 3544.109462
_symmetry_space_group_name_H-M "P C C N"
_symmetry_group_IT_number 56
_symmetry_cell_setting 'orthorhombic'
loop_
_space_group_symop_operation_xyz
x,y,z
1/2-x,1/2-y,z
1/2+x,-y,1/2-z
-x,1/2+y,1/2-z
-x,-y,-z
1/2+x,1/2+y,-z
1/2-x,y,1/2+z
x,1/2-y,1/2+z
loop_
_atom_site_type_symbol
_atom_site_label
_atom_site_fract_x
_atom_site_fract_y
_atom_site_fract_z
Si Si1 0.668384 0.829048 0.958918
Si Si2 0.950651 0.156972 0.183535
Si Si3 0.082065 0.141389 0.651644
Si Si4 0.030880 0.375963 0.880808
Si Si5 0.463192 0.175497 0.273351
Si Si6 0.050974 0.128255 0.969774
Si Si7 0.663472 0.102462 0.589786
Si Si8 0.661455 0.071155 0.054133
O O1 0.750000 0.750000 0.971101
O O2 0.652464 0.842679 0.891540
O O3 0.599369 0.726976 0.984869
O O4 0.665741 0.987099 0.993193
O O5 0.868318 0.149762 0.152334
O O6 0.015227 0.230562 0.141539
O O7 0.960735 0.260923 0.239915
O O8 0.975390 0.988806 0.200442
O O9 0.096289 0.157990 0.719800
O O10 0.039519 0.983808 0.637509
O O11 0.059140 0.290488 0.823411
O O12 0.009073 0.248479 0.927799
O O13 0.097481 0.481253 0.908792
O O14 0.113348 0.039092 0.930761
O O15 0.000000 0.000000 0.000000
O O16 0.753960 0.064736 0.584263
O O17 0.645071 0.250094 0.550912
#
# Coordination Sequence:
#
# PCOD9430229 Si02
#       8
#     8   8   8   8   8   8   8   8
#     4  11  23  41  56  82 128 158 190 247 308 368
#     4  10  19  36  61  88 117 146 203 245 297 347
#     4  10  21  37  59  83 116 155 198 239 295 356
#     4  11  21  37  61  88 118 154 200 252 301 355
#     4  10  19  36  60  86 115 153 195 255 293 345
#     4  11  24  35  60  92 114 153 206 246 302 363
#     4  11  20  38  58  87 118 154 197 252 304 357
#     4  10  23  37  58  84 122 157 193 250 312 354
#
# _framework density 18.058133000000002
#
# number of rings (size 3 to 8) (size 9 to 14) (size 15 to 20)
#    0.750    0.750    5.000    0.750    1.750    1.000 
#    0.000    1.250    0.000    0.000    0.000    0.000 
#    0.000    0.000    0.000    0.000    0.000    0.000 
#
# Total GULP energy -356509.487923 kJ/mol
# GULP energy per Si atom -5570.460749 kJ/mol
# Density = 1.801703 g / cm^3
# Si number density = 18.058133 Si / 1000 Ang^3
#
#
#
# Elastic Constant Matrix: (Units=GPa)
#
#
# Indices 1 2 3 4 5 6 
#
# 1 16.2067 -2.4204 3.7347 0.0000 0.0000 0.0000
# 2 -2.4204 77.2950 13.2686 0.0000 0.0000 0.0000
# 3 3.7347 13.2686 73.0956 0.0000 0.0000 0.0000
# 4 0.0000 0.0000 0.0000 32.0343 0.0000 0.0000
# 5 0.0000 0.0000 0.0000 0.0000 22.9538 0.0000
# 6 0.0000 0.0000 0.0000 0.0000 0.0000 20.8278
#
#
#
# Elastic Compliance Matrix: (Units=1/GPa)
#
#
# Indices 1 2 3 4 5 6 
#
# 1 0.062942 0.002604 -0.003689 0.000000 0.000000 0.000000
# 2 0.002604 0.013461 -0.002577 0.000000 0.000000 0.000000
# 3 -0.003689 -0.002577 0.014337 0.000000 0.000000 0.000000
# 4 0.000000 0.000000 0.000000 0.031217 0.000000 0.000000
# 5 0.000000 0.000000 0.000000 0.000000 0.043566 0.000000
# 6 0.000000 0.000000 0.000000 0.000000 0.000000 0.048013
#
#
# Mechanical properties :
#
#
# Convention : Reuss Voigt Hill
#
# Bulk Modulus (GPa) = 11.98783 21.75145 16.86964
# Shear Modulus (GPa) = 20.10752 25.29747 22.70250
#
# Velocity S-wave (km/s) = 3.34052 3.74691 3.54953
# Velocity P-wave (km/s) = 4.64022 5.54892 5.11479
#
# Compressibility (1/GPa) = 0.08341794
#
# Stress axis : x y z
#
# Youngs Moduli (GPa) = 15.88766 74.28707 69.75006
#
# Poissons Ratio (x) = -0.19346 0.25728
# Poissons Ratio (y) = -0.04137 0.17972
# Poissons Ratio (z) = 0.05860 0.19141
#
# Static dielectric constant tensor:
#      x y z
#    x 1.607200 0.000000 0.000000 
#    y 0.000000 1.629320 0.000000 
#    z 0.000000 0.000000 1.651480 
# 
# From -- ./inp_files/21282.got.cif
#   From: 2010.05.17/outbox.cif.g08.bks.cpg/sg56_11_cif.got.tgz:21282.got - 2010.06.03 13:42:01.
