data_PCOD9430556
_publ_section_title
;
Structure prediction by ZEFSAII (Michael W. Deem and Ramdas Pophale) SiO2 
 PCOD9430556
Probable space group: P C C N
;
_chemical_formula_sum "Si O2"
_cell_formula_units_Z 56
_cell_length_a 14.707368
_cell_length_b 19.924393
_cell_length_c 8.266189
_cell_angle_alpha 90.000000
_cell_angle_beta 90.000000
_cell_angle_gamma 90.000000
_cell_volume 2422.285835
_symmetry_space_group_name_H-M "P C C N"
_symmetry_group_IT_number 56
_symmetry_cell_setting 'orthorhombic'
loop_
_space_group_symop_operation_xyz
x,y,z
1/2-x,1/2-y,z
1/2+x,-y,1/2-z
-x,1/2+y,1/2-z
-x,-y,-z
1/2+x,1/2+y,-z
1/2-x,y,1/2+z
x,1/2-y,1/2+z
loop_
_atom_site_type_symbol
_atom_site_label
_atom_site_fract_x
_atom_site_fract_y
_atom_site_fract_z
Si Si1 0.123203 0.182101 0.759426
Si Si2 0.250000 0.750000 0.829283
Si Si3 0.956148 0.087518 0.415358
Si Si4 0.250000 0.250000 0.015135
Si Si5 0.460692 0.452148 0.753826
Si Si6 0.782592 0.107499 0.617027
Si Si7 0.951992 0.218000 0.210637
Si Si8 0.385766 0.609791 0.040567
O O1 0.169255 0.218104 0.911515
O O2 0.198117 0.194991 0.621892
O O3 0.114701 0.103117 0.797780
O O4 0.027936 0.222718 0.714916
O O5 0.262283 0.816136 0.934419
O O6 0.150795 0.757682 0.748425
O O7 0.856999 0.080102 0.496368
O O8 0.974296 0.160280 0.340525
O O9 0.018510 0.074759 0.570533
O O10 0.963671 0.030869 0.280201
O O11 0.536476 0.436612 0.887336
O O12 0.683198 0.077394 0.590878
O O13 0.821946 0.114107 0.797086
O O14 0.934753 0.175126 0.042764
#
# Coordination Sequence:
#
# PCOD9430556 Si02
#       8
#     8   4   8   4   8   8   8   8
#     4  11  22  42  67  92 124 164 216 275 324 369
#     4  10  22  34  60  98 128 158 200 246 314 398
#     4  10  22  39  59  89 127 165 205 255 315 383
#     4  10  24  42  64  94 120 158 224 282 324 366
#     4  10  22  41  63  87 121 165 211 260 318 377
#     4  10  20  35  54  86 129 162 198 247 302 376
#     4  11  22  38  65  96 129 165 205 261 324 385
#     4  10  21  36  58  89 124 165 205 248 310 380
#
# _framework density 23.118660999999999
#
# number of rings (size 3 to 8) (size 9 to 14) (size 15 to 20)
#    0.000    1.714    0.000    5.143    0.000    9.143 
#    0.000   10.000    0.000    0.000    0.000    0.000 
#    0.000    0.000    0.000    0.000    0.000    0.000 
#
# Total GULP energy -312110.979559 kJ/mol
# GULP energy per Si atom -5573.410349 kJ/mol
# Density = 2.306604 g / cm^3
# Si number density = 23.118661 Si / 1000 Ang^3
#
#
#
# Elastic Constant Matrix: (Units=GPa)
#
#
# Indices 1 2 3 4 5 6 
#
# 1 72.3069 -6.8649 13.1425 0.0000 0.0000 0.0000
# 2 -6.8649 36.3977 -7.8609 0.0000 0.0000 0.0000
# 3 13.1425 -7.8609 85.2165 0.0000 0.0000 0.0000
# 4 0.0000 0.0000 0.0000 120.7924 0.0000 0.0000
# 5 0.0000 0.0000 0.0000 0.0000 34.8456 0.0000
# 6 0.0000 0.0000 0.0000 0.0000 0.0000 12.8088
#
#
#
# Elastic Compliance Matrix: (Units=1/GPa)
#
#
# Indices 1 2 3 4 5 6 
#
# 1 0.014412 0.002284 -0.002012 0.000000 0.000000 0.000000
# 2 0.002284 0.028395 0.002267 0.000000 0.000000 0.000000
# 3 -0.002012 0.002267 0.012254 0.000000 0.000000 0.000000
# 4 0.000000 0.000000 0.000000 0.008279 0.000000 0.000000
# 5 0.000000 0.000000 0.000000 0.000000 0.028698 0.000000
# 6 0.000000 0.000000 0.000000 0.000000 0.000000 0.078072
#
#
# Mechanical properties :
#
#
# Convention : Reuss Voigt Hill
#
# Bulk Modulus (GPa) = 16.62820 21.19495 18.91157
# Shear Modulus (GPa) = 27.01558 46.72298 36.86928
#
# Velocity S-wave (km/s) = 3.42213 4.50044 3.99781
# Velocity P-wave (km/s) = 4.77732 6.01607 5.43212
#
# Compressibility (1/GPa) = 0.06013881
#
# Stress axis : x y z
#
# Youngs Moduli (GPa) = 69.38429 35.21797 81.60421
#
# Poissons Ratio (x) = -0.08043 0.16420
# Poissons Ratio (y) = -0.15846 -0.18500
# Poissons Ratio (z) = 0.13961 -0.07984
#
# Static dielectric constant tensor:
#      x y z
#    x 1.930160 0.000000 0.000000 
#    y 0.000000 1.893970 0.000000 
#    z 0.000000 0.000000 1.946330 
# 
# From -- ./inp_files/3608.got.cif
#   From: 2010.05.17/outbox.cif.g08.bks.cpg/sg56_2_cif.got.tgz:3608.got - 2010.06.03 13:42:01.
