data_PCOD9430472
_publ_section_title
;
Structure prediction by ZEFSAII (Michael W. Deem and Ramdas Pophale) SiO2 
 PCOD9430472
Probable space group: P C C N
;
_chemical_formula_sum "Si O2"
_cell_formula_units_Z 64
_cell_length_a 20.759240
_cell_length_b 20.019573
_cell_length_c 7.082826
_cell_angle_alpha 90.000000
_cell_angle_beta 90.000000
_cell_angle_gamma 90.000000
_cell_volume 2943.559594
_symmetry_space_group_name_H-M "P C C N"
_symmetry_group_IT_number 56
_symmetry_cell_setting 'orthorhombic'
loop_
_space_group_symop_operation_xyz
x,y,z
1/2-x,1/2-y,z
1/2+x,-y,1/2-z
-x,1/2+y,1/2-z
-x,-y,-z
1/2+x,1/2+y,-z
1/2-x,y,1/2+z
x,1/2-y,1/2+z
loop_
_atom_site_type_symbol
_atom_site_label
_atom_site_fract_x
_atom_site_fract_y
_atom_site_fract_z
Si Si1 0.930019 0.938942 0.815240
Si Si2 0.447825 0.025700 0.239127
Si Si3 0.505420 0.660098 0.345784
Si Si4 0.494408 0.306949 0.095134
Si Si5 0.356839 0.695093 0.890353
Si Si6 0.688187 0.023283 0.287621
Si Si7 0.357873 0.658593 0.330904
Si Si8 0.173006 0.556499 0.274630
O O1 0.953121 0.862338 0.795128
O O2 0.859719 0.962135 0.745223
O O3 0.934729 0.953737 0.041897
O O4 0.983726 0.988732 0.731786
O O5 0.453071 0.093990 0.122090
O O6 0.391641 0.974433 0.189511
O O7 0.531229 0.731460 0.412888
O O8 0.430984 0.651584 0.405065
O O9 0.501049 0.667922 0.118821
O O10 0.567747 0.301636 0.172101
O O11 0.330178 0.770374 0.898188
O O12 0.323776 0.637540 0.763805
O O13 0.358938 0.671450 0.105733
O O14 0.676798 0.087455 0.151303
O O15 0.764665 0.015648 0.290111
O O16 0.669493 0.043748 0.500180
#
# Coordination Sequence:
#
# PCOD9430472 Si02
#       8
#     8   8   8   8   8   8   8   8
#     4   9  15  29  53  73  90 122 166 200 229 277
#     4   9  15  29  53  73  90 122 166 200 229 277
#     4   9  16  28  49  74  96 119 153 197 239 279
#     4   9  16  28  49  74  96 119 153 197 239 279
#     4   9  17  29  46  68  95 126 158 192 230 276
#     4  10  20  33  49  70  96 127 162 198 236 279
#     4   9  17  29  46  68  95 126 158 192 230 276
#     4  10  20  33  49  70  96 127 162 198 236 279
#
# _framework density 21.742384000000001
#
# number of rings (size 3 to 8) (size 9 to 14) (size 15 to 20)
#    0.000    2.750    2.500    0.000    0.000    1.500 
#    0.000    3.750    0.000    2.250    0.000    5.250 
#    0.000    0.000    0.000    0.000    0.000    0.000 
#
# Total GULP energy -357338.813467 kJ/mol
# GULP energy per Si atom -5583.418960 kJ/mol
# Density = 2.169290 g / cm^3
# Si number density = 21.742384 Si / 1000 Ang^3
#
#
#
# Elastic Constant Matrix: (Units=GPa)
#
#
# Indices 1 2 3 4 5 6 
#
# 1 78.2442 33.2099 -7.2599 0.0000 0.0000 0.0000
# 2 33.2099 107.8447 2.7259 0.0000 0.0000 0.0000
# 3 -7.2599 2.7259 51.4978 0.0000 0.0000 0.0000
# 4 0.0000 0.0000 0.0000 23.8146 0.0000 0.0000
# 5 0.0000 0.0000 0.0000 0.0000 17.5185 0.0000
# 6 0.0000 0.0000 0.0000 0.0000 0.0000 14.3098
#
#
#
# Elastic Compliance Matrix: (Units=1/GPa)
#
#
# Indices 1 2 3 4 5 6 
#
# 1 0.014983 -0.004674 0.002360 0.000000 0.000000 0.000000
# 2 -0.004674 0.010743 -0.001228 0.000000 0.000000 0.000000
# 3 0.002360 -0.001228 0.019816 0.000000 0.000000 0.000000
# 4 0.000000 0.000000 0.000000 0.041991 0.000000 0.000000
# 5 0.000000 0.000000 0.000000 0.000000 0.057083 0.000000
# 6 0.000000 0.000000 0.000000 0.000000 0.000000 0.069882
#
#
# Mechanical properties :
#
#
# Convention : Reuss Voigt Hill
#
# Bulk Modulus (GPa) = 26.00176 32.77095 29.38636
# Shear Modulus (GPa) = 21.33106 25.05597 23.19351
#
# Velocity S-wave (km/s) = 3.13562 3.39839 3.26964
# Velocity P-wave (km/s) = 5.00944 5.52303 5.27249
#
# Compressibility (1/GPa) = 0.03845893
#
# Stress axis : x y z
#
# Youngs Moduli (GPa) = 66.74200 93.08558 50.46446
#
# Poissons Ratio (x) = 0.43504 -0.11908
# Poissons Ratio (y) = 0.31192 0.06195
# Poissons Ratio (z) = -0.15749 0.11426
#
# Static dielectric constant tensor:
#      x y z
#    x 1.766870 0.000000 0.000000 
#    y 0.000000 1.830340 0.000000 
#    z 0.000000 0.000000 1.927360 
# 
# From -- ./inp_files/4550.got.cif
#   From: 2010.05.17/outbox.cif.g08.bks.cpg/sg56_3_cif.got.tgz:4550.got - 2010.06.03 13:42:01.
