data_PCOD9430927
_publ_section_title
;
Structure prediction by ZEFSAII (Michael W. Deem and Ramdas Pophale) SiO2 
 PCOD9430927
Probable space group: P C C N
;
_chemical_formula_sum "Si O2"
_cell_formula_units_Z 48
_cell_length_a 15.734186
_cell_length_b 9.785903
_cell_length_c 16.295638
_cell_angle_alpha 90.000000
_cell_angle_beta 90.000000
_cell_angle_gamma 90.000000
_cell_volume 2509.091822
_symmetry_space_group_name_H-M "P C C N"
_symmetry_group_IT_number 56
_symmetry_cell_setting 'orthorhombic'
loop_
_space_group_symop_operation_xyz
x,y,z
1/2-x,1/2-y,z
1/2+x,-y,1/2-z
-x,1/2+y,1/2-z
-x,-y,-z
1/2+x,1/2+y,-z
1/2-x,y,1/2+z
x,1/2-y,1/2+z
loop_
_atom_site_type_symbol
_atom_site_label
_atom_site_fract_x
_atom_site_fract_y
_atom_site_fract_z
Si Si1 0.750000 0.750000 0.962574
Si Si2 0.562791 0.664145 0.249297
Si Si3 0.269757 0.473603 0.677381
Si Si4 0.586679 0.829483 0.559424
Si Si5 0.250000 0.750000 0.087763
Si Si6 0.090956 0.608243 0.521132
Si Si7 0.418637 0.036051 0.700264
O O1 0.753981 0.620245 0.902690
O O2 0.834304 0.757365 0.017046
O O3 0.647723 0.586739 0.278816
O O4 0.576834 0.704958 0.154306
O O5 0.552169 0.806585 0.297474
O O6 0.482264 0.561835 0.250537
O O7 0.281068 0.627046 0.645674
O O8 0.180654 0.466301 0.726951
O O9 0.496170 0.807485 0.514731
O O10 0.600397 0.993192 0.547882
O O11 0.327037 0.699348 0.032143
O O12 0.082368 0.525834 0.608006
#
# Coordination Sequence:
#
# PCOD9430927 Si02
#       7
#     4   8   8   8   4   8   8
#     4  12  20  40  66  84 116 166 204 234 304 370
#     4  11  23  37  65  90 124 153 206 256 297 357
#     4  11  22  40  63  85 119 164 203 243 298 371
#     4  10  21  35  63  87 118 157 195 245 302 354
#     4  10  20  38  66  84 110 162 210 236 298 374
#     4   9  19  41  62  84 120 161 196 241 311 360
#     4  10  21  39  60  90 118 162 196 248 304 365
#
# _framework density 19.130427000000001
#
# number of rings (size 3 to 8) (size 9 to 14) (size 15 to 20)
#    0.000    1.667    5.000    0.000    9.333    0.000 
#    0.000    1.667   18.333    0.000    0.000    0.000 
#    0.000    0.000    0.000    0.000    0.000    0.000 
#
# Total GULP energy -267823.872241 kJ/mol
# GULP energy per Si atom -5579.664005 kJ/mol
# Density = 1.908689 g / cm^3
# Si number density = 19.130427 Si / 1000 Ang^3
#
#
#
# Elastic Constant Matrix: (Units=GPa)
#
#
# Indices 1 2 3 4 5 6 
#
# 1 167.8128 45.2132 18.4331 0.0000 0.0000 0.0000
# 2 45.2132 88.2596 2.6136 0.0000 0.0000 0.0000
# 3 18.4331 2.6136 28.8053 0.0000 0.0000 0.0000
# 4 0.0000 0.0000 0.0000 12.1066 0.0000 0.0000
# 5 0.0000 0.0000 0.0000 0.0000 24.7647 0.0000
# 6 0.0000 0.0000 0.0000 0.0000 0.0000 39.8667
#
#
#
# Elastic Compliance Matrix: (Units=1/GPa)
#
#
# Indices 1 2 3 4 5 6 
#
# 1 0.007436 -0.003678 -0.004425 0.000000 0.000000 0.000000
# 2 -0.003678 0.013180 0.001158 0.000000 0.000000 0.000000
# 3 -0.004425 0.001158 0.037442 0.000000 0.000000 0.000000
# 4 0.000000 0.000000 0.000000 0.082599 0.000000 0.000000
# 5 0.000000 0.000000 0.000000 0.000000 0.040380 0.000000
# 6 0.000000 0.000000 0.000000 0.000000 0.000000 0.025084
#
#
# Mechanical properties :
#
#
# Convention : Reuss Voigt Hill
#
# Bulk Modulus (GPa) = 22.64064 46.37748 34.50906
# Shear Modulus (GPa) = 21.30065 29.92213 25.61139
#
# Velocity S-wave (km/s) = 3.34045 3.95918 3.66290
# Velocity P-wave (km/s) = 5.17095 6.72276 5.99726
#
# Compressibility (1/GPa) = 0.04416837
#
# Stress axis : x y z
#
# Youngs Moduli (GPa) = 134.47944 75.87125 26.70775
#
# Poissons Ratio (x) = 0.27908 0.11818
# Poissons Ratio (y) = 0.49465 -0.03093
# Poissons Ratio (z) = 0.59504 -0.08785
#
# Static dielectric constant tensor:
#      x y z
#    x 1.737590 0.000000 0.000000 
#    y 0.000000 1.694960 0.000000 
#    z 0.000000 0.000000 1.653470 
# 
# From -- ./inp_files/16576.got.cif
#   From: 2010.05.17/outbox.cif.g08.bks.cpg/sg56_9_cif.got.tgz:16576.got - 2010.06.03 13:42:01.
