data_PCOD9430813
_publ_section_title
;
Structure prediction by ZEFSAII (Michael W. Deem and Ramdas Pophale) SiO2 
 PCOD9430813
Probable space group: P C C N
;
_chemical_formula_sum "Si O2"
_cell_formula_units_Z 64
_cell_length_a 18.246313
_cell_length_b 8.381988
_cell_length_c 19.991635
_cell_angle_alpha 90.000000
_cell_angle_beta 90.000000
_cell_angle_gamma 90.000000
_cell_volume 3057.528186
_symmetry_space_group_name_H-M "P C C N"
_symmetry_group_IT_number 56
_symmetry_cell_setting 'orthorhombic'
loop_
_space_group_symop_operation_xyz
x,y,z
1/2-x,1/2-y,z
1/2+x,-y,1/2-z
-x,1/2+y,1/2-z
-x,-y,-z
1/2+x,1/2+y,-z
1/2-x,y,1/2+z
x,1/2-y,1/2+z
loop_
_atom_site_type_symbol
_atom_site_label
_atom_site_fract_x
_atom_site_fract_y
_atom_site_fract_z
Si Si1 0.469547 0.366723 0.289645
Si Si2 0.012539 0.367646 0.411868
Si Si3 0.837015 0.474782 0.633677
Si Si4 0.781606 0.071939 0.526513
Si Si5 0.404760 0.633842 0.377319
Si Si6 0.391149 0.426045 0.732266
Si Si7 0.812189 0.869340 0.400016
Si Si8 0.042534 0.202160 0.060865
O O1 0.496631 0.256331 0.351798
O O2 0.416083 0.500073 0.321305
O O3 0.540157 0.453513 0.258578
O O4 0.426369 0.250125 0.239766
O O5 0.092589 0.446506 0.401800
O O6 0.012131 0.292649 0.485264
O O7 0.958862 0.519171 0.413969
O O8 0.768573 0.500290 0.585554
O O9 0.855426 0.286763 0.642242
O O10 0.835126 0.550113 0.706805
O O11 0.750000 0.250000 0.517263
O O12 0.863590 0.070652 0.556557
O O13 0.778983 0.982325 0.456631
O O14 0.485504 0.696186 0.395484
O O15 0.351397 0.453098 0.662421
O O16 0.750000 0.750000 0.374532
O O17 0.876877 0.770364 0.435146
#
# Coordination Sequence:
#
# PCOD9430813 Si02
#       8
#     8   8   8   8   8   8   8   8
#     4  11  22  39  63  98 127 172 215 284 323 397
#     4   9  20  35  66  94 123 174 216 272 330 386
#     4   9  20  43  63  91 129 175 220 262 325 411
#     4  10  23  43  68  94 131 173 223 271 335 393
#     4  10  20  37  69  96 125 167 221 276 322 388
#     4  11  25  41  66  95 134 174 227 266 342 397
#     4  12  26  43  61  94 140 174 212 283 330 395
#     4  10  20  39  61  96 132 164 222 272 332 395
#
# _framework density 20.931940000000001
#
# number of rings (size 3 to 8) (size 9 to 14) (size 15 to 20)
#    0.000    1.750    1.250    2.250    5.250    4.000 
#    0.000    1.875    0.000    0.000    0.000    0.000 
#    0.000    0.000    0.000    0.000    0.000    0.000 
#
# Total GULP energy -357737.656557 kJ/mol
# GULP energy per Si atom -5589.650884 kJ/mol
# Density = 2.088430 g / cm^3
# Si number density = 20.931940 Si / 1000 Ang^3
#
#
#
# Elastic Constant Matrix: (Units=GPa)
#
#
# Indices 1 2 3 4 5 6 
#
# 1 57.0815 29.1329 24.5452 0.0000 0.0000 0.0000
# 2 29.1329 51.5498 30.5863 0.0000 0.0000 0.0000
# 3 24.5452 30.5863 100.7402 0.0000 0.0000 0.0000
# 4 0.0000 0.0000 0.0000 31.2330 0.0000 0.0000
# 5 0.0000 0.0000 0.0000 0.0000 26.6600 0.0000
# 6 0.0000 0.0000 0.0000 0.0000 0.0000 17.3768
#
#
#
# Elastic Compliance Matrix: (Units=1/GPa)
#
#
# Indices 1 2 3 4 5 6 
#
# 1 0.025013 -0.012831 -0.002199 0.000000 0.000000 0.000000
# 2 -0.012831 0.030244 -0.006056 0.000000 0.000000 0.000000
# 3 -0.002199 -0.006056 0.012301 0.000000 0.000000 0.000000
# 4 0.000000 0.000000 0.000000 0.032017 0.000000 0.000000
# 5 0.000000 0.000000 0.000000 0.000000 0.037509 0.000000
# 6 0.000000 0.000000 0.000000 0.000000 0.000000 0.057548
#
#
# Mechanical properties :
#
#
# Convention : Reuss Voigt Hill
#
# Bulk Modulus (GPa) = 39.39271 41.98894 40.69082
# Shear Modulus (GPa) = 20.38603 23.39444 21.89024
#
# Velocity S-wave (km/s) = 3.12415 3.34674 3.23736
# Velocity P-wave (km/s) = 5.64571 5.91925 5.78410
#
# Compressibility (1/GPa) = 0.02538541
#
# Stress axis : x y z
#
# Youngs Moduli (GPa) = 39.97921 33.06490 81.29474
#
# Poissons Ratio (x) = 0.42427 0.17873
# Poissons Ratio (y) = 0.51299 0.49233
# Poissons Ratio (z) = 0.08790 0.20024
#
# Static dielectric constant tensor:
#      x y z
#    x 1.723380 0.000000 0.000000 
#    y 0.000000 1.778330 0.000000 
#    z 0.000000 0.000000 1.748640 
# 
# From -- ./inp_files/19357.got.cif
#   From: 2010.05.17/outbox.cif.g08.bks.cpg/sg56_10_cif.got.tgz:19357.got - 2010.06.03 13:42:01.
