data_PCOD9430360
_publ_section_title
;
Structure prediction by ZEFSAII (Michael W. Deem and Ramdas Pophale) SiO2 
 PCOD9430360
Probable space group: P C C N
;
_chemical_formula_sum "Si O2"
_cell_formula_units_Z 28
_cell_length_a 7.466675
_cell_length_b 5.176044
_cell_length_c 35.394467
_cell_angle_alpha 90.000000
_cell_angle_beta 90.000000
_cell_angle_gamma 90.000000
_cell_volume 1367.919639
_symmetry_space_group_name_H-M "P C C N"
_symmetry_group_IT_number 56
_symmetry_cell_setting 'orthorhombic'
loop_
_space_group_symop_operation_xyz
x,y,z
1/2-x,1/2-y,z
1/2+x,-y,1/2-z
-x,1/2+y,1/2-z
-x,-y,-z
1/2+x,1/2+y,-z
1/2-x,y,1/2+z
x,1/2-y,1/2+z
loop_
_atom_site_type_symbol
_atom_site_label
_atom_site_fract_x
_atom_site_fract_y
_atom_site_fract_z
Si Si1 0.250000 0.750000 0.111074
Si Si2 0.750000 0.250000 0.516540
Si Si3 0.543712 0.186870 0.225612
Si Si4 0.250000 0.250000 0.662073
Si Si5 0.600288 0.571459 0.448039
O O1 0.288728 0.507800 0.137961
O O2 0.090509 0.664279 0.081629
O O3 0.693978 0.473976 0.486999
O O4 0.575281 0.263381 0.542730
O O5 0.750000 0.250000 0.217032
O O6 0.473716 0.412012 0.253608
O O7 0.419188 0.191363 0.188879
O O8 0.750000 0.750000 0.430368
#
# Coordination Sequence:
#
# PCOD9430360 Si02
#       5
#     4   4   8   4   8
#     4  11  24  42  64  88 137 182 202 266 325 412
#     4   9  20  34  66  96 115 168 222 288 313 378
#     4  12  23  43  72 101 125 165 214 273 321 379
#     4  12  24  44  66  94 138 168 216 258 336 384
#     4  10  19  39  61  92 127 165 222 268 335 374
#
# _framework density 20.46904
#
# number of rings (size 3 to 8) (size 9 to 14) (size 15 to 20)
#    0.000    1.143    4.286    2.571    0.000    0.000 
#    2.571    2.857    0.000    0.000    0.000    0.000 
#    0.000    0.000    0.000    0.000    0.000    0.000 
#
# Total GULP energy -156013.514193 kJ/mol
# GULP energy per Si atom -5571.911221 kJ/mol
# Density = 2.042245 g / cm^3
# Si number density = 20.469040 Si / 1000 Ang^3
#
#
#
# Elastic Constant Matrix: (Units=GPa)
#
#
# Indices 1 2 3 4 5 6 
#
# 1 146.7006 24.5564 44.7519 0.0000 0.0000 0.0000
# 2 24.5564 102.3443 42.8678 0.0000 0.0000 0.0000
# 3 44.7519 42.8678 110.8526 0.0000 0.0000 0.0000
# 4 0.0000 0.0000 0.0000 16.1154 0.0000 0.0000
# 5 0.0000 0.0000 0.0000 0.0000 65.6797 0.0000
# 6 0.0000 0.0000 0.0000 0.0000 0.0000 29.8192
#
#
#
# Elastic Compliance Matrix: (Units=1/GPa)
#
#
# Indices 1 2 3 4 5 6 
#
# 1 0.007811 -0.000660 -0.002898 0.000000 0.000000 0.000000
# 2 -0.000660 0.011715 -0.004264 0.000000 0.000000 0.000000
# 3 -0.002898 -0.004264 0.011840 0.000000 0.000000 0.000000
# 4 0.000000 0.000000 0.000000 0.062052 0.000000 0.000000
# 5 0.000000 0.000000 0.000000 0.000000 0.015225 0.000000
# 6 0.000000 0.000000 0.000000 0.000000 0.000000 0.033535
#
#
# Mechanical properties :
#
#
# Convention : Reuss Voigt Hill
#
# Bulk Modulus (GPa) = 63.60575 64.91665 64.26120
# Shear Modulus (GPa) = 30.66268 38.83764 34.75016
#
# Velocity S-wave (km/s) = 3.87460 4.36062 4.12478
# Velocity P-wave (km/s) = 7.15250 7.55889 7.35850
#
# Compressibility (1/GPa) = 0.01572185
#
# Stress axis : x y z
#
# Youngs Moduli (GPa) = 128.02106 85.35824 84.46068
#
# Poissons Ratio (x) = 0.05636 0.24477
# Poissons Ratio (y) = 0.08454 0.36013
# Poissons Ratio (z) = 0.37102 0.36395
#
# Static dielectric constant tensor:
#      x y z
#    x 1.790880 0.000000 0.000000 
#    y 0.000000 1.801830 0.000000 
#    z 0.000000 0.000000 1.764250 
# 
# From -- ./inp_files/23036.got.cif
#   From: 2010.05.17/outbox.cif.g08.bks.cpg/sg56_12_cif.got.tgz:23036.got - 2010.06.03 13:42:01.
