data_PCOD9430417
_publ_section_title
;
Structure prediction by ZEFSAII (Michael W. Deem and Ramdas Pophale) SiO2 
 PCOD9430417
Probable space group: P C C N
;
_chemical_formula_sum "Si O2"
_cell_formula_units_Z 64
_cell_length_a 22.910524
_cell_length_b 12.243091
_cell_length_c 11.066090
_cell_angle_alpha 90.000000
_cell_angle_beta 90.000000
_cell_angle_gamma 90.000000
_cell_volume 3103.989888
_symmetry_space_group_name_H-M "P C C N"
_symmetry_group_IT_number 56
_symmetry_cell_setting 'orthorhombic'
loop_
_space_group_symop_operation_xyz
x,y,z
1/2-x,1/2-y,z
1/2+x,-y,1/2-z
-x,1/2+y,1/2-z
-x,-y,-z
1/2+x,1/2+y,-z
1/2-x,y,1/2+z
x,1/2-y,1/2+z
loop_
_atom_site_type_symbol
_atom_site_label
_atom_site_fract_x
_atom_site_fract_y
_atom_site_fract_z
Si Si1 0.809538 0.004563 0.665010
Si Si2 0.956005 0.296341 0.460987
Si Si3 0.105302 0.799666 0.302126
Si Si4 0.083747 0.207143 0.864473
Si Si5 0.358989 0.322390 0.174694
Si Si6 0.291190 0.845535 0.385461
Si Si7 0.388103 0.498447 0.972622
Si Si8 0.306736 0.180442 0.996796
O O1 0.816479 0.900035 0.748857
O O2 0.802515 0.946938 0.533710
O O3 0.866379 0.080009 0.682735
O O4 0.753428 0.078585 0.686985
O O5 0.925476 0.283698 0.327930
O O6 0.931709 0.226311 0.575323
O O7 0.940378 0.419788 0.500007
O O8 0.023863 0.279690 0.435523
O O9 0.160371 0.717338 0.307855
O O10 0.084451 0.270755 0.738280
O O11 0.099565 0.078567 0.857020
O O12 0.136880 0.270905 0.928320
O O13 0.321457 0.218824 0.131386
O O14 0.380040 0.406652 0.073345
O O15 0.250000 0.750000 0.443181
O O16 0.330460 0.925814 0.467157
O O17 0.250000 0.250000 0.959748
#
# Coordination Sequence:
#
# PCOD9430417 Si02
#       8
#     8   8   8   8   8   8   8   8
#     4  10  19  42  62  90 134 169 212 277 337 389
#     4  11  23  44  69  96 137 173 226 274 330 394
#     4  10  23  43  67 100 133 173 219 279 327 393
#     4  10  23  39  66  91 129 173 221 267 329 397
#     4  10  21  38  61  92 126 168 219 266 333 388
#     4   9  20  40  64  96 130 169 222 272 332 401
#     4  10  20  41  62  93 127 174 218 271 334 391
#     4  10  22  39  61  91 126 165 215 274 327 398
#
# _framework density 20.618624000000001
#
# number of rings (size 3 to 8) (size 9 to 14) (size 15 to 20)
#    0.000    2.000    1.250    1.875    3.500    3.000 
#   13.500    2.500    0.000    0.000    0.000    0.000 
#    0.000    0.000    0.000    0.000    0.000    0.000 
#
# Total GULP energy -356271.740037 kJ/mol
# GULP energy per Si atom -5566.745938 kJ/mol
# Density = 2.057169 g / cm^3
# Si number density = 20.618624 Si / 1000 Ang^3
#
#
#
# Elastic Constant Matrix: (Units=GPa)
#
#
# Indices 1 2 3 4 5 6 
#
# 1 113.5503 23.6726 20.8469 0.0000 0.0000 0.0000
# 2 23.6726 80.1943 36.0592 0.0000 0.0000 0.0000
# 3 20.8469 36.0592 61.6468 0.0000 0.0000 0.0000
# 4 0.0000 0.0000 0.0000 35.7242 0.0000 0.0000
# 5 0.0000 0.0000 0.0000 0.0000 21.2411 0.0000
# 6 0.0000 0.0000 0.0000 0.0000 0.0000 22.8200
#
#
#
# Elastic Compliance Matrix: (Units=1/GPa)
#
#
# Indices 1 2 3 4 5 6 
#
# 1 0.009590 -0.001863 -0.002154 0.000000 0.000000 0.000000
# 2 -0.001863 0.017282 -0.009479 0.000000 0.000000 0.000000
# 3 -0.002154 -0.009479 0.022494 0.000000 0.000000 0.000000
# 4 0.000000 0.000000 0.000000 0.027992 0.000000 0.000000
# 5 0.000000 0.000000 0.000000 0.000000 0.047078 0.000000
# 6 0.000000 0.000000 0.000000 0.000000 0.000000 0.043821
#
#
# Mechanical properties :
#
#
# Convention : Reuss Voigt Hill
#
# Bulk Modulus (GPa) = 44.69033 46.28321 45.48677
# Shear Modulus (GPa) = 24.66617 27.61125 26.13871
#
# Velocity S-wave (km/s) = 3.46252 3.66340 3.56437
# Velocity P-wave (km/s) = 6.14062 6.35531 6.24889
#
# Compressibility (1/GPa) = 0.02237621
#
# Stress axis : x y z
#
# Youngs Moduli (GPa) = 104.27123 57.86493 44.45600
#
# Poissons Ratio (x) = 0.10778 0.09574
# Poissons Ratio (y) = 0.19422 0.42139
# Poissons Ratio (z) = 0.22456 0.54849
#
# Static dielectric constant tensor:
#      x y z
#    x 1.756810 0.000000 0.000000 
#    y 0.000000 1.745690 0.000000 
#    z 0.000000 0.000000 2.023650 
# 
# From -- ./inp_files/8957.got.cif
#   From: 2010.05.17/outbox.cif.g08.bks.cpg/sg56_5_cif.got.tgz:8957.got - 2010.06.03 13:42:01.
