data_PCOD9430391
_publ_section_title
;
Structure prediction by ZEFSAII (Michael W. Deem and Ramdas Pophale) SiO2 
 PCOD9430391
Probable space group: P C C N
;
_chemical_formula_sum "Si O2"
_cell_formula_units_Z 44
_cell_length_a 8.018587
_cell_length_b 18.268301
_cell_length_c 15.126951
_cell_angle_alpha 90.000000
_cell_angle_beta 90.000000
_cell_angle_gamma 90.000000
_cell_volume 2215.885953
_symmetry_space_group_name_H-M "P C C N"
_symmetry_group_IT_number 56
_symmetry_cell_setting 'orthorhombic'
loop_
_space_group_symop_operation_xyz
x,y,z
1/2-x,1/2-y,z
1/2+x,-y,1/2-z
-x,1/2+y,1/2-z
-x,-y,-z
1/2+x,1/2+y,-z
1/2-x,y,1/2+z
x,1/2-y,1/2+z
loop_
_atom_site_type_symbol
_atom_site_label
_atom_site_fract_x
_atom_site_fract_y
_atom_site_fract_z
Si Si1 0.763857 0.336792 0.556857
Si Si2 0.394665 0.395622 0.518067
Si Si3 0.910324 0.303556 0.381205
Si Si4 0.250000 0.250000 0.952642
Si Si5 0.493975 0.983579 0.145684
Si Si6 0.725961 0.406496 0.740753
O O1 0.750000 0.250000 0.571255
O O2 0.582727 0.365874 0.529285
O O3 0.883205 0.348914 0.472694
O O4 0.801044 0.373498 0.650474
O O5 0.280772 0.323794 0.509739
O O6 0.396064 0.442581 0.428230
O O7 0.380930 0.454195 0.597127
O O8 0.750000 0.250000 0.378617
O O9 0.895051 0.351180 0.293192
O O10 0.084349 0.262008 0.394067
O O11 0.616710 0.023994 0.212716
O O12 0.373366 0.927483 0.193664
#
# Coordination Sequence:
#
# PCOD9430391 Si02
#       6
#     8   8   8   4   8   8
#     4  10  19  40  65  88 123 172 204 262 335 376
#     4  10  21  41  63  89 127 169 209 274 321 388
#     4  11  22  42  66  96 132 167 214 273 333 385
#     4  12  22  38  74  98 120 168 226 272 334 386
#     4  10  23  41  60  89 133 169 213 264 327 392
#     4  11  23  39  63  91 129 174 216 262 322 389
#
# _framework density 19.856617
#
# number of rings (size 3 to 8) (size 9 to 14) (size 15 to 20)
#    0.000    1.455    5.455    0.545    2.545    1.455 
#    0.000    5.455    0.000    0.000    0.000    0.000 
#    0.000    0.000    0.000    0.000    0.000    0.000 
#
# Total GULP energy -245522.898700 kJ/mol
# GULP energy per Si atom -5580.065880 kJ/mol
# Density = 1.981142 g / cm^3
# Si number density = 19.856617 Si / 1000 Ang^3
#
#
#
# Elastic Constant Matrix: (Units=GPa)
#
#
# Indices 1 2 3 4 5 6 
#
# 1 54.2719 -1.0846 12.7346 0.0000 0.0000 0.0000
# 2 -1.0846 58.6850 7.9955 0.0000 0.0000 0.0000
# 3 12.7346 7.9955 71.0847 0.0000 0.0000 0.0000
# 4 0.0000 0.0000 0.0000 44.9764 0.0000 0.0000
# 5 0.0000 0.0000 0.0000 0.0000 6.5250 0.0000
# 6 0.0000 0.0000 0.0000 0.0000 0.0000 33.8498
#
#
#
# Elastic Compliance Matrix: (Units=1/GPa)
#
#
# Indices 1 2 3 4 5 6 
#
# 1 0.019275 0.000840 -0.003547 0.000000 0.000000 0.000000
# 2 0.000840 0.017342 -0.002101 0.000000 0.000000 0.000000
# 3 -0.003547 -0.002101 0.014940 0.000000 0.000000 0.000000
# 4 0.000000 0.000000 0.000000 0.022234 0.000000 0.000000
# 5 0.000000 0.000000 0.000000 0.000000 0.153256 0.000000
# 6 0.000000 0.000000 0.000000 0.000000 0.000000 0.029542
#
#
# Mechanical properties :
#
#
# Convention : Reuss Voigt Hill
#
# Bulk Modulus (GPa) = 23.84440 24.81472 24.32956
# Shear Modulus (GPa) = 17.84529 28.02999 22.93764
#
# Velocity S-wave (km/s) = 3.00110 3.76123 3.40246
# Velocity P-wave (km/s) = 4.90338 5.60237 5.26449
#
# Compressibility (1/GPa) = 0.04193857
#
# Stress axis : x y z
#
# Youngs Moduli (GPa) = 51.88088 57.66381 66.93641
#
# Poissons Ratio (x) = -0.04841 0.23746
# Poissons Ratio (y) = -0.04356 0.14063
# Poissons Ratio (z) = 0.18405 0.12115
#
# Static dielectric constant tensor:
#      x y z
#    x 1.687500 0.000000 0.000000 
#    y 0.000000 1.710640 0.000000 
#    z 0.000000 0.000000 1.725660 
# 
# From -- ./inp_files/10556.got.cif
#   From: 2010.05.17/outbox.cif.g08.bks.cpg/sg56_6_cif.got.tgz:10556.got - 2010.06.03 13:42:01.
