data_PCOD9430807
_publ_section_title
;
Structure prediction by ZEFSAII (Michael W. Deem and Ramdas Pophale) SiO2 
 PCOD9430807
Probable space group: P C C N
;
_chemical_formula_sum "Si O2"
_cell_formula_units_Z 64
_cell_length_a 19.466744
_cell_length_b 8.599299
_cell_length_c 19.520830
_cell_angle_alpha 90.000000
_cell_angle_beta 90.000000
_cell_angle_gamma 90.000000
_cell_volume 3267.793817
_symmetry_space_group_name_H-M "P C C N"
_symmetry_group_IT_number 56
_symmetry_cell_setting 'orthorhombic'
loop_
_space_group_symop_operation_xyz
x,y,z
1/2-x,1/2-y,z
1/2+x,-y,1/2-z
-x,1/2+y,1/2-z
-x,-y,-z
1/2+x,1/2+y,-z
1/2-x,y,1/2+z
x,1/2-y,1/2+z
loop_
_atom_site_type_symbol
_atom_site_label
_atom_site_fract_x
_atom_site_fract_y
_atom_site_fract_z
Si Si1 0.075380 0.753830 0.332540
Si Si2 0.822493 0.338107 0.286604
Si Si3 0.181363 0.347995 0.633357
Si Si4 0.441456 0.817259 0.129549
Si Si5 0.929463 0.855602 0.295847
Si Si6 0.104314 0.093602 0.000679
Si Si7 0.919420 0.616611 0.647043
Si Si8 0.040947 0.748995 0.981675
O O1 0.137721 0.813943 0.285766
O O2 0.075163 0.569213 0.345083
O O3 0.066921 0.820407 0.409644
O O4 0.005775 0.788253 0.291891
O O5 0.750000 0.250000 0.284604
O O6 0.812953 0.514019 0.311501
O O7 0.873027 0.267883 0.344628
O O8 0.250000 0.250000 0.633769
O O9 0.117503 0.240319 0.653556
O O10 0.163466 0.403365 0.556697
O O11 0.506765 0.701382 0.137831
O O12 0.441654 0.970909 0.176109
O O13 0.443002 0.853880 0.048429
O O14 0.893781 0.837644 0.221900
O O15 0.121755 0.145022 0.922933
O O16 0.077567 0.915711 0.995898
O O17 0.039144 0.201171 0.022187
#
# Coordination Sequence:
#
# PCOD9430807 Si02
#       8
#     8   8   8   8   8   8   8   8
#     4  11  22  38  67  94 130 161 217 274 325 381
#     4  12  25  43  64  91 124 173 218 268 330 396
#     4  12  26  44  65  91 131 178 217 264 324 402
#     4  11  21  37  65  96 132 165 212 264 320 390
#     4  12  22  37  63 102 131 170 212 263 326 383
#     4   9  18  37  66  92 123 165 210 262 325 380
#     4  10  20  37  66  97 126 161 210 269 321 373
#     4   9  18  37  65  98 124 159 208 274 321 372
#
# _framework density 19.585079
#
# number of rings (size 3 to 8) (size 9 to 14) (size 15 to 20)
#    0.000    1.250    5.000    2.250    1.750    0.500 
#    0.000    1.250    2.750    0.000    0.000    0.000 
#    0.000    0.000    0.000    0.000    0.000    0.000 
#
# Total GULP energy -357012.096350 kJ/mol
# GULP energy per Si atom -5578.314005 kJ/mol
# Density = 1.954050 g / cm^3
# Si number density = 19.585079 Si / 1000 Ang^3
#
#
#
# Elastic Constant Matrix: (Units=GPa)
#
#
# Indices 1 2 3 4 5 6 
#
# 1 56.5402 42.4894 26.9402 0.0000 0.0000 0.0000
# 2 42.4894 64.3935 40.9970 0.0000 0.0000 0.0000
# 3 26.9402 40.9970 165.8967 0.0000 0.0000 0.0000
# 4 0.0000 0.0000 0.0000 26.3065 0.0000 0.0000
# 5 0.0000 0.0000 0.0000 0.0000 -135.3878 0.0000
# 6 0.0000 0.0000 0.0000 0.0000 0.0000 23.2997
#
#
#
# Elastic Compliance Matrix: (Units=1/GPa)
#
#
# Indices 1 2 3 4 5 6 
#
# 1 0.035083 -0.023167 0.000028 0.000000 0.000000 0.000000
# 2 -0.023167 0.033727 -0.004573 0.000000 0.000000 0.000000
# 3 0.000028 -0.004573 0.007153 0.000000 0.000000 0.000000
# 4 0.000000 0.000000 0.000000 0.038013 0.000000 0.000000
# 5 0.000000 0.000000 0.000000 0.000000 -0.007386 0.000000
# 6 0.000000 0.000000 0.000000 0.000000 0.000000 0.042919
#
#
# Mechanical properties :
#
#
# Convention : Reuss Voigt Hill
#
# Bulk Modulus (GPa) = 48.68510 56.40928 52.54719
# Shear Modulus (GPa) = 23.60948 -5.39607 9.10671
#
# Velocity S-wave (km/s) = 3.47577 -1.66168 2.15868
# Velocity P-wave (km/s) = 6.40470 5.01828 5.75341
#
# Compressibility (1/GPa) = 0.02054016
#
# Stress axis : x y z
#
# Youngs Moduli (GPa) = 28.50396 29.64973 139.79500
#
# Poissons Ratio (x) = 0.68689 -0.00390
# Poissons Ratio (y) = 0.66035 0.63924
# Poissons Ratio (z) = -0.00080 0.13558
#
# Static dielectric constant tensor:
#      x y z
#    x 1.630970 0.000000 0.000000 
#    y 0.000000 1.722750 0.000000 
#    z 0.000000 0.000000 1.775150 
# 
# From -- ./inp_files/19329.got.cif
#   From: 2010.05.17/outbox.cif.g08.bks.cpg/sg56_10_cif.got.tgz:19329.got - 2010.06.03 13:42:01.
