data_PCOD9430949
_publ_section_title
;
Structure prediction by ZEFSAII (Michael W. Deem and Ramdas Pophale) SiO2 
 PCOD9430949
Probable space group: P C C N
;
_chemical_formula_sum "Si O2"
_cell_formula_units_Z 40
_cell_length_a 5.797895
_cell_length_b 11.093218
_cell_length_c 28.178722
_cell_angle_alpha 90.000000
_cell_angle_beta 90.000000
_cell_angle_gamma 90.000000
_cell_volume 1812.379688
_symmetry_space_group_name_H-M "P C C N"
_symmetry_group_IT_number 56
_symmetry_cell_setting 'orthorhombic'
loop_
_space_group_symop_operation_xyz
x,y,z
1/2-x,1/2-y,z
1/2+x,-y,1/2-z
-x,1/2+y,1/2-z
-x,-y,-z
1/2+x,1/2+y,-z
1/2-x,y,1/2+z
x,1/2-y,1/2+z
loop_
_atom_site_type_symbol
_atom_site_label
_atom_site_fract_x
_atom_site_fract_y
_atom_site_fract_z
Si Si1 0.590508 0.563595 0.128457
Si Si2 0.750000 0.750000 0.704836
Si Si3 0.983115 0.969433 0.554862
Si Si4 0.218841 0.107744 0.640266
Si Si5 0.750000 0.250000 0.915007
Si Si6 0.977397 0.038725 0.271744
O O1 0.707390 0.638462 0.169747
O O2 0.738799 0.538617 0.081687
O O3 0.476407 0.443102 0.146449
O O4 0.385062 0.654671 0.116008
O O5 0.961696 0.815941 0.731386
O O6 0.076621 0.832852 0.556763
O O7 0.000000 0.000000 0.500000
O O8 0.127884 0.062040 0.588417
O O9 0.250000 0.250000 0.644578
O O10 0.062934 0.035158 0.678423
O O11 0.216662 0.982188 0.249776
#
# Coordination Sequence:
#
# PCOD9430949 Si02
#       6
#     8   4   8   8   4   8
#     4  11  21  45  75 103 142 200 254 314 388 460
#     4  12  22  52  82 104 150 198 268 320 378 478
#     4  11  24  42  72 111 149 205 261 320 392 466
#     4  11  27  49  70 109 159 203 247 323 401 470
#     4  10  20  38  70 100 144 186 262 318 374 456
#     4  12  29  52  79 119 150 207 262 331 405 474
#
# _framework density 22.070430000000002
#
# number of rings (size 3 to 8) (size 9 to 14) (size 15 to 20)
#    0.000    0.800    4.000    2.400    1.400    9.600 
#    3.600    0.000    0.000    0.000    0.000    0.000 
#    0.000    0.000    0.000    0.000    0.000    0.000 
#
# Total GULP energy -222746.603376 kJ/mol
# GULP energy per Si atom -5568.665084 kJ/mol
# Density = 2.202020 g / cm^3
# Si number density = 22.070430 Si / 1000 Ang^3
#
#
#
# Elastic Constant Matrix: (Units=GPa)
#
#
# Indices 1 2 3 4 5 6 
#
# 1 114.3606 52.6501 41.1538 0.0000 0.0000 0.0000
# 2 52.6501 179.4308 42.4079 0.0000 0.0000 0.0000
# 3 41.1538 42.4079 120.2140 0.0000 0.0000 0.0000
# 4 0.0000 0.0000 0.0000 57.0009 0.0000 0.0000
# 5 0.0000 0.0000 0.0000 0.0000 -102.2591 0.0000
# 6 0.0000 0.0000 0.0000 0.0000 0.0000 40.0295
#
#
#
# Elastic Compliance Matrix: (Units=1/GPa)
#
#
# Indices 1 2 3 4 5 6 
#
# 1 0.010937 -0.002536 -0.002850 0.000000 0.000000 0.000000
# 2 -0.002536 0.006668 -0.001484 0.000000 0.000000 0.000000
# 3 -0.002850 -0.001484 0.009818 0.000000 0.000000 0.000000
# 4 0.000000 0.000000 0.000000 0.017544 0.000000 0.000000
# 5 0.000000 0.000000 0.000000 0.000000 -0.009779 0.000000
# 6 0.000000 0.000000 0.000000 0.000000 0.000000 0.024982
#
#
# Mechanical properties :
#
#
# Convention : Reuss Voigt Hill
#
# Bulk Modulus (GPa) = 73.08029 76.26989 74.67509
# Shear Modulus (GPa) = 63.71916 17.47386 40.59651
#
# Velocity S-wave (km/s) = 5.37899 2.81683 4.29348
# Velocity P-wave (km/s) = 8.47126 6.72398 7.64768
#
# Compressibility (1/GPa) = 0.01368358
#
# Stress axis : x y z
#
# Youngs Moduli (GPa) = 91.43120 149.96936 101.85763
#
# Poissons Ratio (x) = 0.38029 0.29026
# Poissons Ratio (y) = 0.23185 0.15118
# Poissons Ratio (z) = 0.26055 0.22258
#
# Static dielectric constant tensor:
#      x y z
#    x 2.010960 0.000000 0.000000 
#    y 0.000000 1.769970 0.000000 
#    z 0.000000 0.000000 0.927620 
# 
# From -- ./inp_files/22808.got.cif
#   From: 2010.05.17/outbox.cif.g08.bks.cpg/sg56_12_cif.got.tgz:22808.got - 2010.06.03 13:42:01.
