data_PCOD9430879
_publ_section_title
;
Structure prediction by ZEFSAII (Michael W. Deem and Ramdas Pophale) SiO2 
 PCOD9430879
Probable space group: P C C N
;
_chemical_formula_sum "Si O2"
_cell_formula_units_Z 48
_cell_length_a 14.959874
_cell_length_b 13.639621
_cell_length_c 9.471785
_cell_angle_alpha 90.000000
_cell_angle_beta 90.000000
_cell_angle_gamma 90.000000
_cell_volume 1932.689423
_symmetry_space_group_name_H-M "P C C N"
_symmetry_group_IT_number 56
_symmetry_cell_setting 'orthorhombic'
loop_
_space_group_symop_operation_xyz
x,y,z
1/2-x,1/2-y,z
1/2+x,-y,1/2-z
-x,1/2+y,1/2-z
-x,-y,-z
1/2+x,1/2+y,-z
1/2-x,y,1/2+z
x,1/2-y,1/2+z
loop_
_atom_site_type_symbol
_atom_site_label
_atom_site_fract_x
_atom_site_fract_y
_atom_site_fract_z
Si Si1 0.559402 0.541555 0.776192
Si Si2 0.410541 0.713220 0.410351
Si Si3 0.489835 0.169554 0.352511
Si Si4 0.817434 0.913882 0.007255
Si Si5 0.869759 0.405674 0.691190
Si Si6 0.638177 0.001356 0.001143
O O1 0.476347 0.602857 0.829107
O O2 0.561748 0.539981 0.606908
O O3 0.462587 0.563092 0.152998
O O4 0.649010 0.581447 0.846088
O O5 0.497424 0.694834 0.311657
O O6 0.449679 0.755821 0.556764
O O7 0.346277 0.793415 0.336012
O O8 0.357457 0.610779 0.427530
O O9 0.388674 0.154508 0.409342
O O10 0.830704 0.021655 0.076050
O O11 0.710961 0.913447 0.010594
O O12 0.861585 0.464426 0.838339
#
# Coordination Sequence:
#
# PCOD9430879 Si02
#       6
#     8   8   8   8   8   8
#     4  10  20  38  62  87 123 177 221 247 314 404
#     4  11  20  37  62  98 123 165 216 264 312 385
#     4  10  20  38  63  90 123 171 215 254 315 392
#     4  11  21  39  59  89 132 175 206 266 331 379
#     4  11  20  38  61  89 125 171 219 258 311 395
#     4  11  24  35  59  99 129 162 216 276 320 366
#
# _framework density 24.83586
#
# number of rings (size 3 to 8) (size 9 to 14) (size 15 to 20)
#    0.000    1.333    5.000    2.500    0.000    0.667 
#    0.000    1.667    0.000    1.000    8.667    0.000 
#    0.000    0.000    0.000    0.000    0.000    0.000 
#
# Total GULP energy -267331.787865 kJ/mol
# GULP energy per Si atom -5569.412247 kJ/mol
# Density = 2.477933 g / cm^3
# Si number density = 24.835860 Si / 1000 Ang^3
#
#
#
# Elastic Constant Matrix: (Units=GPa)
#
#
# Indices 1 2 3 4 5 6 
#
# 1 59.2801 7.1029 3.0728 0.0000 0.0000 0.0000
# 2 7.1029 28.3294 -6.6828 0.0000 0.0000 0.0000
# 3 3.0728 -6.6828 110.4045 0.0000 0.0000 0.0000
# 4 0.0000 0.0000 0.0000 28.8217 0.0000 0.0000
# 5 0.0000 0.0000 0.0000 0.0000 20.8521 0.0000
# 6 0.0000 0.0000 0.0000 0.0000 0.0000 20.7116
#
#
#
# Elastic Compliance Matrix: (Units=1/GPa)
#
#
# Indices 1 2 3 4 5 6 
#
# 1 0.017454 -0.004556 -0.000762 0.000000 0.000000 0.000000
# 2 -0.004556 0.036999 0.002366 0.000000 0.000000 0.000000
# 3 -0.000762 0.002366 0.009222 0.000000 0.000000 0.000000
# 4 0.000000 0.000000 0.000000 0.034696 0.000000 0.000000
# 5 0.000000 0.000000 0.000000 0.000000 0.047957 0.000000
# 6 0.000000 0.000000 0.000000 0.000000 0.000000 0.048282
#
#
# Mechanical properties :
#
#
# Convention : Reuss Voigt Hill
#
# Bulk Modulus (GPa) = 17.30892 22.77779 20.04335
# Shear Modulus (GPa) = 22.75096 27.04516 24.89806
#
# Velocity S-wave (km/s) = 3.02992 3.30351 3.16967
# Velocity P-wave (km/s) = 4.38463 4.87259 4.63504
#
# Compressibility (1/GPa) = 0.05777368
#
# Stress axis : x y z
#
# Youngs Moduli (GPa) = 57.29204 27.02741 108.43596
#
# Poissons Ratio (x) = 0.12314 0.08258
# Poissons Ratio (y) = 0.26102 -0.25660
# Poissons Ratio (z) = 0.04363 -0.06396
#
# Static dielectric constant tensor:
#      x y z
#    x 2.009010 0.000000 0.000000 
#    y 0.000000 2.022590 0.000000 
#    z 0.000000 0.000000 2.001400 
# 
# From -- ./inp_files/3373.got.cif
#   From: 2010.05.17/outbox.cif.g08.bks.cpg/sg56_2_cif.got.tgz:3373.got - 2010.06.03 13:42:01.
