data_PCOD9430845
_publ_section_title
;
Structure prediction by ZEFSAII (Michael W. Deem and Ramdas Pophale) SiO2 
 PCOD9430845
Probable space group: P C C N
;
_chemical_formula_sum "Si O2"
_cell_formula_units_Z 44
_cell_length_a 13.414436
_cell_length_b 10.959113
_cell_length_c 14.778164
_cell_angle_alpha 90.000000
_cell_angle_beta 90.000000
_cell_angle_gamma 90.000000
_cell_volume 2172.542618
_symmetry_space_group_name_H-M "P C C N"
_symmetry_group_IT_number 56
_symmetry_cell_setting 'orthorhombic'
loop_
_space_group_symop_operation_xyz
x,y,z
1/2-x,1/2-y,z
1/2+x,-y,1/2-z
-x,1/2+y,1/2-z
-x,-y,-z
1/2+x,1/2+y,-z
1/2-x,y,1/2+z
x,1/2-y,1/2+z
loop_
_atom_site_type_symbol
_atom_site_label
_atom_site_fract_x
_atom_site_fract_y
_atom_site_fract_z
Si Si1 0.039939 0.330191 0.946911
Si Si2 0.134263 0.435250 0.274299
Si Si3 0.028693 0.592260 0.859772
Si Si4 0.201091 0.880041 0.211864
Si Si5 0.027365 0.560833 0.594136
Si Si6 0.250000 0.250000 0.905077
O O1 0.028301 0.446311 0.880815
O O2 0.158966 0.309703 0.960567
O O3 0.998727 0.204775 0.906253
O O4 0.980880 0.351771 0.040241
O O5 0.209083 0.532307 0.235638
O O6 0.197535 0.347898 0.339476
O O7 0.070603 0.371443 0.195504
O O8 0.047228 0.497958 0.333323
O O9 0.123400 0.626182 0.797101
O O10 0.250000 0.750000 0.190227
O O11 0.139245 0.940975 0.129844
O O12 0.000000 0.500000 0.500000
#
# Coordination Sequence:
#
# PCOD9430845 Si02
#       6
#     8   8   8   8   8   4
#     4  10  21  41  60  91 127 162 210 265 312 378
#     4  10  22  39  63  91 122 167 213 254 316 383
#     4  10  22  40  65  89 125 164 208 265 320 374
#     4  11  23  42  65  94 127 169 213 263 322 388
#     4  10  24  42  61  94 133 166 210 270 313 378
#     4  10  20  38  60  86 128 162 210 260 300 392
#
# _framework density 20.252768
#
# number of rings (size 3 to 8) (size 9 to 14) (size 15 to 20)
#    0.000    1.818    1.818    1.091    2.545    5.091 
#    3.273    0.000    0.000    0.000    0.000    0.000 
#    0.000    0.000    0.000    0.000    0.000    0.000 
#
# Total GULP energy -245472.314064 kJ/mol
# GULP energy per Si atom -5578.916229 kJ/mol
# Density = 2.020667 g / cm^3
# Si number density = 20.252768 Si / 1000 Ang^3
#
#
#
# Elastic Constant Matrix: (Units=GPa)
#
#
# Indices 1 2 3 4 5 6 
#
# 1 108.9076 23.4507 26.8463 0.0000 0.0000 0.0000
# 2 23.4507 40.3440 5.5903 0.0000 0.0000 0.0000
# 3 26.8463 5.5903 81.4028 0.0000 0.0000 0.0000
# 4 0.0000 0.0000 0.0000 3.8997 0.0000 0.0000
# 5 0.0000 0.0000 0.0000 0.0000 -2.1867 0.0000
# 6 0.0000 0.0000 0.0000 0.0000 0.0000 29.8201
#
#
#
# Elastic Compliance Matrix: (Units=1/GPa)
#
#
# Indices 1 2 3 4 5 6 
#
# 1 0.011316 -0.006119 -0.003312 0.000000 0.000000 0.000000
# 2 -0.006119 0.028333 0.000072 0.000000 0.000000 0.000000
# 3 -0.003312 0.000072 0.013372 0.000000 0.000000 0.000000
# 4 0.000000 0.000000 0.000000 0.256432 0.000000 0.000000
# 5 0.000000 0.000000 0.000000 0.000000 -0.457317 0.000000
# 6 0.000000 0.000000 0.000000 0.000000 0.000000 0.033534
#
#
# Mechanical properties :
#
#
# Convention : Reuss Voigt Hill
#
# Bulk Modulus (GPa) = 29.15063 38.04765 33.59914
# Shear Modulus (GPa) = -59.39796 17.95775 -20.72010
#
# Velocity S-wave (km/s) = -5.42144 2.98095 -3.20202
# Velocity P-wave (km/s) = 4.97641 5.53853 1.71910
#
# Compressibility (1/GPa) = 0.03430458
#
# Stress axis : x y z
#
# Youngs Moduli (GPa) = 88.37060 35.29398 74.78400
#
# Poissons Ratio (x) = 0.21595 0.24767
# Poissons Ratio (y) = 0.54071 -0.00539
# Poissons Ratio (z) = 0.29266 -0.00255
#
# Static dielectric constant tensor:
#      x y z
#    x 1.735910 0.000000 0.000000 
#    y 0.000000 1.678970 0.000000 
#    z 0.000000 0.000000 1.677170 
# 
# From -- ./inp_files/12181.got.cif
#   From: 2010.05.17/outbox.cif.g08.bks.cpg/sg56_7_cif.got.tgz:12181.got - 2010.06.03 13:42:01.
