data_PCOD9430404
_publ_section_title
;
Structure prediction by ZEFSAII (Michael W. Deem and Ramdas Pophale) SiO2 
 PCOD9430404
Probable space group: P C C N
;
_chemical_formula_sum "Si O2"
_cell_formula_units_Z 40
_cell_length_a 8.771191
_cell_length_b 15.566558
_cell_length_c 12.772376
_cell_angle_alpha 90.000000
_cell_angle_beta 90.000000
_cell_angle_gamma 90.000000
_cell_volume 1743.905139
_symmetry_space_group_name_H-M "P C C N"
_symmetry_group_IT_number 56
_symmetry_cell_setting 'orthorhombic'
loop_
_space_group_symop_operation_xyz
x,y,z
1/2-x,1/2-y,z
1/2+x,-y,1/2-z
-x,1/2+y,1/2-z
-x,-y,-z
1/2+x,1/2+y,-z
1/2-x,y,1/2+z
x,1/2-y,1/2+z
loop_
_atom_site_type_symbol
_atom_site_label
_atom_site_fract_x
_atom_site_fract_y
_atom_site_fract_z
Si Si1 0.366070 0.037630 0.272649
Si Si2 0.040529 0.119321 0.207389
Si Si3 0.250000 0.250000 0.492844
Si Si4 0.750000 0.250000 0.499765
Si Si5 0.993161 0.627990 0.544289
Si Si6 0.489130 0.191115 0.151822
O O1 0.196841 0.074643 0.249505
O O2 0.431787 0.048297 0.390520
O O3 0.478914 0.102584 0.212064
O O4 0.402697 0.938579 0.246642
O O5 0.026478 0.222340 0.222394
O O6 0.029461 0.118246 0.080311
O O7 0.366143 0.197796 0.424726
O O8 0.152118 0.191338 0.570816
O O9 0.845766 0.323707 0.439622
O O10 0.634270 0.298081 0.577808
#
# Coordination Sequence:
#
# PCOD9430404 Si02
#       6
#     8   8   4   4   8   8
#     4  12  23  40  68  89 127 171 214 256 317 386
#     4  10  24  42  58  99 125 166 207 270 315 366
#     4   8  16  36  62  88 120 158 206 254 304 368
#     4   8  20  38  62  94 126 158 206 266 314 352
#     4  10  21  40  65  91 130 164 212 261 314 379
#     4  10  19  41  64  84 131 165 200 258 322 366
#
# _framework density 22.937028000000002
#
# number of rings (size 3 to 8) (size 9 to 14) (size 15 to 20)
#    0.000    2.400    4.000    0.600    8.400    0.800 
#    0.000    1.000    0.000    0.000    0.000    0.000 
#    0.000    0.000    0.000    0.000    0.000    0.000 
#
# Total GULP energy -222840.083785 kJ/mol
# GULP energy per Si atom -5571.002095 kJ/mol
# Density = 2.288482 g / cm^3
# Si number density = 22.937028 Si / 1000 Ang^3
#
#
#
# Elastic Constant Matrix: (Units=GPa)
#
#
# Indices 1 2 3 4 5 6 
#
# 1 116.6489 19.4839 2.6844 0.0000 0.0000 0.0000
# 2 19.4839 87.1428 10.4500 0.0000 0.0000 0.0000
# 3 2.6844 10.4500 53.3573 0.0000 0.0000 0.0000
# 4 0.0000 0.0000 0.0000 -7.5577 0.0000 0.0000
# 5 0.0000 0.0000 0.0000 0.0000 12.4620 0.0000
# 6 0.0000 0.0000 0.0000 0.0000 0.0000 17.6590
#
#
#
# Elastic Compliance Matrix: (Units=1/GPa)
#
#
# Indices 1 2 3 4 5 6 
#
# 1 0.008905 -0.001984 -0.000059 0.000000 0.000000 0.000000
# 2 -0.001984 0.012193 -0.002288 0.000000 0.000000 0.000000
# 3 -0.000059 -0.002288 0.019193 0.000000 0.000000 0.000000
# 4 0.000000 0.000000 0.000000 -0.132315 0.000000 0.000000
# 5 0.000000 0.000000 0.000000 0.000000 0.080244 0.000000
# 6 0.000000 0.000000 0.000000 0.000000 0.000000 0.056628
#
#
# Mechanical properties :
#
#
# Convention : Reuss Voigt Hill
#
# Bulk Modulus (GPa) = 31.61738 35.82061 33.71900
# Shear Modulus (GPa) = 78.05682 19.48136 48.76909
#
# Velocity S-wave (km/s) = 5.83993 2.91751 4.61609
# Velocity P-wave (km/s) = 7.69983 5.19615 6.56839
#
# Compressibility (1/GPa) = 0.03162817
#
# Stress axis : x y z
#
# Youngs Moduli (GPa) = 112.29027 82.01150 52.10309
#
# Poissons Ratio (x) = 0.16271 0.00310
# Poissons Ratio (y) = 0.22279 0.11923
# Poissons Ratio (z) = 0.00668 0.18766
#
# Static dielectric constant tensor:
#      x y z
#    x 1.975930 0.000000 0.000000 
#    y 0.000000 2.117910 0.000000 
#    z 0.000000 0.000000 1.930260 
# 
# From -- ./inp_files/10547.got.cif
#   From: 2010.05.17/outbox.cif.g08.bks.cpg/sg56_6_cif.got.tgz:10547.got - 2010.06.03 13:42:01.
