data_PCOD9430152
_publ_section_title
;
Structure prediction by ZEFSAII (Michael W. Deem and Ramdas Pophale) SiO2 
 PCOD9430152
Probable space group: P C C N
;
_chemical_formula_sum "Si O2"
_cell_formula_units_Z 36
_cell_length_a 22.033588
_cell_length_b 5.956427
_cell_length_c 11.822625
_cell_angle_alpha 90.000000
_cell_angle_beta 90.000000
_cell_angle_gamma 90.000000
_cell_volume 1551.618548
_symmetry_space_group_name_H-M "P C C N"
_symmetry_group_IT_number 56
_symmetry_cell_setting 'orthorhombic'
loop_
_space_group_symop_operation_xyz
x,y,z
1/2-x,1/2-y,z
1/2+x,-y,1/2-z
-x,1/2+y,1/2-z
-x,-y,-z
1/2+x,1/2+y,-z
1/2-x,y,1/2+z
x,1/2-y,1/2+z
loop_
_atom_site_type_symbol
_atom_site_label
_atom_site_fract_x
_atom_site_fract_y
_atom_site_fract_z
Si Si1 0.695301 0.369002 0.728639
Si Si2 0.024702 0.811204 0.084895
Si Si3 0.867215 0.997149 0.387639
Si Si4 0.919178 0.613224 0.220664
Si Si5 0.750000 0.750000 0.890878
O O1 0.750000 0.250000 0.660897
O O2 0.665925 0.178731 0.807361
O O3 0.640427 0.496035 0.670287
O O4 0.723450 0.555141 0.811364
O O5 0.079967 0.644520 0.051875
O O6 0.965760 0.679372 0.124940
O O7 0.048710 0.938857 0.195916
O O8 0.000000 0.000000 0.000000
O O9 0.899821 0.820803 0.301949
O O10 0.810920 0.859501 0.446342
#
# Coordination Sequence:
#
# PCOD9430152 Si02
#       5
#     8   8   8   8   4
#     4   8  15  28  53  84 110 149 201 249 312 371
#     4  11  22  35  55  86 126 168 207 251 316 378
#     4   9  17  32  52  83 117 155 202 249 309 370
#     4  10  19  35  54  82 126 158 203 255 303 376
#     4   8  14  28  54  84 108 148 206 254 308 372
#
# _framework density 23.201578000000001
#
# number of rings (size 3 to 8) (size 9 to 14) (size 15 to 20)
#    0.000    2.667    2.222    0.000    0.000    0.889 
#    0.000    0.000    0.000    0.000    0.000  230.222 
#    0.000    0.000    0.000    0.000    0.000    0.222 
#
# Total GULP energy -200738.024966 kJ/mol
# GULP energy per Si atom -5576.056249 kJ/mol
# Density = 2.314877 g / cm^3
# Si number density = 23.201578 Si / 1000 Ang^3
#
#
#
# Elastic Constant Matrix: (Units=GPa)
#
#
# Indices 1 2 3 4 5 6 
#
# 1 233.2958 92.4069 59.4535 0.0000 0.0000 0.0000
# 2 92.4069 123.6087 30.2359 0.0000 0.0000 0.0000
# 3 59.4535 30.2359 60.9189 0.0000 0.0000 0.0000
# 4 0.0000 0.0000 0.0000 -19.8773 0.0000 0.0000
# 5 0.0000 0.0000 0.0000 0.0000 2.9292 0.0000
# 6 0.0000 0.0000 0.0000 0.0000 0.0000 83.1198
#
#
#
# Elastic Compliance Matrix: (Units=1/GPa)
#
#
# Indices 1 2 3 4 5 6 
#
# 1 0.007202 -0.004171 -0.004959 0.000000 0.000000 0.000000
# 2 -0.004171 0.011624 -0.001698 0.000000 0.000000 0.000000
# 3 -0.004959 -0.001698 0.022098 0.000000 0.000000 0.000000
# 4 0.000000 0.000000 0.000000 -0.050309 0.000000 0.000000
# 5 0.000000 0.000000 0.000000 0.000000 0.341393 0.000000
# 6 0.000000 0.000000 0.000000 0.000000 0.000000 0.012031
#
#
# Mechanical properties :
#
#
# Convention : Reuss Voigt Hill
#
# Bulk Modulus (GPa) = 51.90182 86.89066 69.39624
# Shear Modulus (GPa) = 13.43660 28.94948 21.19304
#
# Velocity S-wave (km/s) = 2.40911 3.53616 3.02558
# Velocity P-wave (km/s) = 5.49153 7.36235 6.49466
#
# Compressibility (1/GPa) = 0.01926715
#
# Stress axis : x y z
#
# Youngs Moduli (GPa) = 138.84381 86.03001 45.25374
#
# Poissons Ratio (x) = 0.35886 0.22440
# Poissons Ratio (y) = 0.57917 0.07685
# Poissons Ratio (z) = 0.68849 0.14610
#
# Static dielectric constant tensor:
#      x y z
#    x 1.829100 0.000000 0.000000 
#    y 0.000000 1.874650 0.000000 
#    z 0.000000 0.000000 1.815690 
# 
# From -- ./inp_files/5556.got.cif
#   From: 2010.05.17/outbox.cif.g08.bks.cpg/sg56_3_cif.got.tgz:5556.got - 2010.06.03 13:42:01.
