data_PCOD9430984
_publ_section_title
;
Structure prediction by ZEFSAII (Michael W. Deem and Ramdas Pophale) SiO2 
 PCOD9430984
Probable space group: P C C N
;
_chemical_formula_sum "Si O2"
_cell_formula_units_Z 64
_cell_length_a 11.169330
_cell_length_b 29.828883
_cell_length_c 8.970181
_cell_angle_alpha 90.000000
_cell_angle_beta 90.000000
_cell_angle_gamma 90.000000
_cell_volume 2988.582984
_symmetry_space_group_name_H-M "P C C N"
_symmetry_group_IT_number 56
_symmetry_cell_setting 'orthorhombic'
loop_
_space_group_symop_operation_xyz
x,y,z
1/2-x,1/2-y,z
1/2+x,-y,1/2-z
-x,1/2+y,1/2-z
-x,-y,-z
1/2+x,1/2+y,-z
1/2-x,y,1/2+z
x,1/2-y,1/2+z
loop_
_atom_site_type_symbol
_atom_site_label
_atom_site_fract_x
_atom_site_fract_y
_atom_site_fract_z
Si Si1 0.781597 0.358064 0.388168
Si Si2 0.387460 0.109977 0.911011
Si Si3 0.187686 0.923223 0.870537
Si Si4 0.943673 0.456793 0.079668
Si Si5 0.460618 0.692114 0.552678
Si Si6 0.102074 0.016878 0.826031
Si Si7 0.697733 0.563640 0.883862
Si Si8 0.877825 0.269732 0.232226
O O1 0.854647 0.387882 0.505834
O O2 0.737296 0.392019 0.260903
O O3 0.660306 0.338090 0.459892
O O4 0.849369 0.314754 0.325159
O O5 0.428479 0.161057 0.907102
O O6 0.372219 0.089947 0.745681
O O7 0.491877 0.084470 0.001183
O O8 0.271769 0.098096 0.010860
O O9 0.302905 0.950527 0.933065
O O10 0.101522 0.963060 0.821528
O O11 0.983475 0.462379 0.251583
O O12 0.000000 0.500000 0.000000
O O13 0.468380 0.716574 0.395895
O O14 0.431511 0.729880 0.672039
O O15 0.208184 0.033790 0.713700
O O16 0.127798 0.034191 0.992934
O O17 0.750000 0.250000 0.172060
#
# Coordination Sequence:
#
# PCOD9430984 Si02
#       8
#     8   8   8   8   8   8   8   8
#     4  11  21  37  58  86 124 157 193 249 303 364
#     4  10  20  39  64  88 115 159 211 249 314 369
#     4  12  22  37  57  89 123 166 209 254 301 360
#     4  11  21  37  58  81 124 169 207 259 307 361
#     4  11  22  40  62  90 118 157 199 248 305 388
#     4  10  21  37  57  86 125 166 211 256 307 354
#     4   9  19  39  61  84 120 162 205 260 306 355
#     4  10  21  38  62  89 124 156 191 242 320 372
#
# _framework density 21.414829999999998
#
# number of rings (size 3 to 8) (size 9 to 14) (size 15 to 20)
#    0.000    1.500    2.500    4.875    1.750    0.000 
#    2.250    6.875    0.000    2.250    0.000    0.000 
#    0.000    0.000    0.000    0.000    0.000    0.000 
#
# Total GULP energy -357979.169169 kJ/mol
# GULP energy per Si atom -5593.424518 kJ/mol
# Density = 2.136609 g / cm^3
# Si number density = 21.414830 Si / 1000 Ang^3
#
#
#
# Elastic Constant Matrix: (Units=GPa)
#
#
# Indices 1 2 3 4 5 6 
#
# 1 47.0128 30.4443 20.2523 0.0000 0.0000 0.0000
# 2 30.4443 143.4833 56.3368 0.0000 0.0000 0.0000
# 3 20.2523 56.3368 119.6524 0.0000 0.0000 0.0000
# 4 0.0000 0.0000 0.0000 34.6959 0.0000 0.0000
# 5 0.0000 0.0000 0.0000 0.0000 13.3666 0.0000
# 6 0.0000 0.0000 0.0000 0.0000 0.0000 31.9614
#
#
#
# Elastic Compliance Matrix: (Units=1/GPa)
#
#
# Indices 1 2 3 4 5 6 
#
# 1 0.025096 -0.004486 -0.002135 0.000000 0.000000 0.000000
# 2 -0.004486 0.009352 -0.003644 0.000000 0.000000 0.000000
# 3 -0.002135 -0.003644 0.010435 0.000000 0.000000 0.000000
# 4 0.000000 0.000000 0.000000 0.028822 0.000000 0.000000
# 5 0.000000 0.000000 0.000000 0.000000 0.074813 0.000000
# 6 0.000000 0.000000 0.000000 0.000000 0.000000 0.031288
#
#
# Mechanical properties :
#
#
# Convention : Reuss Voigt Hill
#
# Bulk Modulus (GPa) = 41.06559 58.24615 49.65587
# Shear Modulus (GPa) = 23.98608 29.54579 26.76594
#
# Velocity S-wave (km/s) = 3.35037 3.71845 3.53920
# Velocity P-wave (km/s) = 5.84675 6.75972 6.31974
#
# Compressibility (1/GPa) = 0.02435129
#
# Stress axis : x y z
#
# Youngs Moduli (GPa) = 39.84701 106.92742 95.83432
#
# Poissons Ratio (x) = 0.47973 0.20464
# Poissons Ratio (y) = 0.17877 0.34922
# Poissons Ratio (z) = 0.08509 0.38964
#
# Static dielectric constant tensor:
#      x y z
#    x 1.868060 0.000000 0.000000 
#    y 0.000000 1.779610 0.000000 
#    z 0.000000 0.000000 1.831100 
# 
# From -- ./inp_files/2959.got.cif
#   From: 2010.05.17/outbox.cif.g08.bks.cpg/sg56_2_cif.got.tgz:2959.got - 2010.06.03 13:42:01.
