data_PCOD9430023
_publ_section_title
;
Structure prediction by ZEFSAII (Michael W. Deem and Ramdas Pophale) SiO2 
 PCOD9430023
Probable space group: P C C N
;
_chemical_formula_sum "Si O2"
_cell_formula_units_Z 52
_cell_length_a 14.703776
_cell_length_b 14.937500
_cell_length_c 9.933396
_cell_angle_alpha 90.000000
_cell_angle_beta 90.000000
_cell_angle_gamma 90.000000
_cell_volume 2181.747794
_symmetry_space_group_name_H-M "P C C N"
_symmetry_group_IT_number 56
_symmetry_cell_setting 'orthorhombic'
loop_
_space_group_symop_operation_xyz
x,y,z
1/2-x,1/2-y,z
1/2+x,-y,1/2-z
-x,1/2+y,1/2-z
-x,-y,-z
1/2+x,1/2+y,-z
1/2-x,y,1/2+z
x,1/2-y,1/2+z
loop_
_atom_site_type_symbol
_atom_site_label
_atom_site_fract_x
_atom_site_fract_y
_atom_site_fract_z
Si Si1 0.145207 0.103641 0.549988
Si Si2 0.464984 0.090400 0.326209
Si Si3 0.250000 0.750000 0.703004
Si Si4 0.184383 0.583488 0.062439
Si Si5 0.593607 0.306031 0.650872
Si Si6 0.485782 0.411295 0.296175
Si Si7 0.577128 0.788684 0.435517
O O1 0.101461 0.097026 0.698094
O O2 0.076920 0.074784 0.428479
O O3 0.152748 0.211682 0.539285
O O4 0.215581 0.020179 0.554993
O O5 0.544736 0.157093 0.282223
O O6 0.419392 0.131630 0.457476
O O7 0.506413 0.991585 0.313181
O O8 0.247032 0.659437 0.615665
O O9 0.165349 0.765104 0.800537
O O10 0.089421 0.592316 0.147572
O O11 0.151351 0.616050 0.916929
O O12 0.518248 0.266340 0.551380
O O13 0.438333 0.330325 0.213383
#
# Coordination Sequence:
#
# PCOD9430023 Si02
#       7
#     8   8   4   8   8   8   8
#     4  10  19  34  57  77 115 156 194 238 305 358
#     4  10  19  32  53  83 119 151 188 239 298 352
#     4  12  24  34  54  84 112 156 202 236 282 354
#     4  11  20  37  54  77 112 159 197 232 286 361
#     4  11  20  35  51  75 115 157 188 232 291 350
#     4  11  18  35  55  82 121 155 188 249 305 350
#     4  11  20  30  54  87 117 147 190 245 301 352
#
# _framework density 23.834102999999999
#
# number of rings (size 3 to 8) (size 9 to 14) (size 15 to 20)
#    0.000    1.231    6.154    4.615    0.000    0.000 
#    0.000    0.000    0.000    0.000    0.000    1.077 
#    0.000    0.000    0.000    0.000    0.000    0.000 
#
# Total GULP energy -289489.842378 kJ/mol
# GULP energy per Si atom -5567.112353 kJ/mol
# Density = 2.377986 g / cm^3
# Si number density = 23.834103 Si / 1000 Ang^3
#
#
#
# Elastic Constant Matrix: (Units=GPa)
#
#
# Indices 1 2 3 4 5 6 
#
# 1 24.9231 6.9968 -2.4012 0.0000 0.0000 0.0000
# 2 6.9968 119.2656 41.4225 0.0000 0.0000 0.0000
# 3 -2.4012 41.4225 78.4810 0.0000 0.0000 0.0000
# 4 0.0000 0.0000 0.0000 36.2901 0.0000 0.0000
# 5 0.0000 0.0000 0.0000 0.0000 -0.7431 0.0000
# 6 0.0000 0.0000 0.0000 0.0000 0.0000 24.4813
#
#
#
# Elastic Compliance Matrix: (Units=1/GPa)
#
#
# Indices 1 2 3 4 5 6 
#
# 1 0.041410 -0.003513 0.003121 0.000000 0.000000 0.000000
# 2 -0.003513 0.010565 -0.005684 0.000000 0.000000 0.000000
# 3 0.003121 -0.005684 0.015837 0.000000 0.000000 0.000000
# 4 0.000000 0.000000 0.000000 0.027556 0.000000 0.000000
# 5 0.000000 0.000000 0.000000 0.000000 -1.345714 0.000000
# 6 0.000000 0.000000 0.000000 0.000000 0.000000 0.040848
#
#
# Mechanical properties :
#
#
# Convention : Reuss Voigt Hill
#
# Bulk Modulus (GPa) = 17.96586 34.96732 26.46659
# Shear Modulus (GPa) = -4.24163 23.78244 9.77041
#
# Velocity S-wave (km/s) = -1.33548 3.16228 2.02688
# Velocity P-wave (km/s) = 2.27513 5.29493 4.07508
#
# Compressibility (1/GPa) = 0.05566112
#
# Stress axis : x y z
#
# Youngs Moduli (GPa) = 24.14850 94.65435 63.14222
#
# Poissons Ratio (x) = 0.33257 -0.19709
# Poissons Ratio (y) = 0.08485 0.35888
# Poissons Ratio (z) = -0.07538 0.53798
#
# Static dielectric constant tensor:
#      x y z
#    x 2.039870 0.000000 0.000000 
#    y 0.000000 2.079960 0.000000 
#    z 0.000000 0.000000 1.885440 
# 
# From -- ./inp_files/8373.got.cif
#   From: 2010.05.17/outbox.cif.g08.bks.cpg/sg56_5_cif.got.tgz:8373.got - 2010.06.03 13:42:01.
