data_PCOD9430312
_publ_section_title
;
Structure prediction by ZEFSAII (Michael W. Deem and Ramdas Pophale) SiO2 
 PCOD9430312
Probable space group: P C C N
;
_chemical_formula_sum "Si O2"
_cell_formula_units_Z 40
_cell_length_a 9.717297
_cell_length_b 8.848339
_cell_length_c 19.062142
_cell_angle_alpha 90.000000
_cell_angle_beta 90.000000
_cell_angle_gamma 90.000000
_cell_volume 1638.999912
_symmetry_space_group_name_H-M "P C C N"
_symmetry_group_IT_number 56
_symmetry_cell_setting 'orthorhombic'
loop_
_space_group_symop_operation_xyz
x,y,z
1/2-x,1/2-y,z
1/2+x,-y,1/2-z
-x,1/2+y,1/2-z
-x,-y,-z
1/2+x,1/2+y,-z
1/2-x,y,1/2+z
x,1/2-y,1/2+z
loop_
_atom_site_type_symbol
_atom_site_label
_atom_site_fract_x
_atom_site_fract_y
_atom_site_fract_z
Si Si1 0.425573 0.843090 0.974977
Si Si2 0.589969 0.764153 0.340658
Si Si3 0.758326 0.991362 0.628471
Si Si4 0.595504 0.421305 0.757315
Si Si5 0.008794 0.267417 0.381778
O O1 0.508885 0.756825 0.913503
O O2 0.288286 0.901726 0.937178
O O3 0.428470 0.748293 0.045822
O O4 0.500000 0.000000 0.000000
O O5 0.750000 0.750000 0.356409
O O6 0.532985 0.630293 0.291164
O O7 0.576886 0.918486 0.296316
O O8 0.776846 0.071927 0.703382
O O9 0.886615 0.872692 0.629762
O O10 0.617055 0.905341 0.618314
O O11 0.594081 0.297358 0.818417
#
# Coordination Sequence:
#
# PCOD9430312 Si02
#       5
#     8   8   8   8   8
#     4   9  21  38  66  96 132 175 221 279 330 410
#     4  11  24  42  68  97 132 178 224 274 343 399
#     4   9  19  37  63  96 127 174 216 270 340 393
#     4  11  21  39  65  96 132 170 227 275 327 406
#     4  10  19  37  68  89 130 174 221 266 342 398
#
# _framework density 24.405127
#
# number of rings (size 3 to 8) (size 9 to 14) (size 15 to 20)
#    0.000    2.000    2.000    1.200    5.600    0.800 
#    0.000    9.000    4.400    0.000    0.000    0.000 
#    0.000    0.000    0.000    0.000    0.000    0.000 
#
# Total GULP energy -223795.110220 kJ/mol
# GULP energy per Si atom -5594.877755 kJ/mol
# Density = 2.434958 g / cm^3
# Si number density = 24.405127 Si / 1000 Ang^3
#
#
#
# Elastic Constant Matrix: (Units=GPa)
#
#
# Indices 1 2 3 4 5 6 
#
# 1 89.0008 27.5202 47.2256 0.0000 0.0000 0.0000
# 2 27.5202 77.2127 38.5986 0.0000 0.0000 0.0000
# 3 47.2256 38.5986 220.8678 0.0000 0.0000 0.0000
# 4 0.0000 0.0000 0.0000 52.1014 0.0000 0.0000
# 5 0.0000 0.0000 0.0000 0.0000 20.0296 0.0000
# 6 0.0000 0.0000 0.0000 0.0000 0.0000 30.3480
#
#
#
# Elastic Compliance Matrix: (Units=1/GPa)
#
#
# Indices 1 2 3 4 5 6 
#
# 1 0.013580 -0.003713 -0.002255 0.000000 0.000000 0.000000
# 2 -0.003713 0.015206 -0.001863 0.000000 0.000000 0.000000
# 3 -0.002255 -0.001863 0.005335 0.000000 0.000000 0.000000
# 4 0.000000 0.000000 0.000000 0.019193 0.000000 0.000000
# 5 0.000000 0.000000 0.000000 0.000000 0.049926 0.000000
# 6 0.000000 0.000000 0.000000 0.000000 0.000000 0.032951
#
#
# Mechanical properties :
#
#
# Convention : Reuss Voigt Hill
#
# Bulk Modulus (GPa) = 54.17382 68.19669 61.18525
# Shear Modulus (GPa) = 31.64382 38.74492 35.19437
#
# Velocity S-wave (km/s) = 3.60475 3.98876 3.80160
# Velocity P-wave (km/s) = 6.29059 7.01554 6.66293
#
# Compressibility (1/GPa) = 0.01845910
#
# Stress axis : x y z
#
# Youngs Moduli (GPa) = 73.63509 65.76251 187.42794
#
# Poissons Ratio (x) = 0.24419 0.42262
# Poissons Ratio (y) = 0.27342 0.34927
# Poissons Ratio (z) = 0.16604 0.12255
#
# Static dielectric constant tensor:
#      x y z
#    x 1.909880 0.000000 0.000000 
#    y 0.000000 2.010210 0.000000 
#    z 0.000000 0.000000 1.909230 
# 
# From -- ./inp_files/15391.got.cif
#   From: 2010.05.17/outbox.cif.g08.bks.cpg/sg56_8_cif.got.tgz:15391.got - 2010.06.03 13:42:01.
