data_PCOD9430424
_publ_section_title
;
Structure prediction by ZEFSAII (Michael W. Deem and Ramdas Pophale) SiO2 
 PCOD9430424
Probable space group: P C C N
;
_chemical_formula_sum "Si O2"
_cell_formula_units_Z 44
_cell_length_a 7.579129
_cell_length_b 17.179378
_cell_length_c 13.687764
_cell_angle_alpha 90.000000
_cell_angle_beta 90.000000
_cell_angle_gamma 90.000000
_cell_volume 1782.211506
_symmetry_space_group_name_H-M "P C C N"
_symmetry_group_IT_number 56
_symmetry_cell_setting 'orthorhombic'
loop_
_space_group_symop_operation_xyz
x,y,z
1/2-x,1/2-y,z
1/2+x,-y,1/2-z
-x,1/2+y,1/2-z
-x,-y,-z
1/2+x,1/2+y,-z
1/2-x,y,1/2+z
x,1/2-y,1/2+z
loop_
_atom_site_type_symbol
_atom_site_label
_atom_site_fract_x
_atom_site_fract_y
_atom_site_fract_z
Si Si1 0.624347 0.360342 0.359549
Si Si2 0.895562 0.454459 0.672084
Si Si3 0.991468 0.527659 0.867114
Si Si4 0.820933 0.880530 0.950029
Si Si5 0.024678 0.193959 0.865244
Si Si6 0.750000 0.750000 0.810360
O O1 0.598073 0.379570 0.244497
O O2 0.566351 0.442274 0.405206
O O3 0.514837 0.284925 0.392019
O O4 0.831037 0.343443 0.369217
O O5 0.700475 0.462431 0.629911
O O6 0.856778 0.645556 0.559697
O O7 0.042297 0.444738 0.590111
O O8 0.871575 0.590309 0.920011
O O9 0.939806 0.522063 0.750861
O O10 0.854851 0.805076 0.883637
O O11 0.122111 0.201777 0.761644
#
# Coordination Sequence:
#
# PCOD9430424 Si02
#       6
#     8   8   8   8   8   4
#     4   9  21  46  68 103 152 192 233 315 376 432
#     4  10  19  43  77 109 145 191 248 302 376 437
#     4  10  20  42  77 111 141 196 252 306 376 442
#     4  12  25  44  76 113 142 199 255 306 371 461
#     4  11  24  45  70 108 155 187 249 307 382 454
#     4  12  24  48  72 100 154 198 246 322 376 438
#
# _framework density 24.688428999999999
#
# number of rings (size 3 to 8) (size 9 to 14) (size 15 to 20)
#    1.091    0.364    3.636    1.636    0.000    0.727 
#   19.636    0.909    0.000    0.000    0.000    0.000 
#    0.000    0.000    0.000    0.000    0.000    0.000 
#
# Total GULP energy -246227.699995 kJ/mol
# GULP energy per Si atom -5596.084091 kJ/mol
# Density = 2.463224 g / cm^3
# Si number density = 24.688429 Si / 1000 Ang^3
#
#
#
# Elastic Constant Matrix: (Units=GPa)
#
#
# Indices 1 2 3 4 5 6 
#
# 1 84.6924 -18.3910 9.3542 0.0000 0.0000 0.0000
# 2 -18.3910 75.3861 19.8672 0.0000 0.0000 0.0000
# 3 9.3542 19.8672 96.3309 0.0000 0.0000 0.0000
# 4 0.0000 0.0000 0.0000 36.6012 0.0000 0.0000
# 5 0.0000 0.0000 0.0000 0.0000 57.9024 0.0000
# 6 0.0000 0.0000 0.0000 0.0000 0.0000 43.5835
#
#
#
# Elastic Compliance Matrix: (Units=1/GPa)
#
#
# Indices 1 2 3 4 5 6 
#
# 1 0.012822 0.003655 -0.001999 0.000000 0.000000 0.000000
# 2 0.003655 0.015069 -0.003463 0.000000 0.000000 0.000000
# 3 -0.001999 -0.003463 0.011289 0.000000 0.000000 0.000000
# 4 0.000000 0.000000 0.000000 0.027322 0.000000 0.000000
# 5 0.000000 0.000000 0.000000 0.000000 0.017270 0.000000
# 6 0.000000 0.000000 0.000000 0.000000 0.000000 0.022944
#
#
# Mechanical properties :
#
#
# Convention : Reuss Voigt Hill
#
# Bulk Modulus (GPa) = 28.11630 30.89667 29.50648
# Shear Modulus (GPa) = 40.92130 43.98935 42.45532
#
# Velocity S-wave (km/s) = 4.07567 4.22569 4.15136
# Velocity P-wave (km/s) = 5.79321 6.02913 5.91235
#
# Compressibility (1/GPa) = 0.03556656
#
# Stress axis : x y z
#
# Youngs Moduli (GPa) = 77.99202 66.36043 88.58073
#
# Poissons Ratio (x) = -0.24253 0.17706
# Poissons Ratio (y) = -0.28504 0.30673
# Poissons Ratio (z) = 0.15589 0.22979
#
# Static dielectric constant tensor:
#      x y z
#    x 1.898780 0.000000 0.000000 
#    y 0.000000 2.013120 0.000000 
#    z 0.000000 0.000000 1.963720 
# 
# From -- ./inp_files/14687.got.cif
#   From: 2010.05.17/outbox.cif.g08.bks.cpg/sg56_8_cif.got.tgz:14687.got - 2010.06.03 13:42:01.
