data_PCOD9430818
_publ_section_title
;
Structure prediction by ZEFSAII (Michael W. Deem and Ramdas Pophale) SiO2 
 PCOD9430818
Probable space group: P C C N
;
_chemical_formula_sum "Si O2"
_cell_formula_units_Z 40
_cell_length_a 17.432106
_cell_length_b 5.020404
_cell_length_c 22.843354
_cell_angle_alpha 90.000000
_cell_angle_beta 90.000000
_cell_angle_gamma 90.000000
_cell_volume 1999.163873
_symmetry_space_group_name_H-M "P C C N"
_symmetry_group_IT_number 56
_symmetry_cell_setting 'orthorhombic'
loop_
_space_group_symop_operation_xyz
x,y,z
1/2-x,1/2-y,z
1/2+x,-y,1/2-z
-x,1/2+y,1/2-z
-x,-y,-z
1/2+x,1/2+y,-z
1/2-x,y,1/2+z
x,1/2-y,1/2+z
loop_
_atom_site_type_symbol
_atom_site_label
_atom_site_fract_x
_atom_site_fract_y
_atom_site_fract_z
Si Si1 0.573102 0.077567 0.958536
Si Si2 0.701918 0.006443 0.619256
Si Si3 0.418073 0.646354 0.791565
Si Si4 0.665533 0.600789 0.996936
Si Si5 0.481410 0.853432 0.171864
O O1 0.634678 0.303782 0.979761
O O2 0.545172 0.161214 0.894442
O O3 0.616557 0.797502 0.957271
O O4 0.500000 0.000000 0.000000
O O5 0.750000 0.250000 0.590861
O O6 0.660636 0.139869 0.673790
O O7 0.750000 0.750000 0.638096
O O8 0.648358 0.897276 0.566868
O O9 0.460529 0.377692 0.810228
O O10 0.415047 0.661365 0.721370
O O11 0.471536 0.878445 0.816377
O O12 0.750000 0.750000 0.994464
#
# Coordination Sequence:
#
# PCOD9430818 Si02
#       5
#     8   8   8   8   8
#     4  12  22  37  61  89 115 150 200 240 282 350
#     4  11  21  36  58  81 108 146 190 229 275 338
#     4  10  20  38  57  82 113 144 186 239 288 332
#     4  11  23  39  57  83 120 155 186 235 298 348
#     4  10  21  36  59  83 112 147 184 237 292 332
#
# _framework density 20.008364
#
# number of rings (size 3 to 8) (size 9 to 14) (size 15 to 20)
#    0.000    1.200    0.000    8.400    0.000    0.000 
#    0.000    3.000    0.000    0.000    0.000    0.000 
#    0.000    0.000    0.000    0.000    0.000    0.000 
#
# Total GULP energy -222740.922040 kJ/mol
# GULP energy per Si atom -5568.523051 kJ/mol
# Density = 1.996282 g / cm^3
# Si number density = 20.008364 Si / 1000 Ang^3
#
#
#
# Elastic Constant Matrix: (Units=GPa)
#
#
# Indices 1 2 3 4 5 6 
#
# 1 44.1659 17.5642 40.6046 0.0000 0.0000 0.0000
# 2 17.5642 146.9496 -0.3941 0.0000 0.0000 0.0000
# 3 40.6046 -0.3941 130.0675 0.0000 0.0000 0.0000
# 4 0.0000 0.0000 0.0000 27.2078 0.0000 0.0000
# 5 0.0000 0.0000 0.0000 0.0000 28.9145 0.0000
# 6 0.0000 0.0000 0.0000 0.0000 0.0000 24.6132
#
#
#
# Elastic Compliance Matrix: (Units=1/GPa)
#
#
# Indices 1 2 3 4 5 6 
#
# 1 0.034059 -0.004099 -0.010645 0.000000 0.000000 0.000000
# 2 -0.004099 0.007299 0.001302 0.000000 0.000000 0.000000
# 3 -0.010645 0.001302 0.011015 0.000000 0.000000 0.000000
# 4 0.000000 0.000000 0.000000 0.036754 0.000000 0.000000
# 5 0.000000 0.000000 0.000000 0.000000 0.034585 0.000000
# 6 0.000000 0.000000 0.000000 0.000000 0.000000 0.040629
#
#
# Mechanical properties :
#
#
# Convention : Reuss Voigt Hill
#
# Bulk Modulus (GPa) = 39.23450 48.52581 43.88015
# Shear Modulus (GPa) = 25.03494 33.70767 29.37131
#
# Velocity S-wave (km/s) = 3.54110 4.10894 3.83554
# Velocity P-wave (km/s) = 6.03082 6.84226 6.44932
#
# Compressibility (1/GPa) = 0.02548777
#
# Stress axis : x y z
#
# Youngs Moduli (GPa) = 29.36103 137.01390 90.78207
#
# Poissons Ratio (x) = 0.56168 0.96637
# Poissons Ratio (y) = 0.12036 -0.11819
# Poissons Ratio (z) = 0.31255 -0.17837
#
# Static dielectric constant tensor:
#      x y z
#    x 1.788420 0.000000 0.000000 
#    y 0.000000 1.710510 0.000000 
#    z 0.000000 0.000000 1.701160 
# 
# From -- ./inp_files/16475.got.cif
#   From: 2010.05.17/outbox.cif.g08.bks.cpg/sg56_9_cif.got.tgz:16475.got - 2010.06.03 13:42:01.
