data_PCOD9430993
_publ_section_title
;
Structure prediction by ZEFSAII (Michael W. Deem and Ramdas Pophale) SiO2 
 PCOD9430993
Probable space group: P C C N
;
_chemical_formula_sum "Si O2"
_cell_formula_units_Z 44
_cell_length_a 7.963003
_cell_length_b 16.628027
_cell_length_c 17.484994
_cell_angle_alpha 90.000000
_cell_angle_beta 90.000000
_cell_angle_gamma 90.000000
_cell_volume 2315.171076
_symmetry_space_group_name_H-M "P C C N"
_symmetry_group_IT_number 56
_symmetry_cell_setting 'orthorhombic'
loop_
_space_group_symop_operation_xyz
x,y,z
1/2-x,1/2-y,z
1/2+x,-y,1/2-z
-x,1/2+y,1/2-z
-x,-y,-z
1/2+x,1/2+y,-z
1/2-x,y,1/2+z
x,1/2-y,1/2+z
loop_
_atom_site_type_symbol
_atom_site_label
_atom_site_fract_x
_atom_site_fract_y
_atom_site_fract_z
Si Si1 0.598790 0.869763 0.552538
Si Si2 0.400663 0.409017 0.283907
Si Si3 0.380891 0.519112 0.846895
Si Si4 0.250000 0.250000 0.829359
Si Si5 0.278105 0.839281 0.450281
Si Si6 0.981941 0.585672 0.041451
O O1 0.623197 0.800425 0.616348
O O2 0.459138 0.845884 0.491742
O O3 0.791706 0.883198 0.524871
O O4 0.547931 0.955077 0.591512
O O5 0.491221 0.437704 0.208627
O O6 0.237618 0.463918 0.295130
O O7 0.348006 0.316157 0.281212
O O8 0.493899 0.419952 0.366126
O O9 0.277419 0.588484 0.889580
O O10 0.250000 0.750000 0.418415
O O11 0.127719 0.857449 0.509519
O O12 0.000000 0.500000 0.000000
#
# Coordination Sequence:
#
# PCOD9430993 Si02
#       6
#     8   8   8   4   8   8
#     4  10  21  40  66  89 122 163 210 250 310 370
#     4  10  21  40  62  87 125 161 205 246 312 364
#     4  10  23  40  60  91 124 162 206 251 306 385
#     4   8  18  42  58  88 122 162 206 248 300 374
#     4  12  23  40  62  98 125 157 211 262 309 365
#     4  10  20  39  65  89 120 162 206 257 303 364
#
# _framework density 19.005074
#
# number of rings (size 3 to 8) (size 9 to 14) (size 15 to 20)
#    0.000    2.182    3.636    2.727    2.545    0.000 
#    6.545    1.818    0.000    0.000    0.000    0.000 
#    0.000    0.000    0.000    0.000    0.000    0.000 
#
# Total GULP energy -245368.591269 kJ/mol
# GULP energy per Si atom -5576.558892 kJ/mol
# Density = 1.896182 g / cm^3
# Si number density = 19.005074 Si / 1000 Ang^3
#
#
#
# Elastic Constant Matrix: (Units=GPa)
#
#
# Indices 1 2 3 4 5 6 
#
# 1 71.8038 22.3361 20.4816 0.0000 0.0000 0.0000
# 2 22.3361 146.9758 23.3252 0.0000 0.0000 0.0000
# 3 20.4816 23.3252 26.1620 0.0000 0.0000 0.0000
# 4 0.0000 0.0000 0.0000 18.1070 0.0000 0.0000
# 5 0.0000 0.0000 0.0000 0.0000 34.4397 0.0000
# 6 0.0000 0.0000 0.0000 0.0000 0.0000 26.9917
#
#
#
# Elastic Compliance Matrix: (Units=1/GPa)
#
#
# Indices 1 2 3 4 5 6 
#
# 1 0.017973 -0.000581 -0.013553 0.000000 0.000000 0.000000
# 2 -0.000581 0.007944 -0.006628 0.000000 0.000000 0.000000
# 3 -0.013553 -0.006628 0.054743 0.000000 0.000000 0.000000
# 4 0.000000 0.000000 0.000000 0.055227 0.000000 0.000000
# 5 0.000000 0.000000 0.000000 0.000000 0.029036 0.000000
# 6 0.000000 0.000000 0.000000 0.000000 0.000000 0.037048
#
#
# Mechanical properties :
#
#
# Convention : Reuss Voigt Hill
#
# Bulk Modulus (GPa) = 25.55146 41.91415 33.73281
# Shear Modulus (GPa) = 19.48996 27.82759 23.65877
#
# Velocity S-wave (km/s) = 3.20584 3.83066 3.53209
# Velocity P-wave (km/s) = 5.21315 6.45503 5.86704
#
# Compressibility (1/GPa) = 0.03913671
#
# Stress axis : x y z
#
# Youngs Moduli (GPa) = 55.63760 125.88201 18.26707
#
# Poissons Ratio (x) = 0.07308 0.24758
# Poissons Ratio (y) = 0.03230 0.12108
# Poissons Ratio (z) = 0.75408 0.83436
#
# Static dielectric constant tensor:
#      x y z
#    x 1.575690 0.000000 0.000000 
#    y 0.000000 1.682950 0.000000 
#    z 0.000000 0.000000 1.665770 
# 
# From -- ./inp_files/14710.got.cif
#   From: 2010.05.17/outbox.cif.g08.bks.cpg/sg56_8_cif.got.tgz:14710.got - 2010.06.03 13:42:01.
