data_PCOD9430588
_publ_section_title
;
Structure prediction by ZEFSAII (Michael W. Deem and Ramdas Pophale) SiO2 
 PCOD9430588
Probable space group: P C C N
;
_chemical_formula_sum "Si O2"
_cell_formula_units_Z 64
_cell_length_a 11.504628
_cell_length_b 10.345857
_cell_length_c 22.821178
_cell_angle_alpha 90.000000
_cell_angle_beta 90.000000
_cell_angle_gamma 90.000000
_cell_volume 2716.296100
_symmetry_space_group_name_H-M "P C C N"
_symmetry_group_IT_number 56
_symmetry_cell_setting 'orthorhombic'
loop_
_space_group_symop_operation_xyz
x,y,z
1/2-x,1/2-y,z
1/2+x,-y,1/2-z
-x,1/2+y,1/2-z
-x,-y,-z
1/2+x,1/2+y,-z
1/2-x,y,1/2+z
x,1/2-y,1/2+z
loop_
_atom_site_type_symbol
_atom_site_label
_atom_site_fract_x
_atom_site_fract_y
_atom_site_fract_z
Si Si1 0.148329 0.058575 0.707460
Si Si2 0.233436 0.904030 0.398823
Si Si3 0.057552 0.470665 0.338229
Si Si4 0.972198 0.811959 0.543250
Si Si5 0.065588 0.412208 0.837982
Si Si6 0.614886 0.847105 0.292305
Si Si7 0.849058 0.138911 0.910402
Si Si8 0.832217 0.985694 0.474876
O O1 0.113643 0.066848 0.775955
O O2 0.285092 0.044844 0.698793
O O3 0.133822 0.204018 0.684617
O O4 0.066465 0.955886 0.676104
O O5 0.250000 0.750000 0.393155
O O6 0.136819 0.958190 0.353605
O O7 0.195395 0.940643 0.464312
O O8 0.345049 0.994435 0.385285
O O9 0.001584 0.607420 0.321647
O O10 0.946876 0.388811 0.361209
O O11 0.064316 0.696324 0.538732
O O12 0.055447 0.938299 0.548998
O O13 0.912880 0.817241 0.607205
O O14 0.878848 0.843968 0.493186
O O15 0.106422 0.347853 0.778042
O O16 0.750000 0.250000 0.898468
O O17 0.777110 0.014879 0.933343
#
# Coordination Sequence:
#
# PCOD9430588 Si02
#       8
#     8   8   8   8   8   8   8   8
#     4  10  21  38  57  82 121 157 197 250 307 362
#     4  11  21  38  60  85 118 157 201 247 306 363
#     4  11  23  38  61  94 121 159 208 255 305 370
#     4   9  18  36  62  87 117 160 202 247 306 364
#     4  10  20  35  58  83 109 156 199 244 295 369
#     4  10  21  38  56  82 120 156 196 253 307 358
#     4  10  21  38  62  91 124 159 202 256 307 360
#     4   9  20  37  59  89 120 157 202 252 305 367
#
# _framework density 23.561495000000001
#
# number of rings (size 3 to 8) (size 9 to 14) (size 15 to 20)
#    0.000    2.000    1.250    2.625    3.500    0.500 
#    0.000    1.250    0.000    3.000    0.000    0.000 
#    0.000    0.000    0.000    0.000    0.000    0.000 
#
# Total GULP energy -356690.096194 kJ/mol
# GULP energy per Si atom -5573.282753 kJ/mol
# Density = 2.350787 g / cm^3
# Si number density = 23.561495 Si / 1000 Ang^3
#
#
#
# Elastic Constant Matrix: (Units=GPa)
#
#
# Indices 1 2 3 4 5 6 
#
# 1 104.7383 28.9599 16.6718 0.0000 0.0000 0.0000
# 2 28.9599 47.9410 -0.3953 0.0000 0.0000 0.0000
# 3 16.6718 -0.3953 74.1430 0.0000 0.0000 0.0000
# 4 0.0000 0.0000 0.0000 5.0762 0.0000 0.0000
# 5 0.0000 0.0000 0.0000 0.0000 38.4958 0.0000
# 6 0.0000 0.0000 0.0000 0.0000 0.0000 28.2776
#
#
#
# Elastic Compliance Matrix: (Units=1/GPa)
#
#
# Indices 1 2 3 4 5 6 
#
# 1 0.011992 -0.007267 -0.002735 0.000000 0.000000 0.000000
# 2 -0.007267 0.025263 0.001769 0.000000 0.000000 0.000000
# 3 -0.002735 0.001769 0.014112 0.000000 0.000000 0.000000
# 4 0.000000 0.000000 0.000000 0.196999 0.000000 0.000000
# 5 0.000000 0.000000 0.000000 0.000000 0.025977 0.000000
# 6 0.000000 0.000000 0.000000 0.000000 0.000000 0.035364
#
#
# Mechanical properties :
#
#
# Convention : Reuss Voigt Hill
#
# Bulk Modulus (GPa) = 28.65275 35.25501 31.95388
# Shear Modulus (GPa) = 14.80134 26.47563 20.63848
#
# Velocity S-wave (km/s) = 2.50911 3.35577 2.96284
# Velocity P-wave (km/s) = 4.53668 5.47818 5.02950
#
# Compressibility (1/GPa) = 0.03490067
#
# Stress axis : x y z
#
# Youngs Moduli (GPa) = 83.38722 39.58320 70.86191
#
# Poissons Ratio (x) = 0.28764 0.19383
# Poissons Ratio (y) = 0.60596 -0.12533
# Poissons Ratio (z) = 0.22809 -0.07001
#
# Static dielectric constant tensor:
#      x y z
#    x 1.964380 0.000000 0.000000 
#    y 0.000000 1.936200 0.000000 
#    z 0.000000 0.000000 1.907410 
# 
# From -- ./inp_files/21010.got.cif
#   From: 2010.05.17/outbox.cif.g08.bks.cpg/sg56_11_cif.got.tgz:21010.got - 2010.06.03 13:42:01.
