data_PCOD9430162
_publ_section_title
;
Structure prediction by ZEFSAII (Michael W. Deem and Ramdas Pophale) SiO2 
 PCOD9430162
Probable space group: P C C N
;
_chemical_formula_sum "Si O2"
_cell_formula_units_Z 48
_cell_length_a 16.182160
_cell_length_b 23.813290
_cell_length_c 5.448256
_cell_angle_alpha 90.000000
_cell_angle_beta 90.000000
_cell_angle_gamma 90.000000
_cell_volume 2099.488004
_symmetry_space_group_name_H-M "P C C N"
_symmetry_group_IT_number 56
_symmetry_cell_setting 'orthorhombic'
loop_
_space_group_symop_operation_xyz
x,y,z
1/2-x,1/2-y,z
1/2+x,-y,1/2-z
-x,1/2+y,1/2-z
-x,-y,-z
1/2+x,1/2+y,-z
1/2-x,y,1/2+z
x,1/2-y,1/2+z
loop_
_atom_site_type_symbol
_atom_site_label
_atom_site_fract_x
_atom_site_fract_y
_atom_site_fract_z
Si Si1 0.230513 0.594308 0.008224
Si Si2 0.204415 0.027954 0.008196
Si Si3 0.540018 0.902233 0.516110
Si Si4 0.995016 0.785170 0.016710
Si Si5 0.041044 0.938441 0.513916
Si Si6 0.655286 0.269413 0.158338
O O1 0.252975 0.627042 0.760386
O O2 0.291178 0.540068 0.009866
O O3 0.139764 0.567796 0.004345
O O4 0.255662 0.045676 0.767012
O O5 0.114165 0.053143 0.984746
O O6 0.566400 0.837412 0.499354
O O7 0.493286 0.907809 0.773611
O O8 0.488072 0.914724 0.273264
O O9 0.985621 0.745249 0.778573
O O10 0.089807 0.810690 0.980422
O O11 0.000000 0.000000 0.500000
O O12 0.750000 0.250000 0.187785
O O13 0.632166 0.278197 0.445988
#
# Coordination Sequence:
#
# PCOD9430162 Si02
#       6
#     8   8   8   8   8   8
#     4  10  19  35  57  78 123 168 204 244 323 372
#     4  10  20  37  59  88 119 166 210 254 311 396
#     4  12  24  40  66 100 124 166 229 266 318 394
#     4  10  21  39  64  89 124 161 208 270 324 371
#     4  12  23  38  63  94 130 168 216 271 314 381
#     4   8  14  27  52  78 100 144 190 231 295 361
#
# _framework density 22.862717
#
# number of rings (size 3 to 8) (size 9 to 14) (size 15 to 20)
#    0.000    1.667    0.000    7.500    0.000    0.000 
#    0.000    0.000   44.000    3.000    0.000    0.000 
#    0.000    0.000    0.000    0.000    0.000    0.000 
#
# Total GULP energy -267330.963779 kJ/mol
# GULP energy per Si atom -5569.395079 kJ/mol
# Density = 2.281068 g / cm^3
# Si number density = 22.862717 Si / 1000 Ang^3
#
#
#
# Elastic Constant Matrix: (Units=GPa)
#
#
# Indices 1 2 3 4 5 6 
#
# 1 67.2424 21.1134 34.0385 0.0000 0.0000 0.0000
# 2 21.1134 106.1519 88.6062 0.0000 0.0000 0.0000
# 3 34.0385 88.6062 439.8976 0.0000 0.0000 0.0000
# 4 0.0000 0.0000 0.0000 53.7830 0.0000 0.0000
# 5 0.0000 0.0000 0.0000 0.0000 4.6892 0.0000
# 6 0.0000 0.0000 0.0000 0.0000 0.0000 4.6493
#
#
#
# Elastic Compliance Matrix: (Units=1/GPa)
#
#
# Indices 1 2 3 4 5 6 
#
# 1 0.016050 -0.002591 -0.000720 0.000000 0.000000 0.000000
# 2 -0.002591 0.011743 -0.002165 0.000000 0.000000 0.000000
# 3 -0.000720 -0.002165 0.002765 0.000000 0.000000 0.000000
# 4 0.000000 0.000000 0.000000 0.018593 0.000000 0.000000
# 5 0.000000 0.000000 0.000000 0.000000 0.213255 0.000000
# 6 0.000000 0.000000 0.000000 0.000000 0.000000 0.215088
#
#
# Mechanical properties :
#
#
# Convention : Reuss Voigt Hill
#
# Bulk Modulus (GPa) = 51.00627 100.08976 75.54802
# Shear Modulus (GPa) = 10.10139 43.92655 27.01397
#
# Velocity S-wave (km/s) = 2.10425 4.38804 3.44113
# Velocity P-wave (km/s) = 5.31621 8.33947 6.99317
#
# Compressibility (1/GPa) = 0.01960543
#
# Stress axis : x y z
#
# Youngs Moduli (GPa) = 62.30671 85.15827 361.66297
#
# Poissons Ratio (x) = 0.22067 0.26038
# Poissons Ratio (y) = 0.16146 0.78292
# Poissons Ratio (z) = 0.04486 0.18435
#
# Static dielectric constant tensor:
#      x y z
#    x 1.912550 0.000000 0.000000 
#    y 0.000000 1.838970 0.000000 
#    z 0.000000 0.000000 1.611720 
# 
# From -- ./inp_files/514.got.cif
#   From: 2010.05.17/outbox.cif.g08.bks.cpg/sg56_1_cif.got.tgz:514.got - 2010.06.03 13:42:01.
