data_PCOD9430050
_publ_section_title
;
Structure prediction by ZEFSAII (Michael W. Deem and Ramdas Pophale) SiO2 
 PCOD9430050
Probable space group: P C C N
;
_chemical_formula_sum "Si O2"
_cell_formula_units_Z 56
_cell_length_a 28.548865
_cell_length_b 5.095892
_cell_length_c 19.722230
_cell_angle_alpha 90.000000
_cell_angle_beta 90.000000
_cell_angle_gamma 90.000000
_cell_volume 2869.228139
_symmetry_space_group_name_H-M "P C C N"
_symmetry_group_IT_number 56
_symmetry_cell_setting 'orthorhombic'
loop_
_space_group_symop_operation_xyz
x,y,z
1/2-x,1/2-y,z
1/2+x,-y,1/2-z
-x,1/2+y,1/2-z
-x,-y,-z
1/2+x,1/2+y,-z
1/2-x,y,1/2+z
x,1/2-y,1/2+z
loop_
_atom_site_type_symbol
_atom_site_label
_atom_site_fract_x
_atom_site_fract_y
_atom_site_fract_z
Si Si1 0.834643 0.652303 0.448357
Si Si2 0.415488 0.111454 0.656087
Si Si3 0.604511 0.384986 0.253809
Si Si4 0.009995 0.777978 0.793711
Si Si5 0.703034 0.162940 0.009791
Si Si6 0.292090 0.940776 0.275755
Si Si7 0.250000 0.250000 0.151880
Si Si8 0.250000 0.250000 0.386485
O O1 0.883374 0.620810 0.409843
O O2 0.825538 0.436515 0.507549
O O3 0.792145 0.634796 0.393390
O O4 0.829063 0.946978 0.474975
O O5 0.408897 0.827146 0.689290
O O6 0.397508 0.329818 0.710642
O O7 0.470869 0.172349 0.649424
O O8 0.564230 0.352009 0.196973
O O9 0.656506 0.325274 0.228976
O O10 0.005370 0.481189 0.766437
O O11 0.750000 0.250000 0.970331
O O12 0.728027 0.987545 0.069123
O O13 0.250000 0.750000 0.294772
O O14 0.276490 0.053732 0.203133
O O15 0.290347 0.154730 0.335190
#
# Coordination Sequence:
#
# PCOD9430050 Si02
#       8
#     8   8   8   8   8   8   4   4
#     4  12  22  32  57  81 113 145 176 228 285 333
#     4  10  19  33  50  83 118 142 180 217 273 347
#     4  10  19  34  53  80 114 151 181 213 275 333
#     4   8  16  30  51  73 110 152 177 211 257 334
#     4  12  22  39  55  74 103 147 194 232 267 324
#     4  11  24  35  57  79 119 151 185 233 274 335
#     4  11  21  32  48  88 115 145 166 222 290 349
#     4  11  25  44  54  74 107 155 208 238 262 321
#
# _framework density 19.517444999999999
#
# number of rings (size 3 to 8) (size 9 to 14) (size 15 to 20)
#    0.000    1.429    4.286    2.143    4.000    0.000 
#    0.000    0.000    0.000    0.000    0.000    2.000 
#    0.000    0.143    0.000    0.000    0.000    0.000 
#
# Total GULP energy -311795.686002 kJ/mol
# GULP energy per Si atom -5567.780107 kJ/mol
# Density = 1.947302 g / cm^3
# Si number density = 19.517445 Si / 1000 Ang^3
#
#
#
# Elastic Constant Matrix: (Units=GPa)
#
#
# Indices 1 2 3 4 5 6 
#
# 1 101.0216 -0.6484 -3.8120 0.0000 0.0000 0.0000
# 2 -0.6484 91.9795 8.7805 0.0000 0.0000 0.0000
# 3 -3.8120 8.7805 34.4169 0.0000 0.0000 0.0000
# 4 0.0000 0.0000 0.0000 22.7044 0.0000 0.0000
# 5 0.0000 0.0000 0.0000 0.0000 -3.3183 0.0000
# 6 0.0000 0.0000 0.0000 0.0000 0.0000 24.5866
#
#
#
# Elastic Compliance Matrix: (Units=1/GPa)
#
#
# Indices 1 2 3 4 5 6 
#
# 1 0.009941 -0.000036 0.001110 0.000000 0.000000 0.000000
# 2 -0.000036 0.011144 -0.002847 0.000000 0.000000 0.000000
# 3 0.001110 -0.002847 0.029905 0.000000 0.000000 0.000000
# 4 0.000000 0.000000 0.000000 0.044044 0.000000 0.000000
# 5 0.000000 0.000000 0.000000 0.000000 -0.301359 0.000000
# 6 0.000000 0.000000 0.000000 0.000000 0.000000 0.040673
#
#
# Mechanical properties :
#
#
# Convention : Reuss Voigt Hill
#
# Bulk Modulus (GPa) = 21.07770 26.22868 23.65319
# Shear Modulus (GPa) = -34.17781 23.66772 -5.25504
#
# Velocity S-wave (km/s) = -4.18920 3.48608 -1.64266
# Velocity P-wave (km/s) = 3.54632 5.44715 2.92362
#
# Compressibility (1/GPa) = 0.04744351
#
# Stress axis : x y z
#
# Youngs Moduli (GPa) = 100.59826 89.73834 33.43947
#
# Poissons Ratio (x) = 0.00322 -0.03712
# Poissons Ratio (y) = 0.00361 0.09520
# Poissons Ratio (z) = -0.11168 0.25548
#
# Static dielectric constant tensor:
#      x y z
#    x 1.713480 0.000000 0.000000 
#    y 0.000000 1.765210 0.000000 
#    z 0.000000 0.000000 1.685350 
# 
# From -- ./inp_files/19650.got.cif
#   From: 2010.05.17/outbox.cif.g08.bks.cpg/sg56_10_cif.got.tgz:19650.got - 2010.06.03 13:42:01.
