data_PCOD9430828
_publ_section_title
;
Structure prediction by ZEFSAII (Michael W. Deem and Ramdas Pophale) SiO2 
 PCOD9430828
Probable space group: P C C N
;
_chemical_formula_sum "Si O2"
_cell_formula_units_Z 64
_cell_length_a 14.902475
_cell_length_b 9.703972
_cell_length_c 20.077118
_cell_angle_alpha 90.000000
_cell_angle_beta 90.000000
_cell_angle_gamma 90.000000
_cell_volume 2903.416283
_symmetry_space_group_name_H-M "P C C N"
_symmetry_group_IT_number 56
_symmetry_cell_setting 'orthorhombic'
loop_
_space_group_symop_operation_xyz
x,y,z
1/2-x,1/2-y,z
1/2+x,-y,1/2-z
-x,1/2+y,1/2-z
-x,-y,-z
1/2+x,1/2+y,-z
1/2-x,y,1/2+z
x,1/2-y,1/2+z
loop_
_atom_site_type_symbol
_atom_site_label
_atom_site_fract_x
_atom_site_fract_y
_atom_site_fract_z
Si Si1 0.501017 0.422923 0.571052
Si Si2 0.895080 0.683363 0.752727
Si Si3 0.404289 0.184749 0.887197
Si Si4 0.249494 0.478171 0.828086
Si Si5 0.145957 0.222796 0.027502
Si Si6 0.906664 0.940046 0.855741
Si Si7 0.901346 0.331923 0.636329
Si Si8 0.090084 0.635296 0.754658
O O1 0.500000 0.500000 0.500000
O O2 0.527623 0.557422 0.611970
O O3 0.406738 0.340945 0.570779
O O4 0.573923 0.302452 0.590881
O O5 0.923959 0.737267 0.680266
O O6 0.807945 0.595944 0.730473
O O7 0.882748 0.814036 0.802935
O O8 0.985772 0.603349 0.773680
O O9 0.303682 0.124548 0.876513
O O10 0.402493 0.271117 0.955632
O O11 0.311724 0.580517 0.871002
O O12 0.168607 0.558214 0.793884
O O13 0.250000 0.250000 0.019168
O O14 0.138592 0.088501 0.073759
O O15 0.012105 0.926498 0.870281
O O16 0.891918 0.084851 0.819790
O O17 0.899833 0.286486 0.714489
#
# Coordination Sequence:
#
# PCOD9430828 Si02
#       8
#     8   8   8   8   8   8   8   8
#     4   9  19  38  64  86 120 167 213 263 326 389
#     4  11  23  39  63  92 128 162 216 271 325 401
#     4  11  22  40  65  93 124 169 227 269 325 396
#     4  12  22  36  65  96 126 165 214 285 325 385
#     4  10  22  38  62  91 121 163 218 265 320 395
#     4  10  21  39  59  85 127 163 206 258 331 393
#     4  10  20  38  58  93 126 163 213 270 322 390
#     4  11  22  37  58  93 124 164 206 267 333 393
#
# _framework density 22.042999999999999
#
# number of rings (size 3 to 8) (size 9 to 14) (size 15 to 20)
#    0.000    1.500    3.750    1.500    1.750    0.000 
#    0.000    1.875    5.500    0.000    0.000    0.000 
#    0.000    0.000    0.000    0.000    0.000    0.000 
#
# Total GULP energy -356282.415746 kJ/mol
# GULP energy per Si atom -5566.912746 kJ/mol
# Density = 2.199283 g / cm^3
# Si number density = 22.043000 Si / 1000 Ang^3
#
#
#
# Elastic Constant Matrix: (Units=GPa)
#
#
# Indices 1 2 3 4 5 6 
#
# 1 77.2179 15.2893 19.6577 0.0000 0.0000 0.0000
# 2 15.2893 38.6857 20.5960 0.0000 0.0000 0.0000
# 3 19.6577 20.5960 96.6834 0.0000 0.0000 0.0000
# 4 0.0000 0.0000 0.0000 31.8361 0.0000 0.0000
# 5 0.0000 0.0000 0.0000 0.0000 27.2828 0.0000
# 6 0.0000 0.0000 0.0000 0.0000 0.0000 35.9535
#
#
#
# Elastic Compliance Matrix: (Units=1/GPa)
#
#
# Indices 1 2 3 4 5 6 
#
# 1 0.014362 -0.004649 -0.001930 0.000000 0.000000 0.000000
# 2 -0.004649 0.030661 -0.005586 0.000000 0.000000 0.000000
# 3 -0.001930 -0.005586 0.011925 0.000000 0.000000 0.000000
# 4 0.000000 0.000000 0.000000 0.031411 0.000000 0.000000
# 5 0.000000 0.000000 0.000000 0.000000 0.036653 0.000000
# 6 0.000000 0.000000 0.000000 0.000000 0.000000 0.027814
#
#
# Mechanical properties :
#
#
# Convention : Reuss Voigt Hill
#
# Bulk Modulus (GPa) = 30.65745 35.96368 33.31057
# Shear Modulus (GPa) = 26.59170 29.48408 28.03789
#
# Velocity S-wave (km/s) = 3.47703 3.66125 3.57033
# Velocity P-wave (km/s) = 5.48251 5.85010 5.66928
#
# Compressibility (1/GPa) = 0.03261850
#
# Stress axis : x y z
#
# Youngs Moduli (GPa) = 69.62771 32.61501 83.85438
#
# Poissons Ratio (x) = 0.15162 0.16182
# Poissons Ratio (y) = 0.32368 0.46844
# Poissons Ratio (z) = 0.13437 0.18220
#
# Static dielectric constant tensor:
#      x y z
#    x 1.884300 0.000000 0.000000 
#    y 0.000000 1.934210 0.000000 
#    z 0.000000 0.000000 1.914950 
# 
# From -- ./inp_files/16337.got.cif
#   From: 2010.05.17/outbox.cif.g08.bks.cpg/sg56_9_cif.got.tgz:16337.got - 2010.06.03 13:42:01.
