data_PCOD9430666
_publ_section_title
;
Structure prediction by ZEFSAII (Michael W. Deem and Ramdas Pophale) SiO2 
 PCOD9430666
Probable space group: P C C N
;
_chemical_formula_sum "Si O2"
_cell_formula_units_Z 56
_cell_length_a 19.650100
_cell_length_b 8.787440
_cell_length_c 13.758287
_cell_angle_alpha 90.000000
_cell_angle_beta 90.000000
_cell_angle_gamma 90.000000
_cell_volume 2375.699478
_symmetry_space_group_name_H-M "P C C N"
_symmetry_group_IT_number 56
_symmetry_cell_setting 'orthorhombic'
loop_
_space_group_symop_operation_xyz
x,y,z
1/2-x,1/2-y,z
1/2+x,-y,1/2-z
-x,1/2+y,1/2-z
-x,-y,-z
1/2+x,1/2+y,-z
1/2-x,y,1/2+z
x,1/2-y,1/2+z
loop_
_atom_site_type_symbol
_atom_site_label
_atom_site_fract_x
_atom_site_fract_y
_atom_site_fract_z
Si Si1 0.860736 0.933416 0.559124
Si Si2 0.780667 0.586006 0.858369
Si Si3 0.088540 0.554062 0.250236
Si Si4 0.929143 0.863491 0.067064
Si Si5 0.181286 0.723426 0.842352
Si Si6 0.551886 0.341958 0.442401
Si Si7 0.662949 0.098085 0.458065
O O1 0.817017 0.896593 0.463651
O O2 0.881979 0.774635 0.603094
O O3 0.823902 0.048078 0.630510
O O4 0.924802 0.032850 0.519765
O O5 0.750000 0.750000 0.828494
O O6 0.841328 0.527039 0.787937
O O7 0.719956 0.468041 0.886562
O O8 0.055399 0.464034 0.339098
O O9 0.113817 0.714475 0.293080
O O10 0.038654 0.577013 0.160009
O O11 0.994882 0.777110 0.025694
O O12 0.888136 0.962598 0.989134
O O13 0.250000 0.750000 0.783838
O O14 0.188847 0.831051 0.939056
O O15 0.619079 0.239844 0.420225
#
# Coordination Sequence:
#
# PCOD9430666 Si02
#       7
#     8   8   8   8   8   8   8
#     4  10  21  38  69  91 117 167 209 265 301 366
#     4  11  21  41  62  95 127 153 210 261 323 363
#     4  10  26  39  58  94 128 164 202 257 320 381
#     4  11  22  44  63  92 128 165 214 254 311 373
#     4  10  20  36  59  93 123 156 202 251 314 372
#     4  10  23  42  63  92 125 168 217 250 308 373
#     4  10  21  39  68  90 119 166 208 265 299 368
#
# _framework density 23.572006999999999
#
# number of rings (size 3 to 8) (size 9 to 14) (size 15 to 20)
#    0.000    1.714    2.857    0.857    2.000    2.286 
#    2.571    2.857    0.000    0.000    0.000    0.000 
#    0.000    0.000    0.000    0.000    0.000    0.000 
#
# Total GULP energy -312986.004397 kJ/mol
# GULP energy per Si atom -5589.035793 kJ/mol
# Density = 2.351836 g / cm^3
# Si number density = 23.572007 Si / 1000 Ang^3
#
#
#
# Elastic Constant Matrix: (Units=GPa)
#
#
# Indices 1 2 3 4 5 6 
#
# 1 40.2882 -2.2238 -2.1393 0.0000 0.0000 0.0000
# 2 -2.2238 81.2815 8.4065 0.0000 0.0000 0.0000
# 3 -2.1393 8.4065 52.2032 0.0000 0.0000 0.0000
# 4 0.0000 0.0000 0.0000 13.3452 0.0000 0.0000
# 5 0.0000 0.0000 0.0000 0.0000 18.6087 0.0000
# 6 0.0000 0.0000 0.0000 0.0000 0.0000 47.2243
#
#
#
# Elastic Compliance Matrix: (Units=1/GPa)
#
#
# Indices 1 2 3 4 5 6 
#
# 1 0.024903 0.000586 0.000926 0.000000 0.000000 0.000000
# 2 0.000586 0.012525 -0.001993 0.000000 0.000000 0.000000
# 3 0.000926 -0.001993 0.019515 0.000000 0.000000 0.000000
# 4 0.000000 0.000000 0.000000 0.074934 0.000000 0.000000
# 5 0.000000 0.000000 0.000000 0.000000 0.053738 0.000000
# 6 0.000000 0.000000 0.000000 0.000000 0.000000 0.021176
#
#
# Mechanical properties :
#
#
# Convention : Reuss Voigt Hill
#
# Bulk Modulus (GPa) = 17.86349 20.20664 19.03507
# Shear Modulus (GPa) = 22.08360 27.15094 24.61727
#
# Velocity S-wave (km/s) = 3.06413 3.39754 3.23514
# Velocity P-wave (km/s) = 4.48478 4.89714 4.69549
#
# Compressibility (1/GPa) = 0.05598010
#
# Stress axis : x y z
#
# Youngs Moduli (GPa) = 40.15634 79.83993 51.24313
#
# Poissons Ratio (x) = -0.04675 -0.04746
# Poissons Ratio (y) = -0.02351 0.10213
# Poissons Ratio (z) = -0.03719 0.15912
#
# Static dielectric constant tensor:
#      x y z
#    x 1.972580 0.000000 0.000000 
#    y 0.000000 1.880430 0.000000 
#    z 0.000000 0.000000 1.868680 
# 
# From -- ./inp_files/10901.got.cif
#   From: 2010.05.17/outbox.cif.g08.bks.cpg/sg56_6_cif.got.tgz:10901.got - 2010.06.03 13:42:01.
