data_PCOD9430276
_publ_section_title
;
Structure prediction by ZEFSAII (Michael W. Deem and Ramdas Pophale) SiO2 
 PCOD9430276
Probable space group: P C C N
;
_chemical_formula_sum "Si O2"
_cell_formula_units_Z 64
_cell_length_a 26.899285
_cell_length_b 11.228739
_cell_length_c 9.818807
_cell_angle_alpha 90.000000
_cell_angle_beta 90.000000
_cell_angle_gamma 90.000000
_cell_volume 2965.722057
_symmetry_space_group_name_H-M "P C C N"
_symmetry_group_IT_number 56
_symmetry_cell_setting 'orthorhombic'
loop_
_space_group_symop_operation_xyz
x,y,z
1/2-x,1/2-y,z
1/2+x,-y,1/2-z
-x,1/2+y,1/2-z
-x,-y,-z
1/2+x,1/2+y,-z
1/2-x,y,1/2+z
x,1/2-y,1/2+z
loop_
_atom_site_type_symbol
_atom_site_label
_atom_site_fract_x
_atom_site_fract_y
_atom_site_fract_z
Si Si1 0.437360 0.172807 0.777657
Si Si2 0.442838 0.502541 0.044259
Si Si3 0.423942 0.960871 0.994518
Si Si4 0.291073 0.538482 0.773675
Si Si5 0.780485 0.124332 0.939329
Si Si6 0.895321 0.931201 0.228448
Si Si7 0.042474 0.795603 0.269784
Si Si8 0.860834 0.216976 0.351012
O O1 0.407141 0.293505 0.795449
O O2 0.494897 0.216992 0.768076
O O3 0.427670 0.111538 0.632820
O O4 0.424871 0.073227 0.891647
O O5 0.445571 0.610141 0.150532
O O6 0.500000 0.500000 0.000000
O O7 0.410744 0.500451 0.908163
O O8 0.459681 0.865546 0.914752
O O9 0.376368 0.874903 0.028058
O O10 0.428851 0.021106 0.144159
O O11 0.242947 0.545699 0.680438
O O12 0.336792 0.450186 0.742327
O O13 0.316928 0.664653 0.739869
O O14 0.276916 0.542658 0.929139
O O15 0.750000 0.250000 0.962053
O O16 0.837121 0.163204 0.909476
O O17 0.092845 0.722445 0.250772
#
# Coordination Sequence:
#
# PCOD9430276 Si02
#       8
#     8   8   8   8   8   8   8   8
#     4  11  25  42  62  90 136 189 237 280 329 395
#     4  11  24  41  58  93 131 183 231 283 327 388
#     4  10  25  40  61  93 124 182 233 284 335 408
#     4  10  22  36  64  95 129 164 206 278 341 437
#     4  10  19  37  60  97 131 160 204 267 360 409
#     4  11  23  43  64  92 132 178 235 283 347 403
#     4  11  24  39  62  93 137 182 230 278 337 399
#     4  10  21  36  64  96 132 169 216 279 346 412
#
# _framework density 21.579906000000001
#
# number of rings (size 3 to 8) (size 9 to 14) (size 15 to 20)
#    0.000    1.500    1.250    3.375    5.250    3.000 
#    0.000    0.000    0.000    0.000    0.000   71.750 
#    0.000    0.000    0.000    0.000    0.000    0.000 
#
# Total GULP energy -356762.769014 kJ/mol
# GULP energy per Si atom -5574.418266 kJ/mol
# Density = 2.153079 g / cm^3
# Si number density = 21.579906 Si / 1000 Ang^3
#
#
#
# Elastic Constant Matrix: (Units=GPa)
#
#
# Indices 1 2 3 4 5 6 
#
# 1 79.1424 31.9310 36.4758 0.0000 0.0000 0.0000
# 2 31.9310 73.0872 63.4022 0.0000 0.0000 0.0000
# 3 36.4758 63.4022 140.6722 0.0000 0.0000 0.0000
# 4 0.0000 0.0000 0.0000 22.2856 0.0000 0.0000
# 5 0.0000 0.0000 0.0000 0.0000 24.8052 0.0000
# 6 0.0000 0.0000 0.0000 0.0000 0.0000 18.4013
#
#
#
# Elastic Compliance Matrix: (Units=1/GPa)
#
#
# Indices 1 2 3 4 5 6 
#
# 1 0.015554 -0.005413 -0.001593 0.000000 0.000000 0.000000
# 2 -0.005413 0.024350 -0.009571 0.000000 0.000000 0.000000
# 3 -0.001593 -0.009571 0.011836 0.000000 0.000000 0.000000
# 4 0.000000 0.000000 0.000000 0.044872 0.000000 0.000000
# 5 0.000000 0.000000 0.000000 0.000000 0.040314 0.000000
# 6 0.000000 0.000000 0.000000 0.000000 0.000000 0.054344
#
#
# Mechanical properties :
#
#
# Convention : Reuss Voigt Hill
#
# Bulk Modulus (GPa) = 53.80874 61.83554 57.82214
# Shear Modulus (GPa) = 21.68070 23.83793 22.75931
#
# Velocity S-wave (km/s) = 3.17309 3.32721 3.25107
# Velocity P-wave (km/s) = 6.19786 6.59370 6.39884
#
# Compressibility (1/GPa) = 0.01858434
#
# Stress axis : x y z
#
# Youngs Moduli (GPa) = 64.29307 41.06751 84.49009
#
# Poissons Ratio (x) = 0.22230 0.13462
# Poissons Ratio (y) = 0.34803 0.80867
# Poissons Ratio (z) = 0.10244 0.39307
#
# Static dielectric constant tensor:
#      x y z
#    x 1.894840 0.000000 0.000000 
#    y 0.000000 1.853690 0.000000 
#    z 0.000000 0.000000 1.821030 
# 
# From -- ./inp_files/5211.got.cif
#   From: 2010.05.17/outbox.cif.g08.bks.cpg/sg56_3_cif.got.tgz:5211.got - 2010.06.03 13:42:01.
