data_PCOD9430719
_publ_section_title
;
Structure prediction by ZEFSAII (Michael W. Deem and Ramdas Pophale) SiO2 
 PCOD9430719
Probable space group: P C C N
;
_chemical_formula_sum "Si O2"
_cell_formula_units_Z 48
_cell_length_a 26.480498
_cell_length_b 8.260279
_cell_length_c 9.384784
_cell_angle_alpha 90.000000
_cell_angle_beta 90.000000
_cell_angle_gamma 90.000000
_cell_volume 2052.792943
_symmetry_space_group_name_H-M "P C C N"
_symmetry_group_IT_number 56
_symmetry_cell_setting 'orthorhombic'
loop_
_space_group_symop_operation_xyz
x,y,z
1/2-x,1/2-y,z
1/2+x,-y,1/2-z
-x,1/2+y,1/2-z
-x,-y,-z
1/2+x,1/2+y,-z
1/2-x,y,1/2+z
x,1/2-y,1/2+z
loop_
_atom_site_type_symbol
_atom_site_label
_atom_site_fract_x
_atom_site_fract_y
_atom_site_fract_z
Si Si1 0.114098 0.254856 0.807531
Si Si2 0.548210 0.306710 0.419516
Si Si3 0.637398 0.971691 0.926352
Si Si4 0.288978 0.399530 0.168802
Si Si5 0.007380 0.358284 0.206190
Si Si6 0.242896 0.935912 0.438463
O O1 0.154691 0.365994 0.723696
O O2 0.055510 0.242032 0.763603
O O3 0.133190 0.083252 0.738612
O O4 0.116387 0.327591 0.968316
O O5 0.604702 0.366312 0.450264
O O6 0.536919 0.152616 0.322707
O O7 0.526429 0.463110 0.333729
O O8 0.516687 0.288773 0.562878
O O9 0.693650 0.999720 0.978619
O O10 0.250000 0.250000 0.187507
O O11 0.266695 0.535115 0.273121
O O12 0.287212 0.455935 0.006079
O O13 0.250000 0.750000 0.468312
#
# Coordination Sequence:
#
# PCOD9430719 Si02
#       6
#     8   8   8   8   8   8
#     4  10  20  36  66  93 119 164 215 261 303 369
#     4  10  22  41  62  91 130 161 211 257 316 375
#     4  10  22  42  64  94 127 167 214 262 316 383
#     4  11  22  40  66  91 122 165 221 261 308 379
#     4  10  20  40  63  90 127 163 204 263 311 377
#     4  11  24  43  61  94 133 164 206 273 331 380
#
# _framework density 23.382777000000001
#
# number of rings (size 3 to 8) (size 9 to 14) (size 15 to 20)
#    0.000    1.667    1.667    4.000    2.333    0.667 
#   12.000    3.333    0.000    0.000    0.000    0.000 
#    0.000    0.000    0.000    0.000    0.000    0.000 
#
# Total GULP energy -267850.971314 kJ/mol
# GULP energy per Si atom -5580.228569 kJ/mol
# Density = 2.332956 g / cm^3
# Si number density = 23.382777 Si / 1000 Ang^3
#
#
#
# Elastic Constant Matrix: (Units=GPa)
#
#
# Indices 1 2 3 4 5 6 
#
# 1 75.6786 10.3312 24.1753 0.0000 0.0000 0.0000
# 2 10.3312 15.8956 -0.0868 0.0000 0.0000 0.0000
# 3 24.1753 -0.0868 46.1607 0.0000 0.0000 0.0000
# 4 0.0000 0.0000 0.0000 15.4723 0.0000 0.0000
# 5 0.0000 0.0000 0.0000 0.0000 14.1001 0.0000
# 6 0.0000 0.0000 0.0000 0.0000 0.0000 36.4288
#
#
#
# Elastic Compliance Matrix: (Units=1/GPa)
#
#
# Indices 1 2 3 4 5 6 
#
# 1 0.017780 -0.011607 -0.009333 0.000000 0.000000 0.000000
# 2 -0.011607 0.070488 0.006211 0.000000 0.000000 0.000000
# 3 -0.009333 0.006211 0.026563 0.000000 0.000000 0.000000
# 4 0.000000 0.000000 0.000000 0.064631 0.000000 0.000000
# 5 0.000000 0.000000 0.000000 0.000000 0.070922 0.000000
# 6 0.000000 0.000000 0.000000 0.000000 0.000000 0.027451
#
#
# Mechanical properties :
#
#
# Convention : Reuss Voigt Hill
#
# Bulk Modulus (GPa) = 11.71329 22.95269 17.33299
# Shear Modulus (GPa) = 14.89201 20.08793 17.48997
#
# Velocity S-wave (km/s) = 2.52639 2.93420 2.73790
# Velocity P-wave (km/s) = 3.67837 4.61701 4.17416
#
# Compressibility (1/GPa) = 0.08537311
#
# Stress axis : x y z
#
# Youngs Moduli (GPa) = 56.24363 14.18682 37.64596
#
# Poissons Ratio (x) = 0.16466 0.35137
# Poissons Ratio (y) = 0.65281 -0.23383
# Poissons Ratio (z) = 0.52495 -0.08812
#
# Static dielectric constant tensor:
#      x y z
#    x 1.903220 0.000000 0.000000 
#    y 0.000000 1.902830 0.000000 
#    z 0.000000 0.000000 1.886100 
# 
# From -- ./inp_files/5120.got.cif
#   From: 2010.05.17/outbox.cif.g08.bks.cpg/sg56_3_cif.got.tgz:5120.got - 2010.06.03 13:42:01.
