data_PCOD9430249
_publ_section_title
;
Structure prediction by ZEFSAII (Michael W. Deem and Ramdas Pophale) SiO2 
 PCOD9430249
Probable space group: P C C N
;
_chemical_formula_sum "Si O2"
_cell_formula_units_Z 40
_cell_length_a 10.652705
_cell_length_b 9.727548
_cell_length_c 18.379163
_cell_angle_alpha 90.000000
_cell_angle_beta 90.000000
_cell_angle_gamma 90.000000
_cell_volume 1904.535238
_symmetry_space_group_name_H-M "P C C N"
_symmetry_group_IT_number 56
_symmetry_cell_setting 'orthorhombic'
loop_
_space_group_symop_operation_xyz
x,y,z
1/2-x,1/2-y,z
1/2+x,-y,1/2-z
-x,1/2+y,1/2-z
-x,-y,-z
1/2+x,1/2+y,-z
1/2-x,y,1/2+z
x,1/2-y,1/2+z
loop_
_atom_site_type_symbol
_atom_site_label
_atom_site_fract_x
_atom_site_fract_y
_atom_site_fract_z
Si Si1 0.039362 0.952126 0.748195
Si Si2 0.854699 0.629747 0.626201
Si Si3 0.826556 0.446063 0.046676
Si Si4 0.879452 0.312972 0.197165
Si Si5 0.451343 0.849587 0.089276
O O1 0.019310 0.805470 0.786727
O O2 0.084109 0.917008 0.666533
O O3 0.127931 0.041440 0.800521
O O4 0.918212 0.046457 0.735256
O O5 0.750000 0.750000 0.636247
O O6 0.802699 0.523084 0.566001
O O7 0.986453 0.701580 0.605365
O O8 0.860860 0.343265 0.112325
O O9 0.930872 0.565754 0.055723
O O10 0.843802 0.371750 0.970070
O O11 0.750000 0.250000 0.225743
#
# Coordination Sequence:
#
# PCOD9430249 Si02
#       5
#     8   8   8   8   8
#     4  11  21  37  64  93 125 166 212 269 314 383
#     4  10  19  36  64  90 125 170 215 261 329 380
#     4   9  19  37  62  84 126 173 205 262 325 383
#     4  11  22  38  63  91 129 168 212 266 326 378
#     4   9  19  37  59  92 123 163 219 263 313 383
#
# _framework density 21.002497999999999
#
# number of rings (size 3 to 8) (size 9 to 14) (size 15 to 20)
#    0.000    2.000    4.000    0.000    0.000    0.000 
#    0.000   11.000    0.000    0.000    0.000    0.000 
#    0.000    0.000    0.000    0.000    0.000    0.000 
#
# Total GULP energy -223039.692615 kJ/mol
# GULP energy per Si atom -5575.992315 kJ/mol
# Density = 2.095470 g / cm^3
# Si number density = 21.002498 Si / 1000 Ang^3
#
#
#
# Elastic Constant Matrix: (Units=GPa)
#
#
# Indices 1 2 3 4 5 6 
#
# 1 55.9607 41.8063 53.6910 0.0000 0.0000 0.0000
# 2 41.8063 123.9645 60.9669 0.0000 0.0000 0.0000
# 3 53.6910 60.9669 106.7484 0.0000 0.0000 0.0000
# 4 0.0000 0.0000 0.0000 7.7247 0.0000 0.0000
# 5 0.0000 0.0000 0.0000 0.0000 20.3999 0.0000
# 6 0.0000 0.0000 0.0000 0.0000 0.0000 31.0473
#
#
#
# Elastic Compliance Matrix: (Units=1/GPa)
#
#
# Indices 1 2 3 4 5 6 
#
# 1 0.036280 -0.004535 -0.015658 0.000000 0.000000 0.000000
# 2 -0.004535 0.011784 -0.004450 0.000000 0.000000 0.000000
# 3 -0.015658 -0.004450 0.019785 0.000000 0.000000 0.000000
# 4 0.000000 0.000000 0.000000 0.129455 0.000000 0.000000
# 5 0.000000 0.000000 0.000000 0.000000 0.049020 0.000000
# 6 0.000000 0.000000 0.000000 0.000000 0.000000 0.032209
#
#
# Mechanical properties :
#
#
# Convention : Reuss Voigt Hill
#
# Bulk Modulus (GPa) = 53.86523 66.62244 60.24383
# Shear Modulus (GPa) = 14.96980 20.51501 17.74240
#
# Velocity S-wave (km/s) = 2.67266 3.12875 2.90966
# Velocity P-wave (km/s) = 5.93522 6.69643 6.32728
#
# Compressibility (1/GPa) = 0.01856485
#
# Stress axis : x y z
#
# Youngs Moduli (GPa) = 27.56326 84.85740 50.54434
#
# Poissons Ratio (x) = 0.38479 0.79142
# Poissons Ratio (y) = 0.12499 0.22491
# Poissons Ratio (z) = 0.43158 0.37759
#
# Static dielectric constant tensor:
#      x y z
#    x 1.831510 0.000000 0.000000 
#    y 0.000000 1.806160 0.000000 
#    z 0.000000 0.000000 1.743020 
# 
# From -- ./inp_files/15416.got.cif
#   From: 2010.05.17/outbox.cif.g08.bks.cpg/sg56_8_cif.got.tgz:15416.got - 2010.06.03 13:42:01.
