data_PCOD9430915
_publ_section_title
;
Structure prediction by ZEFSAII (Michael W. Deem and Ramdas Pophale) SiO2 
 PCOD9430915
Probable space group: P C C N
;
_chemical_formula_sum "Si O2"
_cell_formula_units_Z 40
_cell_length_a 10.102241
_cell_length_b 18.234333
_cell_length_c 9.083997
_cell_angle_alpha 90.000000
_cell_angle_beta 90.000000
_cell_angle_gamma 90.000000
_cell_volume 1673.341526
_symmetry_space_group_name_H-M "P C C N"
_symmetry_group_IT_number 56
_symmetry_cell_setting 'orthorhombic'
loop_
_space_group_symop_operation_xyz
x,y,z
1/2-x,1/2-y,z
1/2+x,-y,1/2-z
-x,1/2+y,1/2-z
-x,-y,-z
1/2+x,1/2+y,-z
1/2-x,y,1/2+z
x,1/2-y,1/2+z
loop_
_atom_site_type_symbol
_atom_site_label
_atom_site_fract_x
_atom_site_fract_y
_atom_site_fract_z
Si Si1 0.363283 0.192694 0.382426
Si Si2 0.752592 0.329862 0.351420
Si Si3 0.857749 0.581395 0.113512
Si Si4 0.008603 0.304915 0.674666
Si Si5 0.902648 0.410241 0.103713
O O1 0.250000 0.250000 0.435996
O O2 0.290395 0.114448 0.389151
O O3 0.478550 0.193812 0.501591
O O4 0.416506 0.233301 0.237707
O O5 0.750000 0.250000 0.426688
O O6 0.638376 0.313013 0.230972
O O7 0.868374 0.365178 0.251622
O O8 0.695165 0.385527 0.471914
O O9 0.950353 0.597811 0.969247
O O10 0.918302 0.626510 0.249681
O O11 0.872287 0.495170 0.136022
#
# Coordination Sequence:
#
# PCOD9430915 Si02
#       5
#     8   8   8   8   8
#     4  10  20  38  64  93 125 164 210 266 319 381
#     4  11  25  41  65  89 130 170 217 261 326 389
#     4   9  21  42  66  92 130 166 216 269 324 384
#     4  10  23  39  63  95 126 166 214 262 322 382
#     4  10  23  44  65  93 127 174 211 270 325 389
#
# _framework density 23.904264000000001
#
# number of rings (size 3 to 8) (size 9 to 14) (size 15 to 20)
#    0.000    2.000    0.000    2.400   14.000    0.000 
#    0.000    1.000    0.000    0.000    0.000    0.000 
#    0.000    0.000    0.000    0.000    0.000    0.000 
#
# Total GULP energy -223540.354816 kJ/mol
# GULP energy per Si atom -5588.508870 kJ/mol
# Density = 2.384986 g / cm^3
# Si number density = 23.904264 Si / 1000 Ang^3
#
#
#
# Elastic Constant Matrix: (Units=GPa)
#
#
# Indices 1 2 3 4 5 6 
#
# 1 52.1143 44.4763 29.0248 0.0000 0.0000 0.0000
# 2 44.4763 172.5689 58.8602 0.0000 0.0000 0.0000
# 3 29.0248 58.8602 123.8960 0.0000 0.0000 0.0000
# 4 0.0000 0.0000 0.0000 38.0174 0.0000 0.0000
# 5 0.0000 0.0000 0.0000 0.0000 34.7862 0.0000
# 6 0.0000 0.0000 0.0000 0.0000 0.0000 29.5646
#
#
#
# Elastic Compliance Matrix: (Units=1/GPa)
#
#
# Indices 1 2 3 4 5 6 
#
# 1 0.025772 -0.005469 -0.003439 0.000000 0.000000 0.000000
# 2 -0.005469 0.008076 -0.002555 0.000000 0.000000 0.000000
# 3 -0.003439 -0.002555 0.010091 0.000000 0.000000 0.000000
# 4 0.000000 0.000000 0.000000 0.026304 0.000000 0.000000
# 5 0.000000 0.000000 0.000000 0.000000 0.028747 0.000000
# 6 0.000000 0.000000 0.000000 0.000000 0.000000 0.033824
#
#
# Mechanical properties :
#
#
# Convention : Reuss Voigt Hill
#
# Bulk Modulus (GPa) = 47.59406 68.14464 57.86935
# Shear Modulus (GPa) = 30.72297 34.88817 32.80557
#
# Velocity S-wave (km/s) = 3.58893 3.82448 3.70857
# Velocity P-wave (km/s) = 6.09322 6.93335 6.52682
#
# Compressibility (1/GPa) = 0.02101103
#
# Stress axis : x y z
#
# Youngs Moduli (GPa) = 38.80254 123.82422 99.09791
#
# Poissons Ratio (x) = 0.67720 0.34082
# Poissons Ratio (y) = 0.21221 0.25324
# Poissons Ratio (z) = 0.13345 0.31643
#
# Static dielectric constant tensor:
#      x y z
#    x 1.989860 0.000000 0.000000 
#    y 0.000000 1.894960 0.000000 
#    z 0.000000 0.000000 1.895790 
# 
# From -- ./inp_files/2556.got.cif
#   From: 2010.05.17/outbox.cif.g08.bks.cpg/sg56_2_cif.got.tgz:2556.got - 2010.06.03 13:42:01.
