data_PCOD9430909
_publ_section_title
;
Structure prediction by ZEFSAII (Michael W. Deem and Ramdas Pophale) SiO2 
 PCOD9430909
Probable space group: P C C N
;
_chemical_formula_sum "Si O2"
_cell_formula_units_Z 60
_cell_length_a 16.492299
_cell_length_b 10.085330
_cell_length_c 16.894467
_cell_angle_alpha 90.000000
_cell_angle_beta 90.000000
_cell_angle_gamma 90.000000
_cell_volume 2810.061391
_symmetry_space_group_name_H-M "P C C N"
_symmetry_group_IT_number 56
_symmetry_cell_setting 'orthorhombic'
loop_
_space_group_symop_operation_xyz
x,y,z
1/2-x,1/2-y,z
1/2+x,-y,1/2-z
-x,1/2+y,1/2-z
-x,-y,-z
1/2+x,1/2+y,-z
1/2-x,y,1/2+z
x,1/2-y,1/2+z
loop_
_atom_site_type_symbol
_atom_site_label
_atom_site_fract_x
_atom_site_fract_y
_atom_site_fract_z
Si Si1 0.891105 0.840844 0.694963
Si Si2 0.444531 0.192557 0.074772
Si Si3 0.542038 0.266843 0.416169
Si Si4 0.556361 0.975990 0.342271
Si Si5 0.737182 0.614745 0.441554
Si Si6 0.795429 0.121434 0.349868
Si Si7 0.582833 0.557536 0.267897
Si Si8 0.750000 0.750000 0.588004
O O1 0.888471 0.953222 0.763003
O O2 0.888521 0.698955 0.737592
O O3 0.814892 0.831067 0.637364
O O4 0.975246 0.828271 0.644932
O O5 0.433379 0.344054 0.105437
O O6 0.360062 0.125365 0.045572
O O7 0.464936 0.102188 0.151610
O O8 0.507135 0.202961 0.002944
O O9 0.629865 0.330273 0.404000
O O10 0.555092 0.112367 0.391652
O O11 0.469735 0.982796 0.297299
O O12 0.750000 0.750000 0.391185
O O13 0.759399 0.479578 0.400207
O O14 0.783611 0.643431 0.523443
O O15 0.750000 0.250000 0.319956
O O16 0.839743 0.031014 0.286359
#
# Coordination Sequence:
#
# PCOD9430909 Si02
#       8
#     8   8   8   8   8   8   8   4
#     4  10  20  39  63  93 124 169 215 269 316 392
#     4  10  20  38  64  91 118 170 215 268 315 386
#     4  11  21  37  64  94 124 170 217 265 326 382
#     4  10  21  37  61  95 129 163 213 270 324 387
#     4   9  21  40  61  89 125 163 219 270 308 388
#     4  11  24  40  62  89 132 168 208 272 329 382
#     4   9  21  40  60  87 129 165 216 261 324 392
#     4  10  20  38  66  90 126 160 228 262 316 380
#
# _framework density 21.351846999999999
#
# number of rings (size 3 to 8) (size 9 to 14) (size 15 to 20)
#    0.400    1.600    2.667    0.400    1.867    4.267 
#   13.200    0.000    2.933    0.000    0.000    0.000 
#    0.000    0.000    0.000    0.000    0.000    0.000 
#
# Total GULP energy -334227.101497 kJ/mol
# GULP energy per Si atom -5570.451692 kJ/mol
# Density = 2.130325 g / cm^3
# Si number density = 21.351847 Si / 1000 Ang^3
#
#
#
# Elastic Constant Matrix: (Units=GPa)
#
#
# Indices 1 2 3 4 5 6 
#
# 1 37.9291 13.6366 12.7961 0.0000 0.0000 0.0000
# 2 13.6366 107.3983 27.9729 0.0000 0.0000 0.0000
# 3 12.7961 27.9729 75.2123 0.0000 0.0000 0.0000
# 4 0.0000 0.0000 0.0000 0.2583 0.0000 0.0000
# 5 0.0000 0.0000 0.0000 0.0000 21.4319 0.0000
# 6 0.0000 0.0000 0.0000 0.0000 0.0000 32.8702
#
#
#
# Elastic Compliance Matrix: (Units=1/GPa)
#
#
# Indices 1 2 3 4 5 6 
#
# 1 0.028621 -0.002620 -0.003895 0.000000 0.000000 0.000000
# 2 -0.002620 0.010550 -0.003478 0.000000 0.000000 0.000000
# 3 -0.003895 -0.003478 0.015252 0.000000 0.000000 0.000000
# 4 0.000000 0.000000 0.000000 3.871085 0.000000 0.000000
# 5 0.000000 0.000000 0.000000 0.000000 0.046660 0.000000
# 6 0.000000 0.000000 0.000000 0.000000 0.000000 0.030423
#
#
# Mechanical properties :
#
#
# Convention : Reuss Voigt Hill
#
# Bulk Modulus (GPa) = 29.03833 36.59455 32.81644
# Shear Modulus (GPa) = 1.23945 21.98767 11.61356
#
# Velocity S-wave (km/s) = 0.76272 3.21250 2.33473
# Velocity P-wave (km/s) = 3.79541 5.56203 4.76137
#
# Compressibility (1/GPa) = 0.03443724
#
# Stress axis : x y z
#
# Youngs Moduli (GPa) = 34.93952 94.79029 65.56560
#
# Poissons Ratio (x) = 0.24831 0.25538
# Poissons Ratio (y) = 0.09153 0.22803
# Poissons Ratio (z) = 0.13609 0.32967
#
# Static dielectric constant tensor:
#      x y z
#    x 1.844540 0.000000 0.000000 
#    y 0.000000 1.799830 0.000000 
#    z 0.000000 0.000000 1.826750 
# 
# From -- ./inp_files/16643.got.cif
#   From: 2010.05.17/outbox.cif.g08.bks.cpg/sg56_9_cif.got.tgz:16643.got - 2010.06.03 13:42:01.
