data_PCOD9430797
_publ_section_title
;
Structure prediction by ZEFSAII (Michael W. Deem and Ramdas Pophale) SiO2 
 PCOD9430797
Probable space group: P C C N
;
_chemical_formula_sum "Si O2"
_cell_formula_units_Z 36
_cell_length_a 7.351300
_cell_length_b 16.362176
_cell_length_c 14.162443
_cell_angle_alpha 90.000000
_cell_angle_beta 90.000000
_cell_angle_gamma 90.000000
_cell_volume 1703.504876
_symmetry_space_group_name_H-M "P C C N"
_symmetry_group_IT_number 56
_symmetry_cell_setting 'orthorhombic'
loop_
_space_group_symop_operation_xyz
x,y,z
1/2-x,1/2-y,z
1/2+x,-y,1/2-z
-x,1/2+y,1/2-z
-x,-y,-z
1/2+x,1/2+y,-z
1/2-x,y,1/2+z
x,1/2-y,1/2+z
loop_
_atom_site_type_symbol
_atom_site_label
_atom_site_fract_x
_atom_site_fract_y
_atom_site_fract_z
Si Si1 0.750000 0.250000 0.713650
Si Si2 0.697400 0.556812 0.658672
Si Si3 0.110703 0.324903 0.681325
Si Si4 0.196256 0.027180 0.041988
Si Si5 0.376902 0.585922 0.199890
O O1 0.586067 0.210430 0.655384
O O2 0.667390 0.321654 0.777174
O O3 0.595726 0.626891 0.718670
O O4 0.676958 0.546896 0.546805
O O5 0.657930 0.470660 0.708906
O O6 0.910455 0.577268 0.676009
O O7 0.250000 0.250000 0.688125
O O8 0.173742 0.392431 0.606250
O O9 0.239908 0.954564 0.115344
O O10 0.000000 0.000000 0.000000
#
# Coordination Sequence:
#
# PCOD9430797 Si02
#       5
#     4   8   8   8   8
#     4  12  22  40  66  94 132 164 216 266 322 382
#     4  10  20  42  65  90 132 169 215 265 317 391
#     4  11  23  42  68  94 129 172 210 269 325 375
#     4   9  20  40  65  93 128 169 216 261 317 389
#     4  10  20  37  64  91 126 171 210 261 324 376
#
# _framework density 21.132901
#
# number of rings (size 3 to 8) (size 9 to 14) (size 15 to 20)
#    0.000    1.778    2.222    4.000    0.000    0.889 
#    0.000   20.000    4.889    0.000    0.000    0.000 
#    0.000    0.000    0.000    0.000    0.000    0.000 
#
# Total GULP energy -201154.743011 kJ/mol
# GULP energy per Si atom -5587.631750 kJ/mol
# Density = 2.108480 g / cm^3
# Si number density = 21.132901 Si / 1000 Ang^3
#
#
#
# Elastic Constant Matrix: (Units=GPa)
#
#
# Indices 1 2 3 4 5 6 
#
# 1 50.6314 -2.8924 -11.3882 0.0000 0.0000 0.0000
# 2 -2.8924 117.0293 14.6080 0.0000 0.0000 0.0000
# 3 -11.3882 14.6080 99.3103 0.0000 0.0000 0.0000
# 4 0.0000 0.0000 0.0000 2.8089 0.0000 0.0000
# 5 0.0000 0.0000 0.0000 0.0000 24.9079 0.0000
# 6 0.0000 0.0000 0.0000 0.0000 0.0000 32.4248
#
#
#
# Elastic Compliance Matrix: (Units=1/GPa)
#
#
# Indices 1 2 3 4 5 6 
#
# 1 0.020279 0.000215 0.002294 0.000000 0.000000 0.000000
# 2 0.000215 0.008707 -0.001256 0.000000 0.000000 0.000000
# 3 0.002294 -0.001256 0.010517 0.000000 0.000000 0.000000
# 4 0.000000 0.000000 0.000000 0.356008 0.000000 0.000000
# 5 0.000000 0.000000 0.000000 0.000000 0.040148 0.000000
# 6 0.000000 0.000000 0.000000 0.000000 0.000000 0.030841
#
#
# Mechanical properties :
#
#
# Convention : Reuss Voigt Hill
#
# Bulk Modulus (GPa) = 23.80489 29.73620 26.77055
# Shear Modulus (GPa) = 10.46032 29.80457 20.13244
#
# Velocity S-wave (km/s) = 2.22722 3.75952 3.08987
# Velocity P-wave (km/s) = 4.23118 5.73994 5.04231
#
# Compressibility (1/GPa) = 0.04200818
#
# Stress axis : x y z
#
# Youngs Moduli (GPa) = 49.31258 114.85048 95.08191
#
# Poissons Ratio (x) = -0.02468 -0.21810
# Poissons Ratio (y) = -0.01060 0.11943
# Poissons Ratio (z) = -0.11311 0.14426
#
# Static dielectric constant tensor:
#      x y z
#    x 1.839560 0.000000 0.000000 
#    y 0.000000 1.716350 0.000000 
#    z 0.000000 0.000000 1.771790 
# 
# From -- ./inp_files/10274.got.cif
#   From: 2010.05.17/outbox.cif.g08.bks.cpg/sg56_6_cif.got.tgz:10274.got - 2010.06.03 13:42:01.
