data_PCOD9430409
_publ_section_title
;
Structure prediction by ZEFSAII (Michael W. Deem and Ramdas Pophale) SiO2 
 PCOD9430409
Probable space group: P C C N
;
_chemical_formula_sum "Si O2"
_cell_formula_units_Z 64
_cell_length_a 14.693511
_cell_length_b 19.323199
_cell_length_c 11.217228
_cell_angle_alpha 90.000000
_cell_angle_beta 90.000000
_cell_angle_gamma 90.000000
_cell_volume 3184.858606
_symmetry_space_group_name_H-M "P C C N"
_symmetry_group_IT_number 56
_symmetry_cell_setting 'orthorhombic'
loop_
_space_group_symop_operation_xyz
x,y,z
1/2-x,1/2-y,z
1/2+x,-y,1/2-z
-x,1/2+y,1/2-z
-x,-y,-z
1/2+x,1/2+y,-z
1/2-x,y,1/2+z
x,1/2-y,1/2+z
loop_
_atom_site_type_symbol
_atom_site_label
_atom_site_fract_x
_atom_site_fract_y
_atom_site_fract_z
Si Si1 0.527032 0.499372 0.692756
Si Si2 0.921655 0.627445 0.767639
Si Si3 0.631756 0.439540 0.475264
Si Si4 0.044676 0.744321 0.339526
Si Si5 0.109912 0.367124 0.679287
Si Si6 0.228517 0.428732 0.046983
Si Si7 0.351797 0.778805 0.084036
Si Si8 0.251745 0.176912 0.361720
O O1 0.478717 0.439943 0.771849
O O2 0.596378 0.456988 0.607982
O O3 0.448964 0.532377 0.609024
O O4 0.572222 0.564565 0.755179
O O5 0.848219 0.599411 0.863434
O O6 0.855616 0.661770 0.671540
O O7 0.987473 0.684553 0.824696
O O8 0.718172 0.489377 0.455966
O O9 0.649265 0.360853 0.443125
O O10 0.097648 0.734573 0.211940
O O11 0.101876 0.747999 0.462926
O O12 0.973888 0.681378 0.352625
O O13 0.173279 0.400145 0.579146
O O14 0.182132 0.318284 0.750902
O O15 0.209870 0.389948 0.924678
O O16 0.250000 0.750000 0.094490
O O17 0.250000 0.250000 0.429673
#
# Coordination Sequence:
#
# PCOD9430409 Si02
#       8
#     8   8   8   8   8   8   8   8
#     4  10  19  41  67  90 123 177 243 275 329 409
#     4  10  23  38  63  99 130 180 222 281 338 414
#     4  10  20  42  70  89 126 181 234 285 327 419
#     4  12  26  45  74 102 138 184 233 283 352 423
#     4  11  23  39  63 101 137 177 223 289 346 411
#     4  10  24  38  63 101 137 175 229 281 353 401
#     4  12  28  50  71 103 138 182 237 296 352 408
#     4  11  22  36  59  95 144 173 215 281 348 414
#
# _framework density 20.095082999999999
#
# number of rings (size 3 to 8) (size 9 to 14) (size 15 to 20)
#    0.000    1.250    5.000    0.375    5.250    1.000 
#    4.500    0.625    0.000    0.000    0.000    0.000 
#    0.000    0.000    0.000    0.000    0.000    0.000 
#
# Total GULP energy -356753.882685 kJ/mol
# GULP energy per Si atom -5574.279417 kJ/mol
# Density = 2.004935 g / cm^3
# Si number density = 20.095083 Si / 1000 Ang^3
#
#
#
# Elastic Constant Matrix: (Units=GPa)
#
#
# Indices 1 2 3 4 5 6 
#
# 1 107.4074 64.0951 48.5576 0.0000 0.0000 0.0000
# 2 64.0951 138.8873 32.4891 0.0000 0.0000 0.0000
# 3 48.5576 32.4891 68.5788 0.0000 0.0000 0.0000
# 4 0.0000 0.0000 0.0000 11.5503 0.0000 0.0000
# 5 0.0000 0.0000 0.0000 0.0000 -3.5830 0.0000
# 6 0.0000 0.0000 0.0000 0.0000 0.0000 28.9576
#
#
#
# Elastic Compliance Matrix: (Units=1/GPa)
#
#
# Indices 1 2 3 4 5 6 
#
# 1 0.016848 -0.005606 -0.009274 0.000000 0.000000 0.000000
# 2 -0.005606 0.009963 -0.000751 0.000000 0.000000 0.000000
# 3 -0.009274 -0.000751 0.021504 0.000000 0.000000 0.000000
# 4 0.000000 0.000000 0.000000 0.086578 0.000000 0.000000
# 5 0.000000 0.000000 0.000000 0.000000 -0.279099 0.000000
# 6 0.000000 0.000000 0.000000 0.000000 0.000000 0.034533
#
#
# Mechanical properties :
#
#
# Convention : Reuss Voigt Hill
#
# Bulk Modulus (GPa) = 58.63626 67.23967 62.93796
# Shear Modulus (GPa) = -68.74872 18.70045 -25.02414
#
# Velocity S-wave (km/s) = -5.85542 3.05388 -3.53269
# Velocity P-wave (km/s) = 4.05856 6.77999 3.84034
#
# Compressibility (1/GPa) = 0.01705430
#
# Stress axis : x y z
#
# Youngs Moduli (GPa) = 59.35365 100.37413 46.50392
#
# Poissons Ratio (x) = 0.56269 0.43126
# Poissons Ratio (y) = 0.33273 0.03490
# Poissons Ratio (z) = 0.55042 0.07533
#
# Static dielectric constant tensor:
#      x y z
#    x 1.708470 0.000000 0.000000 
#    y 0.000000 1.712360 0.000000 
#    z 0.000000 0.000000 1.800340 
# 
# From -- ./inp_files/8061.got.cif
#   From: 2010.05.17/outbox.cif.g08.bks.cpg/sg56_5_cif.got.tgz:8061.got - 2010.06.03 13:42:01.
