data_PCOD9430290
_publ_section_title
;
Structure prediction by ZEFSAII (Michael W. Deem and Ramdas Pophale) SiO2 
 PCOD9430290
Probable space group: P C C N
;
_chemical_formula_sum "Si O2"
_cell_formula_units_Z 48
_cell_length_a 15.590964
_cell_length_b 9.410241
_cell_length_c 14.171436
_cell_angle_alpha 90.000000
_cell_angle_beta 90.000000
_cell_angle_gamma 90.000000
_cell_volume 2079.158387
_symmetry_space_group_name_H-M "P C C N"
_symmetry_group_IT_number 56
_symmetry_cell_setting 'orthorhombic'
loop_
_space_group_symop_operation_xyz
x,y,z
1/2-x,1/2-y,z
1/2+x,-y,1/2-z
-x,1/2+y,1/2-z
-x,-y,-z
1/2+x,1/2+y,-z
1/2-x,y,1/2+z
x,1/2-y,1/2+z
loop_
_atom_site_type_symbol
_atom_site_label
_atom_site_fract_x
_atom_site_fract_y
_atom_site_fract_z
Si Si1 0.397448 0.473457 0.948081
Si Si2 0.849065 0.784130 0.873281
Si Si3 0.949005 0.188390 0.904261
Si Si4 0.193047 0.552461 0.725319
Si Si5 0.626733 0.024534 0.880173
Si Si6 0.719598 0.095483 0.069418
O O1 0.464380 0.396460 0.879755
O O2 0.303546 0.501350 0.909610
O O3 0.386341 0.371335 0.038932
O O4 0.431043 0.624429 0.990289
O O5 0.750000 0.750000 0.897972
O O6 0.839348 0.890089 0.785174
O O7 0.897684 0.636981 0.857459
O O8 0.946898 0.356231 0.885897
O O9 0.866721 0.136628 0.846615
O O10 0.291522 0.560834 0.687915
O O11 0.177551 0.611008 0.829045
O O12 0.665356 0.026867 0.986397
O O13 0.750000 0.250000 0.034961
#
# Coordination Sequence:
#
# PCOD9430290 Si02
#       6
#     8   8   8   8   8   8
#     4  10  20  35  62  91 119 164 205 260 332 370
#     4   9  18  37  56  86 119 158 209 259 318 378
#     4  10  19  37  63  87 126 159 204 270 320 375
#     4  10  21  37  62  90 121 164 214 269 311 385
#     4  11  19  38  61  90 121 164 221 252 317 385
#     4  12  20  35  67  95 120 170 227 260 312 401
#
# _framework density 23.086262999999999
#
# number of rings (size 3 to 8) (size 9 to 14) (size 15 to 20)
#    0.000    1.667    6.667    1.500    0.000    0.667 
#    9.000    0.000   14.667    0.000    0.000    0.000 
#    0.000    0.000    0.000    0.000    0.000    0.000 
#
# Total GULP energy -267926.957730 kJ/mol
# GULP energy per Si atom -5581.811619 kJ/mol
# Density = 2.303372 g / cm^3
# Si number density = 23.086263 Si / 1000 Ang^3
#
#
#
# Elastic Constant Matrix: (Units=GPa)
#
#
# Indices 1 2 3 4 5 6 
#
# 1 34.8738 0.1525 -8.3065 0.0000 0.0000 0.0000
# 2 0.1525 117.6019 -17.5961 0.0000 0.0000 0.0000
# 3 -8.3065 -17.5961 63.5591 0.0000 0.0000 0.0000
# 4 0.0000 0.0000 0.0000 11.3035 0.0000 0.0000
# 5 0.0000 0.0000 0.0000 0.0000 -0.3971 0.0000
# 6 0.0000 0.0000 0.0000 0.0000 0.0000 33.8216
#
#
#
# Elastic Compliance Matrix: (Units=1/GPa)
#
#
# Indices 1 2 3 4 5 6 
#
# 1 0.029632 0.000564 0.004029 0.000000 0.000000 0.000000
# 2 0.000564 0.008881 0.002533 0.000000 0.000000 0.000000
# 3 0.004029 0.002533 0.016961 0.000000 0.000000 0.000000
# 4 0.000000 0.000000 0.000000 0.088468 0.000000 0.000000
# 5 0.000000 0.000000 0.000000 0.000000 -2.518364 0.000000
# 6 0.000000 0.000000 0.000000 0.000000 0.000000 0.029567
#
#
# Mechanical properties :
#
#
# Convention : Reuss Voigt Hill
#
# Bulk Modulus (GPa) = 14.34185 18.28162 16.31174
# Shear Modulus (GPa) = -2.14054 25.06459 11.46203
#
# Velocity S-wave (km/s) = -0.96395 3.29856 2.23062
# Velocity P-wave (km/s) = 2.23312 4.73744 3.70339
#
# Compressibility (1/GPa) = 0.06972602
#
# Stress axis : x y z
#
# Youngs Moduli (GPa) = 33.74733 112.59401 58.95862
#
# Poissons Ratio (x) = -0.06355 -0.23753
# Poissons Ratio (y) = -0.01905 -0.14932
# Poissons Ratio (z) = -0.13596 -0.28515
#
# Static dielectric constant tensor:
#      x y z
#    x 1.915220 0.000000 0.000000 
#    y 0.000000 1.950860 0.000000 
#    z 0.000000 0.000000 1.813770 
# 
# From -- ./inp_files/12711.got.cif
#   From: 2010.05.17/outbox.cif.g08.bks.cpg/sg56_7_cif.got.tgz:12711.got - 2010.06.03 13:42:01.
