data_PCOD9430274
_publ_section_title
;
Structure prediction by ZEFSAII (Michael W. Deem and Ramdas Pophale) SiO2 
 PCOD9430274
Probable space group: P C C N
;
_chemical_formula_sum "Si O2"
_cell_formula_units_Z 64
_cell_length_a 21.863986
_cell_length_b 9.226636
_cell_length_c 14.216158
_cell_angle_alpha 90.000000
_cell_angle_beta 90.000000
_cell_angle_gamma 90.000000
_cell_volume 2867.840343
_symmetry_space_group_name_H-M "P C C N"
_symmetry_group_IT_number 56
_symmetry_cell_setting 'orthorhombic'
loop_
_space_group_symop_operation_xyz
x,y,z
1/2-x,1/2-y,z
1/2+x,-y,1/2-z
-x,1/2+y,1/2-z
-x,-y,-z
1/2+x,1/2+y,-z
1/2-x,y,1/2+z
x,1/2-y,1/2+z
loop_
_atom_site_type_symbol
_atom_site_label
_atom_site_fract_x
_atom_site_fract_y
_atom_site_fract_z
Si Si1 0.131695 0.749720 0.231804
Si Si2 0.820657 0.737986 0.706687
Si Si3 0.615483 0.241192 0.480083
Si Si4 0.837276 0.035189 0.607565
Si Si5 0.695958 0.428568 0.129858
Si Si6 0.565789 0.759037 0.841411
Si Si7 0.507950 0.061916 0.773759
Si Si8 0.017846 0.336766 0.971033
O O1 0.137974 0.793180 0.124136
O O2 0.129648 0.881870 0.305377
O O3 0.186707 0.652393 0.270870
O O4 0.072015 0.647523 0.236321
O O5 0.750000 0.750000 0.739937
O O6 0.823901 0.591547 0.647716
O O7 0.868740 0.736160 0.791605
O O8 0.834780 0.869730 0.636590
O O9 0.631782 0.406064 0.512910
O O10 0.650458 0.144444 0.555666
O O11 0.542333 0.236781 0.483083
O O12 0.766299 0.081734 0.601270
O O13 0.532351 0.607635 0.815395
O O14 0.525311 0.895637 0.798735
O O15 0.566347 0.781299 0.953500
O O16 0.472432 0.140807 0.860380
O O17 0.000000 0.500000 0.000000
#
# Coordination Sequence:
#
# PCOD9430274 Si02
#       8
#     8   8   8   8   8   8   8   8
#     4  10  19  37  60  89 120 151 202 254 308 365
#     4  10  23  41  61  87 125 170 204 252 316 373
#     4  10  20  36  63  88 120 156 200 259 311 360
#     4  10  22  36  61  87 118 161 209 251 298 377
#     4  10  20  39  58  87 120 158 210 255 302 359
#     4  11  21  39  66  84 123 160 201 251 307 370
#     4  10  22  37  63  94 117 157 198 251 313 368
#     4   9  21  37  58  91 120 150 199 248 303 370
#
# _framework density 22.316445000000002
#
# number of rings (size 3 to 8) (size 9 to 14) (size 15 to 20)
#    0.000    2.000    1.250    3.000    5.250    2.000 
#    0.000    3.125    0.000    6.750    0.000    0.000 
#    0.000    0.000    0.000    0.000    0.000    0.000 
#
# Total GULP energy -357598.744007 kJ/mol
# GULP energy per Si atom -5587.480375 kJ/mol
# Density = 2.226565 g / cm^3
# Si number density = 22.316445 Si / 1000 Ang^3
#
#
#
# Elastic Constant Matrix: (Units=GPa)
#
#
# Indices 1 2 3 4 5 6 
#
# 1 97.4546 14.5044 16.0554 0.0000 0.0000 0.0000
# 2 14.5044 74.4669 -0.5064 0.0000 0.0000 0.0000
# 3 16.0554 -0.5064 72.7294 0.0000 0.0000 0.0000
# 4 0.0000 0.0000 0.0000 19.4244 0.0000 0.0000
# 5 0.0000 0.0000 0.0000 0.0000 28.7911 0.0000
# 6 0.0000 0.0000 0.0000 0.0000 0.0000 32.4517
#
#
#
# Elastic Compliance Matrix: (Units=1/GPa)
#
#
# Indices 1 2 3 4 5 6 
#
# 1 0.010984 -0.002156 -0.002440 0.000000 0.000000 0.000000
# 2 -0.002156 0.013853 0.000572 0.000000 0.000000 0.000000
# 3 -0.002440 0.000572 0.014292 0.000000 0.000000 0.000000
# 4 0.000000 0.000000 0.000000 0.051482 0.000000 0.000000
# 5 0.000000 0.000000 0.000000 0.000000 0.034733 0.000000
# 6 0.000000 0.000000 0.000000 0.000000 0.000000 0.030815
#
#
# Mechanical properties :
#
#
# Convention : Reuss Voigt Hill
#
# Bulk Modulus (GPa) = 32.17298 33.86199 33.01748
# Shear Modulus (GPa) = 28.64246 30.43993 29.54119
#
# Velocity S-wave (km/s) = 3.58644 3.69726 3.64227
# Velocity P-wave (km/s) = 5.62122 5.78211 5.70223
#
# Compressibility (1/GPa) = 0.03108198
#
# Stress axis : x y z
#
# Youngs Moduli (GPa) = 91.04129 72.18854 69.96836
#
# Poissons Ratio (x) = 0.15564 0.17071
# Poissons Ratio (y) = 0.19629 -0.04005
# Poissons Ratio (z) = 0.22212 -0.04132
#
# Static dielectric constant tensor:
#      x y z
#    x 1.849850 0.000000 0.000000 
#    y 0.000000 1.859540 0.000000 
#    z 0.000000 0.000000 1.815730 
# 
# From -- ./inp_files/13295.got.cif
#   From: 2010.05.17/outbox.cif.g08.bks.cpg/sg56_7_cif.got.tgz:13295.got - 2010.06.03 13:42:01.
