data_PCOD9430519
_publ_section_title
;
Structure prediction by ZEFSAII (Michael W. Deem and Ramdas Pophale) SiO2 
 PCOD9430519
Probable space group: P C C N
;
_chemical_formula_sum "Si O2"
_cell_formula_units_Z 56
_cell_length_a 8.177085
_cell_length_b 15.201990
_cell_length_c 20.133119
_cell_angle_alpha 90.000000
_cell_angle_beta 90.000000
_cell_angle_gamma 90.000000
_cell_volume 2502.707040
_symmetry_space_group_name_H-M "P C C N"
_symmetry_group_IT_number 56
_symmetry_cell_setting 'orthorhombic'
loop_
_space_group_symop_operation_xyz
x,y,z
1/2-x,1/2-y,z
1/2+x,-y,1/2-z
-x,1/2+y,1/2-z
-x,-y,-z
1/2+x,1/2+y,-z
1/2-x,y,1/2+z
x,1/2-y,1/2+z
loop_
_atom_site_type_symbol
_atom_site_label
_atom_site_fract_x
_atom_site_fract_y
_atom_site_fract_z
Si Si1 0.275672 0.915756 0.257903
Si Si2 0.186616 0.011875 0.023922
Si Si3 0.765852 0.853610 0.577086
Si Si4 0.250000 0.750000 0.833054
Si Si5 0.580529 0.399372 0.867149
Si Si6 0.091334 0.869832 0.444157
Si Si7 0.030040 0.014579 0.348460
Si Si8 0.750000 0.250000 0.453886
O O1 0.339004 0.824017 0.288717
O O2 0.125927 0.891837 0.209065
O O3 0.407412 0.963085 0.211179
O O4 0.195082 0.975686 0.314610
O O5 0.252406 0.105049 0.996839
O O6 0.285990 0.939260 0.980877
O O7 0.161861 0.986678 0.100785
O O8 0.000000 0.000000 0.000000
O O9 0.750000 0.750000 0.577393
O O10 0.608550 0.890717 0.616274
O O11 0.922912 0.895993 0.612774
O O12 0.359932 0.808783 0.881551
O O13 0.668987 0.322454 0.907760
O O14 0.104581 0.793261 0.500972
O O15 0.980685 0.943083 0.405177
#
# Coordination Sequence:
#
# PCOD9430519 Si02
#       8
#     8   8   8   4   8   8   8   4
#     4  11  22  38  59  86 116 152 198 239 292 348
#     4   8  16  34  56  80 110 152 189 230 294 353
#     4  10  21  36  57  83 116 150 194 240 288 342
#     4   9  19  32  58  80 109 151 196 232 278 345
#     4  10  20  34  57  83 115 151 192 237 290 354
#     4   8  16  35  55  82 110 148 194 236 284 348
#     4  10  22  39  58  84 114 156 193 242 293 343
#     4   9  17  32  58  88 111 149 188 242 288 349
#
# _framework density 22.375771
#
# number of rings (size 3 to 8) (size 9 to 14) (size 15 to 20)
#    0.000    2.571    0.000    1.286    4.000    1.143 
#    2.571    2.143    0.000    0.857    0.000    0.000 
#    0.000    0.000    0.000    0.000    0.000    0.000 
#
# Total GULP energy -311980.174055 kJ/mol
# GULP energy per Si atom -5571.074537 kJ/mol
# Density = 2.232484 g / cm^3
# Si number density = 22.375771 Si / 1000 Ang^3
#
#
#
# Elastic Constant Matrix: (Units=GPa)
#
#
# Indices 1 2 3 4 5 6 
#
# 1 44.2437 20.4785 13.9059 0.0000 0.0000 0.0000
# 2 20.4785 130.2620 48.0650 0.0000 0.0000 0.0000
# 3 13.9059 48.0650 91.9525 0.0000 0.0000 0.0000
# 4 0.0000 0.0000 0.0000 23.7569 0.0000 0.0000
# 5 0.0000 0.0000 0.0000 0.0000 31.2821 0.0000
# 6 0.0000 0.0000 0.0000 0.0000 0.0000 18.6494
#
#
#
# Elastic Compliance Matrix: (Units=1/GPa)
#
#
# Indices 1 2 3 4 5 6 
#
# 1 0.024703 -0.003104 -0.002113 0.000000 0.000000 0.000000
# 2 -0.003104 0.009901 -0.004706 0.000000 0.000000 0.000000
# 3 -0.002113 -0.004706 0.013655 0.000000 0.000000 0.000000
# 4 0.000000 0.000000 0.000000 0.042093 0.000000 0.000000
# 5 0.000000 0.000000 0.000000 0.000000 0.031967 0.000000
# 6 0.000000 0.000000 0.000000 0.000000 0.000000 0.053621
#
#
# Mechanical properties :
#
#
# Convention : Reuss Voigt Hill
#
# Bulk Modulus (GPa) = 35.19597 47.92853 41.56225
# Shear Modulus (GPa) = 24.35961 27.00493 25.68227
#
# Velocity S-wave (km/s) = 3.30306 3.47779 3.39155
# Velocity P-wave (km/s) = 5.50551 6.13132 5.82682
#
# Compressibility (1/GPa) = 0.02841235
#
# Stress axis : x y z
#
# Youngs Moduli (GPa) = 40.48101 100.99694 73.23438
#
# Poissons Ratio (x) = 0.31347 0.15478
# Poissons Ratio (y) = 0.12564 0.34465
# Poissons Ratio (z) = 0.08555 0.47531
#
# Static dielectric constant tensor:
#      x y z
#    x 1.938730 0.000000 0.000000 
#    y 0.000000 1.844670 0.000000 
#    z 0.000000 0.000000 1.853110 
# 
# From -- ./inp_files/18259.got.cif
#   From: 2010.05.17/outbox.cif.g08.bks.cpg/sg56_10_cif.got.tgz:18259.got - 2010.06.03 13:42:01.
