data_PCOD9430321
_publ_section_title
;
Structure prediction by ZEFSAII (Michael W. Deem and Ramdas Pophale) SiO2 
 PCOD9430321
Probable space group: P C C N
;
_chemical_formula_sum "Si O2"
_cell_formula_units_Z 44
_cell_length_a 12.816761
_cell_length_b 8.012900
_cell_length_c 20.857596
_cell_angle_alpha 90.000000
_cell_angle_beta 90.000000
_cell_angle_gamma 90.000000
_cell_volume 2142.063100
_symmetry_space_group_name_H-M "P C C N"
_symmetry_group_IT_number 56
_symmetry_cell_setting 'orthorhombic'
loop_
_space_group_symop_operation_xyz
x,y,z
1/2-x,1/2-y,z
1/2+x,-y,1/2-z
-x,1/2+y,1/2-z
-x,-y,-z
1/2+x,1/2+y,-z
1/2-x,y,1/2+z
x,1/2-y,1/2+z
loop_
_atom_site_type_symbol
_atom_site_label
_atom_site_fract_x
_atom_site_fract_y
_atom_site_fract_z
Si Si1 0.750000 0.750000 0.299031
Si Si2 0.582596 0.592724 0.725998
Si Si3 0.864751 0.248768 0.915847
Si Si4 0.463052 0.056779 0.338959
Si Si5 0.049338 0.399073 0.126304
Si Si6 0.433578 0.874779 0.455856
O O1 0.802400 0.600894 0.256982
O O2 0.652835 0.675754 0.339357
O O3 0.576183 0.774014 0.693114
O O4 0.499371 0.569985 0.783890
O O5 0.542965 0.454511 0.675601
O O6 0.750000 0.250000 0.887626
O O7 0.933312 0.114980 0.877148
O O8 0.916962 0.428512 0.906964
O O9 0.859921 0.203995 0.990846
O O10 0.391403 0.975546 0.393992
O O11 0.005688 0.266793 0.075806
O O12 0.500000 0.000000 0.500000
#
# Coordination Sequence:
#
# PCOD9430321 Si02
#       6
#     4   8   8   8   8   8
#     4  12  22  38  72  94 128 174 214 254 336 406
#     4  11  21  39  64  97 127 165 214 269 327 387
#     4  10  22  38  62  92 118 165 219 259 327 388
#     4  10  19  38  60  85 129 159 202 273 317 377
#     4  11  23  40  68  94 128 169 217 273 324 393
#     4  10  21  40  62  85 128 170 209 275 320 368
#
# _framework density 20.540945000000001
#
# number of rings (size 3 to 8) (size 9 to 14) (size 15 to 20)
#    0.000    1.455    3.636    1.636    2.545    0.000 
#    3.273    0.000    0.000    0.000    0.000    0.000 
#    0.000    0.000    0.000    0.000    0.000    0.000 
#
# Total GULP energy -245246.600747 kJ/mol
# GULP energy per Si atom -5573.786381 kJ/mol
# Density = 2.049419 g / cm^3
# Si number density = 20.540945 Si / 1000 Ang^3
#
#
#
# Elastic Constant Matrix: (Units=GPa)
#
#
# Indices 1 2 3 4 5 6 
#
# 1 43.9031 -2.9531 -2.8461 0.0000 0.0000 0.0000
# 2 -2.9531 95.4087 27.8361 0.0000 0.0000 0.0000
# 3 -2.8461 27.8361 87.6460 0.0000 0.0000 0.0000
# 4 0.0000 0.0000 0.0000 45.3074 0.0000 0.0000
# 5 0.0000 0.0000 0.0000 0.0000 22.8515 0.0000
# 6 0.0000 0.0000 0.0000 0.0000 0.0000 17.2416
#
#
#
# Elastic Compliance Matrix: (Units=1/GPa)
#
#
# Indices 1 2 3 4 5 6 
#
# 1 0.022851 0.000541 0.000570 0.000000 0.000000 0.000000
# 2 0.000541 0.011564 -0.003655 0.000000 0.000000 0.000000
# 3 0.000570 -0.003655 0.012589 0.000000 0.000000 0.000000
# 4 0.000000 0.000000 0.000000 0.022071 0.000000 0.000000
# 5 0.000000 0.000000 0.000000 0.000000 0.043761 0.000000
# 6 0.000000 0.000000 0.000000 0.000000 0.000000 0.057999
#
#
# Mechanical properties :
#
#
# Convention : Reuss Voigt Hill
#
# Bulk Modulus (GPa) = 23.85727 30.11461 26.98594
# Shear Modulus (GPa) = 26.33024 30.74150 28.53587
#
# Velocity S-wave (km/s) = 3.58417 3.87278 3.73127
# Velocity P-wave (km/s) = 5.36358 5.88987 5.63288
#
# Compressibility (1/GPa) = 0.04191594
#
# Stress axis : x y z
#
# Youngs Moduli (GPa) = 43.76216 86.47217 79.43475
#
# Poissons Ratio (x) = -0.04678 -0.04530
# Poissons Ratio (y) = -0.02367 0.29035
# Poissons Ratio (z) = -0.02495 0.31608
#
# Static dielectric constant tensor:
#      x y z
#    x 1.704840 0.000000 0.000000 
#    y 0.000000 1.761110 0.000000 
#    z 0.000000 0.000000 1.788150 
# 
# From -- ./inp_files/16096.got.cif
#   From: 2010.05.17/outbox.cif.g08.bks.cpg/sg56_9_cif.got.tgz:16096.got - 2010.06.03 13:42:01.
