data_PCOD9430833
_publ_section_title
;
Structure prediction by ZEFSAII (Michael W. Deem and Ramdas Pophale) SiO2 
 PCOD9430833
Probable space group: P C C N
;
_chemical_formula_sum "Si O2"
_cell_formula_units_Z 64
_cell_length_a 16.555601
_cell_length_b 10.830837
_cell_length_c 19.307997
_cell_angle_alpha 90.000000
_cell_angle_beta 90.000000
_cell_angle_gamma 90.000000
_cell_volume 3462.136556
_symmetry_space_group_name_H-M "P C C N"
_symmetry_group_IT_number 56
_symmetry_cell_setting 'orthorhombic'
loop_
_space_group_symop_operation_xyz
x,y,z
1/2-x,1/2-y,z
1/2+x,-y,1/2-z
-x,1/2+y,1/2-z
-x,-y,-z
1/2+x,1/2+y,-z
1/2-x,y,1/2+z
x,1/2-y,1/2+z
loop_
_atom_site_type_symbol
_atom_site_label
_atom_site_fract_x
_atom_site_fract_y
_atom_site_fract_z
Si Si1 0.384090 0.290636 0.023095
Si Si2 0.938752 0.622237 0.626624
Si Si3 0.228264 0.051814 0.514514
Si Si4 0.743220 0.602655 0.138013
Si Si5 0.434916 0.748761 0.724134
Si Si6 0.026227 0.129391 0.150013
Si Si7 0.798618 0.122182 0.362663
Si Si8 0.166776 0.499630 0.731014
O O1 0.333077 0.165607 0.022414
O O2 0.317906 0.399763 0.035706
O O3 0.448048 0.289181 0.084792
O O4 0.423382 0.316648 0.948265
O O5 0.850840 0.586378 0.656006
O O6 0.988339 0.709363 0.678358
O O7 0.989754 0.497314 0.620168
O O8 0.236579 0.030116 0.432473
O O9 0.197280 0.942156 0.562677
O O10 0.750000 0.750000 0.123884
O O11 0.801822 0.559109 0.198206
O O12 0.465105 0.689352 0.795372
O O13 0.380499 0.656787 0.677663
O O14 0.381980 0.871567 0.739540
O O15 0.106639 0.093165 0.192425
O O16 0.750000 0.250000 0.370088
O O17 0.744440 0.032152 0.315394
#
# Coordination Sequence:
#
# PCOD9430833 Si02
#       8
#     8   8   8   8   8   8   8   8
#     4  10  20  38  59  90 118 151 203 257 299 354
#     4  10  21  39  58  86 124 161 195 255 313 355
#     4  10  20  38  62  90 117 153 208 254 288 362
#     4  11  20  38  63  89 121 153 201 256 304 352
#     4  10  23  40  56  90 126 158 204 256 306 362
#     4  11  21  36  61  87 119 162 209 243 305 378
#     4  10  21  42  62  82 123 166 201 247 309 368
#     4  10  22  37  62  86 120 161 206 252 302 361
#
# _framework density 18.485696000000001
#
# number of rings (size 3 to 8) (size 9 to 14) (size 15 to 20)
#    0.000    1.750    3.750    1.875    0.000    4.000 
#    2.250    2.500    0.000    0.000    0.000    0.000 
#    0.000    0.000    0.000    0.000    0.000    0.000 
#
# Total GULP energy -357212.282371 kJ/mol
# GULP energy per Si atom -5581.441912 kJ/mol
# Density = 1.844362 g / cm^3
# Si number density = 18.485696 Si / 1000 Ang^3
#
#
#
# Elastic Constant Matrix: (Units=GPa)
#
#
# Indices 1 2 3 4 5 6 
#
# 1 76.1267 8.7354 41.7143 0.0000 0.0000 0.0000
# 2 8.7354 26.2572 32.5153 0.0000 0.0000 0.0000
# 3 41.7143 32.5153 110.5351 0.0000 0.0000 0.0000
# 4 0.0000 0.0000 0.0000 26.4829 0.0000 0.0000
# 5 0.0000 0.0000 0.0000 0.0000 35.9504 0.0000
# 6 0.0000 0.0000 0.0000 0.0000 0.0000 15.7344
#
#
#
# Elastic Compliance Matrix: (Units=1/GPa)
#
#
# Indices 1 2 3 4 5 6 
#
# 1 0.016769 0.003551 -0.007373 0.000000 0.000000 0.000000
# 2 0.003551 0.060660 -0.019184 0.000000 0.000000 0.000000
# 3 -0.007373 -0.019184 0.017473 0.000000 0.000000 0.000000
# 4 0.000000 0.000000 0.000000 0.037760 0.000000 0.000000
# 5 0.000000 0.000000 0.000000 0.000000 0.027816 0.000000
# 6 0.000000 0.000000 0.000000 0.000000 0.000000 0.063555
#
#
# Mechanical properties :
#
#
# Convention : Reuss Voigt Hill
#
# Bulk Modulus (GPa) = 20.45418 42.09435 31.27427
# Shear Modulus (GPa) = 17.46177 24.29714 20.87946
#
# Velocity S-wave (km/s) = 3.07679 3.62936 3.36444
# Velocity P-wave (km/s) = 4.86940 6.35482 5.66104
#
# Compressibility (1/GPa) = 0.04888975
#
# Stress axis : x y z
#
# Youngs Moduli (GPa) = 59.63558 16.48541 57.23257
#
# Poissons Ratio (x) = -0.05855 0.42197
# Poissons Ratio (y) = -0.21180 1.09796
# Poissons Ratio (z) = 0.43969 0.31626
#
# Static dielectric constant tensor:
#      x y z
#    x 1.648140 0.000000 0.000000 
#    y 0.000000 1.626220 0.000000 
#    z 0.000000 0.000000 1.628680 
# 
# From -- ./inp_files/16347.got.cif
#   From: 2010.05.17/outbox.cif.g08.bks.cpg/sg56_9_cif.got.tgz:16347.got - 2010.06.03 13:42:01.
