data_PCOD9430205
_publ_section_title
;
Structure prediction by ZEFSAII (Michael W. Deem and Ramdas Pophale) SiO2 
 PCOD9430205
Probable space group: P C C N
;
_chemical_formula_sum "Si O2"
_cell_formula_units_Z 40
_cell_length_a 14.390502
_cell_length_b 9.016144
_cell_length_c 11.442138
_cell_angle_alpha 90.000000
_cell_angle_beta 90.000000
_cell_angle_gamma 90.000000
_cell_volume 1484.581228
_symmetry_space_group_name_H-M "P C C N"
_symmetry_group_IT_number 56
_symmetry_cell_setting 'orthorhombic'
loop_
_space_group_symop_operation_xyz
x,y,z
1/2-x,1/2-y,z
1/2+x,-y,1/2-z
-x,1/2+y,1/2-z
-x,-y,-z
1/2+x,1/2+y,-z
1/2-x,y,1/2+z
x,1/2-y,1/2+z
loop_
_atom_site_type_symbol
_atom_site_label
_atom_site_fract_x
_atom_site_fract_y
_atom_site_fract_z
Si Si1 0.856498 0.445559 0.705623
Si Si2 0.964551 0.410727 0.386007
Si Si3 0.658266 0.688117 0.352262
Si Si4 0.548368 0.183603 0.063661
Si Si5 0.658134 0.959869 0.189361
O O1 0.827558 0.512283 0.831647
O O2 0.893007 0.290081 0.654905
O O3 0.758367 0.484192 0.644480
O O4 0.945752 0.553662 0.691251
O O5 0.939457 0.249307 0.434389
O O6 0.878579 0.467632 0.311213
O O7 0.000000 0.500000 0.500000
O O8 0.750000 0.750000 0.417499
O O9 0.559693 0.712068 0.410627
O O10 0.659175 0.790369 0.232657
O O11 0.583624 0.019925 0.095226
#
# Coordination Sequence:
#
# PCOD9430205 Si02
#       5
#     8   8   8   8   8
#     4  10  21  38  64  93 128 171 215 268 337 392
#     4  10  20  39  68  92 131 172 218 271 336 391
#     4  10  19  35  64  90 128 173 212 264 334 389
#     4  11  20  40  67  93 130 171 222 272 328 397
#     4  11  21  39  66  96 129 172 222 269 337 399
#
# _framework density 26.943625000000001
#
# number of rings (size 3 to 8) (size 9 to 14) (size 15 to 20)
#    0.000    1.600    6.000    0.600    0.000    0.000 
#    0.000   12.000    0.000    0.000    0.000    0.000 
#    0.000    0.000    0.000    0.000    0.000    0.000 
#
# Total GULP energy -222845.419149 kJ/mol
# GULP energy per Si atom -5571.135479 kJ/mol
# Density = 2.688230 g / cm^3
# Si number density = 26.943625 Si / 1000 Ang^3
#
#
#
# Elastic Constant Matrix: (Units=GPa)
#
#
# Indices 1 2 3 4 5 6 
#
# 1 194.9206 39.0319 4.9396 0.0000 0.0000 0.0000
# 2 39.0319 124.2011 17.5269 0.0000 0.0000 0.0000
# 3 4.9396 17.5269 53.8532 0.0000 0.0000 0.0000
# 4 0.0000 0.0000 0.0000 57.8226 0.0000 0.0000
# 5 0.0000 0.0000 0.0000 0.0000 -2.4030 0.0000
# 6 0.0000 0.0000 0.0000 0.0000 0.0000 52.2255
#
#
#
# Elastic Compliance Matrix: (Units=1/GPa)
#
#
# Indices 1 2 3 4 5 6 
#
# 1 0.005475 -0.001729 0.000061 0.000000 0.000000 0.000000
# 2 -0.001729 0.008985 -0.002766 0.000000 0.000000 0.000000
# 3 0.000061 -0.002766 0.019464 0.000000 0.000000 0.000000
# 4 0.000000 0.000000 0.000000 0.017294 0.000000 0.000000
# 5 0.000000 0.000000 0.000000 0.000000 -0.416144 0.000000
# 6 0.000000 0.000000 0.000000 0.000000 0.000000 0.019148
#
#
# Mechanical properties :
#
#
# Convention : Reuss Voigt Hill
#
# Bulk Modulus (GPa) = 39.91183 55.10795 47.50989
# Shear Modulus (GPa) = -15.21799 42.29413 13.53807
#
# Velocity S-wave (km/s) = -2.37915 3.96628 2.24399
# Velocity P-wave (km/s) = 2.70150 6.43992 4.93815
#
# Compressibility (1/GPa) = 0.02505523
#
# Stress axis : x y z
#
# Youngs Moduli (GPa) = 182.64793 111.29474 51.37812
#
# Poissons Ratio (x) = 0.19245 -0.00311
# Poissons Ratio (y) = 0.31583 0.14209
# Poissons Ratio (z) = -0.01106 0.30780
#
# Static dielectric constant tensor:
#      x y z
#    x 2.172270 0.000000 0.000000 
#    y 0.000000 2.239590 0.000000 
#    z 0.000000 0.000000 2.247700 
# 
# From -- ./inp_files/12143.got.cif
#   From: 2010.05.17/outbox.cif.g08.bks.cpg/sg56_7_cif.got.tgz:12143.got - 2010.06.03 13:42:01.
