data_PCOD9430724
_publ_section_title
;
Structure prediction by ZEFSAII (Michael W. Deem and Ramdas Pophale) SiO2 
 PCOD9430724
Probable space group: P C C N
;
_chemical_formula_sum "Si O2"
_cell_formula_units_Z 60
_cell_length_a 19.902297
_cell_length_b 15.781740
_cell_length_c 7.855247
_cell_angle_alpha 90.000000
_cell_angle_beta 90.000000
_cell_angle_gamma 90.000000
_cell_volume 2467.277127
_symmetry_space_group_name_H-M "P C C N"
_symmetry_group_IT_number 56
_symmetry_cell_setting 'orthorhombic'
loop_
_space_group_symop_operation_xyz
x,y,z
1/2-x,1/2-y,z
1/2+x,-y,1/2-z
-x,1/2+y,1/2-z
-x,-y,-z
1/2+x,1/2+y,-z
1/2-x,y,1/2+z
x,1/2-y,1/2+z
loop_
_atom_site_type_symbol
_atom_site_label
_atom_site_fract_x
_atom_site_fract_y
_atom_site_fract_z
Si Si1 0.150346 0.471112 0.921538
Si Si2 0.336836 0.861235 0.769690
Si Si3 0.018087 0.300253 0.460728
Si Si4 0.080430 0.691731 0.264668
Si Si5 0.892482 0.828119 0.339562
Si Si6 0.711464 0.929881 0.445833
Si Si7 0.185911 0.588304 0.378898
Si Si8 0.250000 0.250000 0.614338
O O1 0.123261 0.561347 0.859206
O O2 0.179220 0.434802 0.740951
O O3 0.106968 0.402546 0.020517
O O4 0.215828 0.476057 0.044843
O O5 0.372738 0.773305 0.812855
O O6 0.332442 0.872071 0.565009
O O7 0.260238 0.877609 0.832074
O O8 0.061145 0.349695 0.321665
O O9 0.071080 0.251824 0.575936
O O10 0.970511 0.229775 0.371606
O O11 0.966860 0.345839 0.586541
O O12 0.135579 0.620520 0.233850
O O13 0.817415 0.791865 0.305227
O O14 0.723727 0.832496 0.484100
O O15 0.675521 0.988399 0.584332
#
# Coordination Sequence:
#
# PCOD9430724 Si02
#       8
#     8   8   8   8   8   8   8   4
#     4   9  19  36  57  86 124 151 189 253 308 362
#     4  10  21  36  60  92 120 156 209 252 303 359
#     4  10  23  38  57  85 118 162 214 244 290 388
#     4  11  21  39  61  79 122 173 204 244 303 354
#     4  10  21  39  62  86 118 151 203 260 309 373
#     4   9  19  34  56  93 124 148 186 249 314 371
#     4  10  21  36  59  90 129 153 203 258 299 358
#     4  10  20  36  70  92 114 154 192 260 336 360
#
# _framework density 24.318304000000001
#
# number of rings (size 3 to 8) (size 9 to 14) (size 15 to 20)
#    0.000    2.133    1.333    1.200    1.867    8.000 
#    0.000    2.667    5.867    3.200    0.000    0.000 
#    0.000    0.000    0.000    0.000    0.000    0.000 
#
# Total GULP energy -334739.164604 kJ/mol
# GULP energy per Si atom -5578.986077 kJ/mol
# Density = 2.426295 g / cm^3
# Si number density = 24.318304 Si / 1000 Ang^3
#
#
#
# Elastic Constant Matrix: (Units=GPa)
#
#
# Indices 1 2 3 4 5 6 
#
# 1 101.1317 18.6868 26.8532 0.0000 0.0000 0.0000
# 2 18.6868 95.1742 11.2295 0.0000 0.0000 0.0000
# 3 26.8532 11.2295 85.9955 0.0000 0.0000 0.0000
# 4 0.0000 0.0000 0.0000 10.0581 0.0000 0.0000
# 5 0.0000 0.0000 0.0000 0.0000 -20.6172 0.0000
# 6 0.0000 0.0000 0.0000 0.0000 0.0000 20.2403
#
#
#
# Elastic Compliance Matrix: (Units=1/GPa)
#
#
# Indices 1 2 3 4 5 6 
#
# 1 0.011076 -0.001794 -0.003224 0.000000 0.000000 0.000000
# 2 -0.001794 0.010962 -0.000871 0.000000 0.000000 0.000000
# 3 -0.003224 -0.000871 0.012749 0.000000 0.000000 0.000000
# 4 0.000000 0.000000 0.000000 0.099423 0.000000 0.000000
# 5 0.000000 0.000000 0.000000 0.000000 -0.048503 0.000000
# 6 0.000000 0.000000 0.000000 0.000000 0.000000 0.049406
#
#
# Mechanical properties :
#
#
# Convention : Reuss Voigt Hill
#
# Bulk Modulus (GPa) = 43.46383 43.98226 43.72304
# Shear Modulus (GPa) = 32.34964 16.97170 24.66067
#
# Velocity S-wave (km/s) = 3.65123 2.64464 3.18791
# Velocity P-wave (km/s) = 5.97386 5.23936 5.61862
#
# Compressibility (1/GPa) = 0.02300764
#
# Stress axis : x y z
#
# Youngs Moduli (GPa) = 90.28729 91.22317 78.43699
#
# Poissons Ratio (x) = 0.16368 0.25290
# Poissons Ratio (y) = 0.16200 0.06833
# Poissons Ratio (z) = 0.29111 0.07947
#
# Static dielectric constant tensor:
#      x y z
#    x 1.952420 0.000000 0.000000 
#    y 0.000000 1.963880 0.000000 
#    z 0.000000 0.000000 1.997570 
# 
# From -- ./inp_files/4162.got.cif
#   From: 2010.05.17/outbox.cif.g08.bks.cpg/sg56_3_cif.got.tgz:4162.got - 2010.06.03 13:42:01.
