data_PCOD9430139
_publ_section_title
;
Structure prediction by ZEFSAII (Michael W. Deem and Ramdas Pophale) SiO2 
 PCOD9430139
Probable space group: P C C N
;
_chemical_formula_sum "Si O2"
_cell_formula_units_Z 40
_cell_length_a 8.418178
_cell_length_b 7.298518
_cell_length_c 26.916424
_cell_angle_alpha 90.000000
_cell_angle_beta 90.000000
_cell_angle_gamma 90.000000
_cell_volume 1653.751111
_symmetry_space_group_name_H-M "P C C N"
_symmetry_group_IT_number 56
_symmetry_cell_setting 'orthorhombic'
loop_
_space_group_symop_operation_xyz
x,y,z
1/2-x,1/2-y,z
1/2+x,-y,1/2-z
-x,1/2+y,1/2-z
-x,-y,-z
1/2+x,1/2+y,-z
1/2-x,y,1/2+z
x,1/2-y,1/2+z
loop_
_atom_site_type_symbol
_atom_site_label
_atom_site_fract_x
_atom_site_fract_y
_atom_site_fract_z
Si Si1 0.252526 0.027507 0.610401
Si Si2 0.350395 0.086088 0.713260
Si Si3 0.092288 0.964423 0.414448
Si Si4 0.401353 0.637710 0.304678
Si Si5 0.065013 0.963759 0.945408
O O1 0.250000 0.250000 0.604471
O O2 0.250063 0.986631 0.670080
O O3 0.421798 0.962679 0.589457
O O4 0.090021 0.962265 0.583265
O O5 0.250000 0.250000 0.738222
O O6 0.476270 0.203300 0.682315
O O7 0.439199 0.978957 0.756186
O O8 0.129239 0.967712 0.355343
O O9 0.254590 0.038363 0.439033
O O10 0.079419 0.753729 0.433411
O O11 0.250000 0.750000 0.287858
O O12 0.000000 0.000000 0.000000
#
# Coordination Sequence:
#
# PCOD9430139 Si02
#       5
#     8   8   8   8   8
#     4   9  17  36  58  83 124 159 208 261 319 393
#     4  11  21  37  60  96 130 176 223 264 320 403
#     4  10  19  38  61  88 119 168 209 263 345 390
#     4  12  21  36  64  93 131 178 219 265 329 398
#     4  10  19  34  61  87 112 155 217 265 325 395
#
# _framework density 24.187436000000002
#
# number of rings (size 3 to 8) (size 9 to 14) (size 15 to 20)
#    0.000    1.600    8.000    1.200    0.000    0.800 
#    0.000    0.000    4.400   15.600    0.000    0.000 
#    0.000    0.000    0.000    0.000    0.000    0.000 
#
# Total GULP energy -222896.783328 kJ/mol
# GULP energy per Si atom -5572.419583 kJ/mol
# Density = 2.413238 g / cm^3
# Si number density = 24.187436 Si / 1000 Ang^3
#
#
#
# Elastic Constant Matrix: (Units=GPa)
#
#
# Indices 1 2 3 4 5 6 
#
# 1 196.1439 23.8749 50.9679 0.0000 0.0000 0.0000
# 2 23.8749 56.6739 8.2139 0.0000 0.0000 0.0000
# 3 50.9679 8.2139 120.2624 0.0000 0.0000 0.0000
# 4 0.0000 0.0000 0.0000 -2.4640 0.0000 0.0000
# 5 0.0000 0.0000 0.0000 0.0000 62.9677 0.0000
# 6 0.0000 0.0000 0.0000 0.0000 0.0000 -2.6466
#
#
#
# Elastic Compliance Matrix: (Units=1/GPa)
#
#
# Indices 1 2 3 4 5 6 
#
# 1 0.005983 -0.002175 -0.002387 0.000000 0.000000 0.000000
# 2 -0.002175 0.018612 -0.000350 0.000000 0.000000 0.000000
# 3 -0.002387 -0.000350 0.009351 0.000000 0.000000 0.000000
# 4 0.000000 0.000000 0.000000 -0.405847 0.000000 0.000000
# 5 0.000000 0.000000 0.000000 0.000000 0.015881 0.000000
# 6 0.000000 0.000000 0.000000 0.000000 0.000000 -0.377843
#
#
# Mechanical properties :
#
#
# Convention : Reuss Voigt Hill
#
# Bulk Modulus (GPa) = 41.45448 59.91039 50.68244
# Shear Modulus (GPa) = -6.98324 30.90633 11.96154
#
# Velocity S-wave (km/s) = -1.70100 3.57849 2.22623
# Velocity P-wave (km/s) = 3.64941 6.47280 5.25430
#
# Compressibility (1/GPa) = 0.02412284
#
# Stress axis : x y z
#
# Youngs Moduli (GPa) = 167.13139 53.73008 106.94326
#
# Poissons Ratio (x) = 0.11684 0.25530
# Poissons Ratio (y) = 0.36344 0.03738
# Poissons Ratio (z) = 0.39898 0.01878
#
# Static dielectric constant tensor:
#      x y z
#    x 2.219660 0.000000 0.000000 
#    y 0.000000 1.961270 0.000000 
#    z 0.000000 0.000000 1.861710 
# 
# From -- ./inp_files/20333.got.cif
#   From: 2010.05.17/outbox.cif.g08.bks.cpg/sg56_11_cif.got.tgz:20333.got - 2010.06.03 13:42:01.
