data_PCOD9430502
_publ_section_title
;
Structure prediction by ZEFSAII (Michael W. Deem and Ramdas Pophale) SiO2 
 PCOD9430502
Probable space group: P C C N
;
_chemical_formula_sum "Si O2"
_cell_formula_units_Z 48
_cell_length_a 4.949068
_cell_length_b 20.697386
_cell_length_c 24.754663
_cell_angle_alpha 90.000000
_cell_angle_beta 90.000000
_cell_angle_gamma 90.000000
_cell_volume 2535.688720
_symmetry_space_group_name_H-M "P C C N"
_symmetry_group_IT_number 56
_symmetry_cell_setting 'orthorhombic'
loop_
_space_group_symop_operation_xyz
x,y,z
1/2-x,1/2-y,z
1/2+x,-y,1/2-z
-x,1/2+y,1/2-z
-x,-y,-z
1/2+x,1/2+y,-z
1/2-x,y,1/2+z
x,1/2-y,1/2+z
loop_
_atom_site_type_symbol
_atom_site_label
_atom_site_fract_x
_atom_site_fract_y
_atom_site_fract_z
Si Si1 0.993200 0.795963 0.556467
Si Si2 0.767818 0.413750 0.754925
Si Si3 0.721394 0.418281 0.997435
Si Si4 0.492056 0.295411 0.321908
Si Si5 0.760564 0.948832 0.310520
Si Si6 0.273494 0.043805 0.063274
O O1 0.750000 0.750000 0.534984
O O2 0.250000 0.750000 0.561118
O O3 0.115627 0.856241 0.523807
O O4 0.908207 0.817515 0.617351
O O5 0.898803 0.353730 0.785808
O O6 0.468870 0.411040 0.729116
O O7 0.787330 0.475851 0.794140
O O8 0.959983 0.428547 0.704636
O O9 0.678776 0.470161 0.949241
O O10 0.436991 0.411911 0.028929
O O11 0.927056 0.450353 0.039650
O O12 0.750000 0.250000 0.327457
O O13 0.250000 0.250000 0.300305
O O14 0.792897 0.940257 0.373985
#
# Coordination Sequence:
#
# PCOD9430502 Si02
#       6
#     8   8   8   8   8   8
#     4  10  20  34  54  79 107 139 175 219 269 320
#     4  10  20  34  54  79 107 139 175 219 269 320
#     4  10  20  34  54  79 107 139 175 219 269 321
#     4  10  20  34  54  79 107 139 175 219 269 320
#     4  10  20  34  54  79 107 139 175 219 269 320
#     4  10  20  34  54  79 107 139 175 219 269 321
#
# _framework density 18.929766000000001
#
# number of rings (size 3 to 8) (size 9 to 14) (size 15 to 20)
#    0.000    2.000    0.000    4.000    0.000    0.000 
#    0.000   10.000    0.000   15.000    0.000    0.000 
#    0.000    0.000    0.000    0.000    0.000    0.000 
#
# Total GULP energy -267401.290596 kJ/mol
# GULP energy per Si atom -5570.860221 kJ/mol
# Density = 1.888668 g / cm^3
# Si number density = 18.929766 Si / 1000 Ang^3
#
#
#
# Elastic Constant Matrix: (Units=GPa)
#
#
# Indices 1 2 3 4 5 6 
#
# 1 90.8492 11.1890 -5.0296 0.0000 0.0000 0.0000
# 2 11.1890 70.9386 22.3556 0.0000 0.0000 0.0000
# 3 -5.0296 22.3556 60.3913 0.0000 0.0000 0.0000
# 4 0.0000 0.0000 0.0000 17.7358 0.0000 0.0000
# 5 0.0000 0.0000 0.0000 0.0000 21.2164 0.0000
# 6 0.0000 0.0000 0.0000 0.0000 0.0000 33.1735
#
#
#
# Elastic Compliance Matrix: (Units=1/GPa)
#
#
# Indices 1 2 3 4 5 6 
#
# 1 0.011401 -0.002374 0.001828 0.000000 0.000000 0.000000
# 2 -0.002374 0.016453 -0.006288 0.000000 0.000000 0.000000
# 3 0.001828 -0.006288 0.019039 0.000000 0.000000 0.000000
# 4 0.000000 0.000000 0.000000 0.056383 0.000000 0.000000
# 5 0.000000 0.000000 0.000000 0.000000 0.047133 0.000000
# 6 0.000000 0.000000 0.000000 0.000000 0.000000 0.030145
#
#
# Mechanical properties :
#
#
# Convention : Reuss Voigt Hill
#
# Bulk Modulus (GPa) = 30.09868 31.02323 30.56095
# Shear Modulus (GPa) = 24.35499 27.33608 25.84554
#
# Velocity S-wave (km/s) = 3.59081 3.80423 3.69906
# Velocity P-wave (km/s) = 5.75557 5.97665 5.86715
#
# Compressibility (1/GPa) = 0.03322405
#
# Stress axis : x y z
#
# Youngs Moduli (GPa) = 87.71222 60.77957 52.52446
#
# Poissons Ratio (x) = 0.14432 -0.09604
# Poissons Ratio (y) = 0.20827 0.33029
# Poissons Ratio (z) = -0.16038 0.38220
#
# Static dielectric constant tensor:
#      x y z
#    x 1.662500 0.000000 0.000000 
#    y 0.000000 1.704510 0.000000 
#    z 0.000000 0.000000 1.669250 
# 
# From -- ./inp_files/20073.got.cif
#   From: 2010.05.17/outbox.cif.g08.bks.cpg/sg56_11_cif.got.tgz:20073.got - 2010.06.03 13:42:01.
