data_PCOD9430790
_publ_section_title
;
Structure prediction by ZEFSAII (Michael W. Deem and Ramdas Pophale) SiO2 
 PCOD9430790
Probable space group: P C C N
;
_chemical_formula_sum "Si O2"
_cell_formula_units_Z 56
_cell_length_a 10.705510
_cell_length_b 9.866166
_cell_length_c 20.706205
_cell_angle_alpha 90.000000
_cell_angle_beta 90.000000
_cell_angle_gamma 90.000000
_cell_volume 2187.037799
_symmetry_space_group_name_H-M "P C C N"
_symmetry_group_IT_number 56
_symmetry_cell_setting 'orthorhombic'
loop_
_space_group_symop_operation_xyz
x,y,z
1/2-x,1/2-y,z
1/2+x,-y,1/2-z
-x,1/2+y,1/2-z
-x,-y,-z
1/2+x,1/2+y,-z
1/2-x,y,1/2+z
x,1/2-y,1/2+z
loop_
_atom_site_type_symbol
_atom_site_label
_atom_site_fract_x
_atom_site_fract_y
_atom_site_fract_z
Si Si1 0.543602 0.738331 0.290049
Si Si2 0.892510 0.105869 0.976377
Si Si3 0.576985 0.174729 0.338393
Si Si4 0.677478 0.934138 0.011793
Si Si5 0.468590 0.819315 0.931849
Si Si6 0.757527 0.973653 0.774451
Si Si7 0.199474 0.101724 0.853702
O O1 0.462560 0.760094 0.224909
O O2 0.476437 0.718462 0.357616
O O3 0.638495 0.862897 0.293467
O O4 0.626039 0.600022 0.285035
O O5 0.912011 0.204664 0.914334
O O6 0.767749 0.019345 0.965268
O O7 0.883170 0.206929 0.035671
O O8 0.000000 0.000000 0.000000
O O9 0.448572 0.085707 0.345566
O O10 0.702877 0.100511 0.316492
O O11 0.602339 0.823178 0.970330
O O12 0.765524 0.895736 0.071793
O O13 0.583097 0.032863 0.050650
O O14 0.764039 0.999046 0.697158
O O15 0.250000 0.250000 0.830036
#
# Coordination Sequence:
#
# PCOD9430790 Si02
#       7
#     8   8   8   8   8   8   8
#     4  10  21  40  62  93 127 169 210 274 326 386
#     4  12  24  41  67  98 130 170 228 278 321 406
#     4  11  21  38  65  95 123 171 212 272 329 384
#     4  11  25  42  65  95 133 178 218 274 342 398
#     4  11  25  43  65  94 135 177 217 276 343 402
#     4  10  20  37  63  93 132 158 225 268 322 397
#     4  11  20  40  64  96 126 172 219 273 327 402
#
# _framework density 25.605409999999999
#
# number of rings (size 3 to 8) (size 9 to 14) (size 15 to 20)
#    0.000    1.143    4.286    3.857    0.000    1.143 
#    0.000    0.000    3.143    0.000    0.000    0.000 
#    0.000    0.000    0.000    0.000    0.000    0.000 
#
# Total GULP energy -312667.491588 kJ/mol
# GULP energy per Si atom -5583.348064 kJ/mol
# Density = 2.554713 g / cm^3
# Si number density = 25.605410 Si / 1000 Ang^3
#
#
#
# Elastic Constant Matrix: (Units=GPa)
#
#
# Indices 1 2 3 4 5 6 
#
# 1 78.1140 5.7196 21.9008 0.0000 0.0000 0.0000
# 2 5.7196 38.0030 17.6301 0.0000 0.0000 0.0000
# 3 21.9008 17.6301 155.4875 0.0000 0.0000 0.0000
# 4 0.0000 0.0000 0.0000 19.7206 0.0000 0.0000
# 5 0.0000 0.0000 0.0000 0.0000 30.5491 0.0000
# 6 0.0000 0.0000 0.0000 0.0000 0.0000 24.1604
#
#
#
# Elastic Compliance Matrix: (Units=1/GPa)
#
#
# Indices 1 2 3 4 5 6 
#
# 1 0.013380 -0.001203 -0.001748 0.000000 0.000000 0.000000
# 2 -0.001203 0.027883 -0.002992 0.000000 0.000000 0.000000
# 3 -0.001748 -0.002992 0.007017 0.000000 0.000000 0.000000
# 4 0.000000 0.000000 0.000000 0.050708 0.000000 0.000000
# 5 0.000000 0.000000 0.000000 0.000000 0.032734 0.000000
# 6 0.000000 0.000000 0.000000 0.000000 0.000000 0.041390
#
#
# Mechanical properties :
#
#
# Convention : Reuss Voigt Hill
#
# Bulk Modulus (GPa) = 27.47738 40.23397 33.85567
# Shear Modulus (GPa) = 25.36401 29.97628 27.67015
#
# Velocity S-wave (km/s) = 3.15075 3.42526 3.29087
# Velocity P-wave (km/s) = 4.89803 5.60272 5.26218
#
# Compressibility (1/GPa) = 0.03639357
#
# Stress axis : x y z
#
# Youngs Moduli (GPa) = 74.73832 35.86437 142.51322
#
# Poissons Ratio (x) = 0.04314 0.24915
# Poissons Ratio (y) = 0.08989 0.42642
# Poissons Ratio (z) = 0.13066 0.10731
#
# Static dielectric constant tensor:
#      x y z
#    x 2.161970 0.000000 0.000000 
#    y 0.000000 2.105220 0.000000 
#    z 0.000000 0.000000 2.028860 
# 
# From -- ./inp_files/18763.got.cif
#   From: 2010.05.17/outbox.cif.g08.bks.cpg/sg56_10_cif.got.tgz:18763.got - 2010.06.03 13:42:01.
