data_PCOD9430835
_publ_section_title
;
Structure prediction by ZEFSAII (Michael W. Deem and Ramdas Pophale) SiO2 
 PCOD9430835
Probable space group: P C C N
;
_chemical_formula_sum "Si O2"
_cell_formula_units_Z 48
_cell_length_a 9.543746
_cell_length_b 16.046813
_cell_length_c 14.429963
_cell_angle_alpha 90.000000
_cell_angle_beta 90.000000
_cell_angle_gamma 90.000000
_cell_volume 2209.901321
_symmetry_space_group_name_H-M "P C C N"
_symmetry_group_IT_number 56
_symmetry_cell_setting 'orthorhombic'
loop_
_space_group_symop_operation_xyz
x,y,z
1/2-x,1/2-y,z
1/2+x,-y,1/2-z
-x,1/2+y,1/2-z
-x,-y,-z
1/2+x,1/2+y,-z
1/2-x,y,1/2+z
x,1/2-y,1/2+z
loop_
_atom_site_type_symbol
_atom_site_label
_atom_site_fract_x
_atom_site_fract_y
_atom_site_fract_z
Si Si1 0.079213 0.910364 0.995027
Si Si2 0.407160 0.406155 0.560173
Si Si3 0.310705 0.163968 0.437328
Si Si4 0.118603 0.596789 0.084924
Si Si5 0.273168 0.407670 0.743846
Si Si6 0.944012 0.076905 0.215289
O O1 0.096918 0.889523 0.886111
O O2 0.222284 0.908204 0.052377
O O3 0.972279 0.846616 0.042291
O O4 0.000000 0.000000 0.000000
O O5 0.274259 0.407000 0.492088
O O6 0.528642 0.364716 0.499164
O O7 0.441936 0.501592 0.587185
O O8 0.353703 0.368493 0.656230
O O9 0.250000 0.250000 0.473588
O O10 0.273972 0.152855 0.330634
O O11 0.096514 0.626847 0.190246
O O12 0.359354 0.489723 0.775797
O O13 0.113598 0.431618 0.717167
#
# Coordination Sequence:
#
# PCOD9430835 Si02
#       6
#     8   8   8   8   8   8
#     4  12  21  39  63  94 127 165 221 269 323 390
#     4  10  20  38  59  92 124 167 206 265 332 378
#     4  12  25  41  60  92 133 177 213 257 329 408
#     4  10  21  35  64  96 129 154 210 290 329 368
#     4  11  22  36  62  96 126 162 210 280 329 385
#     4  11  21  35  63  96 127 155 217 281 333 369
#
# _framework density 21.720427000000001
#
# number of rings (size 3 to 8) (size 9 to 14) (size 15 to 20)
#    0.000    1.000    6.667    1.000    4.667    0.667 
#    0.000    0.833    0.000    0.000    4.333    0.000 
#    0.000    0.000    0.000    0.000    0.000    0.000 
#
# Total GULP energy -267847.055767 kJ/mol
# GULP energy per Si atom -5580.146995 kJ/mol
# Density = 2.167099 g / cm^3
# Si number density = 21.720427 Si / 1000 Ang^3
#
#
#
# Elastic Constant Matrix: (Units=GPa)
#
#
# Indices 1 2 3 4 5 6 
#
# 1 101.0618 5.4668 3.6667 0.0000 0.0000 0.0000
# 2 5.4668 19.8010 -12.8025 0.0000 0.0000 0.0000
# 3 3.6667 -12.8025 122.4358 0.0000 0.0000 0.0000
# 4 0.0000 0.0000 0.0000 8.8139 0.0000 0.0000
# 5 0.0000 0.0000 0.0000 0.0000 38.4614 0.0000
# 6 0.0000 0.0000 0.0000 0.0000 0.0000 10.4766
#
#
#
# Elastic Compliance Matrix: (Units=1/GPa)
#
#
# Indices 1 2 3 4 5 6 
#
# 1 0.010091 -0.003198 -0.000637 0.000000 0.000000 0.000000
# 2 -0.003198 0.055178 0.005865 0.000000 0.000000 0.000000
# 3 -0.000637 0.005865 0.008800 0.000000 0.000000 0.000000
# 4 0.000000 0.000000 0.000000 0.113457 0.000000 0.000000
# 5 0.000000 0.000000 0.000000 0.000000 0.026000 0.000000
# 6 0.000000 0.000000 0.000000 0.000000 0.000000 0.095451
#
#
# Mechanical properties :
#
#
# Convention : Reuss Voigt Hill
#
# Bulk Modulus (GPa) = 12.79900 26.21786 19.50843
# Shear Modulus (GPa) = 15.10770 28.01490 21.56130
#
# Velocity S-wave (km/s) = 2.64019 3.59527 3.15409
# Velocity P-wave (km/s) = 3.89866 5.41585 4.71863
#
# Compressibility (1/GPa) = 0.07813112
#
# Stress axis : x y z
#
# Youngs Moduli (GPa) = 99.09821 18.12327 113.63732
#
# Poissons Ratio (x) = 0.05795 0.07234
# Poissons Ratio (y) = 0.31688 -0.66653
# Poissons Ratio (z) = 0.06308 -0.10630
#
# Static dielectric constant tensor:
#      x y z
#    x 1.806810 0.000000 0.000000 
#    y 0.000000 1.889720 0.000000 
#    z 0.000000 0.000000 1.867510 
# 
# From -- ./inp_files/10688.got.cif
#   From: 2010.05.17/outbox.cif.g08.bks.cpg/sg56_6_cif.got.tgz:10688.got - 2010.06.03 13:42:01.
