data_PCOD9430770
_publ_section_title
;
Structure prediction by ZEFSAII (Michael W. Deem and Ramdas Pophale) SiO2 
 PCOD9430770
Probable space group: P C C N
;
_chemical_formula_sum "Si O2"
_cell_formula_units_Z 48
_cell_length_a 22.374321
_cell_length_b 8.586842
_cell_length_c 9.623633
_cell_angle_alpha 90.000000
_cell_angle_beta 90.000000
_cell_angle_gamma 90.000000
_cell_volume 1848.938174
_symmetry_space_group_name_H-M "P C C N"
_symmetry_group_IT_number 56
_symmetry_cell_setting 'orthorhombic'
loop_
_space_group_symop_operation_xyz
x,y,z
1/2-x,1/2-y,z
1/2+x,-y,1/2-z
-x,1/2+y,1/2-z
-x,-y,-z
1/2+x,1/2+y,-z
1/2-x,y,1/2+z
x,1/2-y,1/2+z
loop_
_atom_site_type_symbol
_atom_site_label
_atom_site_fract_x
_atom_site_fract_y
_atom_site_fract_z
Si Si1 0.067989 0.373723 0.703880
Si Si2 0.894913 0.022251 0.060989
Si Si3 0.468509 0.043019 0.169669
Si Si4 0.153235 0.920341 0.563195
Si Si5 0.815071 0.682801 0.719046
Si Si6 0.180996 0.711622 0.801796
O O1 0.079671 0.507537 0.591361
O O2 0.131806 0.299889 0.740298
O O3 0.029632 0.448423 0.827036
O O4 0.031189 0.226959 0.639243
O O5 0.839609 0.902346 0.080807
O O6 0.944780 0.965665 0.170467
O O7 0.868892 0.180163 0.123513
O O8 0.416541 0.954438 0.086894
O O9 0.171691 0.935637 0.402946
O O10 0.185043 0.050060 0.660297
O O11 0.171163 0.756604 0.640324
O O12 0.750000 0.750000 0.703945
O O13 0.250000 0.750000 0.827118
#
# Coordination Sequence:
#
# PCOD9430770 Si02
#       6
#     8   8   8   8   8   8
#     4  10  20  39  64  88 114 173 200 263 328 387
#     4   9  21  39  59  87 123 168 199 269 331 379
#     4   9  21  40  59  87 125 151 219 258 325 388
#     4   9  21  40  59  93 125 166 205 275 317 386
#     4   9  21  41  59  88 126 162 218 262 323 390
#     4  10  20  37  61  92 124 163 216 252 329 381
#
# _framework density 25.960846
#
# number of rings (size 3 to 8) (size 9 to 14) (size 15 to 20)
#    0.000    3.333    0.000    1.000    4.667    0.667 
#   12.000    6.667    0.000    0.000    0.000    0.000 
#    0.000    0.000    0.000    0.000    0.000    0.000 
#
# Total GULP energy -268187.100317 kJ/mol
# GULP energy per Si atom -5587.231257 kJ/mol
# Density = 2.590176 g / cm^3
# Si number density = 25.960846 Si / 1000 Ang^3
#
#
#
# Elastic Constant Matrix: (Units=GPa)
#
#
# Indices 1 2 3 4 5 6 
#
# 1 112.6816 31.3504 12.3475 0.0000 0.0000 0.0000
# 2 31.3504 49.7378 18.3684 0.0000 0.0000 0.0000
# 3 12.3475 18.3684 46.9799 0.0000 0.0000 0.0000
# 4 0.0000 0.0000 0.0000 28.2397 0.0000 0.0000
# 5 0.0000 0.0000 0.0000 0.0000 5.8734 0.0000
# 6 0.0000 0.0000 0.0000 0.0000 0.0000 33.4192
#
#
#
# Elastic Compliance Matrix: (Units=1/GPa)
#
#
# Indices 1 2 3 4 5 6 
#
# 1 0.010764 -0.006708 -0.000206 0.000000 0.000000 0.000000
# 2 -0.006708 0.027679 -0.009059 0.000000 0.000000 0.000000
# 3 -0.000206 -0.009059 0.024882 0.000000 0.000000 0.000000
# 4 0.000000 0.000000 0.000000 0.035411 0.000000 0.000000
# 5 0.000000 0.000000 0.000000 0.000000 0.170260 0.000000
# 6 0.000000 0.000000 0.000000 0.000000 0.000000 0.029923
#
#
# Mechanical properties :
#
#
# Convention : Reuss Voigt Hill
#
# Bulk Modulus (GPa) = 31.86971 37.05911 34.46441
# Shear Modulus (GPa) = 14.64880 23.32866 18.98873
#
# Velocity S-wave (km/s) = 2.37800 3.00093 2.70744
# Velocity P-wave (km/s) = 4.45450 5.12966 4.80396
#
# Compressibility (1/GPa) = 0.03137776
#
# Stress axis : x y z
#
# Youngs Moduli (GPa) = 92.90623 36.12801 40.19003
#
# Poissons Ratio (x) = 0.24236 0.00828
# Poissons Ratio (y) = 0.62324 0.36408
# Poissons Ratio (z) = 0.01915 0.32729
#
# Static dielectric constant tensor:
#      x y z
#    x 1.992760 0.000000 0.000000 
#    y 0.000000 2.194710 0.000000 
#    z 0.000000 0.000000 2.061170 
# 
# From -- ./inp_files/8871.got.cif
#   From: 2010.05.17/outbox.cif.g08.bks.cpg/sg56_5_cif.got.tgz:8871.got - 2010.06.03 13:42:01.
