data_PCOD9430935
_publ_section_title
;
Structure prediction by ZEFSAII (Michael W. Deem and Ramdas Pophale) SiO2 
 PCOD9430935
Probable space group: P C C N
;
_chemical_formula_sum "Si O2"
_cell_formula_units_Z 64
_cell_length_a 8.597249
_cell_length_b 13.074126
_cell_length_c 23.291047
_cell_angle_alpha 90.000000
_cell_angle_beta 90.000000
_cell_angle_gamma 90.000000
_cell_volume 2617.949008
_symmetry_space_group_name_H-M "P C C N"
_symmetry_group_IT_number 56
_symmetry_cell_setting 'orthorhombic'
loop_
_space_group_symop_operation_xyz
x,y,z
1/2-x,1/2-y,z
1/2+x,-y,1/2-z
-x,1/2+y,1/2-z
-x,-y,-z
1/2+x,1/2+y,-z
1/2-x,y,1/2+z
x,1/2-y,1/2+z
loop_
_atom_site_type_symbol
_atom_site_label
_atom_site_fract_x
_atom_site_fract_y
_atom_site_fract_z
Si Si1 0.024283 0.677372 0.321710
Si Si2 0.204761 0.924505 0.581929
Si Si3 0.677985 0.643710 0.919308
Si Si4 0.680412 0.364949 0.796050
Si Si5 0.088212 0.226612 0.293670
Si Si6 0.133515 0.093930 0.405410
Si Si7 0.862768 0.397349 0.170767
Si Si8 0.531570 0.890564 0.529639
O O1 0.193835 0.646922 0.342319
O O2 0.019381 0.801380 0.328288
O O3 0.915541 0.612482 0.362693
O O4 0.997632 0.658619 0.254479
O O5 0.223745 0.909258 0.650904
O O6 0.364436 0.869758 0.559356
O O7 0.033031 0.887197 0.562364
O O8 0.220176 0.044658 0.565912
O O9 0.750000 0.750000 0.902439
O O10 0.571164 0.674922 0.973551
O O11 0.750000 0.250000 0.784171
O O12 0.504432 0.329501 0.810050
O O13 0.661254 0.429066 0.737727
O O14 0.250000 0.250000 0.263341
O O15 0.126595 0.170028 0.351918
O O16 0.303847 0.104470 0.435158
O O17 0.108654 0.983617 0.375607
O O18 0.500000 0.000000 0.500000
#
# Coordination Sequence:
#
# PCOD9430935 Si02
#       8
#     8   8   8   8   8   8   8   8
#     4  10  20  41  62  95 140 179 225 278 351 419
#     4  11  24  44  73  98 137 185 231 292 351 416
#     4  11  24  43  67  99 136 179 238 298 348 421
#     4  11  20  44  63  95 146 180 226 278 347 426
#     4  11  23  39  64 101 139 179 228 288 347 428
#     4  12  24  42  70 105 134 178 241 284 353 425
#     4  10  20  38  66  96 141 186 219 287 344 425
#     4  10  25  47  66  95 136 182 235 297 351 407
#
# _framework density 24.446619999999999
#
# number of rings (size 3 to 8) (size 9 to 14) (size 15 to 20)
#    0.000    1.250    3.750    3.375    1.750    4.500 
#    4.500    2.500    0.000    0.000    0.000    0.000 
#    0.000    0.000    0.000    0.000    0.000    0.000 
#
# Total GULP energy -356793.955214 kJ/mol
# GULP energy per Si atom -5574.905550 kJ/mol
# Density = 2.439098 g / cm^3
# Si number density = 24.446620 Si / 1000 Ang^3
#
#
#
# Elastic Constant Matrix: (Units=GPa)
#
#
# Indices 1 2 3 4 5 6 
#
# 1 154.4168 13.2887 40.1262 0.0000 0.0000 0.0000
# 2 13.2887 38.6521 -1.0481 0.0000 0.0000 0.0000
# 3 40.1262 -1.0481 86.5731 0.0000 0.0000 0.0000
# 4 0.0000 0.0000 0.0000 49.6570 0.0000 0.0000
# 5 0.0000 0.0000 0.0000 0.0000 33.2034 0.0000
# 6 0.0000 0.0000 0.0000 0.0000 0.0000 21.5395
#
#
#
# Elastic Compliance Matrix: (Units=1/GPa)
#
#
# Indices 1 2 3 4 5 6 
#
# 1 0.007639 -0.002723 -0.003574 0.000000 0.000000 0.000000
# 2 -0.002723 0.026851 0.001587 0.000000 0.000000 0.000000
# 3 -0.003574 0.001587 0.013226 0.000000 0.000000 0.000000
# 4 0.000000 0.000000 0.000000 0.020138 0.000000 0.000000
# 5 0.000000 0.000000 0.000000 0.000000 0.030117 0.000000
# 6 0.000000 0.000000 0.000000 0.000000 0.000000 0.046426
#
#
# Mechanical properties :
#
#
# Convention : Reuss Voigt Hill
#
# Bulk Modulus (GPa) = 26.11135 42.70840 34.40987
# Shear Modulus (GPa) = 30.01501 36.03166 33.02333
#
# Velocity S-wave (km/s) = 3.50777 3.84329 3.67936
# Velocity P-wave (km/s) = 5.20673 6.09939 5.67065
#
# Compressibility (1/GPa) = 0.03829753
#
# Stress axis : x y z
#
# Youngs Moduli (GPa) = 130.90799 37.24240 75.60586
#
# Poissons Ratio (x) = 0.10142 0.27018
# Poissons Ratio (y) = 0.35649 -0.12001
# Poissons Ratio (z) = 0.46781 -0.05911
#
# Static dielectric constant tensor:
#      x y z
#    x 2.820160 0.000000 0.000000 
#    y 0.000000 2.019560 0.000000 
#    z 0.000000 0.000000 1.557450 
# 
# From -- ./inp_files/20677.got.cif
#   From: 2010.05.17/outbox.cif.g08.bks.cpg/sg56_11_cif.got.tgz:20677.got - 2010.06.03 13:42:01.
