data_PCOD9430056
_publ_section_title
;
Structure prediction by ZEFSAII (Michael W. Deem and Ramdas Pophale) SiO2 
 PCOD9430056
Probable space group: P C C N
;
_chemical_formula_sum "Si O2"
_cell_formula_units_Z 48
_cell_length_a 9.042310
_cell_length_b 10.156218
_cell_length_c 23.634917
_cell_angle_alpha 90.000000
_cell_angle_beta 90.000000
_cell_angle_gamma 90.000000
_cell_volume 2170.528476
_symmetry_space_group_name_H-M "P C C N"
_symmetry_group_IT_number 56
_symmetry_cell_setting 'orthorhombic'
loop_
_space_group_symop_operation_xyz
x,y,z
1/2-x,1/2-y,z
1/2+x,-y,1/2-z
-x,1/2+y,1/2-z
-x,-y,-z
1/2+x,1/2+y,-z
1/2-x,y,1/2+z
x,1/2-y,1/2+z
loop_
_atom_site_type_symbol
_atom_site_label
_atom_site_fract_x
_atom_site_fract_y
_atom_site_fract_z
Si Si1 0.873696 0.853792 0.943035
Si Si2 0.782317 0.596816 0.722429
Si Si3 0.255163 0.011093 0.152220
Si Si4 0.497831 0.839290 0.625987
Si Si5 0.333285 0.537473 0.957516
Si Si6 0.574220 0.967475 0.120270
O O1 0.750000 0.750000 0.961207
O O2 0.851437 0.880414 0.876332
O O3 0.825492 0.982782 0.979299
O O4 0.049775 0.841699 0.954805
O O5 0.750000 0.750000 0.735398
O O6 0.780474 0.520829 0.781154
O O7 0.662998 0.533205 0.679668
O O8 0.930174 0.609105 0.684981
O O9 0.172411 0.877719 0.133676
O O10 0.414677 0.031643 0.124598
O O11 0.580056 0.924687 0.578341
O O12 0.540975 0.689058 0.612929
O O13 0.176075 0.536501 0.926708
#
# Coordination Sequence:
#
# PCOD9430056 Si02
#       6
#     8   8   8   8   8   8
#     4  10  20  35  55  76 103 136 171 212 263 326
#     4   9  18  33  51  70  99 140 178 213 258 315
#     4  11  20  30  49  79 108 132 166 218 276 321
#     4   9  18  33  53  73  98 137 179 217 259 314
#     4   9  19  36  56  75  97 136 178 211 257 318
#     4  10  19  33  53  75 102 134 177 224 259 309
#
# _framework density 22.114431
#
# number of rings (size 3 to 8) (size 9 to 14) (size 15 to 20)
#    0.000    2.333    0.000    4.500    0.000    0.667 
#    0.000    0.833    0.000    0.000    0.000    0.000 
#    0.000    0.000    0.000    0.000    0.000    0.000 
#
# Total GULP energy -267484.373248 kJ/mol
# GULP energy per Si atom -5572.591109 kJ/mol
# Density = 2.206410 g / cm^3
# Si number density = 22.114431 Si / 1000 Ang^3
#
#
#
# Elastic Constant Matrix: (Units=GPa)
#
#
# Indices 1 2 3 4 5 6 
#
# 1 135.7993 23.6281 23.3698 0.0000 0.0000 0.0000
# 2 23.6281 47.6318 10.7967 0.0000 0.0000 0.0000
# 3 23.3698 10.7967 88.9706 0.0000 0.0000 0.0000
# 4 0.0000 0.0000 0.0000 9.3057 0.0000 0.0000
# 5 0.0000 0.0000 0.0000 0.0000 10.9395 0.0000
# 6 0.0000 0.0000 0.0000 0.0000 0.0000 34.3782
#
#
#
# Elastic Compliance Matrix: (Units=1/GPa)
#
#
# Indices 1 2 3 4 5 6 
#
# 1 0.008311 -0.003730 -0.001730 0.000000 0.000000 0.000000
# 2 -0.003730 0.023263 -0.001843 0.000000 0.000000 0.000000
# 3 -0.001730 -0.001843 0.011918 0.000000 0.000000 0.000000
# 4 0.000000 0.000000 0.000000 0.107462 0.000000 0.000000
# 5 0.000000 0.000000 0.000000 0.000000 0.091412 0.000000
# 6 0.000000 0.000000 0.000000 0.000000 0.000000 0.029088
#
#
# Mechanical properties :
#
#
# Convention : Reuss Voigt Hill
#
# Bulk Modulus (GPa) = 34.62168 43.11011 38.86589
# Shear Modulus (GPa) = 16.90970 25.23181 21.07075
#
# Velocity S-wave (km/s) = 2.76822 3.38148 3.09010
# Velocity P-wave (km/s) = 5.08990 5.89765 5.50860
#
# Compressibility (1/GPa) = 0.02888364
#
# Stress axis : x y z
#
# Youngs Moduli (GPa) = 120.32794 42.98737 83.90803
#
# Poissons Ratio (x) = 0.16036 0.14518
# Poissons Ratio (y) = 0.44887 0.15465
# Poissons Ratio (z) = 0.20820 0.07923
#
# Static dielectric constant tensor:
#      x y z
#    x 1.845520 0.000000 0.000000 
#    y 0.000000 1.870010 0.000000 
#    z 0.000000 0.000000 1.794630 
# 
# From -- ./inp_files/20472.got.cif
#   From: 2010.05.17/outbox.cif.g08.bks.cpg/sg56_11_cif.got.tgz:20472.got - 2010.06.03 13:42:01.
