data_PCOD9430131
_publ_section_title
;
Structure prediction by ZEFSAII (Michael W. Deem and Ramdas Pophale) SiO2 
 PCOD9430131
Probable space group: P C C N
;
_chemical_formula_sum "Si O2"
_cell_formula_units_Z 64
_cell_length_a 10.374939
_cell_length_b 11.200393
_cell_length_c 22.949814
_cell_angle_alpha 90.000000
_cell_angle_beta 90.000000
_cell_angle_gamma 90.000000
_cell_volume 2666.846282
_symmetry_space_group_name_H-M "P C C N"
_symmetry_group_IT_number 56
_symmetry_cell_setting 'orthorhombic'
loop_
_space_group_symop_operation_xyz
x,y,z
1/2-x,1/2-y,z
1/2+x,-y,1/2-z
-x,1/2+y,1/2-z
-x,-y,-z
1/2+x,1/2+y,-z
1/2-x,y,1/2+z
x,1/2-y,1/2+z
loop_
_atom_site_type_symbol
_atom_site_label
_atom_site_fract_x
_atom_site_fract_y
_atom_site_fract_z
Si Si1 0.411195 0.425038 0.562161
Si Si2 0.196463 0.537900 0.829088
Si Si3 0.608041 0.285654 0.022422
Si Si4 0.962468 0.066798 0.127637
Si Si5 0.554051 0.803764 0.828624
Si Si6 0.010692 0.799936 0.101706
Si Si7 0.114573 0.202158 0.293372
Si Si8 0.640596 0.606162 0.556638
O O1 0.510540 0.318914 0.543239
O O2 0.369337 0.390520 0.627058
O O3 0.494999 0.545610 0.560542
O O4 0.312336 0.424263 0.508312
O O5 0.342922 0.580406 0.826620
O O6 0.090763 0.641509 0.831626
O O7 0.142132 0.438351 0.784454
O O8 0.203317 0.464531 0.890483
O O9 0.750000 0.250000 0.041917
O O10 0.571783 0.399740 0.060843
O O11 0.607650 0.300477 0.952682
O O12 0.059304 0.170172 0.146467
O O13 0.005807 0.931578 0.127140
O O14 0.593549 0.785290 0.762335
O O15 0.001021 0.718456 0.160038
O O16 0.885272 0.745806 0.067728
O O17 0.250000 0.250000 0.318815
#
# Coordination Sequence:
#
# PCOD9430131 Si02
#       8
#     8   8   8   8   8   8   8   8
#     4   8  15  32  54  83 114 149 194 245 301 363
#     4  10  20  36  61  91 112 156 207 247 308 375
#     4  10  19  34  59  87 122 156 192 255 316 371
#     4  11  20  37  62  91 121 158 206 254 312 380
#     4  10  22  36  63  85 117 157 206 257 299 356
#     4  10  21  35  57  87 119 159 200 247 312 364
#     4  11  23  41  62  82 119 166 207 255 304 365
#     4   8  15  29  55  82 114 148 193 238 300 362
#
# _framework density 23.998383
#
# number of rings (size 3 to 8) (size 9 to 14) (size 15 to 20)
#    0.000    2.250    1.250    3.000    1.750    0.000 
#    0.000    1.250   27.500    0.000    0.000    0.000 
#    0.000    0.000    0.000    0.000    0.000    0.000 
#
# Total GULP energy -356690.004347 kJ/mol
# GULP energy per Si atom -5573.281318 kJ/mol
# Density = 2.394376 g / cm^3
# Si number density = 23.998383 Si / 1000 Ang^3
#
#
#
# Elastic Constant Matrix: (Units=GPa)
#
#
# Indices 1 2 3 4 5 6 
#
# 1 22.9216 -3.9242 -3.7170 0.0000 0.0000 0.0000
# 2 -3.9242 96.9230 0.0885 0.0000 0.0000 0.0000
# 3 -3.7170 0.0885 130.5584 0.0000 0.0000 0.0000
# 4 0.0000 0.0000 0.0000 39.2489 0.0000 0.0000
# 5 0.0000 0.0000 0.0000 0.0000 20.2607 0.0000
# 6 0.0000 0.0000 0.0000 0.0000 0.0000 13.1515
#
#
#
# Elastic Compliance Matrix: (Units=1/GPa)
#
#
# Indices 1 2 3 4 5 6 
#
# 1 0.044136 0.001786 0.001255 0.000000 0.000000 0.000000
# 2 0.001786 0.010390 0.000044 0.000000 0.000000 0.000000
# 3 0.001255 0.000044 0.007695 0.000000 0.000000 0.000000
# 4 0.000000 0.000000 0.000000 0.025478 0.000000 0.000000
# 5 0.000000 0.000000 0.000000 0.000000 0.049357 0.000000
# 6 0.000000 0.000000 0.000000 0.000000 0.000000 0.076037
#
#
# Mechanical properties :
#
#
# Convention : Reuss Voigt Hill
#
# Bulk Modulus (GPa) = 14.62180 26.14417 20.38298
# Shear Modulus (GPa) = 21.76560 31.72927 26.74743
#
# Velocity S-wave (km/s) = 3.01485 3.64007 3.34211
# Velocity P-wave (km/s) = 4.26909 5.34646 4.83786
#
# Compressibility (1/GPa) = 0.06839105
#
# Stress axis : x y z
#
# Youngs Moduli (GPa) = 22.65712 96.24890 129.95250
#
# Poissons Ratio (x) = -0.17188 -0.16314
# Poissons Ratio (y) = -0.04046 -0.00569
# Poissons Ratio (z) = -0.02844 -0.00422
#
# Static dielectric constant tensor:
#      x y z
#    x 1.993860 0.000000 0.000000 
#    y 0.000000 1.942560 0.000000 
#    z 0.000000 0.000000 2.047080 
# 
# From -- ./inp_files/21020.got.cif
#   From: 2010.05.17/outbox.cif.g08.bks.cpg/sg56_11_cif.got.tgz:21020.got - 2010.06.03 13:42:01.
