data_PCOD9430526
_publ_section_title
;
Structure prediction by ZEFSAII (Michael W. Deem and Ramdas Pophale) SiO2 
 PCOD9430526
Probable space group: P C C N
;
_chemical_formula_sum "Si O2"
_cell_formula_units_Z 32
_cell_length_a 5.169047
_cell_length_b 11.713939
_cell_length_c 21.930969
_cell_angle_alpha 90.000000
_cell_angle_beta 90.000000
_cell_angle_gamma 90.000000
_cell_volume 1327.918007
_symmetry_space_group_name_H-M "P C C N"
_symmetry_group_IT_number 56
_symmetry_cell_setting 'orthorhombic'
loop_
_space_group_symop_operation_xyz
x,y,z
1/2-x,1/2-y,z
1/2+x,-y,1/2-z
-x,1/2+y,1/2-z
-x,-y,-z
1/2+x,1/2+y,-z
1/2-x,y,1/2+z
x,1/2-y,1/2+z
loop_
_atom_site_type_symbol
_atom_site_label
_atom_site_fract_x
_atom_site_fract_y
_atom_site_fract_z
Si Si1 0.709326 0.010683 0.210077
Si Si2 0.549955 0.844904 0.368606
Si Si3 0.573333 0.457070 0.400805
Si Si4 0.695798 0.397050 0.015743
O O1 0.607981 0.926253 0.156215
O O2 0.811951 0.124552 0.175510
O O3 0.456332 0.031496 0.251549
O O4 0.750000 0.750000 0.346981
O O5 0.694385 0.967126 0.373975
O O6 0.463558 0.816485 0.438259
O O7 0.411495 0.546427 0.441490
O O8 0.676116 0.367911 0.450733
O O9 0.500000 0.500000 0.000000
#
# Coordination Sequence:
#
# PCOD9430526 Si02
#       4
#     8   8   8   8
#     4  11  21  36  55  86 121 164 214 254 299 374
#     4  10  20  34  58  92 129 152 203 272 321 359
#     4   9  17  33  55  83 120 151 204 251 308 368
#     4   8  16  30  52  84 119 151 191 246 321 367
#
# _framework density 24.097874000000001
#
# number of rings (size 3 to 8) (size 9 to 14) (size 15 to 20)
#    0.000    2.500    2.500    0.000    0.000    4.000 
#    0.000    0.000    0.000    0.000    0.000  124.250 
#    0.000    0.000    0.000    0.000    0.000    0.250 
#
# Total GULP energy -178400.334951 kJ/mol
# GULP energy per Si atom -5575.010467 kJ/mol
# Density = 2.404303 g / cm^3
# Si number density = 24.097874 Si / 1000 Ang^3
#
#
#
# Elastic Constant Matrix: (Units=GPa)
#
#
# Indices 1 2 3 4 5 6 
#
# 1 155.8693 27.4313 87.5026 0.0000 0.0000 0.0000
# 2 27.4313 57.5914 31.6087 0.0000 0.0000 0.0000
# 3 87.5026 31.6087 195.2738 0.0000 0.0000 0.0000
# 4 0.0000 0.0000 0.0000 -0.2006 0.0000 0.0000
# 5 0.0000 0.0000 0.0000 0.0000 44.1691 0.0000
# 6 0.0000 0.0000 0.0000 0.0000 0.0000 34.7094
#
#
#
# Elastic Compliance Matrix: (Units=1/GPa)
#
#
# Indices 1 2 3 4 5 6 
#
# 1 0.008826 -0.002231 -0.003594 0.000000 0.000000 0.000000
# 2 -0.002231 0.019621 -0.002176 0.000000 0.000000 0.000000
# 3 -0.003594 -0.002176 0.007084 0.000000 0.000000 0.000000
# 4 0.000000 0.000000 0.000000 -4.985678 0.000000 0.000000
# 5 0.000000 0.000000 0.000000 0.000000 0.022640 0.000000
# 6 0.000000 0.000000 0.000000 0.000000 0.000000 0.028811
#
#
# Mechanical properties :
#
#
# Convention : Reuss Voigt Hill
#
# Bulk Modulus (GPa) = 51.20886 77.97997 64.59442
# Shear Modulus (GPa) = -1.02539 33.21503 16.09482
#
# Velocity S-wave (km/s) = -0.65302 3.71663 2.58717
# Velocity P-wave (km/s) = 4.55279 7.13076 5.98229
#
# Compressibility (1/GPa) = 0.01952787
#
# Stress axis : x y z
#
# Youngs Moduli (GPa) = 113.30476 50.96612 141.17162
#
# Poissons Ratio (x) = 0.11373 0.50732
# Poissons Ratio (y) = 0.25283 0.30720
# Poissons Ratio (z) = 0.40718 0.11091
#
# Static dielectric constant tensor:
#      x y z
#    x 2.080650 0.000000 0.000000 
#    y 0.000000 1.929630 0.000000 
#    z 0.000000 0.000000 2.072200 
# 
# From -- ./inp_files/17333.got.cif
#   From: 2010.05.17/outbox.cif.g08.bks.cpg/sg56_9_cif.got.tgz:17333.got - 2010.06.03 13:42:01.
