data_PCOD9430268
_publ_section_title
;
Structure prediction by ZEFSAII (Michael W. Deem and Ramdas Pophale) SiO2 
 PCOD9430268
Probable space group: P C C N
;
_chemical_formula_sum "Si O2"
_cell_formula_units_Z 56
_cell_length_a 10.228802
_cell_length_b 15.697541
_cell_length_c 14.843951
_cell_angle_alpha 90.000000
_cell_angle_beta 90.000000
_cell_angle_gamma 90.000000
_cell_volume 2383.449256
_symmetry_space_group_name_H-M "P C C N"
_symmetry_group_IT_number 56
_symmetry_cell_setting 'orthorhombic'
loop_
_space_group_symop_operation_xyz
x,y,z
1/2-x,1/2-y,z
1/2+x,-y,1/2-z
-x,1/2+y,1/2-z
-x,-y,-z
1/2+x,1/2+y,-z
1/2-x,y,1/2+z
x,1/2-y,1/2+z
loop_
_atom_site_type_symbol
_atom_site_label
_atom_site_fract_x
_atom_site_fract_y
_atom_site_fract_z
Si Si1 0.565198 0.293613 0.794424
Si Si2 0.656057 0.913110 0.284530
Si Si3 0.354617 0.315510 0.393697
Si Si4 0.057838 0.461153 0.210216
Si Si5 0.712345 0.346540 0.964516
Si Si6 0.515740 0.110488 0.027777
Si Si7 0.524889 0.201177 0.612554
O O1 0.484074 0.236189 0.864524
O O2 0.478403 0.370829 0.756629
O O3 0.670636 0.339299 0.859853
O O4 0.593538 0.231291 0.708275
O O5 0.693010 0.855657 0.198901
O O6 0.785724 0.968987 0.298383
O O7 0.608204 0.847656 0.360978
O O8 0.525776 0.967146 0.261023
O O9 0.250000 0.250000 0.431137
O O10 0.395727 0.389861 0.459786
O O11 0.001243 0.451205 0.110571
O O12 0.750000 0.250000 0.987953
O O13 0.843182 0.399044 0.982025
O O14 0.603207 0.359880 0.042422
O O15 0.503191 0.207760 0.065741
#
# Coordination Sequence:
#
# PCOD9430268 Si02
#       7
#     8   8   8   8   8   8   8
#     4  10  20  39  66  94 130 166 220 276 339 399
#     4  11  26  44  66  95 137 181 229 274 353 411
#     4  11  21  41  70  96 126 168 227 295 333 400
#     4  11  26  45  63  97 134 185 222 280 345 425
#     4  10  19  37  60 104 130 160 216 276 342 395
#     4  10  23  39  70  98 131 169 231 294 337 401
#     4   9  21  38  65  98 126 173 220 285 329 404
#
# _framework density 23.495360999999999
#
# number of rings (size 3 to 8) (size 9 to 14) (size 15 to 20)
#    0.000    1.714    4.286    0.000    4.000    4.571 
#    0.000    0.714    0.000    0.000    0.000    0.000 
#    0.000    0.000    0.000    0.000    0.000    0.000 
#
# Total GULP energy -312495.285508 kJ/mol
# GULP energy per Si atom -5580.272955 kJ/mol
# Density = 2.344188 g / cm^3
# Si number density = 23.495361 Si / 1000 Ang^3
#
#
#
# Elastic Constant Matrix: (Units=GPa)
#
#
# Indices 1 2 3 4 5 6 
#
# 1 114.7545 24.7666 30.8740 0.0000 0.0000 0.0000
# 2 24.7666 71.4448 8.7525 0.0000 0.0000 0.0000
# 3 30.8740 8.7525 88.9469 0.0000 0.0000 0.0000
# 4 0.0000 0.0000 0.0000 6.8731 0.0000 0.0000
# 5 0.0000 0.0000 0.0000 0.0000 -108.8250 0.0000
# 6 0.0000 0.0000 0.0000 0.0000 0.0000 27.8384
#
#
#
# Elastic Compliance Matrix: (Units=1/GPa)
#
#
# Indices 1 2 3 4 5 6 
#
# 1 0.010272 -0.003162 -0.003254 0.000000 0.000000 0.000000
# 2 -0.003162 0.015141 -0.000392 0.000000 0.000000 0.000000
# 3 -0.003254 -0.000392 0.012411 0.000000 0.000000 0.000000
# 4 0.000000 0.000000 0.000000 0.145496 0.000000 0.000000
# 5 0.000000 0.000000 0.000000 0.000000 -0.009189 0.000000
# 6 0.000000 0.000000 0.000000 0.000000 0.000000 0.035922
#
#
# Mechanical properties :
#
#
# Convention : Reuss Voigt Hill
#
# Bulk Modulus (GPa) = 41.31135 44.88138 43.09637
# Shear Modulus (GPa) = 21.57600 -0.77248 10.40176
#
# Velocity S-wave (km/s) = 3.03365 -0.57402 2.10636
# Velocity P-wave (km/s) = 5.46732 4.32486 4.92930
#
# Compressibility (1/GPa) = 0.02420642
#
# Stress axis : x y z
#
# Youngs Moduli (GPa) = 97.34904 66.04552 80.57446
#
# Poissons Ratio (x) = 0.20885 0.26222
# Poissons Ratio (y) = 0.30784 0.03161
# Poissons Ratio (z) = 0.31681 0.02591
#
# Static dielectric constant tensor:
#      x y z
#    x 1.953050 0.000000 0.000000 
#    y 0.000000 1.918220 0.000000 
#    z 0.000000 0.000000 1.935660 
# 
# From -- ./inp_files/10875.got.cif
#   From: 2010.05.17/outbox.cif.g08.bks.cpg/sg56_6_cif.got.tgz:10875.got - 2010.06.03 13:42:01.
