data_PCOD9430743
_publ_section_title
;
Structure prediction by ZEFSAII (Michael W. Deem and Ramdas Pophale) SiO2 
 PCOD9430743
Probable space group: P C C N
;
_chemical_formula_sum "Si O2"
_cell_formula_units_Z 64
_cell_length_a 8.341963
_cell_length_b 21.278593
_cell_length_c 18.375141
_cell_angle_alpha 90.000000
_cell_angle_beta 90.000000
_cell_angle_gamma 90.000000
_cell_volume 3261.683731
_symmetry_space_group_name_H-M "P C C N"
_symmetry_group_IT_number 56
_symmetry_cell_setting 'orthorhombic'
loop_
_space_group_symop_operation_xyz
x,y,z
1/2-x,1/2-y,z
1/2+x,-y,1/2-z
-x,1/2+y,1/2-z
-x,-y,-z
1/2+x,1/2+y,-z
1/2-x,y,1/2+z
x,1/2-y,1/2+z
loop_
_atom_site_type_symbol
_atom_site_label
_atom_site_fract_x
_atom_site_fract_y
_atom_site_fract_z
Si Si1 0.558036 0.625656 0.082950
Si Si2 0.557922 0.874339 0.083044
Si Si3 0.556075 0.124630 0.582934
Si Si4 0.443817 0.000559 0.832985
Si Si5 0.943841 0.999397 0.167023
Si Si6 0.056266 0.624627 0.917169
Si Si7 0.945840 0.249973 0.667077
Si Si8 0.557825 0.250032 0.834770
O O1 0.750057 0.625146 0.083016
O O2 0.500731 0.563350 0.125450
O O3 0.499896 0.687917 0.123849
O O4 0.499388 0.625006 0.000098
O O5 0.500686 0.936644 0.125561
O O6 0.499941 0.812069 0.123962
O O7 0.499060 0.874986 0.000220
O O8 0.749907 0.124772 0.583499
O O9 0.501783 0.187278 0.625115
O O10 0.501335 0.061898 0.624676
O O11 0.249987 0.000460 0.833508
O O12 0.499993 0.999916 0.750005
O O13 0.498556 0.938109 0.875454
O O14 0.001877 0.687267 0.874995
O O15 0.750000 0.250000 0.667152
O O16 0.998382 0.249912 0.750926
O O17 0.750000 0.250000 0.834524
#
# Coordination Sequence:
#
# PCOD9430743 Si02
#       8
#     8   8   8   8   8   8   8   8
#     4  11  23  38  56  85 119 150 188 239 290 338
#     4  11  23  38  56  85 119 150 188 239 290 338
#     4  10  20  37  59  84 113 151 195 235 279 341
#     4  10  22  38  58  84 117 154 195 239 284 336
#     4  10  22  38  58  84 117 154 195 239 284 336
#     4  10  20  37  59  84 113 151 195 235 279 341
#     4   9  19  35  58  84 108 139 190 241 276 322
#     4  11  22  39  62  84 110 151 192 233 286 346
#
# _framework density 19.621767999999999
#
# number of rings (size 3 to 8) (size 9 to 14) (size 15 to 20)
#    0.000    1.750    0.000    4.125    0.000    6.000 
#    0.000    2.500    0.000    0.000    0.000    0.000 
#    0.000    0.000    0.000    0.000    0.000    0.000 
#
# Total GULP energy -357811.475415 kJ/mol
# GULP energy per Si atom -5590.804303 kJ/mol
# Density = 1.957711 g / cm^3
# Si number density = 19.621768 Si / 1000 Ang^3
#
#
#
# Elastic Constant Matrix: (Units=GPa)
#
#
# Indices 1 2 3 4 5 6 
#
# 1 15.4784 29.2258 21.7068 0.0000 0.0000 0.0000
# 2 29.2258 251.0708 153.1584 0.0000 0.0000 0.0000
# 3 21.7068 153.1584 243.0396 0.0000 0.0000 0.0000
# 4 0.0000 0.0000 0.0000 48.0436 0.0000 0.0000
# 5 0.0000 0.0000 0.0000 0.0000 32.6651 0.0000
# 6 0.0000 0.0000 0.0000 0.0000 0.0000 1.2842
#
#
#
# Elastic Compliance Matrix: (Units=1/GPa)
#
#
# Indices 1 2 3 4 5 6 
#
# 1 0.083501 -0.008399 -0.002165 0.000000 0.000000 0.000000
# 2 -0.008399 0.007315 -0.003860 0.000000 0.000000 0.000000
# 3 -0.002165 -0.003860 0.006740 0.000000 0.000000 0.000000
# 4 0.000000 0.000000 0.000000 0.020814 0.000000 0.000000
# 5 0.000000 0.000000 0.000000 0.000000 0.030614 0.000000
# 6 0.000000 0.000000 0.000000 0.000000 0.000000 0.778666
#
#
# Mechanical properties :
#
#
# Convention : Reuss Voigt Hill
#
# Bulk Modulus (GPa) = 14.55411 101.97453 58.26432
# Shear Modulus (GPa) = 5.10516 36.76513 20.93515
#
# Velocity S-wave (km/s) = 1.61475 4.33331 3.26994
# Velocity P-wave (km/s) = 3.30303 8.78178 6.63437
#
# Compressibility (1/GPa) = 0.06870912
#
# Stress axis : x y z
#
# Youngs Moduli (GPa) = 11.97585 136.70257 148.36430
#
# Poissons Ratio (x) = 1.14823 0.32116
# Poissons Ratio (y) = 0.10059 0.57264
# Poissons Ratio (z) = 0.02592 0.52763
#
# Static dielectric constant tensor:
#      x y z
#    x 1.678970 0.000000 0.000000 
#    y 0.000000 1.688960 0.000000 
#    z 0.000000 0.000000 1.634220 
# 
# From -- ./inp_files/15225.got.cif
#   From: 2010.05.17/outbox.cif.g08.bks.cpg/sg56_8_cif.got.tgz:15225.got - 2010.06.03 13:42:01.
