data_PCOD9430793
_publ_section_title
;
Structure prediction by ZEFSAII (Michael W. Deem and Ramdas Pophale) SiO2 
 PCOD9430793
Probable space group: P C C N
;
_chemical_formula_sum "Si O2"
_cell_formula_units_Z 52
_cell_length_a 19.806615
_cell_length_b 5.542158
_cell_length_c 18.944988
_cell_angle_alpha 90.000000
_cell_angle_beta 90.000000
_cell_angle_gamma 90.000000
_cell_volume 2079.617662
_symmetry_space_group_name_H-M "P C C N"
_symmetry_group_IT_number 56
_symmetry_cell_setting 'orthorhombic'
loop_
_space_group_symop_operation_xyz
x,y,z
1/2-x,1/2-y,z
1/2+x,-y,1/2-z
-x,1/2+y,1/2-z
-x,-y,-z
1/2+x,1/2+y,-z
1/2-x,y,1/2+z
x,1/2-y,1/2+z
loop_
_atom_site_type_symbol
_atom_site_label
_atom_site_fract_x
_atom_site_fract_y
_atom_site_fract_z
Si Si1 0.959806 0.780013 0.860372
Si Si2 0.109135 0.205343 0.008411
Si Si3 0.173535 0.353131 0.363196
Si Si4 0.655038 0.419814 0.796782
Si Si5 0.174648 0.704506 0.054625
Si Si6 0.750000 0.250000 0.689610
Si Si7 0.068666 0.517935 0.266255
O O1 0.958965 0.756826 0.944738
O O2 0.965540 0.554092 0.807772
O O3 0.885066 0.875837 0.838943
O O4 0.015550 0.959222 0.829504
O O5 0.152376 0.434389 0.036791
O O6 0.130840 0.927738 0.024550
O O7 0.124154 0.224875 0.925516
O O8 0.250000 0.250000 0.371706
O O9 0.192748 0.637272 0.359250
O O10 0.127742 0.336221 0.292509
O O11 0.674139 0.238434 0.860726
O O12 0.718736 0.445282 0.744435
O O13 0.602167 0.274210 0.749140
O O14 0.250000 0.750000 0.028527
#
# Coordination Sequence:
#
# PCOD9430793 Si02
#       7
#     8   8   8   8   8   4   8
#     4  11  22  41  68  99 133 180 236 299 353 425
#     4  11  26  41  69  97 142 185 237 286 358 430
#     4  11  25  43  64  97 138 188 229 294 364 439
#     4  10  20  37  63  96 130 174 225 293 351 414
#     4  11  21  40  64  98 134 179 228 291 351 419
#     4  10  22  40  62  96 136 176 234 284 362 430
#     4  11  22  41  68  95 138 175 240 288 365 419
#
# _framework density 25.004595999999999
#
# number of rings (size 3 to 8) (size 9 to 14) (size 15 to 20)
#    0.000    1.231    3.846    2.308    3.231    0.615 
#    0.000    0.000    0.000    3.692    0.000    0.000 
#    0.000    0.000    0.000    0.000    0.000    0.000 
#
# Total GULP energy -289617.721224 kJ/mol
# GULP energy per Si atom -5569.571562 kJ/mol
# Density = 2.494768 g / cm^3
# Si number density = 25.004596 Si / 1000 Ang^3
#
#
#
# Elastic Constant Matrix: (Units=GPa)
#
#
# Indices 1 2 3 4 5 6 
#
# 1 36.1341 14.6855 -2.0267 0.0000 0.0000 0.0000
# 2 14.6855 71.8521 13.9654 0.0000 0.0000 0.0000
# 3 -2.0267 13.9654 85.0726 0.0000 0.0000 0.0000
# 4 0.0000 0.0000 0.0000 20.6467 0.0000 0.0000
# 5 0.0000 0.0000 0.0000 0.0000 28.8397 0.0000
# 6 0.0000 0.0000 0.0000 0.0000 0.0000 33.5829
#
#
#
# Elastic Compliance Matrix: (Units=1/GPa)
#
#
# Indices 1 2 3 4 5 6 
#
# 1 0.030448 -0.006574 0.001804 0.000000 0.000000 0.000000
# 2 -0.006574 0.015795 -0.002750 0.000000 0.000000 0.000000
# 3 0.001804 -0.002750 0.012249 0.000000 0.000000 0.000000
# 4 0.000000 0.000000 0.000000 0.048434 0.000000 0.000000
# 5 0.000000 0.000000 0.000000 0.000000 0.034674 0.000000
# 6 0.000000 0.000000 0.000000 0.000000 0.000000 0.029777
#
#
# Mechanical properties :
#
#
# Convention : Reuss Voigt Hill
#
# Bulk Modulus (GPa) = 23.01261 27.36746 25.19004
# Shear Modulus (GPa) = 24.88801 27.70949 26.29875
#
# Velocity S-wave (km/s) = 3.15832 3.33254 3.24660
# Velocity P-wave (km/s) = 4.74587 5.07706 4.91425
#
# Compressibility (1/GPa) = 0.04345443
#
# Stress axis : x y z
#
# Youngs Moduli (GPa) = 32.84331 63.30927 81.63914
#
# Poissons Ratio (x) = 0.41618 -0.14732
# Poissons Ratio (y) = 0.21590 0.22447
# Poissons Ratio (z) = -0.05927 0.17407
#
# Static dielectric constant tensor:
#      x y z
#    x 2.066970 0.000000 0.000000 
#    y 0.000000 2.056240 0.000000 
#    z 0.000000 0.000000 2.012430 
# 
# From -- ./inp_files/19457.got.cif
#   From: 2010.05.17/outbox.cif.g08.bks.cpg/sg56_10_cif.got.tgz:19457.got - 2010.06.03 13:42:01.
