data_PCOD9430578
_publ_section_title
;
Structure prediction by ZEFSAII (Michael W. Deem and Ramdas Pophale) SiO2 
 PCOD9430578
Probable space group: P C C N
;
_chemical_formula_sum "Si O2"
_cell_formula_units_Z 48
_cell_length_a 16.587395
_cell_length_b 16.540288
_cell_length_c 9.139051
_cell_angle_alpha 90.000000
_cell_angle_beta 90.000000
_cell_angle_gamma 90.000000
_cell_volume 2507.392687
_symmetry_space_group_name_H-M "P C C N"
_symmetry_group_IT_number 56
_symmetry_cell_setting 'orthorhombic'
loop_
_space_group_symop_operation_xyz
x,y,z
1/2-x,1/2-y,z
1/2+x,-y,1/2-z
-x,1/2+y,1/2-z
-x,-y,-z
1/2+x,1/2+y,-z
1/2-x,y,1/2+z
x,1/2-y,1/2+z
loop_
_atom_site_type_symbol
_atom_site_label
_atom_site_fract_x
_atom_site_fract_y
_atom_site_fract_z
Si Si1 0.967336 0.160800 0.842421
Si Si2 0.877241 0.236462 0.098640
Si Si3 0.847543 0.808485 0.189356
Si Si4 0.195045 0.350108 0.643517
Si Si5 0.263528 0.621515 0.456709
Si Si6 0.840676 0.468017 0.299605
O O1 0.917332 0.220176 0.735702
O O2 0.927156 0.073558 0.820986
O O3 0.061006 0.162379 0.808255
O O4 0.946156 0.194429 0.002632
O O5 0.829604 0.308671 0.013676
O O6 0.808220 0.169703 0.127970
O O7 0.843284 0.716123 0.246669
O O8 0.787880 0.853506 0.302362
O O9 0.815659 0.820955 0.023615
O O10 0.158495 0.438337 0.663455
O O11 0.306166 0.553185 0.359905
O O12 0.219550 0.580572 0.592538
#
# Coordination Sequence:
#
# PCOD9430578 Si02
#       6
#     8   8   8   8   8   8
#     4  10  20  35  57  84 111 140 180 228 270 313
#     4   9  17  31  53  82 116 150 179 213 267 329
#     4  11  23  40  60  78 105 145 186 223 268 327
#     4  11  23  40  60  78 105 145 186 223 268 327
#     4   9  17  31  53  82 116 150 179 213 267 329
#     4  10  20  35  57  84 111 140 180 228 270 313
#
# _framework density 19.143391000000001
#
# number of rings (size 3 to 8) (size 9 to 14) (size 15 to 20)
#    0.000    2.000    0.000    5.000    0.000    4.667 
#    0.000    3.333    0.000    8.000    0.000    0.000 
#    0.000    0.000    0.000    0.000    0.000    0.000 
#
# Total GULP energy -267820.759847 kJ/mol
# GULP energy per Si atom -5579.599163 kJ/mol
# Density = 1.909982 g / cm^3
# Si number density = 19.143391 Si / 1000 Ang^3
#
#
#
# Elastic Constant Matrix: (Units=GPa)
#
#
# Indices 1 2 3 4 5 6 
#
# 1 100.3689 36.1083 37.8758 0.0000 0.0000 0.0000
# 2 36.1083 91.9819 28.6617 0.0000 0.0000 0.0000
# 3 37.8758 28.6617 63.7893 0.0000 0.0000 0.0000
# 4 0.0000 0.0000 0.0000 16.0809 0.0000 0.0000
# 5 0.0000 0.0000 0.0000 0.0000 16.8063 0.0000
# 6 0.0000 0.0000 0.0000 0.0000 0.0000 14.2850
#
#
#
# Elastic Compliance Matrix: (Units=1/GPa)
#
#
# Indices 1 2 3 4 5 6 
#
# 1 0.013648 -0.003294 -0.006624 0.000000 0.000000 0.000000
# 2 -0.003294 0.013436 -0.004082 0.000000 0.000000 0.000000
# 3 -0.006624 -0.004082 0.021443 0.000000 0.000000 0.000000
# 4 0.000000 0.000000 0.000000 0.062185 0.000000 0.000000
# 5 0.000000 0.000000 0.000000 0.000000 0.059502 0.000000
# 6 0.000000 0.000000 0.000000 0.000000 0.000000 0.070003
#
#
# Mechanical properties :
#
#
# Convention : Reuss Voigt Hill
#
# Bulk Modulus (GPa) = 48.70950 51.27018 49.98984
# Shear Modulus (GPa) = 18.17793 19.66741 18.92267
#
# Velocity S-wave (km/s) = 3.08485 3.20874 3.14741
# Velocity P-wave (km/s) = 6.17966 6.36933 6.27521
#
# Compressibility (1/GPa) = 0.02052988
#
# Stress axis : x y z
#
# Youngs Moduli (GPa) = 73.27264 74.42430 46.63434
#
# Poissons Ratio (x) = 0.24512 0.30889
# Poissons Ratio (y) = 0.24133 0.19034
# Poissons Ratio (z) = 0.48533 0.30377
#
# Static dielectric constant tensor:
#      x y z
#    x 1.656990 0.000000 0.000000 
#    y 0.000000 1.650130 0.000000 
#    z 0.000000 0.000000 1.668150 
# 
# From -- ./inp_files/4048.got.cif
#   From: 2010.05.17/outbox.cif.g08.bks.cpg/sg56_3_cif.got.tgz:4048.got - 2010.06.03 13:42:01.
