data_PCOD9430732
_publ_section_title
;
Structure prediction by ZEFSAII (Michael W. Deem and Ramdas Pophale) SiO2 
 PCOD9430732
Probable space group: P C C N
;
_chemical_formula_sum "Si O2"
_cell_formula_units_Z 48
_cell_length_a 21.103539
_cell_length_b 10.690132
_cell_length_c 9.167119
_cell_angle_alpha 90.000000
_cell_angle_beta 90.000000
_cell_angle_gamma 90.000000
_cell_volume 2068.098541
_symmetry_space_group_name_H-M "P C C N"
_symmetry_group_IT_number 56
_symmetry_cell_setting 'orthorhombic'
loop_
_space_group_symop_operation_xyz
x,y,z
1/2-x,1/2-y,z
1/2+x,-y,1/2-z
-x,1/2+y,1/2-z
-x,-y,-z
1/2+x,1/2+y,-z
1/2-x,y,1/2+z
x,1/2-y,1/2+z
loop_
_atom_site_type_symbol
_atom_site_label
_atom_site_fract_x
_atom_site_fract_y
_atom_site_fract_z
Si Si1 0.380344 0.538481 0.372127
Si Si2 0.421403 0.455719 0.679073
Si Si3 0.873804 0.328049 0.595873
Si Si4 0.961762 0.434513 0.370173
Si Si5 0.206165 0.366717 0.249615
Si Si6 0.241477 0.988142 0.996803
O O1 0.422255 0.500040 0.512182
O O2 0.376758 0.687680 0.349173
O O3 0.410288 0.486198 0.223025
O O4 0.309144 0.506415 0.416386
O O5 0.397298 0.572696 0.781172
O O6 0.485622 0.402867 0.748717
O O7 0.364902 0.355674 0.692764
O O8 0.921437 0.333969 0.458859
O O9 0.804426 0.371311 0.536407
O O10 0.000000 0.500000 0.500000
O O11 0.250000 0.250000 0.223284
O O12 0.203751 0.398511 0.420633
O O13 0.238063 0.482945 0.161215
#
# Coordination Sequence:
#
# PCOD9430732 Si02
#       6
#     8   8   8   8   8   8
#     4  11  20  36  62  89 118 154 194 244 305 367
#     4   9  21  37  56  85 120 154 200 248 292 356
#     4  10  20  37  60  88 120 153 192 243 307 367
#     4  10  21  39  58  81 119 159 193 240 293 352
#     4  10  20  37  57  81 115 157 202 247 297 352
#     4  10  21  36  58  88 118 149 192 250 302 356
#
# _framework density 23.209724999999999
#
# number of rings (size 3 to 8) (size 9 to 14) (size 15 to 20)
#    0.000    2.000    0.000    3.500    0.000    0.000 
#    0.000   23.333    0.000    0.000    0.000    0.000 
#    0.000    0.000    0.000    0.000    0.000    0.000 
#
# Total GULP energy -267721.831363 kJ/mol
# GULP energy per Si atom -5577.538153 kJ/mol
# Density = 2.315690 g / cm^3
# Si number density = 23.209725 Si / 1000 Ang^3
#
#
#
# Elastic Constant Matrix: (Units=GPa)
#
#
# Indices 1 2 3 4 5 6 
#
# 1 101.0785 14.6678 22.7756 0.0000 0.0000 0.0000
# 2 14.6678 18.7411 -1.1043 0.0000 0.0000 0.0000
# 3 22.7756 -1.1043 110.1187 0.0000 0.0000 0.0000
# 4 0.0000 0.0000 0.0000 20.4531 0.0000 0.0000
# 5 0.0000 0.0000 0.0000 0.0000 49.0683 0.0000
# 6 0.0000 0.0000 0.0000 0.0000 0.0000 12.7197
#
#
#
# Elastic Compliance Matrix: (Units=1/GPa)
#
#
# Indices 1 2 3 4 5 6 
#
# 1 0.011831 -0.009410 -0.002541 0.000000 0.000000 0.000000
# 2 -0.009410 0.060874 0.002557 0.000000 0.000000 0.000000
# 3 -0.002541 0.002557 0.009632 0.000000 0.000000 0.000000
# 4 0.000000 0.000000 0.000000 0.048892 0.000000 0.000000
# 5 0.000000 0.000000 0.000000 0.000000 0.020380 0.000000
# 6 0.000000 0.000000 0.000000 0.000000 0.000000 0.078618
#
#
# Mechanical properties :
#
#
# Convention : Reuss Voigt Hill
#
# Bulk Modulus (GPa) = 15.73593 33.62404 24.67999
# Shear Modulus (GPa) = 18.50484 29.35485 23.92985
#
# Velocity S-wave (km/s) = 2.82669 3.56021 3.21444
# Velocity P-wave (km/s) = 4.17710 5.60523 4.94302
#
# Compressibility (1/GPa) = 0.06354884
#
# Stress axis : x y z
#
# Youngs Moduli (GPa) = 84.52081 16.42740 103.81647
#
# Poissons Ratio (x) = 0.15458 0.26384
# Poissons Ratio (y) = 0.79531 -0.26542
# Poissons Ratio (z) = 0.21480 -0.04200
#
# Static dielectric constant tensor:
#      x y z
#    x 1.926450 0.000000 0.000000 
#    y 0.000000 1.871390 0.000000 
#    z 0.000000 0.000000 1.896690 
# 
# From -- ./inp_files/4744.got.cif
#   From: 2010.05.17/outbox.cif.g08.bks.cpg/sg56_3_cif.got.tgz:4744.got - 2010.06.03 13:42:01.
