data_PCOD9430111
_publ_section_title
;
Structure prediction by ZEFSAII (Michael W. Deem and Ramdas Pophale) SiO2 
 PCOD9430111
Probable space group: P C C N
;
_chemical_formula_sum "Si O2"
_cell_formula_units_Z 40
_cell_length_a 15.203725
_cell_length_b 10.226850
_cell_length_c 9.371590
_cell_angle_alpha 90.000000
_cell_angle_beta 90.000000
_cell_angle_gamma 90.000000
_cell_volume 1457.153058
_symmetry_space_group_name_H-M "P C C N"
_symmetry_group_IT_number 56
_symmetry_cell_setting 'orthorhombic'
loop_
_space_group_symop_operation_xyz
x,y,z
1/2-x,1/2-y,z
1/2+x,-y,1/2-z
-x,1/2+y,1/2-z
-x,-y,-z
1/2+x,1/2+y,-z
1/2-x,y,1/2+z
x,1/2-y,1/2+z
loop_
_atom_site_type_symbol
_atom_site_label
_atom_site_fract_x
_atom_site_fract_y
_atom_site_fract_z
Si Si1 0.717818 0.924968 0.680155
Si Si2 0.137488 0.890791 0.235300
Si Si3 0.132739 0.382973 0.052964
Si Si4 0.392685 0.835892 0.420828
Si Si5 0.995365 0.098897 0.338555
O O1 0.778108 0.017065 0.781846
O O2 0.648268 0.020674 0.605215
O O3 0.785901 0.881161 0.557743
O O4 0.666496 0.832155 0.792941
O O5 0.160267 0.783943 0.353576
O O6 0.059408 0.980543 0.292039
O O7 0.106687 0.823385 0.089778
O O8 0.090402 0.525349 0.096116
O O9 0.051862 0.326083 0.959232
O O10 0.474493 0.833515 0.311297
#
# Coordination Sequence:
#
# PCOD9430111 Si02
#       5
#     8   8   8   8   8
#     4  10  19  34  54  86 119 150 179 222 292 350
#     4  11  23  35  57  85 119 153 188 229 285 343
#     4   9  18  34  57  79 112 155 185 225 269 340
#     4  11  23  35  57  85 119 153 188 229 285 343
#     4   9  21  38  54  77 123 154 194 225 275 338
#
# _framework density 27.450790000000001
#
# number of rings (size 3 to 8) (size 9 to 14) (size 15 to 20)
#    0.000    2.000    2.000    1.200   14.000    1.600 
#    0.000    0.000    0.000    0.000    0.000   33.600 
#    0.000    0.000    0.000    0.000    0.000    0.000 
#
# Total GULP energy -223638.179491 kJ/mol
# GULP energy per Si atom -5590.954487 kJ/mol
# Density = 2.738831 g / cm^3
# Si number density = 27.450790 Si / 1000 Ang^3
#
#
#
# Elastic Constant Matrix: (Units=GPa)
#
#
# Indices 1 2 3 4 5 6 
#
# 1 93.8369 25.9455 43.4101 0.0000 0.0000 0.0000
# 2 25.9455 47.1014 30.8081 0.0000 0.0000 0.0000
# 3 43.4101 30.8081 230.0221 0.0000 0.0000 0.0000
# 4 0.0000 0.0000 0.0000 47.8367 0.0000 0.0000
# 5 0.0000 0.0000 0.0000 0.0000 39.7936 0.0000
# 6 0.0000 0.0000 0.0000 0.0000 0.0000 26.9352
#
#
#
# Elastic Compliance Matrix: (Units=1/GPa)
#
#
# Indices 1 2 3 4 5 6 
#
# 1 0.013121 -0.006146 -0.001653 0.000000 0.000000 0.000000
# 2 -0.006146 0.026149 -0.002342 0.000000 0.000000 0.000000
# 3 -0.001653 -0.002342 0.004973 0.000000 0.000000 0.000000
# 4 0.000000 0.000000 0.000000 0.020904 0.000000 0.000000
# 5 0.000000 0.000000 0.000000 0.000000 0.025130 0.000000
# 6 0.000000 0.000000 0.000000 0.000000 0.000000 0.037126
#
#
# Mechanical properties :
#
#
# Convention : Reuss Voigt Hill
#
# Bulk Modulus (GPa) = 41.73751 63.47642 52.60696
# Shear Modulus (GPa) = 32.11871 40.96623 36.54247
#
# Velocity S-wave (km/s) = 3.42431 3.86729 3.65252
# Velocity P-wave (km/s) = 5.55626 6.56621 6.08223
#
# Compressibility (1/GPa) = 0.02395927
#
# Stress axis : x y z
#
# Youngs Moduli (GPa) = 76.21412 38.24303 201.08301
#
# Poissons Ratio (x) = 0.23506 0.33239
# Poissons Ratio (y) = 0.46844 0.47099
# Poissons Ratio (z) = 0.12598 0.08957
#
# Static dielectric constant tensor:
#      x y z
#    x 2.166150 0.000000 0.000000 
#    y 0.000000 2.186050 0.000000 
#    z 0.000000 0.000000 2.092060 
# 
# From -- ./inp_files/3203.got.cif
#   From: 2010.05.17/outbox.cif.g08.bks.cpg/sg56_2_cif.got.tgz:3203.got - 2010.06.03 13:42:01.
