data_PCOD9430692
_publ_section_title
;
Structure prediction by ZEFSAII (Michael W. Deem and Ramdas Pophale) SiO2 
 PCOD9430692
Probable space group: P C C N
;
_chemical_formula_sum "Si O2"
_cell_formula_units_Z 52
_cell_length_a 6.103398
_cell_length_b 25.832658
_cell_length_c 16.079392
_cell_angle_alpha 90.000000
_cell_angle_beta 90.000000
_cell_angle_gamma 90.000000
_cell_volume 2535.189389
_symmetry_space_group_name_H-M "P C C N"
_symmetry_group_IT_number 56
_symmetry_cell_setting 'orthorhombic'
loop_
_space_group_symop_operation_xyz
x,y,z
1/2-x,1/2-y,z
1/2+x,-y,1/2-z
-x,1/2+y,1/2-z
-x,-y,-z
1/2+x,1/2+y,-z
1/2-x,y,1/2+z
x,1/2-y,1/2+z
loop_
_atom_site_type_symbol
_atom_site_label
_atom_site_fract_x
_atom_site_fract_y
_atom_site_fract_z
Si Si1 0.935226 0.954796 0.564969
Si Si2 0.750000 0.750000 0.297894
Si Si3 0.638171 0.299913 0.091917
Si Si4 0.720878 0.429823 0.808623
Si Si5 0.971101 0.850439 0.297011
Si Si6 0.413872 0.976632 0.346820
Si Si7 0.352881 0.392101 0.056921
O O1 0.793163 0.911875 0.518296
O O2 0.132561 0.924920 0.609907
O O3 0.793746 0.987971 0.630943
O O4 0.000000 0.000000 0.500000
O O5 0.551085 0.773644 0.351949
O O6 0.852715 0.800610 0.256727
O O7 0.750000 0.250000 0.048812
O O8 0.508005 0.343047 0.040349
O O9 0.820654 0.329362 0.148665
O O10 0.550513 0.387462 0.776708
O O11 0.872176 0.437878 0.728389
O O12 0.602090 0.484081 0.822732
O O13 0.806824 0.878226 0.363840
O O14 0.492644 0.940822 0.421757
#
# Coordination Sequence:
#
# PCOD9430692 Si02
#       7
#     8   4   8   8   8   8   8
#     4  12  26  38  55  89 131 173 214 253 314 388
#     4   8  18  34  58  98 118 146 206 270 318 374
#     4   9  18  35  62  93 123 152 207 271 319 367
#     4  12  23  36  59  86 126 175 216 254 316 377
#     4  10  20  36  62  92 124 159 210 269 317 381
#     4  12  23  40  58  87 131 167 208 259 303 381
#     4  11  22  37  60  90 132 164 212 266 318 385
#
# _framework density 20.511288
#
# number of rings (size 3 to 8) (size 9 to 14) (size 15 to 20)
#    0.000    1.231    4.615    2.308    0.000    0.000 
#    0.000    0.000    0.000    0.000    0.000   85.077 
#    0.000    0.000    0.000    0.000    0.000    0.000 
#
# Total GULP energy -290085.759515 kJ/mol
# GULP energy per Si atom -5578.572298 kJ/mol
# Density = 2.046460 g / cm^3
# Si number density = 20.511288 Si / 1000 Ang^3
#
#
#
# Elastic Constant Matrix: (Units=GPa)
#
#
# Indices 1 2 3 4 5 6 
#
# 1 63.7936 38.5361 11.7570 0.0000 0.0000 0.0000
# 2 38.5361 140.9816 28.6714 0.0000 0.0000 0.0000
# 3 11.7570 28.6714 49.8995 0.0000 0.0000 0.0000
# 4 0.0000 0.0000 0.0000 0.9680 0.0000 0.0000
# 5 0.0000 0.0000 0.0000 0.0000 27.3916 0.0000
# 6 0.0000 0.0000 0.0000 0.0000 0.0000 50.6332
#
#
#
# Elastic Compliance Matrix: (Units=1/GPa)
#
#
# Indices 1 2 3 4 5 6 
#
# 1 0.018899 -0.004824 -0.001681 0.000000 0.000000 0.000000
# 2 -0.004824 0.009263 -0.004186 0.000000 0.000000 0.000000
# 3 -0.001681 -0.004186 0.022841 0.000000 0.000000 0.000000
# 4 0.000000 0.000000 0.000000 1.033010 0.000000 0.000000
# 5 0.000000 0.000000 0.000000 0.000000 0.036508 0.000000
# 6 0.000000 0.000000 0.000000 0.000000 0.000000 0.019750
#
#
# Mechanical properties :
#
#
# Convention : Reuss Voigt Hill
#
# Bulk Modulus (GPa) = 33.75869 45.84484 39.80177
# Shear Modulus (GPa) = 4.26793 27.51259 15.89026
#
# Velocity S-wave (km/s) = 1.44405 3.66640 2.78638
# Velocity P-wave (km/s) = 4.39030 6.35003 5.45883
#
# Compressibility (1/GPa) = 0.02962200
#
# Stress axis : x y z
#
# Youngs Moduli (GPa) = 52.91146 107.95623 43.78009
#
# Poissons Ratio (x) = 0.52079 0.07360
# Poissons Ratio (y) = 0.25525 0.18325
# Poissons Ratio (z) = 0.08895 0.45188
#
# Static dielectric constant tensor:
#      x y z
#    x 1.772970 0.000000 0.000000 
#    y 0.000000 1.737510 0.000000 
#    z 0.000000 0.000000 1.627140 
# 
# From -- ./inp_files/14054.got.cif
#   From: 2010.05.17/outbox.cif.g08.bks.cpg/sg56_8_cif.got.tgz:14054.got - 2010.06.03 13:42:01.
