data_PCOD9430881
_publ_section_title
;
Structure prediction by ZEFSAII (Michael W. Deem and Ramdas Pophale) SiO2 
 PCOD9430881
Probable space group: P C C N
;
_chemical_formula_sum "Si O2"
_cell_formula_units_Z 36
_cell_length_a 13.932774
_cell_length_b 7.163917
_cell_length_c 14.170872
_cell_angle_alpha 90.000000
_cell_angle_beta 90.000000
_cell_angle_gamma 90.000000
_cell_volume 1414.440599
_symmetry_space_group_name_H-M "P C C N"
_symmetry_group_IT_number 56
_symmetry_cell_setting 'orthorhombic'
loop_
_space_group_symop_operation_xyz
x,y,z
1/2-x,1/2-y,z
1/2+x,-y,1/2-z
-x,1/2+y,1/2-z
-x,-y,-z
1/2+x,1/2+y,-z
1/2-x,y,1/2+z
x,1/2-y,1/2+z
loop_
_atom_site_type_symbol
_atom_site_label
_atom_site_fract_x
_atom_site_fract_y
_atom_site_fract_z
Si Si1 0.459217 0.777188 0.582485
Si Si2 0.121875 0.135258 0.796917
Si Si3 0.006728 0.162007 0.624146
Si Si4 0.750000 0.250000 0.464686
Si Si5 0.307468 0.522477 0.357714
O O1 0.523323 0.910705 0.648613
O O2 0.468756 0.558196 0.609723
O O3 0.497705 0.769804 0.474560
O O4 0.345794 0.815712 0.587166
O O5 0.156612 0.311590 0.857168
O O6 0.209309 0.989818 0.797464
O O7 0.089580 0.216021 0.696573
O O8 0.899087 0.149931 0.668093
O O9 0.719157 0.413251 0.537213
#
# Coordination Sequence:
#
# PCOD9430881 Si02
#       5
#     8   8   8   4   8
#     4   9  20  37  58  86 119 160 202 252 308 362
#     4  10  20  39  63  87 122 165 208 256 314 369
#     4   9  19  38  59  84 123 159 200 252 303 367
#     4  10  20  38  62  90 126 160 204 258 312 376
#     4   9  21  38  58  91 125 155 204 265 300 357
#
# _framework density 25.45176
#
# number of rings (size 3 to 8) (size 9 to 14) (size 15 to 20)
#    0.000    2.667    0.000    1.333    0.000    9.778 
#    0.000   18.889    0.000    0.000    0.000    0.000 
#    0.000    0.000    0.000    0.000    0.000    0.000 
#
# Total GULP energy -200959.320947 kJ/mol
# GULP energy per Si atom -5582.203360 kJ/mol
# Density = 2.539383 g / cm^3
# Si number density = 25.451760 Si / 1000 Ang^3
#
#
#
# Elastic Constant Matrix: (Units=GPa)
#
#
# Indices 1 2 3 4 5 6 
#
# 1 166.9293 -26.5784 44.1454 0.0000 0.0000 0.0000
# 2 -26.5784 27.1453 -8.6824 0.0000 0.0000 0.0000
# 3 44.1454 -8.6824 62.8289 0.0000 0.0000 0.0000
# 4 0.0000 0.0000 0.0000 8.1597 0.0000 0.0000
# 5 0.0000 0.0000 0.0000 0.0000 -191.9476 0.0000
# 6 0.0000 0.0000 0.0000 0.0000 0.0000 32.8217
#
#
#
# Elastic Compliance Matrix: (Units=1/GPa)
#
#
# Indices 1 2 3 4 5 6 
#
# 1 0.008351 0.006591 -0.004957 0.000000 0.000000 0.000000
# 2 0.006591 0.043744 0.001414 0.000000 0.000000 0.000000
# 3 -0.004957 0.001414 0.019594 0.000000 0.000000 0.000000
# 4 0.000000 0.000000 0.000000 0.122554 0.000000 0.000000
# 5 0.000000 0.000000 0.000000 0.000000 -0.005210 0.000000
# 6 0.000000 0.000000 0.000000 0.000000 0.000000 0.030468
#
#
# Mechanical properties :
#
#
# Convention : Reuss Voigt Hill
#
# Bulk Modulus (GPa) = 12.85573 30.51920 21.68747
# Shear Modulus (GPa) = 20.89135 -13.65867 3.61634
#
# Velocity S-wave (km/s) = 2.86811 -2.31908 1.19329
# Velocity P-wave (km/s) = 4.00375 2.20140 3.23080
#
# Compressibility (1/GPa) = 0.07778634
#
# Stress axis : x y z
#
# Youngs Moduli (GPa) = 119.74895 22.86003 51.03506
#
# Poissons Ratio (x) = -0.15067 0.25297
# Poissons Ratio (y) = -0.78927 -0.07217
# Poissons Ratio (z) = 0.59356 -0.03232
#
# Static dielectric constant tensor:
#      x y z
#    x 2.132010 0.000000 0.000000 
#    y 0.000000 2.050760 0.000000 
#    z 0.000000 0.000000 2.016470 
# 
# From -- ./inp_files/12033.got.cif
#   From: 2010.05.17/outbox.cif.g08.bks.cpg/sg56_7_cif.got.tgz:12033.got - 2010.06.03 13:42:01.
