data_PCOD9430568
_publ_section_title
;
Structure prediction by ZEFSAII (Michael W. Deem and Ramdas Pophale) SiO2 
 PCOD9430568
Probable space group: P C C N
;
_chemical_formula_sum "Si O2"
_cell_formula_units_Z 48
_cell_length_a 14.154734
_cell_length_b 11.661714
_cell_length_c 11.469511
_cell_angle_alpha 90.000000
_cell_angle_beta 90.000000
_cell_angle_gamma 90.000000
_cell_volume 1893.254514
_symmetry_space_group_name_H-M "P C C N"
_symmetry_group_IT_number 56
_symmetry_cell_setting 'orthorhombic'
loop_
_space_group_symop_operation_xyz
x,y,z
1/2-x,1/2-y,z
1/2+x,-y,1/2-z
-x,1/2+y,1/2-z
-x,-y,-z
1/2+x,1/2+y,-z
1/2-x,y,1/2+z
x,1/2-y,1/2+z
loop_
_atom_site_type_symbol
_atom_site_label
_atom_site_fract_x
_atom_site_fract_y
_atom_site_fract_z
Si Si1 0.696430 0.355358 0.732102
Si Si2 0.238734 0.124511 0.511094
Si Si3 0.487083 0.772710 0.372989
Si Si4 0.894539 0.583396 0.196002
Si Si5 0.871324 0.025734 0.104945
Si Si6 0.573497 0.955219 0.864916
O O1 0.750000 0.250000 0.799767
O O2 0.605484 0.291090 0.678549
O O3 0.650202 0.476972 0.769041
O O4 0.776359 0.402563 0.641979
O O5 0.250000 0.250000 0.566909
O O6 0.185950 0.135008 0.386123
O O7 0.340140 0.072253 0.482051
O O8 0.176613 0.029298 0.579751
O O9 0.553002 0.824991 0.273550
O O10 0.548736 0.668975 0.417813
O O11 0.444822 0.880176 0.442380
O O12 0.980216 0.530450 0.119381
O O13 0.909615 0.969854 0.225400
#
# Coordination Sequence:
#
# PCOD9430568 Si02
#       6
#     8   8   8   8   8   8
#     4   8  15  29  51  75 100 135 176 213 259 315
#     4  11  22  34  51  79 109 139 175 220 271 325
#     4   9  17  33  56  78 101 140 181 218 264 317
#     4   9  18  33  54  76 105 140 178 222 268 320
#     4   9  19  36  55  76 107 142 176 220 270 318
#     4  10  20  35  56  80 107 142 181 221 269 323
#
# _framework density 25.353169000000001
#
# number of rings (size 3 to 8) (size 9 to 14) (size 15 to 20)
#    0.000    2.667    0.000    1.500    0.000    3.333 
#    0.000    2.500    0.000   30.000    0.000    0.000 
#    0.000    0.000    0.000    0.000    0.000    0.000 
#
# Total GULP energy -267600.276421 kJ/mol
# GULP energy per Si atom -5575.005759 kJ/mol
# Density = 2.529546 g / cm^3
# Si number density = 25.353169 Si / 1000 Ang^3
#
#
#
# Elastic Constant Matrix: (Units=GPa)
#
#
# Indices 1 2 3 4 5 6 
#
# 1 124.9380 32.3894 19.5699 0.0000 0.0000 0.0000
# 2 32.3894 114.8487 32.9364 0.0000 0.0000 0.0000
# 3 19.5699 32.9364 36.6208 0.0000 0.0000 0.0000
# 4 0.0000 0.0000 0.0000 11.5833 0.0000 0.0000
# 5 0.0000 0.0000 0.0000 0.0000 28.8516 0.0000
# 6 0.0000 0.0000 0.0000 0.0000 0.0000 54.6992
#
#
#
# Elastic Compliance Matrix: (Units=1/GPa)
#
#
# Indices 1 2 3 4 5 6 
#
# 1 0.008935 -0.001550 -0.003381 0.000000 0.000000 0.000000
# 2 -0.001550 0.012003 -0.009966 0.000000 0.000000 0.000000
# 3 -0.003381 -0.009966 0.038077 0.000000 0.000000 0.000000
# 4 0.000000 0.000000 0.000000 0.086331 0.000000 0.000000
# 5 0.000000 0.000000 0.000000 0.000000 0.034660 0.000000
# 6 0.000000 0.000000 0.000000 0.000000 0.000000 0.018282
#
#
# Mechanical properties :
#
#
# Convention : Reuss Voigt Hill
#
# Bulk Modulus (GPa) = 34.22289 49.57766 41.90028
# Shear Modulus (GPa) = 21.02405 31.79427 26.40916
#
# Velocity S-wave (km/s) = 2.88279 3.54511 3.23096
# Velocity P-wave (km/s) = 4.96069 6.02945 5.52099
#
# Compressibility (1/GPa) = 0.02922021
#
# Stress axis : x y z
#
# Youngs Moduli (GPa) = 111.91392 83.31565 26.26251
#
# Poissons Ratio (x) = 0.12918 0.08878
# Poissons Ratio (y) = 0.17352 0.26174
# Poissons Ratio (z) = 0.37833 0.83036
#
# Static dielectric constant tensor:
#      x y z
#    x 2.012600 0.000000 0.000000 
#    y 0.000000 2.054320 0.000000 
#    z 0.000000 0.000000 2.036170 
# 
# From -- ./inp_files/11638.got.cif
#   From: 2010.05.17/outbox.cif.g08.bks.cpg/sg56_6_cif.got.tgz:11638.got - 2010.06.03 13:42:01.
