data_PCOD9430904
_publ_section_title
;
Structure prediction by ZEFSAII (Michael W. Deem and Ramdas Pophale) SiO2 
 PCOD9430904
Probable space group: P C C N
;
_chemical_formula_sum "Si O2"
_cell_formula_units_Z 36
_cell_length_a 11.977029
_cell_length_b 9.127488
_cell_length_c 14.509820
_cell_angle_alpha 90.000000
_cell_angle_beta 90.000000
_cell_angle_gamma 90.000000
_cell_volume 1586.216257
_symmetry_space_group_name_H-M "P C C N"
_symmetry_group_IT_number 56
_symmetry_cell_setting 'orthorhombic'
loop_
_space_group_symop_operation_xyz
x,y,z
1/2-x,1/2-y,z
1/2+x,-y,1/2-z
-x,1/2+y,1/2-z
-x,-y,-z
1/2+x,1/2+y,-z
1/2-x,y,1/2+z
x,1/2-y,1/2+z
loop_
_atom_site_type_symbol
_atom_site_label
_atom_site_fract_x
_atom_site_fract_y
_atom_site_fract_z
Si Si1 0.616824 0.866618 0.907178
Si Si2 0.250000 0.250000 0.266603
Si Si3 0.015994 0.607813 0.640040
Si Si4 0.657382 0.943470 0.496502
Si Si5 0.949889 0.574320 0.176783
O O1 0.670397 0.839163 0.805233
O O2 0.712389 0.939573 0.970894
O O3 0.606160 0.705505 0.950421
O O4 0.504766 0.959361 0.893798
O O5 0.325250 0.359887 0.326248
O O6 0.895074 0.563990 0.597858
O O7 0.020465 0.776339 0.669421
O O8 0.102672 0.576443 0.558579
O O9 0.043277 0.503415 0.724759
#
# Coordination Sequence:
#
# PCOD9430904 Si02
#       5
#     8   4   8   8   8
#     4  10  20  42  64  93 137 181 227 272 349 414
#     4  10  20  38  64 100 138 174 220 286 340 396
#     4  11  21  38  67  95 135 171 230 280 347 402
#     4   9  21  42  62  92 136 182 215 290 346 410
#     4  12  22  39  69 101 130 186 229 289 336 414
#
# _framework density 22.695518
#
# number of rings (size 3 to 8) (size 9 to 14) (size 15 to 20)
#    0.000    1.778    6.667    0.000    0.000    3.556 
#    0.000    0.000    0.000    8.000    0.000    0.000 
#    0.000    0.000    0.000    0.000    0.000    0.000 
#
# Total GULP energy -201061.684521 kJ/mol
# GULP energy per Si atom -5585.046792 kJ/mol
# Density = 2.264386 g / cm^3
# Si number density = 22.695518 Si / 1000 Ang^3
#
#
#
# Elastic Constant Matrix: (Units=GPa)
#
#
# Indices 1 2 3 4 5 6 
#
# 1 108.5175 23.2309 23.9775 0.0000 0.0000 0.0000
# 2 23.2309 68.9671 3.9099 0.0000 0.0000 0.0000
# 3 23.9775 3.9099 76.9254 0.0000 0.0000 0.0000
# 4 0.0000 0.0000 0.0000 15.4117 0.0000 0.0000
# 5 0.0000 0.0000 0.0000 0.0000 30.9054 0.0000
# 6 0.0000 0.0000 0.0000 0.0000 0.0000 53.9033
#
#
#
# Elastic Compliance Matrix: (Units=1/GPa)
#
#
# Indices 1 2 3 4 5 6 
#
# 1 0.010639 -0.003405 -0.003143 0.000000 0.000000 0.000000
# 2 -0.003405 0.015632 0.000267 0.000000 0.000000 0.000000
# 3 -0.003143 0.000267 0.013966 0.000000 0.000000 0.000000
# 4 0.000000 0.000000 0.000000 0.064886 0.000000 0.000000
# 5 0.000000 0.000000 0.000000 0.000000 0.032357 0.000000
# 6 0.000000 0.000000 0.000000 0.000000 0.000000 0.018552
#
#
# Mechanical properties :
#
#
# Convention : Reuss Voigt Hill
#
# Bulk Modulus (GPa) = 36.13606 39.62738 37.88172
# Shear Modulus (GPa) = 28.11877 33.59685 30.85781
#
# Velocity S-wave (km/s) = 3.52370 3.85168 3.69133
# Velocity P-wave (km/s) = 5.70193 6.10565 5.90724
#
# Compressibility (1/GPa) = 0.02767319
#
# Stress axis : x y z
#
# Youngs Moduli (GPa) = 93.99783 63.97302 71.60404
#
# Poissons Ratio (x) = 0.21785 0.22505
# Poissons Ratio (y) = 0.32009 -0.01911
# Poissons Ratio (z) = 0.29543 -0.01708
#
# Static dielectric constant tensor:
#      x y z
#    x 1.917080 0.000000 0.000000 
#    y 0.000000 1.804320 0.000000 
#    z 0.000000 0.000000 1.899230 
# 
# From -- ./inp_files/18560.got.cif
#   From: 2010.05.17/outbox.cif.g08.bks.cpg/sg56_10_cif.got.tgz:18560.got - 2010.06.03 13:42:01.
