data_PCOD9430751
_publ_section_title
;
Structure prediction by ZEFSAII (Michael W. Deem and Ramdas Pophale) SiO2 
 PCOD9430751
Probable space group: P C C N
;
_chemical_formula_sum "Si O2"
_cell_formula_units_Z 56
_cell_length_a 7.023395
_cell_length_b 14.869334
_cell_length_c 23.345877
_cell_angle_alpha 90.000000
_cell_angle_beta 90.000000
_cell_angle_gamma 90.000000
_cell_volume 2438.084784
_symmetry_space_group_name_H-M "P C C N"
_symmetry_group_IT_number 56
_symmetry_cell_setting 'orthorhombic'
loop_
_space_group_symop_operation_xyz
x,y,z
1/2-x,1/2-y,z
1/2+x,-y,1/2-z
-x,1/2+y,1/2-z
-x,-y,-z
1/2+x,1/2+y,-z
1/2-x,y,1/2+z
x,1/2-y,1/2+z
loop_
_atom_site_type_symbol
_atom_site_label
_atom_site_fract_x
_atom_site_fract_y
_atom_site_fract_z
Si Si1 0.127155 0.633808 0.748028
Si Si2 0.286431 0.477690 0.930325
Si Si3 0.750000 0.250000 0.156552
Si Si4 0.539288 0.366323 0.007104
Si Si5 0.380006 0.163364 0.618003
Si Si6 0.556175 0.029194 0.692296
Si Si7 0.445429 0.194945 0.941618
Si Si8 0.250000 0.750000 0.646691
O O1 0.099745 0.698462 0.802048
O O2 0.333113 0.597719 0.767069
O O3 0.134344 0.687099 0.689392
O O4 0.995999 0.551009 0.734094
O O5 0.294253 0.571303 0.965942
O O6 0.315303 0.497772 0.862400
O O7 0.117752 0.408908 0.946076
O O8 0.472886 0.421043 0.950872
O O9 0.603817 0.306996 0.119594
O O10 0.366331 0.373343 0.053599
O O11 0.536828 0.260187 0.990843
O O12 0.250000 0.250000 0.626197
O O13 0.378257 0.082850 0.663884
O O14 0.250000 0.250000 0.927202
O O15 0.601829 0.197965 0.892290
#
# Coordination Sequence:
#
# PCOD9430751 Si02
#       8
#     8   8   4   8   8   8   8   4
#     4  10  22  40  56  84 119 154 201 269 302 369
#     4   9  18  35  60  89 123 161 205 262 316 385
#     4   9  22  39  54  84 122 149 200 257 306 366
#     4   9  18  35  59  91 124 156 208 255 311 389
#     4  10  20  37  60  86 118 159 198 249 311 379
#     4  10  22  37  61  86 115 159 210 253 316 378
#     4  10  20  37  63  87 122 169 201 257 326 380
#     4  11  24  41  58  92 124 153 218 263 306 386
#
# _framework density 22.96885
#
# number of rings (size 3 to 8) (size 9 to 14) (size 15 to 20)
#    0.000    2.286    0.000    3.000    4.000    0.571 
#    0.000    2.143    0.000    0.000    0.000    0.000 
#    0.000    0.000    0.000    0.000    0.000    0.000 
#
# Total GULP energy -311798.830808 kJ/mol
# GULP energy per Si atom -5567.836264 kJ/mol
# Density = 2.291657 g / cm^3
# Si number density = 22.968850 Si / 1000 Ang^3
#
#
#
# Elastic Constant Matrix: (Units=GPa)
#
#
# Indices 1 2 3 4 5 6 
#
# 1 47.8280 23.2471 6.4189 0.0000 0.0000 0.0000
# 2 23.2471 140.9637 23.0996 0.0000 0.0000 0.0000
# 3 6.4189 23.0996 41.5025 0.0000 0.0000 0.0000
# 4 0.0000 0.0000 0.0000 -24.9948 0.0000 0.0000
# 5 0.0000 0.0000 0.0000 0.0000 -60.5970 0.0000
# 6 0.0000 0.0000 0.0000 0.0000 0.0000 47.9548
#
#
#
# Elastic Compliance Matrix: (Units=1/GPa)
#
#
# Indices 1 2 3 4 5 6 
#
# 1 0.022824 -0.003505 -0.001579 0.000000 0.000000 0.000000
# 2 -0.003505 0.008344 -0.004102 0.000000 0.000000 0.000000
# 3 -0.001579 -0.004102 0.026622 0.000000 0.000000 0.000000
# 4 0.000000 0.000000 0.000000 -0.040008 0.000000 0.000000
# 5 0.000000 0.000000 0.000000 0.000000 -0.016502 0.000000
# 6 0.000000 0.000000 0.000000 0.000000 0.000000 0.020853
#
#
# Mechanical properties :
#
#
# Convention : Reuss Voigt Hill
#
# Bulk Modulus (GPa) = 25.36935 37.31393 31.34164
# Shear Modulus (GPa) = 93.20544 4.30784 48.75664
#
# Velocity S-wave (km/s) = 6.37708 1.37098 4.61231
# Velocity P-wave (km/s) = 8.08034 4.33438 6.48378
#
# Compressibility (1/GPa) = 0.03941765
#
# Stress axis : x y z
#
# Youngs Moduli (GPa) = 43.81363 119.84204 37.56246
#
# Poissons Ratio (x) = 0.42008 0.05931
# Poissons Ratio (y) = 0.15358 0.15409
# Poissons Ratio (z) = 0.06918 0.49161
#
# Static dielectric constant tensor:
#      x y z
#    x 1.877640 0.000000 0.000000 
#    y 0.000000 2.075780 0.000000 
#    z 0.000000 0.000000 1.880340 
# 
# From -- ./inp_files/18261.got.cif
#   From: 2010.05.17/outbox.cif.g08.bks.cpg/sg56_10_cif.got.tgz:18261.got - 2010.06.03 13:42:01.
