data_PCOD9430147
_publ_section_title
;
Structure prediction by ZEFSAII (Michael W. Deem and Ramdas Pophale) SiO2 
 PCOD9430147
Probable space group: P C C N
;
_chemical_formula_sum "Si O2"
_cell_formula_units_Z 48
_cell_length_a 19.385244
_cell_length_b 15.820101
_cell_length_c 8.245009
_cell_angle_alpha 90.000000
_cell_angle_beta 90.000000
_cell_angle_gamma 90.000000
_cell_volume 2528.550651
_symmetry_space_group_name_H-M "P C C N"
_symmetry_group_IT_number 56
_symmetry_cell_setting 'orthorhombic'
loop_
_space_group_symop_operation_xyz
x,y,z
1/2-x,1/2-y,z
1/2+x,-y,1/2-z
-x,1/2+y,1/2-z
-x,-y,-z
1/2+x,1/2+y,-z
1/2-x,y,1/2+z
x,1/2-y,1/2+z
loop_
_atom_site_type_symbol
_atom_site_label
_atom_site_fract_x
_atom_site_fract_y
_atom_site_fract_z
Si Si1 0.182835 0.061832 0.710121
Si Si2 0.809409 0.140055 0.010747
Si Si3 0.828217 0.986592 0.787438
Si Si4 0.840847 0.317961 0.882949
Si Si5 0.422869 0.532746 0.514517
Si Si6 0.779860 0.656734 0.486836
O O1 0.184277 0.135639 0.843234
O O2 0.210900 0.101260 0.542116
O O3 0.247204 0.002228 0.761748
O O4 0.114061 0.014431 0.666268
O O5 0.828805 0.160216 0.195108
O O6 0.835880 0.051351 0.938076
O O7 0.841775 0.217573 0.907086
O O8 0.726884 0.149054 0.981329
O O9 0.881689 0.008623 0.649146
O O10 0.827962 0.888905 0.851228
O O11 0.906585 0.368870 0.950729
O O12 0.500000 0.500000 0.500000
O O13 0.750000 0.750000 0.470576
#
# Coordination Sequence:
#
# PCOD9430147 Si02
#       6
#     8   8   8   8   8   8
#     4  10  19  36  60  90 119 161 212 266 317 385
#     4  11  20  35  67  95 124 160 222 268 320 373
#     4  10  20  38  62  86 124 159 215 270 320 393
#     4  11  21  35  59  98 125 165 206 275 320 387
#     4  12  24  40  62  91 136 177 214 270 352 402
#     4  10  19  34  65  95 116 153 216 274 322 380
#
# _framework density 18.983205999999999
#
# number of rings (size 3 to 8) (size 9 to 14) (size 15 to 20)
#    1.000    0.333    3.333    5.500    0.000    0.000 
#    0.000    3.333   14.667    0.000    0.000    0.000 
#    0.000    0.000    0.000    0.000    0.000    0.000 
#
# Total GULP energy -267251.615197 kJ/mol
# GULP energy per Si atom -5567.741983 kJ/mol
# Density = 1.894000 g / cm^3
# Si number density = 18.983206 Si / 1000 Ang^3
#
#
#
# Elastic Constant Matrix: (Units=GPa)
#
#
# Indices 1 2 3 4 5 6 
#
# 1 93.8464 30.6204 33.9819 0.0000 0.0000 0.0000
# 2 30.6204 107.2121 31.1961 0.0000 0.0000 0.0000
# 3 33.9819 31.1961 114.3183 0.0000 0.0000 0.0000
# 4 0.0000 0.0000 0.0000 24.6944 0.0000 0.0000
# 5 0.0000 0.0000 0.0000 0.0000 22.5658 0.0000
# 6 0.0000 0.0000 0.0000 0.0000 0.0000 21.0713
#
#
#
# Elastic Compliance Matrix: (Units=1/GPa)
#
#
# Indices 1 2 3 4 5 6 
#
# 1 0.012638 -0.002733 -0.003011 0.000000 0.000000 0.000000
# 2 -0.002733 0.010723 -0.002114 0.000000 0.000000 0.000000
# 3 -0.003011 -0.002114 0.010219 0.000000 0.000000 0.000000
# 4 0.000000 0.000000 0.000000 0.040495 0.000000 0.000000
# 5 0.000000 0.000000 0.000000 0.000000 0.044315 0.000000
# 6 0.000000 0.000000 0.000000 0.000000 0.000000 0.047458
#
#
# Mechanical properties :
#
#
# Convention : Reuss Voigt Hill
#
# Bulk Modulus (GPa) = 55.97709 56.33039 56.15374
# Shear Modulus (GPa) = 26.66408 28.30486 27.48447
#
# Velocity S-wave (km/s) = 3.75188 3.86560 3.80917
# Velocity P-wave (km/s) = 6.95130 7.04713 6.99938
#
# Compressibility (1/GPa) = 0.01786445
#
# Stress axis : x y z
#
# Youngs Moduli (GPa) = 79.12799 93.25749 97.85433
#
# Poissons Ratio (x) = 0.25491 0.29462
# Poissons Ratio (y) = 0.21629 0.20683
# Poissons Ratio (z) = 0.23823 0.19712
#
# Static dielectric constant tensor:
#      x y z
#    x 1.622960 0.000000 0.000000 
#    y 0.000000 1.764220 0.000000 
#    z 0.000000 0.000000 1.737880 
# 
# From -- ./inp_files/4043.got.cif
#   From: 2010.05.17/outbox.cif.g08.bks.cpg/sg56_3_cif.got.tgz:4043.got - 2010.06.03 13:42:01.
