data_PCOD9430686
_publ_section_title
;
Structure prediction by ZEFSAII (Michael W. Deem and Ramdas Pophale) SiO2 
 PCOD9430686
Probable space group: P C C N
;
_chemical_formula_sum "Si O2"
_cell_formula_units_Z 52
_cell_length_a 7.384228
_cell_length_b 11.017517
_cell_length_c 28.996110
_cell_angle_alpha 90.000000
_cell_angle_beta 90.000000
_cell_angle_gamma 90.000000
_cell_volume 2359.003394
_symmetry_space_group_name_H-M "P C C N"
_symmetry_group_IT_number 56
_symmetry_cell_setting 'orthorhombic'
loop_
_space_group_symop_operation_xyz
x,y,z
1/2-x,1/2-y,z
1/2+x,-y,1/2-z
-x,1/2+y,1/2-z
-x,-y,-z
1/2+x,1/2+y,-z
1/2-x,y,1/2+z
x,1/2-y,1/2+z
loop_
_atom_site_type_symbol
_atom_site_label
_atom_site_fract_x
_atom_site_fract_y
_atom_site_fract_z
Si Si1 0.847441 0.049172 0.883409
Si Si2 0.981414 0.325699 0.734553
Si Si3 0.750000 0.250000 0.453849
Si Si4 0.602682 0.093605 0.277617
Si Si5 0.882734 0.860162 0.516585
Si Si6 0.493128 0.442610 0.578402
Si Si7 0.963293 0.709917 0.371865
O O1 0.853754 0.153404 0.921424
O O2 0.899099 0.095906 0.832969
O O3 0.634512 0.009687 0.884507
O O4 0.960357 0.925929 0.892158
O O5 0.033879 0.196994 0.758024
O O6 0.794138 0.364996 0.757745
O O7 0.086723 0.453136 0.737157
O O8 0.967566 0.297446 0.680208
O O9 0.591626 0.315228 0.481801
O O10 0.750000 0.750000 0.524720
O O11 0.861335 0.910763 0.465006
O O12 0.868055 0.963500 0.555562
O O13 0.558284 0.316789 0.599689
O O14 0.750000 0.750000 0.370165
#
# Coordination Sequence:
#
# PCOD9430686 Si02
#       7
#     8   8   4   8   8   8   8
#     4   9  18  36  61  80 112 167 206 237 316 390
#     4  10  22  36  58  87 117 155 208 254 310 368
#     4  10  20  36  62  86 126 162 202 260 316 374
#     4  10  22  38  59  86 119 160 207 259 316 375
#     4  10  20  38  62  95 125 160 210 260 314 375
#     4   9  19  37  62  88 120 165 207 252 310 376
#     4   9  18  35  61  85 114 167 205 243 309 386
#
# _framework density 22.043206000000001
#
# number of rings (size 3 to 8) (size 9 to 14) (size 15 to 20)
#    0.000    2.462    0.000    2.308    6.462    0.000 
#    0.000   20.000    0.000    0.923    0.000    0.000 
#    0.000    0.000    0.000    0.000    0.000    0.000 
#
# Total GULP energy -290020.047720 kJ/mol
# GULP energy per Si atom -5577.308610 kJ/mol
# Density = 2.199303 g / cm^3
# Si number density = 22.043206 Si / 1000 Ang^3
#
#
#
# Elastic Constant Matrix: (Units=GPa)
#
#
# Indices 1 2 3 4 5 6 
#
# 1 33.4574 23.4072 6.9699 0.0000 0.0000 0.0000
# 2 23.4072 172.1462 65.5693 0.0000 0.0000 0.0000
# 3 6.9699 65.5693 59.4062 0.0000 0.0000 0.0000
# 4 0.0000 0.0000 0.0000 44.6286 0.0000 0.0000
# 5 0.0000 0.0000 0.0000 0.0000 153.4258 0.0000
# 6 0.0000 0.0000 0.0000 0.0000 0.0000 43.9576
#
#
#
# Elastic Compliance Matrix: (Units=1/GPa)
#
#
# Indices 1 2 3 4 5 6 
#
# 1 0.033151 -0.005221 0.001873 0.000000 0.000000 0.000000
# 2 -0.005221 0.010845 -0.011357 0.000000 0.000000 0.000000
# 3 0.001873 -0.011357 0.029149 0.000000 0.000000 0.000000
# 4 0.000000 0.000000 0.000000 0.022407 0.000000 0.000000
# 5 0.000000 0.000000 0.000000 0.000000 0.006518 0.000000
# 6 0.000000 0.000000 0.000000 0.000000 0.000000 0.022749
#
#
# Mechanical properties :
#
#
# Convention : Reuss Voigt Hill
#
# Bulk Modulus (GPa) = 22.86505 50.76694 36.81599
# Shear Modulus (GPa) = 29.61936 59.67329 44.64632
#
# Velocity S-wave (km/s) = 3.66962 5.20863 4.50533
# Velocity P-wave (km/s) = 5.32449 7.69765 6.61831
#
# Compressibility (1/GPa) = 0.04373488
#
# Stress axis : x y z
#
# Youngs Moduli (GPa) = 30.16467 92.20895 34.30629
#
# Poissons Ratio (x) = 0.48144 -0.06427
# Poissons Ratio (y) = 0.15750 0.38963
# Poissons Ratio (z) = -0.05651 1.04726
#
# Static dielectric constant tensor:
#      x y z
#    x 1.848430 0.000000 0.000000 
#    y 0.000000 1.916000 0.000000 
#    z 0.000000 0.000000 1.756020 
# 
# From -- ./inp_files/22055.got.cif
#   From: 2010.05.17/outbox.cif.g08.bks.cpg/sg56_12_cif.got.tgz:22055.got - 2010.06.03 13:42:01.
