data_PCOD9430982
_publ_section_title
;
Structure prediction by ZEFSAII (Michael W. Deem and Ramdas Pophale) SiO2 
 PCOD9430982
Probable space group: P C C N
;
_chemical_formula_sum "Si O2"
_cell_formula_units_Z 48
_cell_length_a 8.978392
_cell_length_b 8.875906
_cell_length_c 28.392318
_cell_angle_alpha 90.000000
_cell_angle_beta 90.000000
_cell_angle_gamma 90.000000
_cell_volume 2262.622532
_symmetry_space_group_name_H-M "P C C N"
_symmetry_group_IT_number 56
_symmetry_cell_setting 'orthorhombic'
loop_
_space_group_symop_operation_xyz
x,y,z
1/2-x,1/2-y,z
1/2+x,-y,1/2-z
-x,1/2+y,1/2-z
-x,-y,-z
1/2+x,1/2+y,-z
1/2-x,y,1/2+z
x,1/2-y,1/2+z
loop_
_atom_site_type_symbol
_atom_site_label
_atom_site_fract_x
_atom_site_fract_y
_atom_site_fract_z
Si Si1 0.427254 0.264388 0.896481
Si Si2 0.070386 0.256919 0.233635
Si Si3 0.610176 0.324681 0.486098
Si Si4 0.065314 0.937493 0.183644
Si Si5 0.401220 0.004369 0.155879
Si Si6 0.143109 0.380476 0.058292
O O1 0.250000 0.250000 0.901300
O O2 0.507577 0.258827 0.947400
O O3 0.475781 0.406770 0.864704
O O4 0.492865 0.120989 0.867293
O O5 0.250000 0.250000 0.242596
O O6 0.038889 0.396727 0.198707
O O7 0.982596 0.303769 0.280616
O O8 0.030909 0.097938 0.208905
O O9 0.750000 0.250000 0.509952
O O10 0.694185 0.453113 0.455428
O O11 0.507926 0.373574 0.529077
O O12 0.240519 0.938416 0.170941
O O13 0.374487 0.123512 0.113808
O O14 0.250000 0.250000 0.041627
#
# Coordination Sequence:
#
# PCOD9430982 Si02
#       6
#     8   8   8   8   8   8
#     4  11  22  39  61  89 123 161 206 258 312 373
#     4  10  22  39  61  92 124 160 206 254 307 369
#     4  10  22  39  63  92 123 163 210 259 318 378
#     4  11  21  38  65  90 122 163 205 253 312 374
#     4  10  22  42  63  88 126 167 207 256 314 369
#     4  10  20  39  63  91 127 164 208 261 313 374
#
# _framework density 21.214321000000002
#
# number of rings (size 3 to 8) (size 9 to 14) (size 15 to 20)
#    0.000    1.667    0.000    6.000    0.000    3.333 
#    0.000   14.167    0.000    0.000    0.000    0.000 
#    0.000    0.000    0.000    0.000    0.000    0.000 
#
# Total GULP energy -267805.088502 kJ/mol
# GULP energy per Si atom -5579.272677 kJ/mol
# Density = 2.116604 g / cm^3
# Si number density = 21.214321 Si / 1000 Ang^3
#
#
#
# Elastic Constant Matrix: (Units=GPa)
#
#
# Indices 1 2 3 4 5 6 
#
# 1 70.6714 35.7458 -4.8103 0.0000 0.0000 0.0000
# 2 35.7458 42.8165 13.1340 0.0000 0.0000 0.0000
# 3 -4.8103 13.1340 57.6550 0.0000 0.0000 0.0000
# 4 0.0000 0.0000 0.0000 6.3532 0.0000 0.0000
# 5 0.0000 0.0000 0.0000 0.0000 35.1416 0.0000
# 6 0.0000 0.0000 0.0000 0.0000 0.0000 28.5555
#
#
#
# Elastic Compliance Matrix: (Units=1/GPa)
#
#
# Indices 1 2 3 4 5 6 
#
# 1 0.027634 -0.025564 0.008129 0.000000 0.000000 0.000000
# 2 -0.025564 0.048759 -0.013240 0.000000 0.000000 0.000000
# 3 0.008129 -0.013240 0.021039 0.000000 0.000000 0.000000
# 4 0.000000 0.000000 0.000000 0.157402 0.000000 0.000000
# 5 0.000000 0.000000 0.000000 0.000000 0.028456 0.000000
# 6 0.000000 0.000000 0.000000 0.000000 0.000000 0.035020
#
#
# Mechanical properties :
#
#
# Convention : Reuss Voigt Hill
#
# Bulk Modulus (GPa) = 27.71501 28.80911 28.26206
# Shear Modulus (GPa) = 12.76531 22.48162 17.62346
#
# Velocity S-wave (km/s) = 2.45568 3.25889 2.88537
# Velocity P-wave (km/s) = 4.59708 5.26973 4.94485
#
# Compressibility (1/GPa) = 0.03608154
#
# Stress axis : x y z
#
# Youngs Moduli (GPa) = 36.18795 20.50899 47.53085
#
# Poissons Ratio (x) = 0.52429 -0.38638
# Poissons Ratio (y) = 0.92510 0.62932
# Poissons Ratio (z) = -0.29417 0.27155
#
# Static dielectric constant tensor:
#      x y z
#    x 2.016510 0.000000 0.000000 
#    y 0.000000 1.912120 0.000000 
#    z 0.000000 0.000000 1.749880 
# 
# From -- ./inp_files/23234.got.cif
#   From: 2010.05.17/outbox.cif.g08.bks.cpg/sg56_12_cif.got.tgz:23234.got - 2010.06.03 13:42:01.
