data_PCOD9430675
_publ_section_title
;
Structure prediction by ZEFSAII (Michael W. Deem and Ramdas Pophale) SiO2 
 PCOD9430675
Probable space group: P C C N
;
_chemical_formula_sum "Si O2"
_cell_formula_units_Z 52
_cell_length_a 15.203192
_cell_length_b 9.115160
_cell_length_c 19.340460
_cell_angle_alpha 90.000000
_cell_angle_beta 90.000000
_cell_angle_gamma 90.000000
_cell_volume 2680.191810
_symmetry_space_group_name_H-M "P C C N"
_symmetry_group_IT_number 56
_symmetry_cell_setting 'orthorhombic'
loop_
_space_group_symop_operation_xyz
x,y,z
1/2-x,1/2-y,z
1/2+x,-y,1/2-z
-x,1/2+y,1/2-z
-x,-y,-z
1/2+x,1/2+y,-z
1/2-x,y,1/2+z
x,1/2-y,1/2+z
loop_
_atom_site_type_symbol
_atom_site_label
_atom_site_fract_x
_atom_site_fract_y
_atom_site_fract_z
Si Si1 0.946782 0.515776 0.242843
Si Si2 0.391442 0.476006 0.414545
Si Si3 0.830011 0.152960 0.853303
Si Si4 0.750000 0.750000 0.627183
Si Si5 0.878205 0.844832 0.247321
Si Si6 0.080272 0.881892 0.545213
Si Si7 0.709747 0.898333 0.892775
O O1 0.915215 0.486299 0.164455
O O2 0.890909 0.417063 0.295335
O O3 0.926759 0.687394 0.255980
O O4 0.048087 0.470725 0.252508
O O5 0.305719 0.372417 0.413731
O O6 0.389107 0.615786 0.465572
O O7 0.476241 0.387766 0.443553
O O8 0.750000 0.250000 0.822860
O O9 0.881757 0.255495 0.906497
O O10 0.783758 0.022247 0.894803
O O11 0.680311 0.830408 0.678450
O O12 0.815728 0.871579 0.312773
O O13 0.123295 0.033985 0.572855
O O14 0.750000 0.750000 0.922147
#
# Coordination Sequence:
#
# PCOD9430675 Si02
#       7
#     8   8   8   4   8   8   8
#     4  11  21  38  62  91 123 161 208 263 313 377
#     4  10  21  39  61  88 128 168 205 252 326 375
#     4  10  21  36  60  89 118 157 205 261 307 365
#     4  10  20  36  60  94 124 162 208 270 310 368
#     4  11  21  36  61  91 122 158 209 261 317 371
#     4  10  22  39  62  87 124 170 206 251 320 378
#     4  11  19  37  61  87 115 159 209 255 306 379
#
# _framework density 19.401596999999999
#
# number of rings (size 3 to 8) (size 9 to 14) (size 15 to 20)
#    0.000    1.538    3.846    2.769    3.231    0.000 
#    0.000    2.308    0.000    4.615    0.000    0.000 
#    0.000    0.000    0.000    0.000    0.000    0.000 
#
# Total GULP energy -290279.560644 kJ/mol
# GULP energy per Si atom -5582.299243 kJ/mol
# Density = 1.935744 g / cm^3
# Si number density = 19.401597 Si / 1000 Ang^3
#
#
#
# Elastic Constant Matrix: (Units=GPa)
#
#
# Indices 1 2 3 4 5 6 
#
# 1 115.9536 46.5977 22.0974 0.0000 0.0000 0.0000
# 2 46.5977 89.6268 23.8458 0.0000 0.0000 0.0000
# 3 22.0974 23.8458 75.7432 0.0000 0.0000 0.0000
# 4 0.0000 0.0000 0.0000 19.6073 0.0000 0.0000
# 5 0.0000 0.0000 0.0000 0.0000 23.1669 0.0000
# 6 0.0000 0.0000 0.0000 0.0000 0.0000 32.5327
#
#
#
# Elastic Compliance Matrix: (Units=1/GPa)
#
#
# Indices 1 2 3 4 5 6 
#
# 1 0.011065 -0.005342 -0.001547 0.000000 0.000000 0.000000
# 2 -0.005342 0.014756 -0.003087 0.000000 0.000000 0.000000
# 3 -0.001547 -0.003087 0.014626 0.000000 0.000000 0.000000
# 4 0.000000 0.000000 0.000000 0.051001 0.000000 0.000000
# 5 0.000000 0.000000 0.000000 0.000000 0.043165 0.000000
# 6 0.000000 0.000000 0.000000 0.000000 0.000000 0.030738
#
#
# Mechanical properties :
#
#
# Convention : Reuss Voigt Hill
#
# Bulk Modulus (GPa) = 48.78920 51.82282 50.30601
# Shear Modulus (GPa) = 26.02343 27.64688 26.83515
#
# Velocity S-wave (km/s) = 3.66635 3.77899 3.72310
# Velocity P-wave (km/s) = 6.56692 6.76828 6.66836
#
# Compressibility (1/GPa) = 0.02049634
#
# Stress axis : x y z
#
# Youngs Moduli (GPa) = 90.37134 67.76969 68.37316
#
# Poissons Ratio (x) = 0.36199 0.10575
# Poissons Ratio (y) = 0.48272 0.21108
# Poissons Ratio (z) = 0.13977 0.20922
#
# Static dielectric constant tensor:
#      x y z
#    x 1.699890 0.000000 0.000000 
#    y 0.000000 1.677610 0.000000 
#    z 0.000000 0.000000 1.709910 
# 
# From -- ./inp_files/19054.got.cif
#   From: 2010.05.17/outbox.cif.g08.bks.cpg/sg56_10_cif.got.tgz:19054.got - 2010.06.03 13:42:01.
