data_PCOD9430808
_publ_section_title
;
Structure prediction by ZEFSAII (Michael W. Deem and Ramdas Pophale) SiO2 
 PCOD9430808
Probable space group: P C C N
;
_chemical_formula_sum "Si O2"
_cell_formula_units_Z 64
_cell_length_a 11.910177
_cell_length_b 11.989431
_cell_length_c 16.895267
_cell_angle_alpha 90.000000
_cell_angle_beta 90.000000
_cell_angle_gamma 90.000000
_cell_volume 2412.580692
_symmetry_space_group_name_H-M "P C C N"
_symmetry_group_IT_number 56
_symmetry_cell_setting 'orthorhombic'
loop_
_space_group_symop_operation_xyz
x,y,z
1/2-x,1/2-y,z
1/2+x,-y,1/2-z
-x,1/2+y,1/2-z
-x,-y,-z
1/2+x,1/2+y,-z
1/2-x,y,1/2+z
x,1/2-y,1/2+z
loop_
_atom_site_type_symbol
_atom_site_label
_atom_site_fract_x
_atom_site_fract_y
_atom_site_fract_z
Si Si1 0.446834 0.912791 0.303979
Si Si2 0.931892 0.801210 0.379124
Si Si3 0.399541 0.684437 0.507613
Si Si4 0.283483 0.633074 0.212966
Si Si5 0.167925 0.576400 0.544112
Si Si6 0.959659 0.645284 0.713980
Si Si7 0.441285 0.115549 0.858569
Si Si8 0.734792 0.626999 0.522270
O O1 0.520796 0.822790 0.352209
O O2 0.318209 0.886373 0.274763
O O3 0.516527 0.936119 0.222850
O O4 0.442688 0.036525 0.339098
O O5 0.041632 0.841951 0.425252
O O6 0.893446 0.854845 0.296616
O O7 0.839183 0.836836 0.444429
O O8 0.276596 0.635307 0.505919
O O9 0.414361 0.817551 0.528898
O O10 0.459799 0.617440 0.577682
O O11 0.250000 0.750000 0.172044
O O12 0.303847 0.555814 0.136858
O O13 0.409840 0.655470 0.242064
O O14 0.165783 0.454422 0.505033
O O15 0.928389 0.756079 0.668195
O O16 0.335504 0.071122 0.906383
O O17 0.750000 0.750000 0.555642
#
# Coordination Sequence:
#
# PCOD9430808 Si02
#       8
#     8   8   8   8   8   8   8   8
#     4  11  23  41  66  96 131 171 220 275 336 396
#     4  10  24  40  60  99 130 162 219 285 319 393
#     4  10  20  37  67  95 119 157 218 279 330 366
#     4  12  19  41  70  94 131 172 220 271 339 391
#     4  11  20  37  66  96 121 167 217 267 317 402
#     4  11  23  41  68  96 134 172 219 275 339 392
#     4  10  21  44  62  88 130 170 217 275 331 395
#     4  11  27  43  62  89 139 185 221 260 340 414
#
# _framework density 26.527609999999999
#
# number of rings (size 3 to 8) (size 9 to 14) (size 15 to 20)
#    0.000    1.250    6.250    0.750    3.500    4.000 
#    2.250    3.750    0.000    0.000    0.000    0.000 
#    0.000    0.000    0.000    0.000    0.000    0.000 
#
# Total GULP energy -356876.266919 kJ/mol
# GULP energy per Si atom -5576.191671 kJ/mol
# Density = 2.646723 g / cm^3
# Si number density = 26.527610 Si / 1000 Ang^3
#
#
#
# Elastic Constant Matrix: (Units=GPa)
#
#
# Indices 1 2 3 4 5 6 
#
# 1 36.2726 0.0415 28.8419 0.0000 0.0000 0.0000
# 2 0.0415 109.9595 3.1941 0.0000 0.0000 0.0000
# 3 28.8419 3.1941 104.4609 0.0000 0.0000 0.0000
# 4 0.0000 0.0000 0.0000 -40.7552 0.0000 0.0000
# 5 0.0000 0.0000 0.0000 0.0000 -31.1819 0.0000
# 6 0.0000 0.0000 0.0000 0.0000 0.0000 23.5666
#
#
#
# Elastic Compliance Matrix: (Units=1/GPa)
#
#
# Indices 1 2 3 4 5 6 
#
# 1 0.035332 0.000270 -0.009764 0.000000 0.000000 0.000000
# 2 0.000270 0.009104 -0.000353 0.000000 0.000000 0.000000
# 3 -0.009764 -0.000353 0.012279 0.000000 0.000000 0.000000
# 4 0.000000 0.000000 0.000000 -0.024537 0.000000 0.000000
# 5 0.000000 0.000000 0.000000 0.000000 -0.032070 0.000000
# 6 0.000000 0.000000 0.000000 0.000000 0.000000 0.042433
#
#
# Mechanical properties :
#
#
# Convention : Reuss Voigt Hill
#
# Bulk Modulus (GPa) = 27.00992 34.98311 30.99651
# Shear Modulus (GPa) = 67.04571 4.90027 35.97299
#
# Velocity S-wave (km/s) = 5.03277 1.36060 3.68646
# Velocity P-wave (km/s) = 6.63141 3.96035 5.46169
#
# Compressibility (1/GPa) = 0.03702344
#
# Stress axis : x y z
#
# Youngs Moduli (GPa) = 28.30288 109.83693 81.43656
#
# Poissons Ratio (x) = -0.02969 0.79511
# Poissons Ratio (y) = -0.00765 0.02875
# Poissons Ratio (z) = 0.27634 0.03877
#
# Static dielectric constant tensor:
#      x y z
#    x 2.164700 0.000000 0.000000 
#    y 0.000000 2.195860 0.000000 
#    z 0.000000 0.000000 2.076270 
# 
# From -- ./inp_files/16340.got.cif
#   From: 2010.05.17/outbox.cif.g08.bks.cpg/sg56_9_cif.got.tgz:16340.got - 2010.06.03 13:42:01.
