data_PCOD9430264
_publ_section_title
;
Structure prediction by ZEFSAII (Michael W. Deem and Ramdas Pophale) SiO2 
 PCOD9430264
Probable space group: P C C N
;
_chemical_formula_sum "Si O2"
_cell_formula_units_Z 56
_cell_length_a 5.238496
_cell_length_b 23.395670
_cell_length_c 22.971040
_cell_angle_alpha 90.000000
_cell_angle_beta 90.000000
_cell_angle_gamma 90.000000
_cell_volume 2815.287562
_symmetry_space_group_name_H-M "P C C N"
_symmetry_group_IT_number 56
_symmetry_cell_setting 'orthorhombic'
loop_
_space_group_symop_operation_xyz
x,y,z
1/2-x,1/2-y,z
1/2+x,-y,1/2-z
-x,1/2+y,1/2-z
-x,-y,-z
1/2+x,1/2+y,-z
1/2-x,y,1/2+z
x,1/2-y,1/2+z
loop_
_atom_site_type_symbol
_atom_site_label
_atom_site_fract_x
_atom_site_fract_y
_atom_site_fract_z
Si Si1 0.879344 0.933068 0.994984
Si Si2 0.057567 0.373960 0.097229
Si Si3 0.234873 0.427847 0.701197
Si Si4 0.994301 0.212281 0.503342
Si Si5 0.891936 0.401423 0.939173
Si Si6 0.352632 0.970289 0.392089
Si Si7 0.525543 0.548414 0.678285
O O1 0.800025 0.886092 0.944832
O O2 0.973242 0.981360 0.948377
O O3 0.615506 0.940759 0.030717
O O4 0.117390 0.907661 0.030339
O O5 0.111269 0.378780 0.166219
O O6 0.950452 0.317811 0.066796
O O7 0.878632 0.429797 0.088134
O O8 0.384772 0.489335 0.698766
O O9 0.000192 0.436751 0.657925
O O10 0.128131 0.418902 0.765425
O O11 0.750000 0.250000 0.490156
O O12 0.997116 0.161240 0.455695
O O13 0.250000 0.250000 0.503415
O O14 0.872796 0.416931 0.870952
O O15 0.265302 0.026048 0.358486
#
# Coordination Sequence:
#
# PCOD9430264 Si02
#       7
#     8   8   8   8   8   8   8
#     4  10  19  38  55  85 124 154 197 238 304 363
#     4   9  20  38  63  88 120 161 198 264 308 354
#     4  10  21  38  58  87 126 169 218 239 284 363
#     4  11  22  40  66  92 118 151 202 259 325 378
#     4  11  24  38  61  92 124 159 199 251 317 366
#     4  10  19  37  59  84 128 161 201 247 287 365
#     4  11  23  37  58  90 125 172 207 238 295 365
#
# _framework density 19.891397000000001
#
# number of rings (size 3 to 8) (size 9 to 14) (size 15 to 20)
#    0.000    1.714    4.286    1.714    4.000    1.143 
#    0.000    0.000    0.000    0.857    0.000    0.000 
#    0.000    0.000    0.000    0.000    0.000    0.000 
#
# Total GULP energy -312017.039314 kJ/mol
# GULP energy per Si atom -5571.732845 kJ/mol
# Density = 1.984612 g / cm^3
# Si number density = 19.891397 Si / 1000 Ang^3
#
#
#
# Elastic Constant Matrix: (Units=GPa)
#
#
# Indices 1 2 3 4 5 6 
#
# 1 78.6419 13.0447 21.8746 0.0000 0.0000 0.0000
# 2 13.0447 51.1522 23.9827 0.0000 0.0000 0.0000
# 3 21.8746 23.9827 127.9633 0.0000 0.0000 0.0000
# 4 0.0000 0.0000 0.0000 1.2838 0.0000 0.0000
# 5 0.0000 0.0000 0.0000 0.0000 27.5241 0.0000
# 6 0.0000 0.0000 0.0000 0.0000 0.0000 8.2607
#
#
#
# Elastic Compliance Matrix: (Units=1/GPa)
#
#
# Indices 1 2 3 4 5 6 
#
# 1 0.013664 -0.002620 -0.001845 0.000000 0.000000 0.000000
# 2 -0.002620 0.021935 -0.003663 0.000000 0.000000 0.000000
# 3 -0.001845 -0.003663 0.008817 0.000000 0.000000 0.000000
# 4 0.000000 0.000000 0.000000 0.778965 0.000000 0.000000
# 5 0.000000 0.000000 0.000000 0.000000 0.036332 0.000000
# 6 0.000000 0.000000 0.000000 0.000000 0.000000 0.121055
#
#
# Mechanical properties :
#
#
# Convention : Reuss Voigt Hill
#
# Bulk Modulus (GPa) = 35.51114 41.72904 38.62009
# Shear Modulus (GPa) = 4.96816 20.67073 12.81944
#
# Velocity S-wave (km/s) = 1.58211 3.22713 2.54140
# Velocity P-wave (km/s) = 4.60746 5.90845 5.29804
#
# Compressibility (1/GPa) = 0.02816018
#
# Stress axis : x y z
#
# Youngs Moduli (GPa) = 73.18761 45.58915 113.42175
#
# Poissons Ratio (x) = 0.11942 0.20924
# Poissons Ratio (y) = 0.19172 0.41549
# Poissons Ratio (z) = 0.13501 0.16700
#
# Static dielectric constant tensor:
#      x y z
#    x 1.831170 0.000000 0.000000 
#    y 0.000000 1.845480 0.000000 
#    z 0.000000 0.000000 1.756450 
# 
# From -- ./inp_files/17678.got.cif
#   From: 2010.05.17/outbox.cif.g08.bks.cpg/sg56_9_cif.got.tgz:17678.got - 2010.06.03 13:42:01.
