data_PCOD9430815
_publ_section_title
;
Structure prediction by ZEFSAII (Michael W. Deem and Ramdas Pophale) SiO2 
 PCOD9430815
Probable space group: P C C N
;
_chemical_formula_sum "Si O2"
_cell_formula_units_Z 60
_cell_length_a 27.272074
_cell_length_b 8.959179
_cell_length_c 11.116700
_cell_angle_alpha 90.000000
_cell_angle_beta 90.000000
_cell_angle_gamma 90.000000
_cell_volume 2716.203260
_symmetry_space_group_name_H-M "P C C N"
_symmetry_group_IT_number 56
_symmetry_cell_setting 'orthorhombic'
loop_
_space_group_symop_operation_xyz
x,y,z
1/2-x,1/2-y,z
1/2+x,-y,1/2-z
-x,1/2+y,1/2-z
-x,-y,-z
1/2+x,1/2+y,-z
1/2-x,y,1/2+z
x,1/2-y,1/2+z
loop_
_atom_site_type_symbol
_atom_site_label
_atom_site_fract_x
_atom_site_fract_y
_atom_site_fract_z
Si Si1 0.250000 0.250000 0.301803
Si Si2 0.916420 0.035039 0.928112
Si Si3 0.346412 0.808402 0.749085
Si Si4 0.834248 0.930826 0.586583
Si Si5 0.677560 0.520021 0.307253
Si Si6 0.050287 0.763180 0.860985
Si Si7 0.597201 0.819274 0.638092
Si Si8 0.494831 0.469958 0.749141
O O1 0.207341 0.190253 0.387470
O O2 0.225221 0.380032 0.221782
O O3 0.869711 0.118705 0.871174
O O4 0.956228 0.999781 0.826720
O O5 0.946384 0.140771 0.019453
O O6 0.899738 0.892970 0.005540
O O7 0.318694 0.654352 0.726438
O O8 0.394410 0.776921 0.829861
O O9 0.319767 0.932609 0.827471
O O10 0.836075 0.971037 0.447416
O O11 0.884521 0.850458 0.629545
O O12 0.633892 0.592001 0.227322
O O13 0.014846 0.620976 0.864866
O O14 0.033212 0.873096 0.752129
O O15 0.543246 0.856877 0.685958
#
# Coordination Sequence:
#
# PCOD9430815 Si02
#       8
#     4   8   8   8   8   8   8   8
#     4  10  26  50  70 106 132 158 222 278 344 422
#     4  10  21  39  62  90 140 180 223 281 330 379
#     4  11  23  42  66  99 133 176 222 270 332 409
#     4  11  26  44  73 101 129 175 221 274 351 409
#     4  11  23  45  71  97 136 167 219 276 336 411
#     4  10  20  38  54  91 130 175 229 265 323 378
#     4  10  22  39  65  96 132 181 229 279 325 395
#     4  10  21  35  60  87 134 181 225 282 318 378
#
# _framework density 22.089658
#
# number of rings (size 3 to 8) (size 9 to 14) (size 15 to 20)
#    0.000    1.600    2.667    2.800    7.467    1.600 
#    0.000    2.667    0.000    0.000    0.000    0.000 
#    0.000    0.000    0.000    0.000    0.000    0.000 
#
# Total GULP energy -335119.298105 kJ/mol
# GULP energy per Si atom -5585.321635 kJ/mol
# Density = 2.203938 g / cm^3
# Si number density = 22.089658 Si / 1000 Ang^3
#
#
#
# Elastic Constant Matrix: (Units=GPa)
#
#
# Indices 1 2 3 4 5 6 
#
# 1 61.4029 26.4633 14.3347 0.0000 0.0000 0.0000
# 2 26.4633 95.8475 37.5873 0.0000 0.0000 0.0000
# 3 14.3347 37.5873 55.4879 0.0000 0.0000 0.0000
# 4 0.0000 0.0000 0.0000 25.3907 0.0000 0.0000
# 5 0.0000 0.0000 0.0000 0.0000 18.6845 0.0000
# 6 0.0000 0.0000 0.0000 0.0000 0.0000 42.9323
#
#
#
# Elastic Compliance Matrix: (Units=1/GPa)
#
#
# Indices 1 2 3 4 5 6 
#
# 1 0.018618 -0.004431 -0.001808 0.000000 0.000000 0.000000
# 2 -0.004431 0.015262 -0.009194 0.000000 0.000000 0.000000
# 3 -0.001808 -0.009194 0.024717 0.000000 0.000000 0.000000
# 4 0.000000 0.000000 0.000000 0.039385 0.000000 0.000000
# 5 0.000000 0.000000 0.000000 0.000000 0.053520 0.000000
# 6 0.000000 0.000000 0.000000 0.000000 0.000000 0.023292
#
#
# Mechanical properties :
#
#
# Convention : Reuss Voigt Hill
#
# Bulk Modulus (GPa) = 36.06111 41.05655 38.55883
# Shear Modulus (GPa) = 23.26626 26.35836 24.81231
#
# Velocity S-wave (km/s) = 3.24893 3.45808 3.35514
# Velocity P-wave (km/s) = 5.51673 5.87972 5.70112
#
# Compressibility (1/GPa) = 0.02773070
#
# Stress axis : x y z
#
# Youngs Moduli (GPa) = 53.71211 65.52173 40.45833
#
# Poissons Ratio (x) = 0.29035 0.07315
# Poissons Ratio (y) = 0.23802 0.37196
# Poissons Ratio (z) = 0.09711 0.60239
#
# Static dielectric constant tensor:
#      x y z
#    x 1.794210 0.000000 0.000000 
#    y 0.000000 1.892550 0.000000 
#    z 0.000000 0.000000 1.818430 
# 
# From -- ./inp_files/9073.got.cif
#   From: 2010.05.17/outbox.cif.g08.bks.cpg/sg56_5_cif.got.tgz:9073.got - 2010.06.03 13:42:01.
