data_PCOD9430403
_publ_section_title
;
Structure prediction by ZEFSAII (Michael W. Deem and Ramdas Pophale) SiO2 
 PCOD9430403
Probable space group: P C C N
;
_chemical_formula_sum "Si O2"
_cell_formula_units_Z 52
_cell_length_a 16.444090
_cell_length_b 11.150998
_cell_length_c 15.094077
_cell_angle_alpha 90.000000
_cell_angle_beta 90.000000
_cell_angle_gamma 90.000000
_cell_volume 2767.770933
_symmetry_space_group_name_H-M "P C C N"
_symmetry_group_IT_number 56
_symmetry_cell_setting 'orthorhombic'
loop_
_space_group_symop_operation_xyz
x,y,z
1/2-x,1/2-y,z
1/2+x,-y,1/2-z
-x,1/2+y,1/2-z
-x,-y,-z
1/2+x,1/2+y,-z
1/2-x,y,1/2+z
x,1/2-y,1/2+z
loop_
_atom_site_type_symbol
_atom_site_label
_atom_site_fract_x
_atom_site_fract_y
_atom_site_fract_z
Si Si1 0.303453 0.628197 0.827655
Si Si2 0.059344 0.790363 0.272835
Si Si3 0.181197 0.983136 0.192673
Si Si4 0.750000 0.750000 0.586267
Si Si5 0.748362 0.491795 0.501974
Si Si6 0.069861 0.966376 0.431608
Si Si7 0.104207 0.315716 0.796706
O O1 0.250000 0.750000 0.831777
O O2 0.388856 0.668914 0.787285
O O3 0.252374 0.539963 0.764643
O O4 0.304693 0.572766 0.925011
O O5 0.113323 0.881535 0.213456
O O6 0.051074 0.853659 0.368635
O O7 0.972902 0.761134 0.231215
O O8 0.142816 0.112738 0.213634
O O9 0.218552 0.971568 0.095811
O O10 0.745771 0.632003 0.526543
O O11 0.672310 0.757268 0.650653
O O12 0.656242 0.446337 0.519591
O O13 0.079728 0.077740 0.364257
O O14 0.000000 0.000000 0.500000
#
# Coordination Sequence:
#
# PCOD9430403 Si02
#       7
#     8   8   8   4   8   8   8
#     4  10  19  41  63  90 127 159 206 265 308 369
#     4  10  22  40  63  94 126 162 212 268 314 370
#     4  10  22  40  62  94 121 165 214 252 324 374
#     4  10  22  42  60  86 130 172 204 262 314 388
#     4  11  22  40  64  92 128 166 216 258 315 385
#     4  10  22  39  56  92 129 160 211 264 312 371
#     4  10  22  41  60  87 129 163 209 257 315 388
#
# _framework density 18.787680999999999
#
# number of rings (size 3 to 8) (size 9 to 14) (size 15 to 20)
#    0.000    1.846    6.154    0.000    2.154    9.846 
#    0.000    1.538    0.000    0.000    0.000    0.000 
#    0.000    0.000    0.000    0.000    0.000    0.000 
#
# Total GULP energy -290330.596744 kJ/mol
# GULP energy per Si atom -5583.280707 kJ/mol
# Density = 1.874492 g / cm^3
# Si number density = 18.787681 Si / 1000 Ang^3
#
#
#
# Elastic Constant Matrix: (Units=GPa)
#
#
# Indices 1 2 3 4 5 6 
#
# 1 99.2530 19.6003 53.7980 0.0000 0.0000 0.0000
# 2 19.6003 31.6673 14.2039 0.0000 0.0000 0.0000
# 3 53.7980 14.2039 130.5564 0.0000 0.0000 0.0000
# 4 0.0000 0.0000 0.0000 10.4697 0.0000 0.0000
# 5 0.0000 0.0000 0.0000 0.0000 34.4761 0.0000
# 6 0.0000 0.0000 0.0000 0.0000 0.0000 25.1465
#
#
#
# Elastic Compliance Matrix: (Units=1/GPa)
#
#
# Indices 1 2 3 4 5 6 
#
# 1 0.014122 -0.006445 -0.005118 0.000000 0.000000 0.000000
# 2 -0.006445 0.036140 -0.001276 0.000000 0.000000 0.000000
# 3 -0.005118 -0.001276 0.009907 0.000000 0.000000 0.000000
# 4 0.000000 0.000000 0.000000 0.095514 0.000000 0.000000
# 5 0.000000 0.000000 0.000000 0.000000 0.029006 0.000000
# 6 0.000000 0.000000 0.000000 0.000000 0.000000 0.039767
#
#
# Mechanical properties :
#
#
# Convention : Reuss Voigt Hill
#
# Bulk Modulus (GPa) = 28.99318 48.52013 38.75665
# Shear Modulus (GPa) = 19.11086 25.61008 22.36047
#
# Velocity S-wave (km/s) = 3.19282 3.69607 3.45362
# Velocity P-wave (km/s) = 5.39051 6.64049 6.04788
#
# Compressibility (1/GPa) = 0.03449087
#
# Stress axis : x y z
#
# Youngs Moduli (GPa) = 70.81045 27.67021 100.93525
#
# Poissons Ratio (x) = 0.17834 0.51660
# Poissons Ratio (y) = 0.45639 0.12879
# Poissons Ratio (z) = 0.36241 0.03531
#
# Static dielectric constant tensor:
#      x y z
#    x 1.655050 0.000000 0.000000 
#    y 0.000000 1.683820 0.000000 
#    z 0.000000 0.000000 1.625430 
# 
# From -- ./inp_files/12779.got.cif
#   From: 2010.05.17/outbox.cif.g08.bks.cpg/sg56_7_cif.got.tgz:12779.got - 2010.06.03 13:42:01.
