data_PCOD9430095
_publ_section_title
;
Structure prediction by ZEFSAII (Michael W. Deem and Ramdas Pophale) SiO2 
 PCOD9430095
Probable space group: P C C N
;
_chemical_formula_sum "Si O2"
_cell_formula_units_Z 52
_cell_length_a 8.789101
_cell_length_b 14.026520
_cell_length_c 21.136772
_cell_angle_alpha 90.000000
_cell_angle_beta 90.000000
_cell_angle_gamma 90.000000
_cell_volume 2605.751841
_symmetry_space_group_name_H-M "P C C N"
_symmetry_group_IT_number 56
_symmetry_cell_setting 'orthorhombic'
loop_
_space_group_symop_operation_xyz
x,y,z
1/2-x,1/2-y,z
1/2+x,-y,1/2-z
-x,1/2+y,1/2-z
-x,-y,-z
1/2+x,1/2+y,-z
1/2-x,y,1/2+z
x,1/2-y,1/2+z
loop_
_atom_site_type_symbol
_atom_site_label
_atom_site_fract_x
_atom_site_fract_y
_atom_site_fract_z
Si Si1 0.890961 0.937528 0.953966
Si Si2 0.584250 0.717300 0.263195
Si Si3 0.968302 0.105873 0.183978
Si Si4 0.998778 0.250529 0.381504
Si Si5 0.250000 0.250000 0.481938
Si Si6 0.767615 0.521085 0.758926
Si Si7 0.241015 0.905237 0.114138
O O1 0.975022 0.914138 0.887121
O O2 0.754847 0.009498 0.935463
O O3 0.820956 0.839083 0.980091
O O4 0.000000 0.000000 0.000000
O O5 0.750000 0.750000 0.287530
O O6 0.462181 0.780645 0.301429
O O7 0.563276 0.743920 0.189469
O O8 0.603647 0.603441 0.266892
O O9 0.101405 0.070453 0.233785
O O10 0.819665 0.043272 0.199790
O O11 0.865792 0.175038 0.389518
O O12 0.922702 0.353922 0.392687
O O13 0.119268 0.220115 0.433279
O O14 0.762915 0.449454 0.817186
#
# Coordination Sequence:
#
# PCOD9430095 Si02
#       7
#     8   8   8   8   4   8   8
#     4  11  24  43  63  91 131 178 219 266 321 399
#     4  10  19  33  60  91 122 150 207 262 320 392
#     4  10  22  37  62  93 122 161 209 268 327 391
#     4  11  21  40  65  96 122 166 222 270 325 390
#     4  12  26  40  70  90 124 182 226 260 322 398
#     4  10  20  36  60  91 126 161 199 264 341 377
#     4  10  22  40  64  90 131 162 211 279 328 382
#
# _framework density 19.955853999999999
#
# number of rings (size 3 to 8) (size 9 to 14) (size 15 to 20)
#    0.000    1.538    3.846    1.846    5.385    0.615 
#    0.000    0.000    0.000    3.692    0.000    0.000 
#    0.000    0.000    0.000    0.000    0.000    0.000 
#
# Total GULP energy -289655.573168 kJ/mol
# GULP energy per Si atom -5570.299484 kJ/mol
# Density = 1.991043 g / cm^3
# Si number density = 19.955854 Si / 1000 Ang^3
#
#
#
# Elastic Constant Matrix: (Units=GPa)
#
#
# Indices 1 2 3 4 5 6 
#
# 1 40.2396 0.5744 16.5799 0.0000 0.0000 0.0000
# 2 0.5744 69.7672 16.4739 0.0000 0.0000 0.0000
# 3 16.5799 16.4739 69.6395 0.0000 0.0000 0.0000
# 4 0.0000 0.0000 0.0000 40.4333 0.0000 0.0000
# 5 0.0000 0.0000 0.0000 0.0000 50.6023 0.0000
# 6 0.0000 0.0000 0.0000 0.0000 0.0000 31.5792
#
#
#
# Elastic Compliance Matrix: (Units=1/GPa)
#
#
# Indices 1 2 3 4 5 6 
#
# 1 0.027684 0.001407 -0.006924 0.000000 0.000000 0.000000
# 2 0.001407 0.015253 -0.003943 0.000000 0.000000 0.000000
# 3 -0.006924 -0.003943 0.016941 0.000000 0.000000 0.000000
# 4 0.000000 0.000000 0.000000 0.024732 0.000000 0.000000
# 5 0.000000 0.000000 0.000000 0.000000 0.019762 0.000000
# 6 0.000000 0.000000 0.000000 0.000000 0.000000 0.031666
#
#
# Mechanical properties :
#
#
# Convention : Reuss Voigt Hill
#
# Bulk Modulus (GPa) = 24.41554 27.43366 25.92460
# Shear Modulus (GPa) = 29.65407 34.25748 31.95578
#
# Velocity S-wave (km/s) = 3.85903 4.14776 4.00600
# Velocity P-wave (km/s) = 5.66723 6.05934 5.86656
#
# Compressibility (1/GPa) = 0.04095752
#
# Stress axis : x y z
#
# Youngs Moduli (GPa) = 36.12208 65.56127 59.02867
#
# Poissons Ratio (x) = -0.09224 0.40871
# Poissons Ratio (y) = -0.05082 0.23276
# Poissons Ratio (z) = 0.25011 0.25852
#
# Static dielectric constant tensor:
#      x y z
#    x 1.592500 0.000000 0.000000 
#    y 0.000000 1.799780 0.000000 
#    z 0.000000 0.000000 1.688850 
# 
# From -- ./inp_files/18141.got.cif
#   From: 2010.05.17/outbox.cif.g08.bks.cpg/sg56_10_cif.got.tgz:18141.got - 2010.06.03 13:42:01.
