data_PCOD9430567
_publ_section_title
;
Structure prediction by ZEFSAII (Michael W. Deem and Ramdas Pophale) SiO2 
 PCOD9430567
Probable space group: P C C N
;
_chemical_formula_sum "Si O2"
_cell_formula_units_Z 60
_cell_length_a 13.913827
_cell_length_b 22.910921
_cell_length_c 8.276554
_cell_angle_alpha 90.000000
_cell_angle_beta 90.000000
_cell_angle_gamma 90.000000
_cell_volume 2638.388224
_symmetry_space_group_name_H-M "P C C N"
_symmetry_group_IT_number 56
_symmetry_cell_setting 'orthorhombic'
loop_
_space_group_symop_operation_xyz
x,y,z
1/2-x,1/2-y,z
1/2+x,-y,1/2-z
-x,1/2+y,1/2-z
-x,-y,-z
1/2+x,1/2+y,-z
1/2-x,y,1/2+z
x,1/2-y,1/2+z
loop_
_atom_site_type_symbol
_atom_site_label
_atom_site_fract_x
_atom_site_fract_y
_atom_site_fract_z
Si Si1 0.102135 0.456660 0.175660
Si Si2 0.791627 0.410231 0.468482
Si Si3 0.250000 0.250000 0.418852
Si Si4 0.210352 0.452539 0.519305
Si Si5 0.430618 0.358168 0.146967
Si Si6 0.396993 0.908805 0.184990
Si Si7 0.035203 0.862061 0.203559
Si Si8 0.390544 0.222610 0.171682
O O1 0.165617 0.450421 0.340317
O O2 0.176388 0.440178 0.034871
O O3 0.073659 0.523954 0.162606
O O4 0.010768 0.416043 0.199673
O O5 0.800164 0.479453 0.425275
O O6 0.680139 0.393178 0.451868
O O7 0.835903 0.404924 0.647058
O O8 0.855070 0.372901 0.342907
O O9 0.318273 0.207733 0.316723
O O10 0.175039 0.210497 0.517507
O O11 0.150554 0.407292 0.627930
O O12 0.507849 0.372127 0.285970
O O13 0.395888 0.292533 0.169892
O O14 0.486041 0.360444 0.974397
O O15 0.992883 0.806388 0.299057
#
# Coordination Sequence:
#
# PCOD9430567 Si02
#       8
#     8   8   4   8   8   8   8   8
#     4   9  18  31  53  80 107 138 173 212 264 319
#     4   9  18  36  56  78 105 138 176 221 267 311
#     4  10  24  38  56  74 114 142 176 214 260 304
#     4   9  18  31  53  80 107 138 173 212 264 319
#     4  10  20  35  56  78 106 142 181 216 259 317
#     4   9  18  36  56  78 105 138 176 221 267 311
#     4  10  20  35  56  78 106 142 181 216 259 317
#     4  11  22  38  55  80 108 142 177 214 259 314
#
# _framework density 22.741157999999999
#
# number of rings (size 3 to 8) (size 9 to 14) (size 15 to 20)
#    0.000    2.400    1.333    0.800    3.733    3.200 
#    2.400    0.667    0.000    9.600    0.000    0.000 
#    0.000    0.000    0.000    0.000    0.000    0.000 
#
# Total GULP energy -335153.474371 kJ/mol
# GULP energy per Si atom -5585.891240 kJ/mol
# Density = 2.268940 g / cm^3
# Si number density = 22.741158 Si / 1000 Ang^3
#
#
#
# Elastic Constant Matrix: (Units=GPa)
#
#
# Indices 1 2 3 4 5 6 
#
# 1 58.7508 17.8538 -0.4522 0.0000 0.0000 0.0000
# 2 17.8538 48.7718 5.1486 0.0000 0.0000 0.0000
# 3 -0.4522 5.1486 50.6835 0.0000 0.0000 0.0000
# 4 0.0000 0.0000 0.0000 14.4735 0.0000 0.0000
# 5 0.0000 0.0000 0.0000 0.0000 35.4138 0.0000
# 6 0.0000 0.0000 0.0000 0.0000 0.0000 27.1463
#
#
#
# Elastic Compliance Matrix: (Units=1/GPa)
#
#
# Indices 1 2 3 4 5 6 
#
# 1 0.019192 -0.007120 0.000894 0.000000 0.000000 0.000000
# 2 -0.007120 0.023367 -0.002437 0.000000 0.000000 0.000000
# 3 0.000894 -0.002437 0.019986 0.000000 0.000000 0.000000
# 4 0.000000 0.000000 0.000000 0.069092 0.000000 0.000000
# 5 0.000000 0.000000 0.000000 0.000000 0.028238 0.000000
# 6 0.000000 0.000000 0.000000 0.000000 0.000000 0.036837
#
#
# Mechanical properties :
#
#
# Convention : Reuss Voigt Hill
#
# Bulk Modulus (GPa) = 22.11433 22.58958 22.35195
# Shear Modulus (GPa) = 21.82361 24.45045 23.13703
#
# Velocity S-wave (km/s) = 3.10119 3.28253 3.19314
# Velocity P-wave (km/s) = 4.75064 4.93169 4.84201
#
# Compressibility (1/GPa) = 0.04521956
#
# Stress axis : x y z
#
# Youngs Moduli (GPa) = 52.10621 42.79486 50.03535
#
# Poissons Ratio (x) = 0.30469 -0.04476
# Poissons Ratio (y) = 0.37099 0.12195
# Poissons Ratio (z) = -0.04661 0.10430
#
# Static dielectric constant tensor:
#      x y z
#    x 1.833550 0.000000 0.000000 
#    y 0.000000 1.821010 0.000000 
#    z 0.000000 0.000000 1.953200 
# 
# From -- ./inp_files/3681.got.cif
#   From: 2010.05.17/outbox.cif.g08.bks.cpg/sg56_2_cif.got.tgz:3681.got - 2010.06.03 13:42:01.
