data_PCOD9430179
_publ_section_title
;
Structure prediction by ZEFSAII (Michael W. Deem and Ramdas Pophale) SiO2 
 PCOD9430179
Probable space group: P C C N
;
_chemical_formula_sum "Si O2"
_cell_formula_units_Z 64
_cell_length_a 23.760916
_cell_length_b 6.122600
_cell_length_c 20.749883
_cell_angle_alpha 90.000000
_cell_angle_beta 90.000000
_cell_angle_gamma 90.000000
_cell_volume 3018.663603
_symmetry_space_group_name_H-M "P C C N"
_symmetry_group_IT_number 56
_symmetry_cell_setting 'orthorhombic'
loop_
_space_group_symop_operation_xyz
x,y,z
1/2-x,1/2-y,z
1/2+x,-y,1/2-z
-x,1/2+y,1/2-z
-x,-y,-z
1/2+x,1/2+y,-z
1/2-x,y,1/2+z
x,1/2-y,1/2+z
loop_
_atom_site_type_symbol
_atom_site_label
_atom_site_fract_x
_atom_site_fract_y
_atom_site_fract_z
Si Si1 0.608545 0.345531 0.378270
Si Si2 0.310446 0.808039 0.941257
Si Si3 0.196648 0.112982 0.562702
Si Si4 0.520390 0.720862 0.420134
Si Si5 0.070335 0.719035 0.751988
Si Si6 0.111273 0.021521 0.011939
Si Si7 0.915036 0.976128 0.615552
Si Si8 0.032147 0.418937 0.329100
O O1 0.665686 0.480605 0.382037
O O2 0.558932 0.525815 0.390191
O O3 0.606749 0.214801 0.311852
O O4 0.605170 0.173950 0.436281
O O5 0.250000 0.750000 0.910226
O O6 0.351897 0.975801 0.905077
O O7 0.352687 0.602934 0.955856
O O8 0.292571 0.936466 0.006476
O O9 0.250000 0.250000 0.582741
O O10 0.153205 0.289880 0.535263
O O11 0.458932 0.610782 0.429809
O O12 0.551847 0.844272 0.478832
O O13 0.506344 0.904406 0.366461
O O14 0.078370 0.553133 0.810165
O O15 0.008030 0.704589 0.721064
O O16 0.076716 0.951014 0.786672
O O17 0.936692 0.730165 0.619268
#
# Coordination Sequence:
#
# PCOD9430179 Si02
#       8
#     8   8   8   8   8   8   8   8
#     4  10  20  34  62  93 123 154 195 258 312 374
#     4  11  24  44  63  83 120 163 212 264 307 375
#     4  10  21  39  66  90 109 158 214 257 321 365
#     4  10  19  35  58  93 124 151 195 249 311 375
#     4  11  19  34  59  86 125 161 194 239 306 369
#     4  10  20  38  65  90 119 156 200 257 315 369
#     4  11  24  35  60  91 120 171 206 244 315 379
#     4  11  19  34  58  86 126 163 201 237 300 383
#
# _framework density 21.201436000000001
#
# number of rings (size 3 to 8) (size 9 to 14) (size 15 to 20)
#    0.000    1.500    5.000    0.750    0.000    2.500 
#    0.000    8.750    5.500    0.000    0.000    0.000 
#    0.000    0.000    0.000    0.000    0.000    0.000 
#
# Total GULP energy -356831.969710 kJ/mol
# GULP energy per Si atom -5575.499527 kJ/mol
# Density = 2.115318 g / cm^3
# Si number density = 21.201436 Si / 1000 Ang^3
#
#
#
# Elastic Constant Matrix: (Units=GPa)
#
#
# Indices 1 2 3 4 5 6 
#
# 1 102.9444 25.1591 18.5976 0.0000 0.0000 0.0000
# 2 25.1591 90.2134 16.2992 0.0000 0.0000 0.0000
# 3 18.5976 16.2992 63.8129 0.0000 0.0000 0.0000
# 4 0.0000 0.0000 0.0000 26.7199 0.0000 0.0000
# 5 0.0000 0.0000 0.0000 0.0000 15.5058 0.0000
# 6 0.0000 0.0000 0.0000 0.0000 0.0000 29.9707
#
#
#
# Elastic Compliance Matrix: (Units=1/GPa)
#
#
# Indices 1 2 3 4 5 6 
#
# 1 0.010789 -0.002559 -0.002491 0.000000 0.000000 0.000000
# 2 -0.002559 0.012228 -0.002378 0.000000 0.000000 0.000000
# 3 -0.002491 -0.002378 0.017004 0.000000 0.000000 0.000000
# 4 0.000000 0.000000 0.000000 0.037425 0.000000 0.000000
# 5 0.000000 0.000000 0.000000 0.000000 0.064492 0.000000
# 6 0.000000 0.000000 0.000000 0.000000 0.000000 0.033366
#
#
# Mechanical properties :
#
#
# Convention : Reuss Voigt Hill
#
# Bulk Modulus (GPa) = 39.73492 41.89807 40.81649
# Shear Modulus (GPa) = 25.18282 27.56693 26.37488
#
# Velocity S-wave (km/s) = 3.45017 3.60979 3.53088
# Velocity P-wave (km/s) = 5.88675 6.09745 5.99303
#
# Compressibility (1/GPa) = 0.02516678
#
# Stress axis : x y z
#
# Youngs Moduli (GPa) = 92.68390 81.77932 58.80960
#
# Poissons Ratio (x) = 0.20927 0.14649
# Poissons Ratio (y) = 0.23717 0.13982
# Poissons Ratio (z) = 0.23086 0.19443
#
# Static dielectric constant tensor:
#      x y z
#    x 1.816110 0.000000 0.000000 
#    y 0.000000 1.831600 0.000000 
#    z 0.000000 0.000000 1.773560 
# 
# From -- ./inp_files/21380.got.cif
#   From: 2010.05.17/outbox.cif.g08.bks.cpg/sg56_11_cif.got.tgz:21380.got - 2010.06.03 13:42:01.
