data_PCOD9430758
_publ_section_title
;
Structure prediction by ZEFSAII (Michael W. Deem and Ramdas Pophale) SiO2 
 PCOD9430758
Probable space group: P C C N
;
_chemical_formula_sum "Si O2"
_cell_formula_units_Z 60
_cell_length_a 16.577803
_cell_length_b 5.172518
_cell_length_c 31.760736
_cell_angle_alpha 90.000000
_cell_angle_beta 90.000000
_cell_angle_gamma 90.000000
_cell_volume 2723.450856
_symmetry_space_group_name_H-M "P C C N"
_symmetry_group_IT_number 56
_symmetry_cell_setting 'orthorhombic'
loop_
_space_group_symop_operation_xyz
x,y,z
1/2-x,1/2-y,z
1/2+x,-y,1/2-z
-x,1/2+y,1/2-z
-x,-y,-z
1/2+x,1/2+y,-z
1/2-x,y,1/2+z
x,1/2-y,1/2+z
loop_
_atom_site_type_symbol
_atom_site_label
_atom_site_fract_x
_atom_site_fract_y
_atom_site_fract_z
Si Si1 0.316606 0.562894 0.170147
Si Si2 0.957771 0.333127 0.870450
Si Si3 0.548702 0.296016 0.029031
Si Si4 0.441598 0.653984 0.875231
Si Si5 0.891970 0.049457 0.453765
Si Si6 0.088386 0.789542 0.286872
Si Si7 0.250000 0.250000 0.092240
Si Si8 0.103068 0.289863 0.234548
O O1 0.250000 0.750000 0.189111
O O2 0.394054 0.748065 0.164185
O O3 0.285298 0.461435 0.124831
O O4 0.341742 0.313992 0.196786
O O5 0.915827 0.265987 0.915073
O O6 0.985884 0.629905 0.872367
O O7 0.030500 0.135853 0.864840
O O8 0.582495 0.358461 0.075548
O O9 0.475910 0.099912 0.038988
O O10 0.500000 0.500000 0.000000
O O11 0.618624 0.189748 0.998288
O O12 0.388647 0.742518 0.835533
O O13 0.819409 0.875180 0.436703
O O14 0.119119 0.561264 0.256789
O O15 0.990131 0.780778 0.281541
O O16 0.112395 0.067522 0.269779
#
# Coordination Sequence:
#
# PCOD9430758 Si02
#       8
#     8   8   8   8   8   8   4   8
#     4  12  25  37  60  89 131 176 212 248 324 401
#     4  11  21  36  57  88 129 163 209 255 310 400
#     4  10  20  37  60  88 127 170 210 270 324 384
#     4  11  21  36  65  87 121 167 212 265 329 374
#     4  10  22  37  55  89 128 175 213 256 327 394
#     4  10  21  37  57  84 119 164 199 271 307 372
#     4  12  26  40  60  92 136 182 210 264 336 418
#     4  10  23  36  56  85 122 158 212 252 318 367
#
# _framework density 22.030874000000001
#
# number of rings (size 3 to 8) (size 9 to 14) (size 15 to 20)
#    0.000    1.333    4.000    2.400    5.600    0.000 
#    0.000    0.000    0.000    0.000    0.000    2.800 
#    0.000    0.000    0.000    0.000    0.000    0.000 
#
# Total GULP energy -334916.751968 kJ/mol
# GULP energy per Si atom -5581.945866 kJ/mol
# Density = 2.198073 g / cm^3
# Si number density = 22.030874 Si / 1000 Ang^3
#
#
#
# Elastic Constant Matrix: (Units=GPa)
#
#
# Indices 1 2 3 4 5 6 
#
# 1 37.7257 8.9062 22.1424 0.0000 0.0000 0.0000
# 2 8.9062 62.1710 24.1927 0.0000 0.0000 0.0000
# 3 22.1424 24.1927 167.0110 0.0000 0.0000 0.0000
# 4 0.0000 0.0000 0.0000 35.7779 0.0000 0.0000
# 5 0.0000 0.0000 0.0000 0.0000 22.5824 0.0000
# 6 0.0000 0.0000 0.0000 0.0000 0.0000 23.0866
#
#
#
# Elastic Compliance Matrix: (Units=1/GPa)
#
#
# Indices 1 2 3 4 5 6 
#
# 1 0.029209 -0.002837 -0.003462 0.000000 0.000000 0.000000
# 2 -0.002837 0.017321 -0.002133 0.000000 0.000000 0.000000
# 3 -0.003462 -0.002133 0.006756 0.000000 0.000000 0.000000
# 4 0.000000 0.000000 0.000000 0.027950 0.000000 0.000000
# 5 0.000000 0.000000 0.000000 0.000000 0.044282 0.000000
# 6 0.000000 0.000000 0.000000 0.000000 0.000000 0.043315
#
#
# Mechanical properties :
#
#
# Convention : Reuss Voigt Hill
#
# Bulk Modulus (GPa) = 27.45599 41.93224 34.69412
# Shear Modulus (GPa) = 25.27335 30.40047 27.83691
#
# Velocity S-wave (km/s) = 3.39068 3.71873 3.55849
# Velocity P-wave (km/s) = 5.27432 6.12482 5.71541
#
# Compressibility (1/GPa) = 0.03642192
#
# Stress axis : x y z
#
# Youngs Moduli (GPa) = 34.23650 57.73303 148.02698
#
# Poissons Ratio (x) = 0.16380 0.51240
# Poissons Ratio (y) = 0.09714 0.31573
# Poissons Ratio (z) = 0.11851 0.12314
#
# Static dielectric constant tensor:
#      x y z
#    x 5.856700 0.000000 0.000000 
#    y 0.000000 1.893110 0.000000 
#    z 0.000000 0.000000 1.926880 
# 
# From -- ./inp_files/23686.got.cif
#   From: 2010.05.17/outbox.cif.g08.bks.cpg/sg56_12_cif.got.tgz:23686.got - 2010.06.03 13:42:01.
