data_PCOD9430348
_publ_section_title
;
Structure prediction by ZEFSAII (Michael W. Deem and Ramdas Pophale) SiO2 
 PCOD9430348
Probable space group: P C C N
;
_chemical_formula_sum "Si O2"
_cell_formula_units_Z 40
_cell_length_a 10.644848
_cell_length_b 9.962428
_cell_length_c 16.414681
_cell_angle_alpha 90.000000
_cell_angle_beta 90.000000
_cell_angle_gamma 90.000000
_cell_volume 1740.752820
_symmetry_space_group_name_H-M "P C C N"
_symmetry_group_IT_number 56
_symmetry_cell_setting 'orthorhombic'
loop_
_space_group_symop_operation_xyz
x,y,z
1/2-x,1/2-y,z
1/2+x,-y,1/2-z
-x,1/2+y,1/2-z
-x,-y,-z
1/2+x,1/2+y,-z
1/2-x,y,1/2+z
x,1/2-y,1/2+z
loop_
_atom_site_type_symbol
_atom_site_label
_atom_site_fract_x
_atom_site_fract_y
_atom_site_fract_z
Si Si1 0.877738 0.441628 0.393511
Si Si2 0.376816 0.497275 0.799510
Si Si3 0.750000 0.750000 0.120604
Si Si4 0.994545 0.285231 0.981159
Si Si5 0.750000 0.250000 0.261378
Si Si6 0.886842 0.545953 0.889218
O O1 0.835054 0.337573 0.322654
O O2 0.764297 0.546405 0.402972
O O3 0.005718 0.500250 0.359230
O O4 0.911401 0.348190 0.470659
O O5 0.277650 0.383420 0.826909
O O6 0.319420 0.643599 0.793751
O O7 0.414156 0.463273 0.706298
O O8 0.874698 0.734048 0.067067
O O9 0.925998 0.408299 0.935019
O O10 0.035119 0.335953 0.069411
#
# Coordination Sequence:
#
# PCOD9430348 Si02
#       6
#     8   8   4   8   4   8
#     4  10  19  38  66  95 133 172 218 285 331 393
#     4  10  22  38  67  98 132 175 224 279 337 400
#     4  10  24  40  66  92 136 174 226 284 336 392
#     4  10  20  40  62  92 130 177 215 272 336 397
#     4  10  20  38  64  96 134 166 222 270 340 394
#     4  10  21  37  68  91 131 177 222 265 342 405
#
# _framework density 22.978563000000001
#
# number of rings (size 3 to 8) (size 9 to 14) (size 15 to 20)
#    0.000    2.000    4.000    0.000    5.600    0.800 
#    0.000    6.000    0.000    0.000    0.000    0.000 
#    0.000    0.000    0.000    0.000    0.000    0.000 
#
# Total GULP energy -223796.972333 kJ/mol
# GULP energy per Si atom -5594.924308 kJ/mol
# Density = 2.292626 g / cm^3
# Si number density = 22.978563 Si / 1000 Ang^3
#
#
#
# Elastic Constant Matrix: (Units=GPa)
#
#
# Indices 1 2 3 4 5 6 
#
# 1 57.3306 1.8183 -10.2093 0.0000 0.0000 0.0000
# 2 1.8183 48.5683 9.9602 0.0000 0.0000 0.0000
# 3 -10.2093 9.9602 37.2358 0.0000 0.0000 0.0000
# 4 0.0000 0.0000 0.0000 18.9944 0.0000 0.0000
# 5 0.0000 0.0000 0.0000 0.0000 16.8407 0.0000
# 6 0.0000 0.0000 0.0000 0.0000 0.0000 30.1282
#
#
#
# Elastic Compliance Matrix: (Units=1/GPa)
#
#
# Indices 1 2 3 4 5 6 
#
# 1 0.018491 -0.001832 0.005560 0.000000 0.000000 0.000000
# 2 -0.001832 0.021966 -0.006378 0.000000 0.000000 0.000000
# 3 0.005560 -0.006378 0.030086 0.000000 0.000000 0.000000
# 4 0.000000 0.000000 0.000000 0.052647 0.000000 0.000000
# 5 0.000000 0.000000 0.000000 0.000000 0.059380 0.000000
# 6 0.000000 0.000000 0.000000 0.000000 0.000000 0.033191
#
#
# Mechanical properties :
#
#
# Convention : Reuss Voigt Hill
#
# Bulk Modulus (GPa) = 15.32750 16.25256 15.79003
# Shear Modulus (GPa) = 20.59217 22.63036 21.61127
#
# Velocity S-wave (km/s) = 2.99682 3.14163 3.07008
# Velocity P-wave (km/s) = 4.31965 4.49979 4.41064
#
# Compressibility (1/GPa) = 0.06524222
#
# Stress axis : x y z
#
# Youngs Moduli (GPa) = 54.08059 45.52451 33.23762
#
# Poissons Ratio (x) = 0.08342 -0.18480
# Poissons Ratio (y) = 0.09910 0.21200
# Poissons Ratio (z) = -0.30069 0.29036
#
# Static dielectric constant tensor:
#      x y z
#    x 1.862000 0.000000 0.000000 
#    y 0.000000 1.868530 0.000000 
#    z 0.000000 0.000000 1.848570 
# 
# From -- ./inp_files/11446.got.cif
#   From: 2010.05.17/outbox.cif.g08.bks.cpg/sg56_6_cif.got.tgz:11446.got - 2010.06.03 13:42:01.
