data_PCOD9430905
_publ_section_title
;
Structure prediction by ZEFSAII (Michael W. Deem and Ramdas Pophale) SiO2 
 PCOD9430905
Probable space group: P C C N
;
_chemical_formula_sum "Si O2"
_cell_formula_units_Z 64
_cell_length_a 11.862678
_cell_length_b 16.890081
_cell_length_c 13.566415
_cell_angle_alpha 90.000000
_cell_angle_beta 90.000000
_cell_angle_gamma 90.000000
_cell_volume 2718.188511
_symmetry_space_group_name_H-M "P C C N"
_symmetry_group_IT_number 56
_symmetry_cell_setting 'orthorhombic'
loop_
_space_group_symop_operation_xyz
x,y,z
1/2-x,1/2-y,z
1/2+x,-y,1/2-z
-x,1/2+y,1/2-z
-x,-y,-z
1/2+x,1/2+y,-z
1/2-x,y,1/2+z
x,1/2-y,1/2+z
loop_
_atom_site_type_symbol
_atom_site_label
_atom_site_fract_x
_atom_site_fract_y
_atom_site_fract_z
Si Si1 0.807094 0.166352 0.611787
Si Si2 0.949976 0.659462 0.971285
Si Si3 0.027926 0.679856 0.167290
Si Si4 0.564253 0.513603 0.899382
Si Si5 0.930886 0.349256 0.320037
Si Si6 0.372352 0.185038 0.643527
Si Si7 0.660497 0.606194 0.285724
Si Si8 0.652024 0.058090 0.717976
O O1 0.750000 0.250000 0.590999
O O2 0.860818 0.166027 0.721232
O O3 0.712811 0.098923 0.625190
O O4 0.915170 0.153646 0.544064
O O5 0.898345 0.743996 0.933327
O O6 0.895601 0.598269 0.894285
O O7 0.938795 0.647235 0.087636
O O8 0.967698 0.694264 0.272689
O O9 0.068098 0.765001 0.126222
O O10 0.128931 0.620926 0.195187
O O11 0.615061 0.427802 0.872691
O O12 0.623828 0.598677 0.909034
O O13 0.472996 0.530845 0.813619
O O14 0.500000 0.500000 0.000000
O O15 0.060538 0.366250 0.286894
O O16 0.255608 0.171828 0.701830
O O17 0.710667 0.522866 0.250873
#
# Coordination Sequence:
#
# PCOD9430905 Si02
#       8
#     8   8   8   8   8   8   8   8
#     4  11  19  40  62  90 125 164 215 259 315 387
#     4  11  24  41  64  97 131 167 216 277 313 387
#     4  11  22  42  67  94 128 173 209 264 334 377
#     4  10  21  39  62  93 130 164 213 272 320 379
#     4  10  20  38  64  88 127 168 209 262 322 381
#     4  11  21  44  66  90 134 172 215 267 326 388
#     4  10  22  42  63  91 128 169 216 261 320 386
#     4  10  22  41  65  92 127 176 208 261 332 385
#
# _framework density 23.545093000000001
#
# number of rings (size 3 to 8) (size 9 to 14) (size 15 to 20)
#    0.000    1.500    3.750    2.625    0.000    1.500 
#   15.750    0.000    0.000    0.000    0.000    0.000 
#    0.000    0.000    0.000    0.000    0.000    0.000 
#
# Total GULP energy -357078.606638 kJ/mol
# GULP energy per Si atom -5579.353229 kJ/mol
# Density = 2.349150 g / cm^3
# Si number density = 23.545093 Si / 1000 Ang^3
#
#
#
# Elastic Constant Matrix: (Units=GPa)
#
#
# Indices 1 2 3 4 5 6 
#
# 1 56.4521 24.7631 -14.7607 0.0000 0.0000 0.0000
# 2 24.7631 133.7007 10.5575 0.0000 0.0000 0.0000
# 3 -14.7607 10.5575 59.7290 0.0000 0.0000 0.0000
# 4 0.0000 0.0000 0.0000 12.0738 0.0000 0.0000
# 5 0.0000 0.0000 0.0000 0.0000 9.1464 0.0000
# 6 0.0000 0.0000 0.0000 0.0000 0.0000 30.1093
#
#
#
# Elastic Compliance Matrix: (Units=1/GPa)
#
#
# Indices 1 2 3 4 5 6 
#
# 1 0.021222 -0.004406 0.006023 0.000000 0.000000 0.000000
# 2 -0.004406 0.008500 -0.002591 0.000000 0.000000 0.000000
# 3 0.006023 -0.002591 0.018689 0.000000 0.000000 0.000000
# 4 0.000000 0.000000 0.000000 0.082824 0.000000 0.000000
# 5 0.000000 0.000000 0.000000 0.000000 0.109333 0.000000
# 6 0.000000 0.000000 0.000000 0.000000 0.000000 0.033212
#
#
# Mechanical properties :
#
#
# Convention : Reuss Voigt Hill
#
# Bulk Modulus (GPa) = 21.52275 32.33349 26.92812
# Shear Modulus (GPa) = 17.16939 25.55402 21.36170
#
# Velocity S-wave (km/s) = 2.70332 3.29800 3.01536
# Velocity P-wave (km/s) = 4.34797 5.31646 4.85642
#
# Compressibility (1/GPa) = 0.04646247
#
# Stress axis : x y z
#
# Youngs Moduli (GPa) = 47.12122 117.64574 53.50781
#
# Poissons Ratio (x) = 0.51837 -0.32230
# Poissons Ratio (y) = 0.20762 0.13866
# Poissons Ratio (z) = -0.28383 0.30486
#
# Static dielectric constant tensor:
#      x y z
#    x 2.059010 0.000000 0.000000 
#    y 0.000000 1.997710 0.000000 
#    z 0.000000 0.000000 1.902170 
# 
# From -- ./inp_files/11835.got.cif
#   From: 2010.05.17/outbox.cif.g08.bks.cpg/sg56_6_cif.got.tgz:11835.got - 2010.06.03 13:42:01.
