data_PCOD9430475
_publ_section_title
;
Structure prediction by ZEFSAII (Michael W. Deem and Ramdas Pophale) SiO2 
 PCOD9430475
Probable space group: P C C N
;
_chemical_formula_sum "Si O2"
_cell_formula_units_Z 64
_cell_length_a 7.342146
_cell_length_b 33.863678
_cell_length_c 10.907202
_cell_angle_alpha 90.000000
_cell_angle_beta 90.000000
_cell_angle_gamma 90.000000
_cell_volume 2711.880189
_symmetry_space_group_name_H-M "P C C N"
_symmetry_group_IT_number 56
_symmetry_cell_setting 'orthorhombic'
loop_
_space_group_symop_operation_xyz
x,y,z
1/2-x,1/2-y,z
1/2+x,-y,1/2-z
-x,1/2+y,1/2-z
-x,-y,-z
1/2+x,1/2+y,-z
1/2-x,y,1/2+z
x,1/2-y,1/2+z
loop_
_atom_site_type_symbol
_atom_site_label
_atom_site_fract_x
_atom_site_fract_y
_atom_site_fract_z
Si Si1 0.555880 0.495136 0.360125
Si Si2 0.028684 0.703902 0.599329
Si Si3 0.472115 0.705143 0.600311
Si Si4 0.090937 0.960015 0.038970
Si Si5 0.511703 0.080610 0.255161
Si Si6 0.524750 0.161767 0.147423
Si Si7 0.530224 0.338315 0.150288
Si Si8 0.915678 0.422778 0.712968
O O1 0.500000 0.500000 0.500000
O O2 0.759201 0.478405 0.370372
O O3 0.532586 0.538339 0.304729
O O4 0.476395 0.457839 0.282629
O O5 0.250416 0.703826 0.599357
O O6 0.972307 0.749377 0.586616
O O7 0.973123 0.686518 0.731193
O O8 0.969378 0.678528 0.481007
O O9 0.534066 0.680007 0.482255
O O10 0.525387 0.687995 0.732901
O O11 0.957089 0.928879 0.104834
O O12 0.160585 0.940124 0.915295
O O13 0.000000 0.000000 0.000000
O O14 0.455250 0.117458 0.174179
O O15 0.728669 0.090194 0.279730
O O16 0.747108 0.161807 0.142859
O O17 0.476765 0.383258 0.182177
#
# Coordination Sequence:
#
# PCOD9430475 Si02
#       8
#     8   8   8   8   8   8   8   8
#     4  11  22  34  53  73 101 134 179 219 255 306
#     4   9  15  26  38  59  89 129 165 202 250 302
#     4   9  16  24  39  60  89 125 168 205 245 302
#     4  11  21  36  53  72 100 133 179 214 262 309
#     4  10  20  33  50  72  98 134 177 214 260 305
#     4   9  17  26  42  62  91 125 166 208 247 301
#     4   9  17  26  41  62  90 124 168 210 244 298
#     4  10  20  33  50  72  98 135 178 216 257 308
#
# _framework density 23.599861000000001
#
# number of rings (size 3 to 8) (size 9 to 14) (size 15 to 20)
#    0.000    2.250    2.500    1.500    1.750    6.000 
#    0.000    0.000    0.000    0.000    0.000    0.000 
#    0.000    0.000    0.000   19.125    0.250   14.500 
#
# Total GULP energy -356674.350854 kJ/mol
# GULP energy per Si atom -5573.036732 kJ/mol
# Density = 2.354615 g / cm^3
# Si number density = 23.599861 Si / 1000 Ang^3
#
#
#
# Elastic Constant Matrix: (Units=GPa)
#
#
# Indices 1 2 3 4 5 6 
#
# 1 58.8710 -1.6201 -4.2197 0.0000 0.0000 0.0000
# 2 -1.6201 110.8068 19.2957 0.0000 0.0000 0.0000
# 3 -4.2197 19.2957 103.9278 0.0000 0.0000 0.0000
# 4 0.0000 0.0000 0.0000 32.5089 0.0000 0.0000
# 5 0.0000 0.0000 0.0000 0.0000 2.6133 0.0000
# 6 0.0000 0.0000 0.0000 0.0000 0.0000 4.2938
#
#
#
# Elastic Compliance Matrix: (Units=1/GPa)
#
#
# Indices 1 2 3 4 5 6 
#
# 1 0.017038 0.000133 0.000667 0.000000 0.000000 0.000000
# 2 0.000133 0.009327 -0.001726 0.000000 0.000000 0.000000
# 3 0.000667 -0.001726 0.009970 0.000000 0.000000 0.000000
# 4 0.000000 0.000000 0.000000 0.030761 0.000000 0.000000
# 5 0.000000 0.000000 0.000000 0.000000 0.382660 0.000000
# 6 0.000000 0.000000 0.000000 0.000000 0.000000 0.232896
#
#
# Mechanical properties :
#
#
# Convention : Reuss Voigt Hill
#
# Bulk Modulus (GPa) = 29.00056 33.39081 31.19569
# Shear Modulus (GPa) = 7.18393 25.22651 16.20522
#
# Velocity S-wave (km/s) = 1.74662 3.27299 2.62327
# Velocity P-wave (km/s) = 4.04755 5.33505 4.73526
#
# Compressibility (1/GPa) = 0.03448209
#
# Stress axis : x y z
#
# Youngs Moduli (GPa) = 58.69315 107.21233 100.30423
#
# Poissons Ratio (x) = -0.01425 -0.06691
# Poissons Ratio (y) = -0.00780 0.17316
# Poissons Ratio (z) = -0.03915 0.18509
#
# Static dielectric constant tensor:
#      x y z
#    x 2.230890 0.000000 0.000000 
#    y 0.000000 1.978600 0.000000 
#    z 0.000000 0.000000 2.131190 
# 
# From -- ./inp_files/7426.got.cif
#   From: 2010.05.17/outbox.cif.g08.bks.cpg/sg56_4_cif.got.tgz:7426.got - 2010.06.03 13:42:01.
