data_PCOD9430027
_publ_section_title
;
Structure prediction by ZEFSAII (Michael W. Deem and Ramdas Pophale) SiO2 
 PCOD9430027
Probable space group: P C C N
;
_chemical_formula_sum "Si O2"
_cell_formula_units_Z 64
_cell_length_a 25.183789
_cell_length_b 12.556803
_cell_length_c 12.155652
_cell_angle_alpha 90.000000
_cell_angle_beta 90.000000
_cell_angle_gamma 90.000000
_cell_volume 3843.956029
_symmetry_space_group_name_H-M "P C C N"
_symmetry_group_IT_number 56
_symmetry_cell_setting 'orthorhombic'
loop_
_space_group_symop_operation_xyz
x,y,z
1/2-x,1/2-y,z
1/2+x,-y,1/2-z
-x,1/2+y,1/2-z
-x,-y,-z
1/2+x,1/2+y,-z
1/2-x,y,1/2+z
x,1/2-y,1/2+z
loop_
_atom_site_type_symbol
_atom_site_label
_atom_site_fract_x
_atom_site_fract_y
_atom_site_fract_z
Si Si1 0.982520 0.744874 0.670279
Si Si2 0.593544 0.817574 0.995774
Si Si3 0.403881 0.067828 0.236842
Si Si4 0.642391 0.906995 0.418891
Si Si5 0.059668 0.588873 0.576320
Si Si6 0.181505 0.144727 0.324566
Si Si7 0.478870 0.592739 0.840198
Si Si8 0.201819 0.105564 0.860852
O O1 0.961137 0.809078 0.564345
O O2 0.936086 0.658226 0.693621
O O3 0.038857 0.687497 0.648495
O O4 0.988902 0.817916 0.776534
O O5 0.637282 0.864996 0.080437
O O6 0.594600 0.889288 0.887011
O O7 0.608055 0.695815 0.959613
O O8 0.345020 0.053703 0.287493
O O9 0.437765 0.961849 0.256669
O O10 0.659755 0.881540 0.295589
O O11 0.688230 0.910393 0.510931
O O12 0.613579 0.021623 0.418561
O O13 0.051055 0.625807 0.450977
O O14 0.018667 0.497208 0.615254
O O15 0.236473 0.081167 0.341366
O O16 0.194737 0.270093 0.330780
#
# Coordination Sequence:
#
# PCOD9430027 Si02
#       8
#     8   8   8   8   8   8   8   8
#     4  11  20  33  48  76 102 140 176 212 252 300
#     4  11  19  31  48  74 111 141 164 208 256 305
#     4  11  19  33  49  71 105 138 169 210 256 307
#     4  11  18  34  51  72 105 135 178 208 247 319
#     4  10  19  32  54  72  98 140 180 210 251 309
#     4  10  21  29  50  76 107 140 168 208 256 309
#     4  10  20  33  51  72 100 139 178 210 254 308
#     4  10  20  31  47  76 102 140 168 204 259 306
#
# _framework density 16.649514
#
# number of rings (size 3 to 8) (size 9 to 14) (size 15 to 20)
#    0.000    1.500    5.000    3.750    1.750    1.500 
#    0.000    1.250    0.000    0.000    0.000    0.875 
#    0.000    0.000    0.000    0.000    0.000    0.000 
#
# Total GULP energy -356430.808369 kJ/mol
# GULP energy per Si atom -5569.231381 kJ/mol
# Density = 1.661162 g / cm^3
# Si number density = 16.649514 Si / 1000 Ang^3
#
#
#
# Elastic Constant Matrix: (Units=GPa)
#
#
# Indices 1 2 3 4 5 6 
#
# 1 69.1138 22.3855 33.5125 0.0000 0.0000 0.0000
# 2 22.3855 26.2068 23.5270 0.0000 0.0000 0.0000
# 3 33.5125 23.5270 126.0604 0.0000 0.0000 0.0000
# 4 0.0000 0.0000 0.0000 13.5144 0.0000 0.0000
# 5 0.0000 0.0000 0.0000 0.0000 16.7164 0.0000
# 6 0.0000 0.0000 0.0000 0.0000 0.0000 10.5797
#
#
#
# Elastic Compliance Matrix: (Units=1/GPa)
#
#
# Indices 1 2 3 4 5 6 
#
# 1 0.020714 -0.015316 -0.002648 0.000000 0.000000 0.000000
# 2 -0.015316 0.057163 -0.006597 0.000000 0.000000 0.000000
# 3 -0.002648 -0.006597 0.009868 0.000000 0.000000 0.000000
# 4 0.000000 0.000000 0.000000 0.073995 0.000000 0.000000
# 5 0.000000 0.000000 0.000000 0.000000 0.059821 0.000000
# 6 0.000000 0.000000 0.000000 0.000000 0.000000 0.094521
#
#
# Mechanical properties :
#
#
# Convention : Reuss Voigt Hill
#
# Bulk Modulus (GPa) = 25.89157 42.24789 34.06973
# Shear Modulus (GPa) = 13.22479 17.62583 15.42531
#
# Velocity S-wave (km/s) = 2.82140 3.25720 3.04710
# Velocity P-wave (km/s) = 5.11844 6.29093 5.73473
#
# Compressibility (1/GPa) = 0.03862262
#
# Stress axis : x y z
#
# Youngs Moduli (GPa) = 48.27725 17.49389 101.33885
#
# Poissons Ratio (x) = 0.26794 0.26836
# Poissons Ratio (y) = 0.73941 0.66851
# Poissons Ratio (z) = 0.12785 0.11540
#
# Static dielectric constant tensor:
#      x y z
#    x 1.611560 0.000000 0.000000 
#    y 0.000000 1.551050 0.000000 
#    z 0.000000 0.000000 1.565280 
# 
# From -- ./inp_files/9112.got.cif
#   From: 2010.05.17/outbox.cif.g08.bks.cpg/sg56_5_cif.got.tgz:9112.got - 2010.06.03 13:42:01.
