data_PCOD9430219
_publ_section_title
;
Structure prediction by ZEFSAII (Michael W. Deem and Ramdas Pophale) SiO2 
 PCOD9430219
Probable space group: P C C N
;
_chemical_formula_sum "Si O2"
_cell_formula_units_Z 48
_cell_length_a 31.283512
_cell_length_b 8.807577
_cell_length_c 8.395057
_cell_angle_alpha 90.000000
_cell_angle_beta 90.000000
_cell_angle_gamma 90.000000
_cell_volume 2313.106348
_symmetry_space_group_name_H-M "P C C N"
_symmetry_group_IT_number 56
_symmetry_cell_setting 'orthorhombic'
loop_
_space_group_symop_operation_xyz
x,y,z
1/2-x,1/2-y,z
1/2+x,-y,1/2-z
-x,1/2+y,1/2-z
-x,-y,-z
1/2+x,1/2+y,-z
1/2-x,y,1/2+z
x,1/2-y,1/2+z
loop_
_atom_site_type_symbol
_atom_site_label
_atom_site_fract_x
_atom_site_fract_y
_atom_site_fract_z
Si Si1 0.454524 0.543960 0.569289
Si Si2 0.876334 0.829708 0.472880
Si Si3 0.636405 0.524258 0.819014
Si Si4 0.334870 0.572425 0.716986
Si Si5 0.917627 0.252238 0.206080
Si Si6 0.703565 0.179867 0.473475
O O1 0.500000 0.500000 0.500000
O O2 0.422607 0.399948 0.574910
O O3 0.431573 0.662814 0.451520
O O4 0.455270 0.644186 0.729111
O O5 0.865840 0.890646 0.648984
O O6 0.873700 0.650401 0.451457
O O7 0.843053 0.906009 0.348596
O O8 0.600630 0.392322 0.812280
O O9 0.682048 0.444551 0.856155
O O10 0.377434 0.638840 0.799137
O O11 0.326343 0.674048 0.559980
O O12 0.299663 0.608320 0.850424
O O13 0.750000 0.250000 0.444253
#
# Coordination Sequence:
#
# PCOD9430219 Si02
#       6
#     8   8   8   8   8   8
#     4  10  21  36  56  86 119 154 199 249 293 342
#     4  10  21  37  60  87 118 158 200 240 294 357
#     4  10  20  37  59  85 116 155 198 239 289 359
#     4  10  19  36  59  82 113 151 192 233 284 359
#     4   9  19  37  57  79 112 155 195 232 286 353
#     4  11  21  35  58  87 114 147 189 239 292 346
#
# _framework density 20.751314000000001
#
# number of rings (size 3 to 8) (size 9 to 14) (size 15 to 20)
#    0.000    2.000    0.000    6.500    0.000    4.000 
#    0.000    3.333    0.000    6.000    0.000    0.000 
#    0.000    0.000    0.000    0.000    0.000    0.000 
#
# Total GULP energy -267604.226078 kJ/mol
# GULP energy per Si atom -5575.088043 kJ/mol
# Density = 2.070408 g / cm^3
# Si number density = 20.751314 Si / 1000 Ang^3
#
#
#
# Elastic Constant Matrix: (Units=GPa)
#
#
# Indices 1 2 3 4 5 6 
#
# 1 54.3484 20.4632 7.9222 0.0000 0.0000 0.0000
# 2 20.4632 109.6499 19.0786 0.0000 0.0000 0.0000
# 3 7.9222 19.0786 50.2634 0.0000 0.0000 0.0000
# 4 0.0000 0.0000 0.0000 38.2873 0.0000 0.0000
# 5 0.0000 0.0000 0.0000 0.0000 19.3589 0.0000
# 6 0.0000 0.0000 0.0000 0.0000 0.0000 24.9480
#
#
#
# Elastic Compliance Matrix: (Units=1/GPa)
#
#
# Indices 1 2 3 4 5 6 
#
# 1 0.019950 -0.003401 -0.001854 0.000000 0.000000 0.000000
# 2 -0.003401 0.010345 -0.003391 0.000000 0.000000 0.000000
# 3 -0.001854 -0.003391 0.021474 0.000000 0.000000 0.000000
# 4 0.000000 0.000000 0.000000 0.026118 0.000000 0.000000
# 5 0.000000 0.000000 0.000000 0.000000 0.051656 0.000000
# 6 0.000000 0.000000 0.000000 0.000000 0.000000 0.040083
#
#
# Mechanical properties :
#
#
# Convention : Reuss Voigt Hill
#
# Bulk Modulus (GPa) = 29.00268 34.35441 31.67855
# Shear Modulus (GPa) = 25.20039 27.63869 26.41954
#
# Velocity S-wave (km/s) = 3.48860 3.65348 3.57199
# Velocity P-wave (km/s) = 5.49853 5.86417 5.68429
#
# Compressibility (1/GPa) = 0.03447957
#
# Stress axis : x y z
#
# Youngs Moduli (GPa) = 50.12425 96.66956 46.56732
#
# Poissons Ratio (x) = 0.32874 0.08632
# Poissons Ratio (y) = 0.17046 0.15789
# Poissons Ratio (z) = 0.09291 0.32776
#
# Static dielectric constant tensor:
#      x y z
#    x 1.753610 0.000000 0.000000 
#    y 0.000000 1.718450 0.000000 
#    z 0.000000 0.000000 1.852060 
# 
# From -- ./inp_files/2249.got.cif
#   From: 2010.05.17/outbox.cif.g08.bks.cpg/sg56_2_cif.got.tgz:2249.got - 2010.06.03 13:42:01.
