data_PCOD9430269
_publ_section_title
;
Structure prediction by ZEFSAII (Michael W. Deem and Ramdas Pophale) SiO2 
 PCOD9430269
Probable space group: P C C N
;
_chemical_formula_sum "Si O2"
_cell_formula_units_Z 32
_cell_length_a 7.098374
_cell_length_b 7.150876
_cell_length_c 31.158858
_cell_angle_alpha 90.000000
_cell_angle_beta 90.000000
_cell_angle_gamma 90.000000
_cell_volume 1581.610928
_symmetry_space_group_name_H-M "P C C N"
_symmetry_group_IT_number 56
_symmetry_cell_setting 'orthorhombic'
loop_
_space_group_symop_operation_xyz
x,y,z
1/2-x,1/2-y,z
1/2+x,-y,1/2-z
-x,1/2+y,1/2-z
-x,-y,-z
1/2+x,1/2+y,-z
1/2-x,y,1/2+z
x,1/2-y,1/2+z
loop_
_atom_site_type_symbol
_atom_site_label
_atom_site_fract_x
_atom_site_fract_y
_atom_site_fract_z
Si Si1 0.750000 0.250000 0.739039
Si Si2 0.527744 0.784019 0.512139
Si Si3 0.927745 0.891982 0.197007
Si Si4 0.426471 0.114496 0.398365
Si Si5 0.250000 0.750000 0.442707
O O1 0.587611 0.334281 0.769410
O O2 0.843464 0.408427 0.709898
O O3 0.750000 0.750000 0.509718
O O4 0.467340 0.785029 0.562017
O O5 0.408298 0.673869 0.476339
O O6 0.500000 0.000000 0.500000
O O7 0.750000 0.750000 0.199479
O O8 0.012818 0.900397 0.148784
O O9 0.250000 0.250000 0.391856
O O10 0.345213 0.913823 0.414759
#
# Coordination Sequence:
#
# PCOD9430269 Si02
#       5
#     4   8   8   8   4
#     4  12  23  41  68  90 120 164 202 257 325 380
#     4   9  19  34  56  84 115 156 200 236 289 353
#     4  11  23  41  64  93 125 160 208 257 317 378
#     4   9  20  36  56  87 120 156 201 250 298 362
#     4  10  19  37  60  82 124 168 192 249 303 346
#
# _framework density 20.232534999999999
#
# number of rings (size 3 to 8) (size 9 to 14) (size 15 to 20)
#    0.000    2.000    2.500    0.750    0.000   10.000 
#    0.000    7.500   11.000    0.000    0.000    0.000 
#    0.000    0.000    0.000    0.000    0.000    0.000 
#
# Total GULP energy -178364.720016 kJ/mol
# GULP energy per Si atom -5573.897500 kJ/mol
# Density = 2.018648 g / cm^3
# Si number density = 20.232535 Si / 1000 Ang^3
#
#
#
# Elastic Constant Matrix: (Units=GPa)
#
#
# Indices 1 2 3 4 5 6 
#
# 1 74.7648 11.8600 6.7788 0.0000 0.0000 0.0000
# 2 11.8600 72.1561 8.9016 0.0000 0.0000 0.0000
# 3 6.7788 8.9016 107.6771 0.0000 0.0000 0.0000
# 4 0.0000 0.0000 0.0000 444.0465 0.0000 0.0000
# 5 0.0000 0.0000 0.0000 0.0000 24.2148 0.0000
# 6 0.0000 0.0000 0.0000 0.0000 0.0000 32.5819
#
#
#
# Elastic Compliance Matrix: (Units=1/GPa)
#
#
# Indices 1 2 3 4 5 6 
#
# 1 0.013784 -0.002181 -0.000687 0.000000 0.000000 0.000000
# 2 -0.002181 0.014347 -0.001049 0.000000 0.000000 0.000000
# 3 -0.000687 -0.001049 0.009417 0.000000 0.000000 0.000000
# 4 0.000000 0.000000 0.000000 0.002252 0.000000 0.000000
# 5 0.000000 0.000000 0.000000 0.000000 0.041297 0.000000
# 6 0.000000 0.000000 0.000000 0.000000 0.000000 0.030692
#
#
# Mechanical properties :
#
#
# Convention : Reuss Voigt Hill
#
# Bulk Modulus (GPa) = 33.65494 34.40876 34.03185
# Shear Modulus (GPa) = 38.60215 115.30581 76.95398
#
# Velocity S-wave (km/s) = 4.37272 7.55738 6.17392
# Velocity P-wave (km/s) = 6.49341 9.65379 8.22679
#
# Compressibility (1/GPa) = 0.02971332
#
# Stress axis : x y z
#
# Youngs Moduli (GPa) = 72.55031 69.70267 106.19084
#
# Poissons Ratio (x) = 0.15200 0.07300
# Poissons Ratio (y) = 0.15821 0.11137
# Poissons Ratio (z) = 0.04988 0.07310
#
# Static dielectric constant tensor:
#      x y z
#    x 1.713670 0.000000 0.000000 
#    y 0.000000 1.749270 0.000000 
#    z 0.000000 0.000000 1.781000 
# 
# From -- ./inp_files/21927.got.cif
#   From: 2010.05.17/outbox.cif.g08.bks.cpg/sg56_11_cif.got.tgz:21927.got - 2010.06.03 13:42:01.
