data_PCOD9430015
_publ_section_title
;
Structure prediction by ZEFSAII (Michael W. Deem and Ramdas Pophale) SiO2 
 PCOD9430015
Probable space group: P C C N
;
_chemical_formula_sum "Si O2"
_cell_formula_units_Z 56
_cell_length_a 5.517628
_cell_length_b 13.379377
_cell_length_c 36.123526
_cell_angle_alpha 90.000000
_cell_angle_beta 90.000000
_cell_angle_gamma 90.000000
_cell_volume 2666.726295
_symmetry_space_group_name_H-M "P C C N"
_symmetry_group_IT_number 56
_symmetry_cell_setting 'orthorhombic'
loop_
_space_group_symop_operation_xyz
x,y,z
1/2-x,1/2-y,z
1/2+x,-y,1/2-z
-x,1/2+y,1/2-z
-x,-y,-z
1/2+x,1/2+y,-z
1/2-x,y,1/2+z
x,1/2-y,1/2+z
loop_
_atom_site_type_symbol
_atom_site_label
_atom_site_fract_x
_atom_site_fract_y
_atom_site_fract_z
Si Si1 0.485372 0.549981 0.929600
Si Si2 0.960260 0.965159 0.305714
Si Si3 0.836642 0.650291 0.360222
Si Si4 0.469829 0.870424 0.283951
Si Si5 0.501690 0.301905 0.297565
Si Si6 0.000291 0.747363 0.481539
Si Si7 0.988731 0.529927 0.957238
O O1 0.503132 0.585797 0.887542
O O2 0.235247 0.495254 0.938003
O O3 0.736266 0.495625 0.939734
O O4 0.489674 0.647906 0.956566
O O5 0.888916 0.913518 0.344624
O O6 0.707948 0.943738 0.282987
O O7 0.205161 0.919742 0.288212
O O8 0.995922 0.082639 0.309119
O O9 0.750000 0.750000 0.380070
O O10 0.979229 0.683470 0.323098
O O11 0.250000 0.750000 0.189503
O O12 0.487617 0.804580 0.247504
O O13 0.250000 0.250000 0.308555
O O14 0.750000 0.750000 0.503378
O O15 0.250000 0.750000 0.503589
O O16 0.992734 0.848046 0.456655
O O17 0.000000 0.500000 0.000000
#
# Coordination Sequence:
#
# PCOD9430015 Si02
#       7
#     8   8   8   8   8   8   8
#     4  10  20  34  53  80 115 145 178 220 278 353
#     4  10  23  39  56  86 121 154 199 258 303 364
#     4  10  23  37  58  87 121 164 190 238 311 376
#     4  10  22  37  56  83 123 151 195 252 308 363
#     4  12  23  38  62  84 114 159 213 257 309 355
#     4   8  15  28  44  69 100 136 162 205 248 310
#     4  10  19  32  51  77 109 141 180 218 260 317
#
# _framework density 20.999528999999999
#
# number of rings (size 3 to 8) (size 9 to 14) (size 15 to 20)
#    0.857    1.143    0.000    4.714    4.000    0.000 
#    0.000    0.000    0.000    0.000    0.000   12.000 
#    4.286    0.000    0.000    0.000    0.000    0.000 
#
# Total GULP energy -312015.081292 kJ/mol
# GULP energy per Si atom -5571.697880 kJ/mol
# Density = 2.095173 g / cm^3
# Si number density = 20.999529 Si / 1000 Ang^3
#
#
#
# Elastic Constant Matrix: (Units=GPa)
#
#
# Indices 1 2 3 4 5 6 
#
# 1 229.9026 35.5057 12.4230 0.0000 0.0000 0.0000
# 2 35.5057 50.4579 -4.0034 0.0000 0.0000 0.0000
# 3 12.4230 -4.0034 51.6252 0.0000 0.0000 0.0000
# 4 0.0000 0.0000 0.0000 53.9788 0.0000 0.0000
# 5 0.0000 0.0000 0.0000 0.0000 -30.7905 0.0000
# 6 0.0000 0.0000 0.0000 0.0000 0.0000 21.2061
#
#
#
# Elastic Compliance Matrix: (Units=1/GPa)
#
#
# Indices 1 2 3 4 5 6 
#
# 1 0.004990 -0.003629 -0.001482 0.000000 0.000000 0.000000
# 2 -0.003629 0.022580 0.002624 0.000000 0.000000 0.000000
# 3 -0.001482 0.002624 0.019931 0.000000 0.000000 0.000000
# 4 0.000000 0.000000 0.000000 0.018526 0.000000 0.000000
# 5 0.000000 0.000000 0.000000 0.000000 -0.032478 0.000000
# 6 0.000000 0.000000 0.000000 0.000000 0.000000 0.047156
#
#
# Mechanical properties :
#
#
# Convention : Reuss Voigt Hill
#
# Bulk Modulus (GPa) = 23.51437 46.64849 35.08143
# Shear Modulus (GPa) = 50.07238 28.08291 39.07765
#
# Velocity S-wave (km/s) = 4.88838 3.66089 4.31847
# Velocity P-wave (km/s) = 6.56381 6.33497 6.45040
#
# Compressibility (1/GPa) = 0.04252718
#
# Stress axis : x y z
#
# Youngs Moduli (GPa) = 200.39148 44.28623 50.17417
#
# Poissons Ratio (x) = 0.16072 0.07437
# Poissons Ratio (y) = 0.72724 -0.13167
# Poissons Ratio (z) = 0.29703 -0.11622
#
# Static dielectric constant tensor:
#      x y z
#    x 1.857990 0.000000 0.000000 
#    y 0.000000 1.740370 0.000000 
#    z 0.000000 0.000000 1.736300 
# 
# From -- ./inp_files/22857.got.cif
#   From: 2010.05.17/outbox.cif.g08.bks.cpg/sg56_12_cif.got.tgz:22857.got - 2010.06.03 13:42:01.
