data_PCOD9430862
_publ_section_title
;
Structure prediction by ZEFSAII (Michael W. Deem and Ramdas Pophale) SiO2 
 PCOD9430862
Probable space group: P C C N
;
_chemical_formula_sum "Si O2"
_cell_formula_units_Z 40
_cell_length_a 9.834473
_cell_length_b 10.873255
_cell_length_c 16.099281
_cell_angle_alpha 90.000000
_cell_angle_beta 90.000000
_cell_angle_gamma 90.000000
_cell_volume 1721.540112
_symmetry_space_group_name_H-M "P C C N"
_symmetry_group_IT_number 56
_symmetry_cell_setting 'orthorhombic'
loop_
_space_group_symop_operation_xyz
x,y,z
1/2-x,1/2-y,z
1/2+x,-y,1/2-z
-x,1/2+y,1/2-z
-x,-y,-z
1/2+x,1/2+y,-z
1/2-x,y,1/2+z
x,1/2-y,1/2+z
loop_
_atom_site_type_symbol
_atom_site_label
_atom_site_fract_x
_atom_site_fract_y
_atom_site_fract_z
Si Si1 0.542895 0.006027 0.595705
Si Si2 0.832560 0.485744 0.166456
Si Si3 0.210747 0.114235 0.173860
Si Si4 0.587592 0.739701 0.599925
Si Si5 0.038221 0.114518 0.559260
O O1 0.702602 0.030564 0.606937
O O2 0.528752 0.866854 0.633724
O O3 0.500000 0.000000 0.500000
O O4 0.442958 0.098089 0.643040
O O5 0.771886 0.508524 0.257281
O O6 0.918974 0.613183 0.151491
O O7 0.937995 0.382703 0.137834
O O8 0.250000 0.250000 0.207772
O O9 0.311539 0.099366 0.096041
O O10 0.750000 0.750000 0.589226
O O11 0.529518 0.722624 0.507292
O O12 0.000000 0.000000 0.500000
#
# Coordination Sequence:
#
# PCOD9430862 Si02
#       5
#     8   8   8   8   8
#     4  11  21  37  61  87 116 158 204 244 296 367
#     4  10  22  39  61  90 122 155 199 254 309 363
#     4  12  23  39  62  88 121 162 202 249 307 366
#     4   9  18  37  61  87 117 155 201 250 302 364
#     4  10  20  38  61  86 119 156 198 249 302 360
#
# _framework density 23.235009000000002
#
# number of rings (size 3 to 8) (size 9 to 14) (size 15 to 20)
#    0.000    1.600    0.000    8.400    0.000    0.000 
#    0.000   14.000    0.000   12.000    0.000    0.000 
#    0.000    0.000    0.000    0.000    0.000    0.000 
#
# Total GULP energy -223162.777240 kJ/mol
# GULP energy per Si atom -5579.069431 kJ/mol
# Density = 2.318213 g / cm^3
# Si number density = 23.235009 Si / 1000 Ang^3
#
#
#
# Elastic Constant Matrix: (Units=GPa)
#
#
# Indices 1 2 3 4 5 6 
#
# 1 81.1153 37.8196 8.7607 0.0000 0.0000 0.0000
# 2 37.8196 64.5988 1.7132 0.0000 0.0000 0.0000
# 3 8.7607 1.7132 59.7217 0.0000 0.0000 0.0000
# 4 0.0000 0.0000 0.0000 39.0282 0.0000 0.0000
# 5 0.0000 0.0000 0.0000 0.0000 28.9602 0.0000
# 6 0.0000 0.0000 0.0000 0.0000 0.0000 32.2886
#
#
#
# Elastic Compliance Matrix: (Units=1/GPa)
#
#
# Indices 1 2 3 4 5 6 
#
# 1 0.017252 -0.010041 -0.002243 0.000000 0.000000 0.000000
# 2 -0.010041 0.021336 0.000861 0.000000 0.000000 0.000000
# 3 -0.002243 0.000861 0.017049 0.000000 0.000000 0.000000
# 4 0.000000 0.000000 0.000000 0.025623 0.000000 0.000000
# 5 0.000000 0.000000 0.000000 0.000000 0.034530 0.000000
# 6 0.000000 0.000000 0.000000 0.000000 0.000000 0.030971
#
#
# Mechanical properties :
#
#
# Convention : Reuss Voigt Hill
#
# Bulk Modulus (GPa) = 30.49606 33.55808 32.02707
# Shear Modulus (GPa) = 27.69553 30.53155 29.11354
#
# Velocity S-wave (km/s) = 3.45624 3.62889 3.54362
# Velocity P-wave (km/s) = 5.39268 5.65975 5.52783
#
# Compressibility (1/GPa) = 0.03279112
#
# Stress axis : x y z
#
# Youngs Moduli (GPa) = 57.96523 46.86996 58.65580
#
# Poissons Ratio (x) = 0.47060 0.13155
# Poissons Ratio (y) = 0.58201 -0.05049
# Poissons Ratio (z) = 0.13000 -0.04035
#
# Static dielectric constant tensor:
#      x y z
#    x 1.856180 0.000000 0.000000 
#    y 0.000000 1.973550 0.000000 
#    z 0.000000 0.000000 1.955690 
# 
# From -- ./inp_files/14411.got.cif
#   From: 2010.05.17/outbox.cif.g08.bks.cpg/sg56_8_cif.got.tgz:14411.got - 2010.06.03 13:42:01.
