data_PCOD9430038
_publ_section_title
;
Structure prediction by ZEFSAII (Michael W. Deem and Ramdas Pophale) SiO2 
 PCOD9430038
Probable space group: P C C N
;
_chemical_formula_sum "Si O2"
_cell_formula_units_Z 48
_cell_length_a 14.704021
_cell_length_b 14.575122
_cell_length_c 8.411319
_cell_angle_alpha 90.000000
_cell_angle_beta 90.000000
_cell_angle_gamma 90.000000
_cell_volume 1802.654167
_symmetry_space_group_name_H-M "P C C N"
_symmetry_group_IT_number 56
_symmetry_cell_setting 'orthorhombic'
loop_
_space_group_symop_operation_xyz
x,y,z
1/2-x,1/2-y,z
1/2+x,-y,1/2-z
-x,1/2+y,1/2-z
-x,-y,-z
1/2+x,1/2+y,-z
1/2-x,y,1/2+z
x,1/2-y,1/2+z
loop_
_atom_site_type_symbol
_atom_site_label
_atom_site_fract_x
_atom_site_fract_y
_atom_site_fract_z
Si Si1 0.613016 0.905461 0.906786
Si Si2 0.363275 0.822806 0.274422
Si Si3 0.051675 0.198641 0.077840
Si Si4 0.302253 0.869769 0.626923
Si Si5 0.782172 0.646911 0.205787
Si Si6 0.516417 0.443103 0.840744
O O1 0.561800 0.807628 0.934526
O O2 0.670075 0.911960 0.068583
O O3 0.691588 0.897390 0.773986
O O4 0.536704 0.966835 0.819737
O O5 0.470016 0.827862 0.302095
O O6 0.320551 0.847790 0.444250
O O7 0.304318 0.884362 0.154056
O O8 0.336857 0.720078 0.222763
O O9 0.145370 0.163049 0.152586
O O10 0.022405 0.154719 0.908910
O O11 0.375496 0.943595 0.680324
O O12 0.750000 0.750000 0.149328
O O13 0.500000 0.500000 0.000000
#
# Coordination Sequence:
#
# PCOD9430038 Si02
#       6
#     8   8   8   8   8   8
#     4  11  20  37  61  89 122 163 206 263 311 377
#     4  10  19  32  56  86 113 147 206 250 304 347
#     4  10  20  36  59  88 119 159 210 258 308 380
#     4  10  20  35  57  86 118 154 197 262 301 368
#     4  10  20  33  61  94 119 150 206 259 312 370
#     4  11  24  41  60  90 130 170 206 263 332 381
#
# _framework density 26.627403999999999
#
# number of rings (size 3 to 8) (size 9 to 14) (size 15 to 20)
#    0.000    1.667    1.667    6.500    2.333    1.333 
#    0.000    7.500    0.000    0.000    0.000    0.000 
#    0.000    0.000    0.000    0.000    0.000    0.000 
#
# Total GULP energy -268651.654651 kJ/mol
# GULP energy per Si atom -5596.909472 kJ/mol
# Density = 2.656680 g / cm^3
# Si number density = 26.627404 Si / 1000 Ang^3
#
#
#
# Elastic Constant Matrix: (Units=GPa)
#
#
# Indices 1 2 3 4 5 6 
#
# 1 127.1292 3.6749 4.6269 0.0000 0.0000 0.0000
# 2 3.6749 64.7293 19.6049 0.0000 0.0000 0.0000
# 3 4.6269 19.6049 108.3965 0.0000 0.0000 0.0000
# 4 0.0000 0.0000 0.0000 23.1642 0.0000 0.0000
# 5 0.0000 0.0000 0.0000 0.0000 53.6371 0.0000
# 6 0.0000 0.0000 0.0000 0.0000 0.0000 6.7918
#
#
#
# Elastic Compliance Matrix: (Units=1/GPa)
#
#
# Indices 1 2 3 4 5 6 
#
# 1 0.007886 -0.000366 -0.000270 0.000000 0.000000 0.000000
# 2 -0.000366 0.016361 -0.002944 0.000000 0.000000 0.000000
# 3 -0.000270 -0.002944 0.009769 0.000000 0.000000 0.000000
# 4 0.000000 0.000000 0.000000 0.043170 0.000000 0.000000
# 5 0.000000 0.000000 0.000000 0.000000 0.018644 0.000000
# 6 0.000000 0.000000 0.000000 0.000000 0.000000 0.147236
#
#
# Mechanical properties :
#
#
# Convention : Reuss Voigt Hill
#
# Bulk Modulus (GPa) = 37.23374 39.56315 38.39844
# Shear Modulus (GPa) = 19.29168 34.87517 27.08342
#
# Velocity S-wave (km/s) = 2.69458 3.62297 3.19270
# Velocity P-wave (km/s) = 4.86771 5.69135 5.29557
#
# Compressibility (1/GPa) = 0.02685736
#
# Stress axis : x y z
#
# Youngs Moduli (GPa) = 126.80001 61.11999 102.36132
#
# Poissons Ratio (x) = 0.02236 0.02769
# Poissons Ratio (y) = 0.04639 0.30130
# Poissons Ratio (z) = 0.03430 0.17991
#
# Static dielectric constant tensor:
#      x y z
#    x 2.067020 0.000000 0.000000 
#    y 0.000000 2.179230 0.000000 
#    z 0.000000 0.000000 2.040870 
# 
# From -- ./inp_files/3383.got.cif
#   From: 2010.05.17/outbox.cif.g08.bks.cpg/sg56_2_cif.got.tgz:3383.got - 2010.06.03 13:42:01.
