data_PCOD9430122
_publ_section_title
;
Structure prediction by ZEFSAII (Michael W. Deem and Ramdas Pophale) SiO2 
 PCOD9430122
Probable space group: P C C N
;
_chemical_formula_sum "Si O2"
_cell_formula_units_Z 60
_cell_length_a 7.469506
_cell_length_b 12.305506
_cell_length_c 29.690459
_cell_angle_alpha 90.000000
_cell_angle_beta 90.000000
_cell_angle_gamma 90.000000
_cell_volume 2729.029741
_symmetry_space_group_name_H-M "P C C N"
_symmetry_group_IT_number 56
_symmetry_cell_setting 'orthorhombic'
loop_
_space_group_symop_operation_xyz
x,y,z
1/2-x,1/2-y,z
1/2+x,-y,1/2-z
-x,1/2+y,1/2-z
-x,-y,-z
1/2+x,1/2+y,-z
1/2-x,y,1/2+z
x,1/2-y,1/2+z
loop_
_atom_site_type_symbol
_atom_site_label
_atom_site_fract_x
_atom_site_fract_y
_atom_site_fract_z
Si Si1 0.658021 0.509706 0.913721
Si Si2 0.250000 0.750000 0.770482
Si Si3 0.954149 0.285192 0.417072
Si Si4 0.221909 0.122315 0.172511
Si Si5 0.605132 0.654648 0.733941
Si Si6 0.578562 0.943441 0.080208
Si Si7 0.672196 0.636645 0.000081
Si Si8 0.874278 0.045165 0.669700
O O1 0.555955 0.403265 0.895134
O O2 0.631997 0.595383 0.874347
O O3 0.870364 0.482206 0.923172
O O4 0.599184 0.560093 0.960986
O O5 0.413160 0.712831 0.738474
O O6 0.293762 0.851880 0.803637
O O7 0.750000 0.250000 0.418781
O O8 0.065247 0.181177 0.400888
O O9 0.023742 0.316306 0.466394
O O10 0.250000 0.250000 0.174896
O O11 0.123069 0.091599 0.218198
O O12 0.412635 0.065102 0.171455
O O13 0.750000 0.750000 0.730924
O O14 0.648424 0.566797 0.696358
O O15 0.684679 0.925925 0.033071
O O16 0.668694 0.022396 0.117034
O O17 0.750000 0.750000 0.979689
#
# Coordination Sequence:
#
# PCOD9430122 Si02
#       8
#     8   4   8   8   8   8   8   8
#     4  10  19  34  62  85 119 166 209 255 331 385
#     4  12  24  42  72  98 132 174 224 264 330 404
#     4   9  19  36  53  83 121 158 208 266 313 389
#     4  10  20  42  61  88 131 167 209 269 323 387
#     4  11  24  45  67  97 137 172 218 274 330 390
#     4   9  21  38  59  86 127 158 209 266 325 380
#     4  10  19  34  57  85 120 162 208 267 321 385
#     4  11  23  44  68  95 131 174 216 273 333 396
#
# _framework density 21.985835000000002
#
# number of rings (size 3 to 8) (size 9 to 14) (size 15 to 20)
#    0.000    1.867    2.667    2.000    0.000    2.667 
#    8.400    0.000    8.800    0.000    0.000    0.000 
#    0.000    0.000    0.000    0.000    0.000    0.000 
#
# Total GULP energy -334529.622326 kJ/mol
# GULP energy per Si atom -5575.493705 kJ/mol
# Density = 2.193579 g / cm^3
# Si number density = 21.985835 Si / 1000 Ang^3
#
#
#
# Elastic Constant Matrix: (Units=GPa)
#
#
# Indices 1 2 3 4 5 6 
#
# 1 31.2142 -3.2736 -15.1118 0.0000 0.0000 0.0000
# 2 -3.2736 85.6294 23.8633 0.0000 0.0000 0.0000
# 3 -15.1118 23.8633 63.7348 0.0000 0.0000 0.0000
# 4 0.0000 0.0000 0.0000 24.1925 0.0000 0.0000
# 5 0.0000 0.0000 0.0000 0.0000 5.2670 0.0000
# 6 0.0000 0.0000 0.0000 0.0000 0.0000 25.4823
#
#
#
# Elastic Compliance Matrix: (Units=1/GPa)
#
#
# Indices 1 2 3 4 5 6 
#
# 1 0.036288 -0.001128 0.009027 0.000000 0.000000 0.000000
# 2 -0.001128 0.013074 -0.005163 0.000000 0.000000 0.000000
# 3 0.009027 -0.005163 0.019763 0.000000 0.000000 0.000000
# 4 0.000000 0.000000 0.000000 0.041335 0.000000 0.000000
# 5 0.000000 0.000000 0.000000 0.000000 0.189862 0.000000
# 6 0.000000 0.000000 0.000000 0.000000 0.000000 0.039243
#
#
# Mechanical properties :
#
#
# Convention : Reuss Voigt Hill
#
# Bulk Modulus (GPa) = 13.40536 21.28158 17.34347
# Shear Modulus (GPa) = 13.92915 22.66173 18.29544
#
# Velocity S-wave (km/s) = 2.51977 3.21400 2.88782
# Velocity P-wave (km/s) = 3.81788 4.84497 4.36176
#
# Compressibility (1/GPa) = 0.07459700
#
# Stress axis : x y z
#
# Youngs Moduli (GPa) = 27.55701 76.48883 50.59909
#
# Poissons Ratio (x) = 0.08630 -0.45674
# Poissons Ratio (y) = 0.03109 0.26122
# Poissons Ratio (z) = -0.24875 0.39488
#
# Static dielectric constant tensor:
#      x y z
#    x 1.858740 0.000000 0.000000 
#    y 0.000000 1.842390 0.000000 
#    z 0.000000 0.000000 1.801100 
# 
# From -- ./inp_files/23348.got.cif
#   From: 2010.05.17/outbox.cif.g08.bks.cpg/sg56_12_cif.got.tgz:23348.got - 2010.06.03 13:42:01.
