data_PCOD9430043
_publ_section_title
;
Structure prediction by ZEFSAII (Michael W. Deem and Ramdas Pophale) SiO2 
 PCOD9430043
Probable space group: P C C N
;
_chemical_formula_sum "Si O2"
_cell_formula_units_Z 48
_cell_length_a 8.480920
_cell_length_b 15.570855
_cell_length_c 16.066680
_cell_angle_alpha 90.000000
_cell_angle_beta 90.000000
_cell_angle_gamma 90.000000
_cell_volume 2121.688248
_symmetry_space_group_name_H-M "P C C N"
_symmetry_group_IT_number 56
_symmetry_cell_setting 'orthorhombic'
loop_
_space_group_symop_operation_xyz
x,y,z
1/2-x,1/2-y,z
1/2+x,-y,1/2-z
-x,1/2+y,1/2-z
-x,-y,-z
1/2+x,1/2+y,-z
1/2-x,y,1/2+z
x,1/2-y,1/2+z
loop_
_atom_site_type_symbol
_atom_site_label
_atom_site_fract_x
_atom_site_fract_y
_atom_site_fract_z
Si Si1 0.435794 0.582867 0.099383
Si Si2 0.545949 0.588498 0.452513
Si Si3 0.521992 0.120367 0.737287
Si Si4 0.614237 0.437118 0.723690
Si Si5 0.873184 0.173471 0.407513
Si Si6 0.916761 0.612900 0.433622
O O1 0.468017 0.605922 0.195186
O O2 0.246491 0.591585 0.093496
O O3 0.482481 0.483662 0.086032
O O4 0.511913 0.635014 0.023647
O O5 0.500000 0.500000 0.500000
O O6 0.464442 0.586519 0.362884
O O7 0.477983 0.662438 0.511889
O O8 0.730772 0.603977 0.442454
O O9 0.702270 0.088226 0.723335
O O10 0.531816 0.175491 0.821439
O O11 0.464925 0.162214 0.650618
O O12 0.411630 0.038781 0.760082
O O13 0.750000 0.250000 0.410185
#
# Coordination Sequence:
#
# PCOD9430043 Si02
#       6
#     8   8   8   8   8   8
#     4   9  19  36  57  89 120 163 208 267 329 378
#     4  12  21  35  59  94 125 163 218 277 324 385
#     4  10  20  35  59  92 123 162 212 272 331 385
#     4  10  19  32  57  87 123 153 212 273 320 376
#     4  11  23  40  60  88 130 171 208 259 332 408
#     4  10  20  34  62  89 121 154 215 282 319 371
#
# _framework density 22.623494000000001
#
# number of rings (size 3 to 8) (size 9 to 14) (size 15 to 20)
#    0.000    1.667    3.333    3.000    4.667    1.333 
#    0.000    8.333    0.000    0.000    0.000    0.000 
#    0.000    0.000    0.000    0.000    0.000    0.000 
#
# Total GULP energy -268003.292422 kJ/mol
# GULP energy per Si atom -5583.401925 kJ/mol
# Density = 2.257200 g / cm^3
# Si number density = 22.623494 Si / 1000 Ang^3
#
#
#
# Elastic Constant Matrix: (Units=GPa)
#
#
# Indices 1 2 3 4 5 6 
#
# 1 74.4109 -6.4105 80.8144 0.0000 0.0000 0.0000
# 2 -6.4105 41.1840 27.2714 0.0000 0.0000 0.0000
# 3 80.8144 27.2714 258.8999 0.0000 0.0000 0.0000
# 4 0.0000 0.0000 0.0000 2.1533 0.0000 0.0000
# 5 0.0000 0.0000 0.0000 0.0000 45.0566 0.0000
# 6 0.0000 0.0000 0.0000 0.0000 0.0000 24.4311
#
#
#
# Elastic Compliance Matrix: (Units=1/GPa)
#
#
# Indices 1 2 3 4 5 6 
#
# 1 0.023056 0.008981 -0.008143 0.000000 0.000000 0.000000
# 2 0.008981 0.029600 -0.005921 0.000000 0.000000 0.000000
# 3 -0.008143 -0.005921 0.007028 0.000000 0.000000 0.000000
# 4 0.000000 0.000000 0.000000 0.464404 0.000000 0.000000
# 5 0.000000 0.000000 0.000000 0.000000 0.022194 0.000000
# 6 0.000000 0.000000 0.000000 0.000000 0.000000 0.040931
#
#
# Mechanical properties :
#
#
# Convention : Reuss Voigt Hill
#
# Bulk Modulus (GPa) = 20.19473 64.20506 42.19989
# Shear Modulus (GPa) = 8.14483 32.51617 20.33050
#
# Velocity S-wave (km/s) = 1.89947 3.79525 3.00099
# Velocity P-wave (km/s) = 3.70897 6.90266 5.54090
#
# Compressibility (1/GPa) = 0.04951788
#
# Stress axis : x y z
#
# Youngs Moduli (GPa) = 43.37212 33.78355 142.28794
#
# Poissons Ratio (x) = -0.30341 1.15864
# Poissons Ratio (y) = -0.38952 0.84253
# Poissons Ratio (z) = 0.35318 0.20004
#
# Static dielectric constant tensor:
#      x y z
#    x 1.789640 0.000000 0.000000 
#    y 0.000000 1.877470 0.000000 
#    z 0.000000 0.000000 1.894050 
# 
# From -- ./inp_files/10650.got.cif
#   From: 2010.05.17/outbox.cif.g08.bks.cpg/sg56_6_cif.got.tgz:10650.got - 2010.06.03 13:42:01.
