data_PCOD9430449
_publ_section_title
;
Structure prediction by ZEFSAII (Michael W. Deem and Ramdas Pophale) SiO2 
 PCOD9430449
Probable space group: P C C N
;
_chemical_formula_sum "Si O2"
_cell_formula_units_Z 60
_cell_length_a 5.610131
_cell_length_b 26.849497
_cell_length_c 20.441027
_cell_angle_alpha 90.000000
_cell_angle_beta 90.000000
_cell_angle_gamma 90.000000
_cell_volume 3079.015451
_symmetry_space_group_name_H-M "P C C N"
_symmetry_group_IT_number 56
_symmetry_cell_setting 'orthorhombic'
loop_
_space_group_symop_operation_xyz
x,y,z
1/2-x,1/2-y,z
1/2+x,-y,1/2-z
-x,1/2+y,1/2-z
-x,-y,-z
1/2+x,1/2+y,-z
1/2-x,y,1/2+z
x,1/2-y,1/2+z
loop_
_atom_site_type_symbol
_atom_site_label
_atom_site_fract_x
_atom_site_fract_y
_atom_site_fract_z
Si Si1 0.149937 0.298760 0.517450
Si Si2 0.753899 0.308339 0.839114
Si Si3 0.811780 0.530761 0.542410
Si Si4 0.249822 0.308062 0.762076
Si Si5 0.397632 0.882059 0.557552
Si Si6 0.581363 0.069142 0.056025
Si Si7 0.250000 0.750000 0.890754
Si Si8 0.045725 0.340259 0.136406
O O1 0.250000 0.250000 0.482239
O O2 0.333360 0.321131 0.569497
O O3 0.077745 0.340364 0.467571
O O4 0.934373 0.278225 0.561782
O O5 0.750000 0.250000 0.861869
O O6 0.494441 0.316136 0.803934
O O7 0.768207 0.350941 0.894370
O O8 0.995377 0.315089 0.797078
O O9 0.649071 0.559866 0.489750
O O10 0.662253 0.486641 0.575853
O O11 0.000000 0.500000 0.500000
O O12 0.953829 0.571091 0.585013
O O13 0.250000 0.250000 0.741845
O O14 0.274558 0.340606 0.696625
O O15 0.262605 0.903515 0.493921
O O16 0.551437 0.105902 0.116984
O O17 0.361622 0.795098 0.849078
#
# Coordination Sequence:
#
# PCOD9430449 Si02
#       8
#     8   8   8   8   8   8   4   8
#     4  10  21  31  50  89 125 159 193 244 319 369
#     4  10  25  40  60  87 127 178 214 249 298 372
#     4   9  20  38  57  89 121 153 195 253 322 384
#     4  10  23  42  57  85 126 172 218 251 294 366
#     4  11  21  36  60  87 127 160 205 253 310 390
#     4  10  20  36  61  93 117 154 199 259 330 375
#     4  10  20  32  48  88 124 160 182 252 316 374
#     4  11  21  34  61  88 124 159 207 257 313 374
#
# _framework density 19.486751000000002
#
# number of rings (size 3 to 8) (size 9 to 14) (size 15 to 20)
#    0.000    1.867    2.667    1.200    7.467    1.600 
#    0.000    0.000    0.000    0.000   10.400    0.000 
#    0.000    0.000    0.000    0.000    0.000    0.000 
#
# Total GULP energy -334496.552921 kJ/mol
# GULP energy per Si atom -5574.942549 kJ/mol
# Density = 1.944240 g / cm^3
# Si number density = 19.486751 Si / 1000 Ang^3
#
#
#
# Elastic Constant Matrix: (Units=GPa)
#
#
# Indices 1 2 3 4 5 6 
#
# 1 75.5813 42.6232 14.4596 0.0000 0.0000 0.0000
# 2 42.6232 132.3179 46.4840 0.0000 0.0000 0.0000
# 3 14.4596 46.4840 49.4720 0.0000 0.0000 0.0000
# 4 0.0000 0.0000 0.0000 8.1355 0.0000 0.0000
# 5 0.0000 0.0000 0.0000 0.0000 18.8892 0.0000
# 6 0.0000 0.0000 0.0000 0.0000 0.0000 29.1815
#
#
#
# Elastic Compliance Matrix: (Units=1/GPa)
#
#
# Indices 1 2 3 4 5 6 
#
# 1 0.016170 -0.005297 0.000251 0.000000 0.000000 0.000000
# 2 -0.005297 0.013017 -0.010682 0.000000 0.000000 0.000000
# 3 0.000251 -0.010682 0.030177 0.000000 0.000000 0.000000
# 4 0.000000 0.000000 0.000000 0.122918 0.000000 0.000000
# 5 0.000000 0.000000 0.000000 0.000000 0.052940 0.000000
# 6 0.000000 0.000000 0.000000 0.000000 0.000000 0.034268
#
#
# Mechanical properties :
#
#
# Convention : Reuss Voigt Hill
#
# Bulk Modulus (GPa) = 35.83311 51.61163 43.72237
# Shear Modulus (GPa) = 16.11609 21.49488 18.80549
#
# Velocity S-wave (km/s) = 2.87893 3.32482 3.10988
# Velocity P-wave (km/s) = 5.42949 6.42513 5.94818
#
# Compressibility (1/GPa) = 0.02790715
#
# Stress axis : x y z
#
# Youngs Moduli (GPa) = 61.84322 76.82525 33.13764
#
# Poissons Ratio (x) = 0.40694 -0.00831
# Poissons Ratio (y) = 0.32758 0.35398
# Poissons Ratio (z) = -0.01552 0.82066
#
# Static dielectric constant tensor:
#      x y z
#    x 1.780440 0.000000 0.000000 
#    y 0.000000 1.751670 0.000000 
#    z 0.000000 0.000000 1.676820 
# 
# From -- ./inp_files/14112.got.cif
#   From: 2010.05.17/outbox.cif.g08.bks.cpg/sg56_8_cif.got.tgz:14112.got - 2010.06.03 13:42:01.
