data_PCOD9430078
_publ_section_title
;
Structure prediction by ZEFSAII (Michael W. Deem and Ramdas Pophale) SiO2 
 PCOD9430078
Probable space group: P C C N
;
_chemical_formula_sum "Si O2"
_cell_formula_units_Z 40
_cell_length_a 11.256390
_cell_length_b 19.966513
_cell_length_c 8.588666
_cell_angle_alpha 90.000000
_cell_angle_beta 90.000000
_cell_angle_gamma 90.000000
_cell_volume 1930.310046
_symmetry_space_group_name_H-M "P C C N"
_symmetry_group_IT_number 56
_symmetry_cell_setting 'orthorhombic'
loop_
_space_group_symop_operation_xyz
x,y,z
1/2-x,1/2-y,z
1/2+x,-y,1/2-z
-x,1/2+y,1/2-z
-x,-y,-z
1/2+x,1/2+y,-z
1/2-x,y,1/2+z
x,1/2-y,1/2+z
loop_
_atom_site_type_symbol
_atom_site_label
_atom_site_fract_x
_atom_site_fract_y
_atom_site_fract_z
Si Si1 0.590744 0.721262 0.619655
Si Si2 0.291231 0.945141 0.444649
Si Si3 0.681700 0.669192 0.943207
Si Si4 0.082735 0.893146 0.659635
Si Si5 0.362096 0.470969 0.214755
O O1 0.641885 0.709505 0.790561
O O2 0.688081 0.685287 0.508414
O O3 0.594026 0.799217 0.573664
O O4 0.471653 0.678408 0.614497
O O5 0.176054 0.916366 0.531344
O O6 0.354582 0.893631 0.328755
O O7 0.241293 0.003808 0.330625
O O8 0.375934 0.971687 0.583303
O O9 0.673135 0.593527 0.887509
O O10 0.975700 0.946844 0.686214
#
# Coordination Sequence:
#
# PCOD9430078 Si02
#       5
#     8   8   8   8   8
#     4  10  20  36  58  84 116 148 184 237 293 341
#     4  10  21  36  56  86 119 155 196 229 285 358
#     4  10  19  33  56  87 112 143 186 230 287 351
#     4  10  21  37  56  83 117 155 195 239 284 338
#     4  10  19  34  57  84 116 149 187 240 290 340
#
# _framework density 20.722059000000002
#
# number of rings (size 3 to 8) (size 9 to 14) (size 15 to 20)
#    0.000    2.000    0.000    6.000    0.000    1.600 
#    0.000   16.000    0.000   14.400    0.000    0.000 
#    0.000    0.000    0.000    0.000    0.000    0.000 
#
# Total GULP energy -222976.522050 kJ/mol
# GULP energy per Si atom -5574.413051 kJ/mol
# Density = 2.067489 g / cm^3
# Si number density = 20.722059 Si / 1000 Ang^3
#
#
#
# Elastic Constant Matrix: (Units=GPa)
#
#
# Indices 1 2 3 4 5 6 
#
# 1 46.6868 5.8469 -10.2019 0.0000 0.0000 0.0000
# 2 5.8469 44.6959 8.5357 0.0000 0.0000 0.0000
# 3 -10.2019 8.5357 65.4145 0.0000 0.0000 0.0000
# 4 0.0000 0.0000 0.0000 -2.2464 0.0000 0.0000
# 5 0.0000 0.0000 0.0000 0.0000 29.8251 0.0000
# 6 0.0000 0.0000 0.0000 0.0000 0.0000 29.4057
#
#
#
# Elastic Compliance Matrix: (Units=1/GPa)
#
#
# Indices 1 2 3 4 5 6 
#
# 1 0.022772 -0.003751 0.004041 0.000000 0.000000 0.000000
# 2 -0.003751 0.023563 -0.003660 0.000000 0.000000 0.000000
# 3 0.004041 -0.003660 0.016395 0.000000 0.000000 0.000000
# 4 0.000000 0.000000 0.000000 -0.445153 0.000000 0.000000
# 5 0.000000 0.000000 0.000000 0.000000 0.033529 0.000000
# 6 0.000000 0.000000 0.000000 0.000000 0.000000 0.034007
#
#
# Mechanical properties :
#
#
# Convention : Reuss Voigt Hill
#
# Bulk Modulus (GPa) = 17.85996 18.35096 18.10546
# Shear Modulus (GPa) = -17.27203 21.57130 2.14963
#
# Velocity S-wave (km/s) = -2.89019 3.22993 1.01962
# Velocity P-wave (km/s) = 1.58116 4.77335 3.18472
#
# Compressibility (1/GPa) = 0.05599117
#
# Stress axis : x y z
#
# Youngs Moduli (GPa) = 43.91343 42.43950 60.99477
#
# Poissons Ratio (x) = 0.15918 -0.24647
# Poissons Ratio (y) = 0.16470 0.22321
# Poissons Ratio (z) = -0.17745 0.15531
#
# Static dielectric constant tensor:
#      x y z
#    x 1.760980 0.000000 0.000000 
#    y 0.000000 1.806010 0.000000 
#    z 0.000000 0.000000 1.769350 
# 
# From -- ./inp_files/2687.got.cif
#   From: 2010.05.17/outbox.cif.g08.bks.cpg/sg56_2_cif.got.tgz:2687.got - 2010.06.03 13:42:01.
