data_PCOD9430233
_publ_section_title
;
Structure prediction by ZEFSAII (Michael W. Deem and Ramdas Pophale) SiO2 
 PCOD9430233
Probable space group: P C C N
;
_chemical_formula_sum "Si O2"
_cell_formula_units_Z 64
_cell_length_a 9.813745
_cell_length_b 32.131036
_cell_length_c 10.099148
_cell_angle_alpha 90.000000
_cell_angle_beta 90.000000
_cell_angle_gamma 90.000000
_cell_volume 3184.521861
_symmetry_space_group_name_H-M "P C C N"
_symmetry_group_IT_number 56
_symmetry_cell_setting 'orthorhombic'
loop_
_space_group_symop_operation_xyz
x,y,z
1/2-x,1/2-y,z
1/2+x,-y,1/2-z
-x,1/2+y,1/2-z
-x,-y,-z
1/2+x,1/2+y,-z
1/2-x,y,1/2+z
x,1/2-y,1/2+z
loop_
_atom_site_type_symbol
_atom_site_label
_atom_site_fract_x
_atom_site_fract_y
_atom_site_fract_z
Si Si1 0.751705 0.038279 0.240937
Si Si2 0.575966 0.649724 0.973607
Si Si3 0.948428 0.115867 0.292139
Si Si4 0.711949 0.168887 0.207742
Si Si5 0.151703 0.709832 0.537232
Si Si6 0.012586 0.901125 0.227883
Si Si7 0.842423 0.897137 0.476838
Si Si8 0.836671 0.509131 0.989722
O O1 0.866976 0.073682 0.256940
O O2 0.605349 0.058135 0.279587
O O3 0.789437 0.002426 0.343176
O O4 0.736122 0.021378 0.093398
O O5 0.540247 0.630773 0.830525
O O6 0.504838 0.695258 0.995742
O O7 0.736484 0.640765 0.989801
O O8 0.512064 0.619742 0.086416
O O9 0.833476 0.151088 0.298388
O O10 0.031504 0.111399 0.426012
O O11 0.771577 0.179517 0.066194
O O12 0.650939 0.203928 0.303686
O O13 0.604856 0.132378 0.194676
O O14 0.250000 0.750000 0.516228
O O15 0.883703 0.904314 0.323575
O O16 0.796174 0.943374 0.521563
O O17 0.000000 0.500000 0.000000
#
# Coordination Sequence:
#
# PCOD9430233 Si02
#       8
#     8   8   8   8   8   8   8   8
#     4  11  22  40  59  82 117 160 226 283 326 379
#     4  10  23  36  57  88 116 161 206 246 324 388
#     4  10  20  38  59  81 116 160 214 262 306 378
#     4   9  19  34  61  90 112 156 198 248 304 361
#     4  10  19  36  60  93 124 146 191 250 305 375
#     4  10  20  38  59  81 116 160 214 262 306 378
#     4  12  23  38  56  82 123 166 208 268 323 390
#     4  12  25  38  56  85 120 164 224 279 345 372
#
# _framework density 20.097208999999999
#
# number of rings (size 3 to 8) (size 9 to 14) (size 15 to 20)
#    0.000    1.500    2.500    2.625    3.500    4.000 
#    0.000    1.875    0.000    3.000    0.000   14.000 
#    0.000    0.000    0.000    0.000    0.000    0.000 
#
# Total GULP energy -356344.696660 kJ/mol
# GULP energy per Si atom -5567.885885 kJ/mol
# Density = 2.005147 g / cm^3
# Si number density = 20.097209 Si / 1000 Ang^3
#
#
#
# Elastic Constant Matrix: (Units=GPa)
#
#
# Indices 1 2 3 4 5 6 
#
# 1 70.5357 28.6049 10.4074 0.0000 0.0000 0.0000
# 2 28.6049 42.4307 2.2005 0.0000 0.0000 0.0000
# 3 10.4074 2.2005 78.1939 0.0000 0.0000 0.0000
# 4 0.0000 0.0000 0.0000 7.4535 0.0000 0.0000
# 5 0.0000 0.0000 0.0000 0.0000 28.7965 0.0000
# 6 0.0000 0.0000 0.0000 0.0000 0.0000 25.7151
#
#
#
# Elastic Compliance Matrix: (Units=1/GPa)
#
#
# Indices 1 2 3 4 5 6 
#
# 1 0.019908 -0.013303 -0.002275 0.000000 0.000000 0.000000
# 2 -0.013303 0.032492 0.000856 0.000000 0.000000 0.000000
# 3 -0.002275 0.000856 0.013067 0.000000 0.000000 0.000000
# 4 0.000000 0.000000 0.000000 0.134166 0.000000 0.000000
# 5 0.000000 0.000000 0.000000 0.000000 0.034726 0.000000
# 6 0.000000 0.000000 0.000000 0.000000 0.000000 0.038888
#
#
# Mechanical properties :
#
#
# Convention : Reuss Voigt Hill
#
# Bulk Modulus (GPa) = 27.76015 30.39844 29.07929
# Shear Modulus (GPa) = 15.88822 22.38951 19.13887
#
# Velocity S-wave (km/s) = 2.81476 3.34138 3.08931
# Velocity P-wave (km/s) = 4.94032 5.48133 5.21784
#
# Compressibility (1/GPa) = 0.03602286
#
# Stress axis : x y z
#
# Youngs Moduli (GPa) = 50.23165 30.77715 76.52598
#
# Poissons Ratio (x) = 0.40943 0.17412
# Poissons Ratio (y) = 0.66823 -0.06552
# Poissons Ratio (z) = 0.11429 -0.02635
#
# Static dielectric constant tensor:
#      x y z
#    x 1.802990 0.000000 0.000000 
#    y 0.000000 1.732200 0.000000 
#    z 0.000000 0.000000 1.692110 
# 
# From -- ./inp_files/6621.got.cif
#   From: 2010.05.17/outbox.cif.g08.bks.cpg/sg56_4_cif.got.tgz:6621.got - 2010.06.03 13:42:01.
