data_PCOD9430849
_publ_section_title
;
Structure prediction by ZEFSAII (Michael W. Deem and Ramdas Pophale) SiO2 
 PCOD9430849
Probable space group: P C C N
;
_chemical_formula_sum "Si O2"
_cell_formula_units_Z 52
_cell_length_a 22.046590
_cell_length_b 6.016389
_cell_length_c 19.489272
_cell_angle_alpha 90.000000
_cell_angle_beta 90.000000
_cell_angle_gamma 90.000000
_cell_volume 2585.073829
_symmetry_space_group_name_H-M "P C C N"
_symmetry_group_IT_number 56
_symmetry_cell_setting 'orthorhombic'
loop_
_space_group_symop_operation_xyz
x,y,z
1/2-x,1/2-y,z
1/2+x,-y,1/2-z
-x,1/2+y,1/2-z
-x,-y,-z
1/2+x,1/2+y,-z
1/2-x,y,1/2+z
x,1/2-y,1/2+z
loop_
_atom_site_type_symbol
_atom_site_label
_atom_site_fract_x
_atom_site_fract_y
_atom_site_fract_z
Si Si1 0.425670 0.041612 0.921612
Si Si2 0.694214 0.875202 0.253154
Si Si3 0.075884 0.522534 0.671970
Si Si4 0.541616 0.197160 0.469814
Si Si5 0.250000 0.750000 0.842653
Si Si6 0.546237 0.269359 0.195884
Si Si7 0.647450 0.926310 0.630391
O O1 0.491416 0.138152 0.939020
O O2 0.375970 0.238909 0.923167
O O3 0.431826 0.949786 0.844561
O O4 0.419764 0.831882 0.973395
O O5 0.750000 0.750000 0.289416
O O6 0.674881 0.704375 0.194405
O O7 0.639518 0.930158 0.302773
O O8 0.713372 0.090849 0.209306
O O9 0.078534 0.602167 0.593949
O O10 0.057321 0.721761 0.724291
O O11 0.022559 0.339775 0.680771
O O12 0.500000 0.000000 0.500000
O O13 0.299660 0.606744 0.885565
O O14 0.587908 0.456632 0.161303
#
# Coordination Sequence:
#
# PCOD9430849 Si02
#       7
#     8   8   8   8   4   8   8
#     4  11  21  39  57  90 136 175 215 268 334 408
#     4  10  22  37  58  94 128 165 215 274 327 393
#     4  12  21  37  61  93 135 173 214 276 340 397
#     4  11  23  39  57  89 139 178 217 259 342 417
#     4  10  20  38  60  88 130 164 220 268 348 382
#     4  12  22  37  62  98 135 159 212 279 339 395
#     4  11  19  38  60  92 133 167 211 278 339 397
#
# _framework density 20.115479000000001
#
# number of rings (size 3 to 8) (size 9 to 14) (size 15 to 20)
#    0.000    0.923    6.154    1.846    0.000    0.000 
#    0.000    0.000    0.000    0.000    0.000   48.462 
#    0.000    0.000    0.000    0.000    0.000    0.000 
#
# Total GULP energy -290311.618920 kJ/mol
# GULP energy per Si atom -5582.915748 kJ/mol
# Density = 2.006969 g / cm^3
# Si number density = 20.115479 Si / 1000 Ang^3
#
#
#
# Elastic Constant Matrix: (Units=GPa)
#
#
# Indices 1 2 3 4 5 6 
#
# 1 132.5235 46.5147 32.5368 0.0000 0.0000 0.0000
# 2 46.5147 91.5146 29.5879 0.0000 0.0000 0.0000
# 3 32.5368 29.5879 84.4445 0.0000 0.0000 0.0000
# 4 0.0000 0.0000 0.0000 8.8727 0.0000 0.0000
# 5 0.0000 0.0000 0.0000 0.0000 5.7745 0.0000
# 6 0.0000 0.0000 0.0000 0.0000 0.0000 45.6782
#
#
#
# Elastic Compliance Matrix: (Units=1/GPa)
#
#
# Indices 1 2 3 4 5 6 
#
# 1 0.009543 -0.004129 -0.002230 0.000000 0.000000 0.000000
# 2 -0.004129 0.014110 -0.003353 0.000000 0.000000 0.000000
# 3 -0.002230 -0.003353 0.013876 0.000000 0.000000 0.000000
# 4 0.000000 0.000000 0.000000 0.112705 0.000000 0.000000
# 5 0.000000 0.000000 0.000000 0.000000 0.173175 0.000000
# 6 0.000000 0.000000 0.000000 0.000000 0.000000 0.021892
#
#
# Mechanical properties :
#
#
# Convention : Reuss Voigt Hill
#
# Bulk Modulus (GPa) = 55.23495 58.41793 56.82644
# Shear Modulus (GPa) = 13.48581 25.38797 19.43689
#
# Velocity S-wave (km/s) = 2.59205 3.55647 3.11185
# Velocity P-wave (km/s) = 6.03961 6.78004 6.42051
#
# Compressibility (1/GPa) = 0.01810448
#
# Stress axis : x y z
#
# Youngs Moduli (GPa) = 104.79213 70.87126 72.06635
#
# Poissons Ratio (x) = 0.29265 0.16071
# Poissons Ratio (y) = 0.43272 0.24163
# Poissons Ratio (z) = 0.23368 0.23762
#
# Static dielectric constant tensor:
#      x y z
#    x 1.872190 0.000000 0.000000 
#    y 0.000000 2.027950 0.000000 
#    z 0.000000 0.000000 1.705160 
# 
# From -- ./inp_files/19458.got.cif
#   From: 2010.05.17/outbox.cif.g08.bks.cpg/sg56_10_cif.got.tgz:19458.got - 2010.06.03 13:42:01.
