data_PCOD9430466
_publ_section_title
;
Structure prediction by ZEFSAII (Michael W. Deem and Ramdas Pophale) SiO2 
 PCOD9430466
Probable space group: P C C N
;
_chemical_formula_sum "Si O2"
_cell_formula_units_Z 60
_cell_length_a 18.220110
_cell_length_b 17.347830
_cell_length_c 8.500529
_cell_angle_alpha 90.000000
_cell_angle_beta 90.000000
_cell_angle_gamma 90.000000
_cell_volume 2686.841858
_symmetry_space_group_name_H-M "P C C N"
_symmetry_group_IT_number 56
_symmetry_cell_setting 'orthorhombic'
loop_
_space_group_symop_operation_xyz
x,y,z
1/2-x,1/2-y,z
1/2+x,-y,1/2-z
-x,1/2+y,1/2-z
-x,-y,-z
1/2+x,1/2+y,-z
1/2-x,y,1/2+z
x,1/2-y,1/2+z
loop_
_atom_site_type_symbol
_atom_site_label
_atom_site_fract_x
_atom_site_fract_y
_atom_site_fract_z
Si Si1 0.328059 0.871656 0.912664
Si Si2 0.943371 0.232246 0.674042
Si Si3 0.171370 0.043044 0.799596
Si Si4 0.151645 0.180694 0.962208
Si Si5 0.837908 0.947746 0.572917
Si Si6 0.162903 0.635966 0.291897
Si Si7 0.547796 0.812736 0.075468
Si Si8 0.250000 0.250000 0.697655
O O1 0.375061 0.822624 0.787600
O O2 0.243864 0.855628 0.865136
O O3 0.351241 0.961482 0.896438
O O4 0.336860 0.850931 0.100259
O O5 0.897578 0.309412 0.626852
O O6 0.985422 0.174546 0.554186
O O7 0.002978 0.267259 0.791051
O O8 0.124161 0.097640 0.914092
O O9 0.255753 0.060152 0.854571
O O10 0.163797 0.061455 0.615911
O O11 0.148921 0.954749 0.817558
O O12 0.095764 0.246401 0.006503
O O13 0.188201 0.214692 0.805548
O O14 0.214774 0.184495 0.090759
O O15 0.899449 0.884077 0.624001
#
# Coordination Sequence:
#
# PCOD9430466 Si02
#       8
#     8   8   8   8   8   8   8   4
#     4  10  23  44  74  95 124 164 220 283 322 375
#     4  12  25  44  61  93 131 178 214 257 320 396
#     4  10  20  39  67  96 127 160 218 277 316 369
#     4  11  20  36  57  91 125 168 213 259 319 371
#     4  10  22  42  66 101 126 169 217 269 330 376
#     4  10  23  43  69 100 120 159 222 278 321 369
#     4  12  26  40  62  91 138 178 212 251 321 410
#     4  10  20  32  62  86 122 168 216 276 304 366
#
# _framework density 22.331050000000001
#
# number of rings (size 3 to 8) (size 9 to 14) (size 15 to 20)
#    0.000    1.333    1.333    5.200    1.867    2.667 
#    2.400    0.667    0.000    0.000    0.000    0.000 
#    0.000    0.000    0.000    0.000    0.000    0.000 
#
# Total GULP energy -334352.295937 kJ/mol
# GULP energy per Si atom -5572.538266 kJ/mol
# Density = 2.228022 g / cm^3
# Si number density = 22.331050 Si / 1000 Ang^3
#
#
#
# Elastic Constant Matrix: (Units=GPa)
#
#
# Indices 1 2 3 4 5 6 
#
# 1 43.7291 10.6119 -12.0167 0.0000 0.0000 0.0000
# 2 10.6119 72.0424 -4.3164 0.0000 0.0000 0.0000
# 3 -12.0167 -4.3164 32.1905 0.0000 0.0000 0.0000
# 4 0.0000 0.0000 0.0000 19.8079 0.0000 0.0000
# 5 0.0000 0.0000 0.0000 0.0000 21.1132 0.0000
# 6 0.0000 0.0000 0.0000 0.0000 0.0000 40.2880
#
#
#
# Elastic Compliance Matrix: (Units=1/GPa)
#
#
# Indices 1 2 3 4 5 6 
#
# 1 0.026240 -0.003305 0.009352 0.000000 0.000000 0.000000
# 2 -0.003305 0.014409 0.000698 0.000000 0.000000 0.000000
# 3 0.009352 0.000698 0.034650 0.000000 0.000000 0.000000
# 4 0.000000 0.000000 0.000000 0.050485 0.000000 0.000000
# 5 0.000000 0.000000 0.000000 0.000000 0.047364 0.000000
# 6 0.000000 0.000000 0.000000 0.000000 0.000000 0.024821
#
#
# Mechanical properties :
#
#
# Convention : Reuss Voigt Hill
#
# Bulk Modulus (GPa) = 11.26241 15.16885 13.21563
# Shear Modulus (GPa) = 23.35635 26.48737 24.92186
#
# Velocity S-wave (km/s) = 3.23757 3.44775 3.34431
# Velocity P-wave (km/s) = 4.36235 4.75991 4.56546
#
# Compressibility (1/GPa) = 0.08879091
#
# Stress axis : x y z
#
# Youngs Moduli (GPa) = 38.10975 69.39935 28.86015
#
# Poissons Ratio (x) = 0.22935 -0.26991
# Poissons Ratio (y) = 0.12595 -0.02016
# Poissons Ratio (z) = -0.35641 -0.04847
#
# Static dielectric constant tensor:
#      x y z
#    x 1.883100 0.000000 0.000000 
#    y 0.000000 1.890040 0.000000 
#    z 0.000000 0.000000 1.866970 
# 
# From -- ./inp_files/4135.got.cif
#   From: 2010.05.17/outbox.cif.g08.bks.cpg/sg56_3_cif.got.tgz:4135.got - 2010.06.03 13:42:01.
