data_PCOD9430052
_publ_section_title
;
Structure prediction by ZEFSAII (Michael W. Deem and Ramdas Pophale) SiO2 
 PCOD9430052
Probable space group: P C C N
;
_chemical_formula_sum "Si O2"
_cell_formula_units_Z 40
_cell_length_a 19.047774
_cell_length_b 9.872531
_cell_length_c 8.690458
_cell_angle_alpha 90.000000
_cell_angle_beta 90.000000
_cell_angle_gamma 90.000000
_cell_volume 1634.238361
_symmetry_space_group_name_H-M "P C C N"
_symmetry_group_IT_number 56
_symmetry_cell_setting 'orthorhombic'
loop_
_space_group_symop_operation_xyz
x,y,z
1/2-x,1/2-y,z
1/2+x,-y,1/2-z
-x,1/2+y,1/2-z
-x,-y,-z
1/2+x,1/2+y,-z
1/2-x,y,1/2+z
x,1/2-y,1/2+z
loop_
_atom_site_type_symbol
_atom_site_label
_atom_site_fract_x
_atom_site_fract_y
_atom_site_fract_z
Si Si1 0.329330 0.040043 0.052174
Si Si2 0.677689 0.001191 0.595469
Si Si3 0.099122 0.790263 0.396017
Si Si4 0.058091 0.011230 0.132704
Si Si5 0.968470 0.641615 0.060943
O O1 0.326419 0.059717 0.234450
O O2 0.359961 0.892206 0.009211
O O3 0.254676 0.031640 0.969054
O O4 0.387650 0.144167 0.989040
O O5 0.648156 0.157170 0.620253
O O6 0.626400 0.949056 0.462847
O O7 0.081003 0.618732 0.742909
O O8 0.026197 0.762759 0.486128
O O9 0.032862 0.121875 0.257344
O O10 0.000000 0.000000 0.000000
O O11 0.000000 0.500000 0.000000
#
# Coordination Sequence:
#
# PCOD9430052 Si02
#       5
#     8   8   8   8   8
#     4  10  20  33  49  74 112 149 182 222 283 345
#     4  12  21  32  52  82 113 148 188 239 291 332
#     4  10  20  33  49  74 109 145 186 236 276 328
#     4  10  19  33  52  71 102 149 193 227 278 344
#     4   8  17  35  51  67 102 153 192 222 269 347
#
# _framework density 24.476236
#
# number of rings (size 3 to 8) (size 9 to 14) (size 15 to 20)
#    0.000    2.400    0.000    7.800    0.000    1.600 
#    0.000    2.000    0.000    0.000    0.000    1.400 
#    0.000   28.800    0.000    4.400    0.000    0.000 
#
# Total GULP energy -223174.361250 kJ/mol
# GULP energy per Si atom -5579.359031 kJ/mol
# Density = 2.442053 g / cm^3
# Si number density = 24.476236 Si / 1000 Ang^3
#
#
#
# Elastic Constant Matrix: (Units=GPa)
#
#
# Indices 1 2 3 4 5 6 
#
# 1 211.5274 -1.9051 97.7989 0.0000 0.0000 0.0000
# 2 -1.9051 47.4869 10.5137 0.0000 0.0000 0.0000
# 3 97.7989 10.5137 251.0210 0.0000 0.0000 0.0000
# 4 0.0000 0.0000 0.0000 32.7093 0.0000 0.0000
# 5 0.0000 0.0000 0.0000 0.0000 56.9360 0.0000
# 6 0.0000 0.0000 0.0000 0.0000 0.0000 -120.5270
#
#
#
# Elastic Compliance Matrix: (Units=1/GPa)
#
#
# Indices 1 2 3 4 5 6 
#
# 1 0.005792 0.000739 -0.002287 0.000000 0.000000 0.000000
# 2 0.000739 0.021350 -0.001182 0.000000 0.000000 0.000000
# 3 -0.002287 -0.001182 0.004924 0.000000 0.000000 0.000000
# 4 0.000000 0.000000 0.000000 0.030572 0.000000 0.000000
# 5 0.000000 0.000000 0.000000 0.000000 0.017564 0.000000
# 6 0.000000 0.000000 0.000000 0.000000 0.000000 -0.008297
#
#
# Mechanical properties :
#
#
# Convention : Reuss Voigt Hill
#
# Bulk Modulus (GPa) = 37.58750 80.31670 58.95210
# Shear Modulus (GPa) = 57.98140 20.73218 39.35679
#
# Velocity S-wave (km/s) = 4.87240 2.91354 4.01429
# Velocity P-wave (km/s) = 6.85885 6.64859 6.75453
#
# Compressibility (1/GPa) = 0.02660459
#
# Stress axis : x y z
#
# Youngs Moduli (GPa) = 172.65901 46.83892 203.06889
#
# Poissons Ratio (x) = -0.03460 0.46451
# Poissons Ratio (y) = -0.12756 0.24004
# Poissons Ratio (z) = 0.39495 0.05537
#
# Static dielectric constant tensor:
#      x y z
#    x 1.860180 0.000000 0.000000 
#    y 0.000000 2.104960 0.000000 
#    z 0.000000 0.000000 1.937230 
# 
# From -- ./inp_files/3949.got.cif
#   From: 2010.05.17/outbox.cif.g08.bks.cpg/sg56_2_cif.got.tgz:3949.got - 2010.06.03 13:42:01.
