data_PCOD9430968
_publ_section_title
;
Structure prediction by ZEFSAII (Michael W. Deem and Ramdas Pophale) SiO2 
 PCOD9430968
Probable space group: P C C N
;
_chemical_formula_sum "Si O2"
_cell_formula_units_Z 64
_cell_length_a 9.512026
_cell_length_b 17.503254
_cell_length_c 17.716503
_cell_angle_alpha 90.000000
_cell_angle_beta 90.000000
_cell_angle_gamma 90.000000
_cell_volume 2949.645514
_symmetry_space_group_name_H-M "P C C N"
_symmetry_group_IT_number 56
_symmetry_cell_setting 'orthorhombic'
loop_
_space_group_symop_operation_xyz
x,y,z
1/2-x,1/2-y,z
1/2+x,-y,1/2-z
-x,1/2+y,1/2-z
-x,-y,-z
1/2+x,1/2+y,-z
1/2-x,y,1/2+z
x,1/2-y,1/2+z
loop_
_atom_site_type_symbol
_atom_site_label
_atom_site_fract_x
_atom_site_fract_y
_atom_site_fract_z
Si Si1 0.963878 0.347979 0.772324
Si Si2 0.970515 0.407866 0.013900
Si Si3 0.718495 0.461017 0.089155
Si Si4 0.671525 0.878292 0.111155
Si Si5 0.081352 0.067679 0.135549
Si Si6 0.911118 0.681428 0.716249
Si Si7 0.815949 0.829555 0.385982
Si Si8 0.175094 0.927454 0.238313
O O1 0.805776 0.374253 0.788023
O O2 0.070014 0.400323 0.819703
O O3 0.008648 0.366364 0.687125
O O4 0.007146 0.261614 0.790862
O O5 0.038520 0.366072 0.086439
O O6 0.803591 0.408971 0.029770
O O7 0.050203 0.358121 0.949647
O O8 0.000000 0.500000 0.000000
O O9 0.756159 0.548467 0.076560
O O10 0.551508 0.458305 0.088285
O O11 0.779937 0.443894 0.174368
O O12 0.798593 0.830618 0.148903
O O13 0.203968 0.107057 0.090324
O O14 0.154216 0.003015 0.187438
O O15 0.827361 0.677897 0.795371
O O16 0.028728 0.616325 0.725175
O O17 0.750000 0.750000 0.414851
#
# Coordination Sequence:
#
# PCOD9430968 Si02
#       8
#     8   8   8   8   8   8   8   8
#     4  11  23  36  60  99 130 169 216 278 348 390
#     4  10  25  42  67  93 130 179 223 268 333 409
#     4  10  20  39  60  94 126 168 223 265 328 394
#     4  11  21  40  62  93 131 169 215 274 335 401
#     4  11  22  37  64  99 128 168 223 286 335 391
#     4  12  21  41  63  97 134 172 225 284 337 403
#     4  12  23  42  65  99 133 172 226 284 336 402
#     4  11  22  35  65  95 133 167 221 283 335 388
#
# _framework density 21.697521999999999
#
# number of rings (size 3 to 8) (size 9 to 14) (size 15 to 20)
#    0.000    1.000    6.250    0.750    5.250    1.000 
#    0.000    4.375    0.000    1.500    0.000    0.000 
#    0.000    0.000    0.000    0.000    0.000    0.000 
#
# Total GULP energy -356376.322750 kJ/mol
# GULP energy per Si atom -5568.380043 kJ/mol
# Density = 2.164814 g / cm^3
# Si number density = 21.697522 Si / 1000 Ang^3
#
#
#
# Elastic Constant Matrix: (Units=GPa)
#
#
# Indices 1 2 3 4 5 6 
#
# 1 91.3844 14.8496 27.4492 0.0000 0.0000 0.0000
# 2 14.8496 67.3890 33.7654 0.0000 0.0000 0.0000
# 3 27.4492 33.7654 54.2874 0.0000 0.0000 0.0000
# 4 0.0000 0.0000 0.0000 6.4302 0.0000 0.0000
# 5 0.0000 0.0000 0.0000 0.0000 -5.6971 0.0000
# 6 0.0000 0.0000 0.0000 0.0000 0.0000 32.8215
#
#
#
# Elastic Compliance Matrix: (Units=1/GPa)
#
#
# Indices 1 2 3 4 5 6 
#
# 1 0.012920 0.000619 -0.006918 0.000000 0.000000 0.000000
# 2 0.000619 0.021587 -0.013740 0.000000 0.000000 0.000000
# 3 -0.006918 -0.013740 0.030464 0.000000 0.000000 0.000000
# 4 0.000000 0.000000 0.000000 0.155515 0.000000 0.000000
# 5 0.000000 0.000000 0.000000 0.000000 -0.175527 0.000000
# 6 0.000000 0.000000 0.000000 0.000000 0.000000 0.030468
#
#
# Mechanical properties :
#
#
# Convention : Reuss Voigt Hill
#
# Bulk Modulus (GPa) = 40.16953 40.57660 40.37307
# Shear Modulus (GPa) = 40.38710 15.84403 28.11556
#
# Velocity S-wave (km/s) = 4.31904 2.70520 3.60362
# Velocity P-wave (km/s) = 6.58982 5.33845 5.99687
#
# Compressibility (1/GPa) = 0.02489449
#
# Stress axis : x y z
#
# Youngs Moduli (GPa) = 77.39881 46.32404 32.82554
#
# Poissons Ratio (x) = -0.02868 0.22708
# Poissons Ratio (y) = -0.04792 0.45101
# Poissons Ratio (z) = 0.53544 0.63648
#
# Static dielectric constant tensor:
#      x y z
#    x 1.817120 0.000000 0.000000 
#    y 0.000000 1.839510 0.000000 
#    z 0.000000 0.000000 1.898300 
# 
# From -- ./inp_files/18365.got.cif
#   From: 2010.05.17/outbox.cif.g08.bks.cpg/sg56_10_cif.got.tgz:18365.got - 2010.06.03 13:42:01.
