data_PCOD9430662
_publ_section_title
;
Structure prediction by ZEFSAII (Michael W. Deem and Ramdas Pophale) SiO2 
 PCOD9430662
Probable space group: P C C N
;
_chemical_formula_sum "Si O2"
_cell_formula_units_Z 48
_cell_length_a 7.503657
_cell_length_b 9.827013
_cell_length_c 25.560997
_cell_angle_alpha 90.000000
_cell_angle_beta 90.000000
_cell_angle_gamma 90.000000
_cell_volume 1884.830469
_symmetry_space_group_name_H-M "P C C N"
_symmetry_group_IT_number 56
_symmetry_cell_setting 'orthorhombic'
loop_
_space_group_symop_operation_xyz
x,y,z
1/2-x,1/2-y,z
1/2+x,-y,1/2-z
-x,1/2+y,1/2-z
-x,-y,-z
1/2+x,1/2+y,-z
1/2-x,y,1/2+z
x,1/2-y,1/2+z
loop_
_atom_site_type_symbol
_atom_site_label
_atom_site_fract_x
_atom_site_fract_y
_atom_site_fract_z
Si Si1 0.978927 0.824073 0.732077
Si Si2 0.963345 0.761792 0.526434
Si Si3 0.953435 0.281452 0.087076
Si Si4 0.639291 0.059397 0.294769
Si Si5 0.475910 0.978209 0.592528
Si Si6 0.393633 0.444335 0.377521
O O1 0.176375 0.886277 0.727151
O O2 0.996209 0.662029 0.731886
O O3 0.894664 0.903321 0.780328
O O4 0.890713 0.873856 0.678313
O O5 0.750000 0.750000 0.518009
O O6 0.049598 0.616047 0.541764
O O7 0.043616 0.823817 0.473908
O O8 0.983163 0.851878 0.578231
O O9 0.750000 0.250000 0.102219
O O10 0.996565 0.411555 0.122200
O O11 0.058979 0.139315 0.087757
O O12 0.624957 0.077912 0.356798
O O13 0.687765 0.963671 0.605287
#
# Coordination Sequence:
#
# PCOD9430662 Si02
#       6
#     8   8   8   8   8   8
#     4  11  25  43  65  92 121 157 199 248 304 361
#     4  10  20  36  59  84 117 162 203 244 298 350
#     4  10  22  36  57  88 121 158 199 246 296 350
#     4  11  25  43  65  92 121 157 199 248 304 361
#     4  10  21  39  60  86 122 159 198 248 300 352
#     4  10  21  39  60  86 122 159 198 248 300 352
#
# _framework density 25.466480000000001
#
# number of rings (size 3 to 8) (size 9 to 14) (size 15 to 20)
#    0.000    1.667    1.667    2.000    2.333    4.667 
#    0.000    0.000    0.000    0.000    0.000    0.000 
#    0.000    0.000    0.000    0.000    0.000    0.000 
#
# Total GULP energy -268732.594389 kJ/mol
# GULP energy per Si atom -5598.595716 kJ/mol
# Density = 2.540852 g / cm^3
# Si number density = 25.466480 Si / 1000 Ang^3
#
#
#
# Elastic Constant Matrix: (Units=GPa)
#
#
# Indices 1 2 3 4 5 6 
#
# 1 45.1652 23.0554 -1.7315 0.0000 0.0000 0.0000
# 2 23.0554 90.8256 3.9675 0.0000 0.0000 0.0000
# 3 -1.7315 3.9675 50.4801 0.0000 0.0000 0.0000
# 4 0.0000 0.0000 0.0000 36.3513 0.0000 0.0000
# 5 0.0000 0.0000 0.0000 0.0000 18.9986 0.0000
# 6 0.0000 0.0000 0.0000 0.0000 0.0000 15.8050
#
#
#
# Elastic Compliance Matrix: (Units=1/GPa)
#
#
# Indices 1 2 3 4 5 6 
#
# 1 0.025534 -0.006542 0.001390 0.000000 0.000000 0.000000
# 2 -0.006542 0.012724 -0.001224 0.000000 0.000000 0.000000
# 3 0.001390 -0.001224 0.019954 0.000000 0.000000 0.000000
# 4 0.000000 0.000000 0.000000 0.027509 0.000000 0.000000
# 5 0.000000 0.000000 0.000000 0.000000 0.052635 0.000000
# 6 0.000000 0.000000 0.000000 0.000000 0.000000 0.063271
#
#
# Mechanical properties :
#
#
# Convention : Reuss Voigt Hill
#
# Bulk Modulus (GPa) = 21.99812 26.33927 24.16870
# Shear Modulus (GPa) = 21.78326 24.97628 23.37977
#
# Velocity S-wave (km/s) = 2.92784 3.13509 3.03324
# Velocity P-wave (km/s) = 4.48180 4.84461 4.66673
#
# Compressibility (1/GPa) = 0.04545842
#
# Stress axis : x y z
#
# Youngs Moduli (GPa) = 39.16367 78.58972 50.11599
#
# Poissons Ratio (x) = 0.51416 -0.06966
# Poissons Ratio (y) = 0.25622 0.06137
# Poissons Ratio (z) = -0.05444 0.09623
#
# Static dielectric constant tensor:
#      x y z
#    x 2.028270 0.000000 0.000000 
#    y 0.000000 2.063370 0.000000 
#    z 0.000000 0.000000 1.900260 
# 
# From -- ./inp_files/23201.got.cif
#   From: 2010.05.17/outbox.cif.g08.bks.cpg/sg56_12_cif.got.tgz:23201.got - 2010.06.03 13:42:01.
