data_PCOD9430785
_publ_section_title
;
Structure prediction by ZEFSAII (Michael W. Deem and Ramdas Pophale) SiO2 
 PCOD9430785
Probable space group: P C C N
;
_chemical_formula_sum "Si O2"
_cell_formula_units_Z 48
_cell_length_a 11.345210
_cell_length_b 11.677649
_cell_length_c 14.937111
_cell_angle_alpha 90.000000
_cell_angle_beta 90.000000
_cell_angle_gamma 90.000000
_cell_volume 1978.948830
_symmetry_space_group_name_H-M "P C C N"
_symmetry_group_IT_number 56
_symmetry_cell_setting 'orthorhombic'
loop_
_space_group_symop_operation_xyz
x,y,z
1/2-x,1/2-y,z
1/2+x,-y,1/2-z
-x,1/2+y,1/2-z
-x,-y,-z
1/2+x,1/2+y,-z
1/2-x,y,1/2+z
x,1/2-y,1/2+z
loop_
_atom_site_type_symbol
_atom_site_label
_atom_site_fract_x
_atom_site_fract_y
_atom_site_fract_z
Si Si1 0.323586 0.857578 0.784702
Si Si2 0.148087 0.329646 0.050493
Si Si3 0.192170 0.100463 0.345749
Si Si4 0.435766 0.795228 0.523007
Si Si5 0.563823 0.697365 0.201943
Si Si6 0.221759 0.916928 0.586989
O O1 0.250000 0.750000 0.819846
O O2 0.460023 0.832951 0.767655
O O3 0.268098 0.889880 0.687372
O O4 0.317010 0.966111 0.847452
O O5 0.250000 0.250000 0.091158
O O6 0.181677 0.351375 0.945844
O O7 0.026774 0.255864 0.049966
O O8 0.159906 0.459200 0.086362
O O9 0.087621 0.166581 0.294863
O O10 0.310949 0.135959 0.294500
O O11 0.518330 0.836757 0.603598
O O12 0.334441 0.893399 0.520285
O O13 0.369062 0.681905 0.559069
#
# Coordination Sequence:
#
# PCOD9430785 Si02
#       6
#     8   8   8   8   8   8
#     4  11  22  38  62  87 116 154 198 241 294 345
#     4  11  21  38  59  86 117 156 195 237 299 353
#     4  10  21  38  64  82 120 154 192 242 291 348
#     4   9  17  38  61  81 113 160 189 235 297 349
#     4   9  18  39  60  82 113 161 187 232 302 344
#     4  10  20  37  63  82 118 153 197 242 290 347
#
# _framework density 24.255302
#
# number of rings (size 3 to 8) (size 9 to 14) (size 15 to 20)
#    0.000    2.000    6.667    0.500    2.333    0.667 
#    6.000    0.000    0.000    0.000    0.000    0.000 
#    0.000    0.000    0.000    0.000    0.000    0.000 
#
# Total GULP energy -268137.573422 kJ/mol
# GULP energy per Si atom -5586.199446 kJ/mol
# Density = 2.420010 g / cm^3
# Si number density = 24.255302 Si / 1000 Ang^3
#
#
#
# Elastic Constant Matrix: (Units=GPa)
#
#
# Indices 1 2 3 4 5 6 
#
# 1 84.2282 -12.2077 8.6531 0.0000 0.0000 0.0000
# 2 -12.2077 78.9045 3.0899 0.0000 0.0000 0.0000
# 3 8.6531 3.0899 63.8403 0.0000 0.0000 0.0000
# 4 0.0000 0.0000 0.0000 22.8286 0.0000 0.0000
# 5 0.0000 0.0000 0.0000 0.0000 -0.6633 0.0000
# 6 0.0000 0.0000 0.0000 0.0000 0.0000 28.7620
#
#
#
# Elastic Compliance Matrix: (Units=1/GPa)
#
#
# Indices 1 2 3 4 5 6 
#
# 1 0.012341 0.001979 -0.001768 0.000000 0.000000 0.000000
# 2 0.001979 0.013015 -0.000898 0.000000 0.000000 0.000000
# 3 -0.001768 -0.000898 0.015947 0.000000 0.000000 0.000000
# 4 0.000000 0.000000 0.000000 0.043805 0.000000 0.000000
# 5 0.000000 0.000000 0.000000 0.000000 -1.507721 0.000000
# 6 0.000000 0.000000 0.000000 0.000000 0.000000 0.034768
#
#
# Mechanical properties :
#
#
# Convention : Reuss Voigt Hill
#
# Bulk Modulus (GPa) = 25.04569 25.11595 25.08082
# Shear Modulus (GPa) = -3.64123 25.34798 10.85337
#
# Velocity S-wave (km/s) = -1.22657 3.23623 2.11763
# Velocity P-wave (km/s) = 2.88831 4.93372 4.04252
#
# Compressibility (1/GPa) = 0.03992703
#
# Stress axis : x y z
#
# Youngs Moduli (GPa) = 81.03097 76.83537 62.70667
#
# Poissons Ratio (x) = -0.15203 0.11090
# Poissons Ratio (y) = -0.16033 0.05632
# Poissons Ratio (z) = 0.14330 0.06901
#
# Static dielectric constant tensor:
#      x y z
#    x 1.934370 0.000000 0.000000 
#    y 0.000000 1.741220 0.000000 
#    z 0.000000 0.000000 1.964840 
# 
# From -- ./inp_files/18678.got.cif
#   From: 2010.05.17/outbox.cif.g08.bks.cpg/sg56_10_cif.got.tgz:18678.got - 2010.06.03 13:42:01.
