data_PCOD9430444
_publ_section_title
;
Structure prediction by ZEFSAII (Michael W. Deem and Ramdas Pophale) SiO2 
 PCOD9430444
Probable space group: P C C N
;
_chemical_formula_sum "Si O2"
_cell_formula_units_Z 48
_cell_length_a 17.875855
_cell_length_b 8.930489
_cell_length_c 10.993997
_cell_angle_alpha 90.000000
_cell_angle_beta 90.000000
_cell_angle_gamma 90.000000
_cell_volume 1755.083071
_symmetry_space_group_name_H-M "P C C N"
_symmetry_group_IT_number 56
_symmetry_cell_setting 'orthorhombic'
loop_
_space_group_symop_operation_xyz
x,y,z
1/2-x,1/2-y,z
1/2+x,-y,1/2-z
-x,1/2+y,1/2-z
-x,-y,-z
1/2+x,1/2+y,-z
1/2-x,y,1/2+z
x,1/2-y,1/2+z
loop_
_atom_site_type_symbol
_atom_site_label
_atom_site_fract_x
_atom_site_fract_y
_atom_site_fract_z
Si Si1 0.314140 0.493962 0.951883
Si Si2 0.845429 0.070587 0.443248
Si Si3 0.072237 0.851006 0.772944
Si Si4 0.040290 0.156073 0.034520
Si Si5 0.935481 0.577090 0.148121
Si Si6 0.323542 0.293079 0.722192
O O1 0.364962 0.610228 0.873716
O O2 0.293399 0.380972 0.842491
O O3 0.242182 0.566775 0.017514
O O4 0.373292 0.400618 0.033271
O O5 0.893964 0.042423 0.563634
O O6 0.858331 0.920505 0.362286
O O7 0.878959 0.193277 0.347624
O O8 0.007189 0.775464 0.854356
O O9 0.009765 0.969951 0.720235
O O10 0.037216 0.282459 0.932458
O O11 0.000000 0.000000 0.000000
O O12 0.873236 0.657638 0.230563
O O13 0.250000 0.250000 0.650173
#
# Coordination Sequence:
#
# PCOD9430444 Si02
#       6
#     8   8   8   8   8   8
#     4   9  20  37  55  86 124 158 198 255 311 366
#     4  11  22  34  57  89 127 159 205 255 309 378
#     4  10  22  38  56  85 121 163 204 247 313 373
#     4   9  20  37  58  84 120 156 198 253 315 367
#     4  11  21  36  60  89 123 165 206 252 308 386
#     4  10  20  31  54  91 124 156 196 246 317 369
#
# _framework density 27.349131
#
# number of rings (size 3 to 8) (size 9 to 14) (size 15 to 20)
#    0.000    2.000    1.667    2.500    7.000    0.000 
#    0.000    0.000    0.000    8.000    0.000    0.000 
#    0.000    0.000    0.000    0.000    0.000    0.000 
#
# Total GULP energy -267510.620200 kJ/mol
# GULP energy per Si atom -5573.137921 kJ/mol
# Density = 2.728688 g / cm^3
# Si number density = 27.349131 Si / 1000 Ang^3
#
#
#
# Elastic Constant Matrix: (Units=GPa)
#
#
# Indices 1 2 3 4 5 6 
#
# 1 240.8343 23.6027 67.6296 0.0000 0.0000 0.0000
# 2 23.6027 79.3398 18.1056 0.0000 0.0000 0.0000
# 3 67.6296 18.1056 142.7652 0.0000 0.0000 0.0000
# 4 0.0000 0.0000 0.0000 9.5642 0.0000 0.0000
# 5 0.0000 0.0000 0.0000 0.0000 80.8773 0.0000
# 6 0.0000 0.0000 0.0000 0.0000 0.0000 43.0270
#
#
#
# Elastic Compliance Matrix: (Units=1/GPa)
#
#
# Indices 1 2 3 4 5 6 
#
# 1 0.004858 -0.000947 -0.002181 0.000000 0.000000 0.000000
# 2 -0.000947 0.013164 -0.001221 0.000000 0.000000 0.000000
# 3 -0.002181 -0.001221 0.008192 0.000000 0.000000 0.000000
# 4 0.000000 0.000000 0.000000 0.104557 0.000000 0.000000
# 5 0.000000 0.000000 0.000000 0.000000 0.012364 0.000000
# 6 0.000000 0.000000 0.000000 0.000000 0.000000 0.023241
#
#
# Mechanical properties :
#
#
# Convention : Reuss Voigt Hill
#
# Bulk Modulus (GPa) = 57.08958 75.73502 66.41230
# Shear Modulus (GPa) = 27.63748 50.26713 38.95230
#
# Velocity S-wave (km/s) = 3.18235 4.29182 3.77803
# Velocity P-wave (km/s) = 5.86710 7.23268 6.58538
#
# Compressibility (1/GPa) = 0.01751633
#
# Stress axis : x y z
#
# Youngs Moduli (GPa) = 205.86688 75.96231 122.06358
#
# Poissons Ratio (x) = 0.07196 0.26621
# Poissons Ratio (y) = 0.19503 0.14901
# Poissons Ratio (z) = 0.44898 0.09273
#
# Static dielectric constant tensor:
#      x y z
#    x 2.185310 0.000000 0.000000 
#    y 0.000000 2.235570 0.000000 
#    z 0.000000 0.000000 2.235940 
# 
# From -- ./inp_files/7824.got.cif
#   From: 2010.05.17/outbox.cif.g08.bks.cpg/sg56_4_cif.got.tgz:7824.got - 2010.06.03 13:42:01.
