data_PCOD9430053
_publ_section_title
;
Structure prediction by ZEFSAII (Michael W. Deem and Ramdas Pophale) SiO2 
 PCOD9430053
Probable space group: P C C N
;
_chemical_formula_sum "Si O2"
_cell_formula_units_Z 48
_cell_length_a 21.964039
_cell_length_b 5.196656
_cell_length_c 21.430467
_cell_angle_alpha 90.000000
_cell_angle_beta 90.000000
_cell_angle_gamma 90.000000
_cell_volume 2446.063968
_symmetry_space_group_name_H-M "P C C N"
_symmetry_group_IT_number 56
_symmetry_cell_setting 'orthorhombic'
loop_
_space_group_symop_operation_xyz
x,y,z
1/2-x,1/2-y,z
1/2+x,-y,1/2-z
-x,1/2+y,1/2-z
-x,-y,-z
1/2+x,1/2+y,-z
1/2-x,y,1/2+z
x,1/2-y,1/2+z
loop_
_atom_site_type_symbol
_atom_site_label
_atom_site_fract_x
_atom_site_fract_y
_atom_site_fract_z
Si Si1 0.680215 0.681272 0.737894
Si Si2 0.948196 0.708190 0.480170
Si Si3 0.391313 0.677824 0.809396
Si Si4 0.036802 0.851927 0.692150
Si Si5 0.892057 0.855107 0.854957
Si Si6 0.550411 0.496302 0.595639
O O1 0.750000 0.750000 0.725884
O O2 0.653387 0.411580 0.712041
O O3 0.668337 0.664500 0.812889
O O4 0.642542 0.913457 0.705795
O O5 0.896304 0.636261 0.429997
O O6 0.920059 0.827350 0.542909
O O7 0.000000 0.500000 0.500000
O O8 0.989339 0.907595 0.440203
O O9 0.452670 0.674621 0.766038
O O10 0.412128 0.754225 0.878832
O O11 0.073368 0.612777 0.664702
O O12 0.971923 0.856043 0.657885
O O13 0.070538 0.111903 0.671541
#
# Coordination Sequence:
#
# PCOD9430053 Si02
#       6
#     8   8   8   8   8   8
#     4  10  21  39  59  81 105 142 195 256 300 328
#     4  10  19  33  52  77 121 158 186 213 275 348
#     4  10  22  34  56  84 112 146 189 234 293 344
#     4   9  18  32  48  77 113 144 174 219 272 341
#     4   9  18  33  53  78 106 143 188 224 274 337
#     4  10  21  32  51  82 117 154 183 221 273 352
#
# _framework density 19.623363999999999
#
# number of rings (size 3 to 8) (size 9 to 14) (size 15 to 20)
#    0.000    2.333    1.667    0.500    2.333    6.667 
#    0.000    0.000    0.000    1.000    0.000    0.000 
#    0.000    0.000    0.000    0.000    0.000    0.000 
#
# Total GULP energy -267376.785840 kJ/mol
# GULP energy per Si atom -5570.349705 kJ/mol
# Density = 1.957870 g / cm^3
# Si number density = 19.623364 Si / 1000 Ang^3
#
#
#
# Elastic Constant Matrix: (Units=GPa)
#
#
# Indices 1 2 3 4 5 6 
#
# 1 69.6821 9.7424 18.7317 0.0000 0.0000 0.0000
# 2 9.7424 120.8570 27.5096 0.0000 0.0000 0.0000
# 3 18.7317 27.5096 92.4785 0.0000 0.0000 0.0000
# 4 0.0000 0.0000 0.0000 28.2244 0.0000 0.0000
# 5 0.0000 0.0000 0.0000 0.0000 19.5821 0.0000
# 6 0.0000 0.0000 0.0000 0.0000 0.0000 17.3534
#
#
#
# Elastic Compliance Matrix: (Units=1/GPa)
#
#
# Indices 1 2 3 4 5 6 
#
# 1 0.015213 -0.000563 -0.002914 0.000000 0.000000 0.000000
# 2 -0.000563 0.008896 -0.002532 0.000000 0.000000 0.000000
# 3 -0.002914 -0.002532 0.012157 0.000000 0.000000 0.000000
# 4 0.000000 0.000000 0.000000 0.035430 0.000000 0.000000
# 5 0.000000 0.000000 0.000000 0.000000 0.051067 0.000000
# 6 0.000000 0.000000 0.000000 0.000000 0.000000 0.057625
#
#
# Mechanical properties :
#
#
# Convention : Reuss Voigt Hill
#
# Bulk Modulus (GPa) = 41.24172 43.88724 42.56448
# Shear Modulus (GPa) = 24.93895 28.16758 26.55327
#
# Velocity S-wave (km/s) = 3.56881 3.79279 3.68250
# Velocity P-wave (km/s) = 6.16799 6.44932 6.31022
#
# Compressibility (1/GPa) = 0.02424729
#
# Stress axis : x y z
#
# Youngs Moduli (GPa) = 65.73365 112.40979 82.25839
#
# Poissons Ratio (x) = 0.06329 0.23969
# Poissons Ratio (y) = 0.03701 0.20830
# Poissons Ratio (z) = 0.19154 0.28465
#
# Static dielectric constant tensor:
#      x y z
#    x 1.675110 0.000000 0.000000 
#    y 0.000000 1.758260 0.000000 
#    z 0.000000 0.000000 1.786300 
# 
# From -- ./inp_files/16942.got.cif
#   From: 2010.05.17/outbox.cif.g08.bks.cpg/sg56_9_cif.got.tgz:16942.got - 2010.06.03 13:42:01.
