data_PCOD9430470
_publ_section_title
;
Structure prediction by ZEFSAII (Michael W. Deem and Ramdas Pophale) SiO2 
 PCOD9430470
Probable space group: P C C N
;
_chemical_formula_sum "Si O2"
_cell_formula_units_Z 60
_cell_length_a 29.208651
_cell_length_b 13.201043
_cell_length_c 8.785393
_cell_angle_alpha 90.000000
_cell_angle_beta 90.000000
_cell_angle_gamma 90.000000
_cell_volume 3387.512754
_symmetry_space_group_name_H-M "P C C N"
_symmetry_group_IT_number 56
_symmetry_cell_setting 'orthorhombic'
loop_
_space_group_symop_operation_xyz
x,y,z
1/2-x,1/2-y,z
1/2+x,-y,1/2-z
-x,1/2+y,1/2-z
-x,-y,-z
1/2+x,1/2+y,-z
1/2-x,y,1/2+z
x,1/2-y,1/2+z
loop_
_atom_site_type_symbol
_atom_site_label
_atom_site_fract_x
_atom_site_fract_y
_atom_site_fract_z
Si Si1 0.027309 0.021375 0.768796
Si Si2 0.395388 0.709341 0.254347
Si Si3 0.036429 0.237763 0.902785
Si Si4 0.750000 0.250000 0.868385
Si Si5 0.933806 0.607121 0.313571
Si Si6 0.890961 0.044336 0.003610
Si Si7 0.686714 0.333232 0.129219
Si Si8 0.944770 0.135600 0.445858
O O1 0.025731 0.142035 0.791155
O O2 0.044690 0.978862 0.606428
O O3 0.064546 0.981548 0.893576
O O4 0.977885 0.968413 0.795898
O O5 0.396599 0.643124 0.101636
O O6 0.346662 0.740306 0.323432
O O7 0.415643 0.814761 0.191703
O O8 0.422333 0.653832 0.390390
O O9 0.070244 0.321221 0.832187
O O10 0.990530 0.298508 0.937682
O O11 0.053485 0.185505 0.054213
O O12 0.775620 0.331910 0.762061
O O13 0.713160 0.304251 0.975953
O O14 0.891054 0.544404 0.377242
O O15 0.845684 0.069460 0.100827
#
# Coordination Sequence:
#
# PCOD9430470 Si02
#       8
#     8   8   8   4   8   8   8   8
#     4  10  20  33  48  71 103 143 187 231 263 303
#     4  12  19  30  49  76  99 134 176 214 247 315
#     4  10  20  33  47  67 103 146 179 229 275 287
#     4  10  22  36  52  78 112 138 158 206 276 324
#     4  10  21  34  51  70 106 143 188 233 265 304
#     4  11  20  34  51  75 102 140 183 207 260 315
#     4  11  20  34  53  76 108 140 162 205 263 328
#     4  11  19  29  47  70  99 137 184 219 255 305
#
# _framework density 17.712111
#
# number of rings (size 3 to 8) (size 9 to 14) (size 15 to 20)
#    0.000    1.333    4.000    4.800    0.000    1.067 
#    0.000    3.333    0.000    0.000    0.000    0.000 
#    0.000   12.800    0.000    0.000    0.000    0.000 
#
# Total GULP energy -334624.802425 kJ/mol
# GULP energy per Si atom -5577.080040 kJ/mol
# Density = 1.767180 g / cm^3
# Si number density = 17.712111 Si / 1000 Ang^3
#
#
#
# Elastic Constant Matrix: (Units=GPa)
#
#
# Indices 1 2 3 4 5 6 
#
# 1 60.6974 8.6536 25.2228 0.0000 0.0000 0.0000
# 2 8.6536 44.2701 4.7670 0.0000 0.0000 0.0000
# 3 25.2228 4.7670 65.2586 0.0000 0.0000 0.0000
# 4 0.0000 0.0000 0.0000 36.6506 0.0000 0.0000
# 5 0.0000 0.0000 0.0000 0.0000 33.3223 0.0000
# 6 0.0000 0.0000 0.0000 0.0000 0.0000 22.1827
#
#
#
# Elastic Compliance Matrix: (Units=1/GPa)
#
#
# Indices 1 2 3 4 5 6 
#
# 1 0.020043 -0.003108 -0.007520 0.000000 0.000000 0.000000
# 2 -0.003108 0.023250 -0.000497 0.000000 0.000000 0.000000
# 3 -0.007520 -0.000497 0.018266 0.000000 0.000000 0.000000
# 4 0.000000 0.000000 0.000000 0.027285 0.000000 0.000000
# 5 0.000000 0.000000 0.000000 0.000000 0.030010 0.000000
# 6 0.000000 0.000000 0.000000 0.000000 0.000000 0.045080
#
#
# Mechanical properties :
#
#
# Convention : Reuss Voigt Hill
#
# Bulk Modulus (GPa) = 25.43924 27.50143 26.47034
# Shear Modulus (GPa) = 25.08946 27.20329 26.14638
#
# Velocity S-wave (km/s) = 3.76774 3.92325 3.84629
# Velocity P-wave (km/s) = 5.77249 6.00693 5.89088
#
# Compressibility (1/GPa) = 0.03930936
#
# Stress axis : x y z
#
# Youngs Moduli (GPa) = 49.89247 43.01136 54.74538
#
# Poissons Ratio (x) = 0.13369 0.41167
# Poissons Ratio (y) = 0.15507 0.02721
# Poissons Ratio (z) = 0.37518 0.02138
#
# Static dielectric constant tensor:
#      x y z
#    x 1.631190 0.000000 0.000000 
#    y 0.000000 1.653890 0.000000 
#    z 0.000000 0.000000 1.727110 
# 
# From -- ./inp_files/5179.got.cif
#   From: 2010.05.17/outbox.cif.g08.bks.cpg/sg56_3_cif.got.tgz:5179.got - 2010.06.03 13:42:01.
