data_PCOD9430407
_publ_section_title
;
Structure prediction by ZEFSAII (Michael W. Deem and Ramdas Pophale) SiO2 
 PCOD9430407
Probable space group: P C C N
;
_chemical_formula_sum "Si O2"
_cell_formula_units_Z 32
_cell_length_a 17.845652
_cell_length_b 13.916468
_cell_length_c 5.513485
_cell_angle_alpha 90.000000
_cell_angle_beta 90.000000
_cell_angle_gamma 90.000000
_cell_volume 1369.265426
_symmetry_space_group_name_H-M "P C C N"
_symmetry_group_IT_number 56
_symmetry_cell_setting 'orthorhombic'
loop_
_space_group_symop_operation_xyz
x,y,z
1/2-x,1/2-y,z
1/2+x,-y,1/2-z
-x,1/2+y,1/2-z
-x,-y,-z
1/2+x,1/2+y,-z
1/2-x,y,1/2+z
x,1/2-y,1/2+z
loop_
_atom_site_type_symbol
_atom_site_label
_atom_site_fract_x
_atom_site_fract_y
_atom_site_fract_z
Si Si1 0.922454 0.131509 0.000000
Si Si2 0.797655 0.981307 0.000000
Si Si3 0.363814 0.281523 0.000000
Si Si4 0.479278 0.663194 0.500000
O O1 0.920725 0.247781 0.000000
O O2 0.965630 0.107724 0.749327
O O3 0.965630 0.107724 0.250674
O O4 0.843132 0.080364 0.000000
O O5 0.750000 0.973315 0.250000
O O6 0.859776 0.896248 1.000000
O O7 0.327530 0.250000 0.750000
O O8 0.441666 0.220083 0.000000
#
# Coordination Sequence:
#
# PCOD9430407 Si02
#       4
#     8   8   8   8
#     4  10  20  41  68  93 135 163 215 279 318 392
#     4  12  28  46  63  97 137 182 222 254 320 400
#     4  12  23  44  69  98 132 170 219 277 327 389
#     4  10  19  41  65 104 126 158 219 269 351 371
#
# _framework density 23.370197999999998
#
# number of rings (size 3 to 8) (size 9 to 14) (size 15 to 20)
#    0.000    1.000    5.000    3.000    0.000    4.000 
#    0.000   17.500    0.000    0.000    0.000    0.000 
#    0.000    0.000    0.000    0.000    0.000    0.000 
#
# Total GULP energy -178503.727191 kJ/mol
# GULP energy per Si atom -5578.241475 kJ/mol
# Density = 2.331701 g / cm^3
# Si number density = 23.370198 Si / 1000 Ang^3
#
#
#
# Elastic Constant Matrix: (Units=GPa)
#
#
# Indices 1 2 3 4 5 6 
#
# 1 102.5163 35.4382 58.3492 0.0000 0.0000 0.0000
# 2 35.4382 84.5849 20.8153 0.0000 0.0000 0.0000
# 3 58.3492 20.8153 293.8815 0.0000 0.0000 0.0000
# 4 0.0000 0.0000 0.0000 19.4063 0.0000 0.0000
# 5 0.0000 0.0000 0.0000 0.0000 30.0094 0.0000
# 6 0.0000 0.0000 0.0000 0.0000 0.0000 34.6794
#
#
#
# Elastic Compliance Matrix: (Units=1/GPa)
#
#
# Indices 1 2 3 4 5 6 
#
# 1 0.012636 -0.004760 -0.002172 0.000000 0.000000 0.000000
# 2 -0.004760 0.013825 -0.000034 0.000000 0.000000 0.000000
# 3 -0.002172 -0.000034 0.003836 0.000000 0.000000 0.000000
# 4 0.000000 0.000000 0.000000 0.051530 0.000000 0.000000
# 5 0.000000 0.000000 0.000000 0.000000 0.033323 0.000000
# 6 0.000000 0.000000 0.000000 0.000000 0.000000 0.028836
#
#
# Mechanical properties :
#
#
# Convention : Reuss Voigt Hill
#
# Bulk Modulus (GPa) = 61.10146 78.90980 70.00563
# Shear Modulus (GPa) = 30.60504 41.24435 35.92470
#
# Velocity S-wave (km/s) = 3.62273 4.20554 3.92497
# Velocity P-wave (km/s) = 6.61065 7.57763 7.11060
#
# Compressibility (1/GPa) = 0.01636622
#
# Stress axis : x y z
#
# Youngs Moduli (GPa) = 79.13938 72.33293 260.66509
#
# Poissons Ratio (x) = 0.34428 0.56609
# Poissons Ratio (y) = 0.37667 0.00892
# Poissons Ratio (z) = 0.17187 0.00247
#
# Static dielectric constant tensor:
#      x y z
#    x 1.869980 0.000000 0.000000 
#    y 0.000000 1.860210 0.000000 
#    z 0.000000 0.000000 2.019120 
# 
# From -- ./inp_files/602.got.cif
#   From: 2010.05.17/outbox.cif.g08.bks.cpg/sg56_1_cif.got.tgz:602.got - 2010.06.03 13:42:01.
