data_PCOD9430891
_publ_section_title
;
Structure prediction by ZEFSAII (Michael W. Deem and Ramdas Pophale) SiO2 
 PCOD9430891
Probable space group: P C C N
;
_chemical_formula_sum "Si O2"
_cell_formula_units_Z 48
_cell_length_a 5.425530
_cell_length_b 25.869983
_cell_length_c 14.506557
_cell_angle_alpha 90.000000
_cell_angle_beta 90.000000
_cell_angle_gamma 90.000000
_cell_volume 2036.116678
_symmetry_space_group_name_H-M "P C C N"
_symmetry_group_IT_number 56
_symmetry_cell_setting 'orthorhombic'
loop_
_space_group_symop_operation_xyz
x,y,z
1/2-x,1/2-y,z
1/2+x,-y,1/2-z
-x,1/2+y,1/2-z
-x,-y,-z
1/2+x,1/2+y,-z
1/2-x,y,1/2+z
x,1/2-y,1/2+z
loop_
_atom_site_type_symbol
_atom_site_label
_atom_site_fract_x
_atom_site_fract_y
_atom_site_fract_z
Si Si1 0.088937 0.089954 0.492822
Si Si2 0.747969 0.014471 0.406304
Si Si3 0.848804 0.362948 0.154860
Si Si4 0.550964 0.041391 0.710950
Si Si5 0.002211 0.782174 0.788084
Si Si6 0.264250 0.129556 0.303379
O O1 0.828578 0.067287 0.453225
O O2 0.034634 0.133018 0.569505
O O3 0.248990 0.111122 0.408186
O O4 0.197558 0.037550 0.537449
O O5 0.887199 0.015895 0.308024
O O6 0.481029 0.003053 0.365107
O O7 0.750176 0.420555 0.168608
O O8 0.625407 0.322903 0.139221
O O9 0.985766 0.353606 0.252485
O O10 0.339617 0.082940 0.739057
O O11 0.250000 0.750000 0.764984
O O12 0.750000 0.750000 0.813613
O O13 0.913631 0.820969 0.708005
#
# Coordination Sequence:
#
# PCOD9430891 Si02
#       6
#     8   8   8   8   8   8
#     4  10  22  41  64 104 139 191 239 294 353 412
#     4  10  20  38  62  96 142 190 251 284 335 425
#     4  11  22  43  68 103 150 180 240 298 364 428
#     4  10  21  37  62  94 138 196 237 288 352 401
#     4  11  23  46  82 103 131 186 232 291 378 451
#     4  10  22  43  68 100 137 187 229 299 360 430
#
# _framework density 23.574287999999999
#
# number of rings (size 3 to 8) (size 9 to 14) (size 15 to 20)
#    0.000    1.667    3.333    1.000    0.000    0.667 
#    9.000    0.833    3.667    0.000    0.000    0.000 
#    0.000    0.000    0.000    0.000    0.000    0.000 
#
# Total GULP energy -267573.683772 kJ/mol
# GULP energy per Si atom -5574.451745 kJ/mol
# Density = 2.352063 g / cm^3
# Si number density = 23.574288 Si / 1000 Ang^3
#
#
#
# Elastic Constant Matrix: (Units=GPa)
#
#
# Indices 1 2 3 4 5 6 
#
# 1 107.1805 49.5639 42.1712 0.0000 0.0000 0.0000
# 2 49.5639 100.1433 38.9954 0.0000 0.0000 0.0000
# 3 42.1712 38.9954 121.8627 0.0000 0.0000 0.0000
# 4 0.0000 0.0000 0.0000 11.2307 0.0000 0.0000
# 5 0.0000 0.0000 0.0000 0.0000 26.8964 0.0000
# 6 0.0000 0.0000 0.0000 0.0000 0.0000 61.1614
#
#
#
# Elastic Compliance Matrix: (Units=1/GPa)
#
#
# Indices 1 2 3 4 5 6 
#
# 1 0.012862 -0.005292 -0.002758 0.000000 0.000000 0.000000
# 2 -0.005292 0.013584 -0.002516 0.000000 0.000000 0.000000
# 3 -0.002758 -0.002516 0.009965 0.000000 0.000000 0.000000
# 4 0.000000 0.000000 0.000000 0.089042 0.000000 0.000000
# 5 0.000000 0.000000 0.000000 0.000000 0.037180 0.000000
# 6 0.000000 0.000000 0.000000 0.000000 0.000000 0.016350
#
#
# Mechanical properties :
#
#
# Convention : Reuss Voigt Hill
#
# Bulk Modulus (GPa) = 65.43929 65.62749 65.53339
# Shear Modulus (GPa) = 24.36549 33.08810 28.72680
#
# Velocity S-wave (km/s) = 3.21839 3.75049 3.49458
# Velocity P-wave (km/s) = 6.45211 6.83036 6.64393
#
# Compressibility (1/GPa) = 0.01528134
#
# Stress axis : x y z
#
# Youngs Moduli (GPa) = 77.74643 73.61341 100.34904
#
# Poissons Ratio (x) = 0.38957 0.27672
# Poissons Ratio (y) = 0.41145 0.25244
# Poissons Ratio (z) = 0.21439 0.18518
#
# Static dielectric constant tensor:
#      x y z
#    x 2.122190 0.000000 0.000000 
#    y 0.000000 2.150680 0.000000 
#    z 0.000000 0.000000 1.914940 
# 
# From -- ./inp_files/9691.got.cif
#   From: 2010.05.17/outbox.cif.g08.bks.cpg/sg56_5_cif.got.tgz:9691.got - 2010.06.03 13:42:01.
