data_PCOD9430544
_publ_section_title
;
Structure prediction by ZEFSAII (Michael W. Deem and Ramdas Pophale) SiO2 
 PCOD9430544
Probable space group: P C C N
;
_chemical_formula_sum "Si O2"
_cell_formula_units_Z 56
_cell_length_a 26.043163
_cell_length_b 15.267100
_cell_length_c 5.371489
_cell_angle_alpha 90.000000
_cell_angle_beta 90.000000
_cell_angle_gamma 90.000000
_cell_volume 2135.723223
_symmetry_space_group_name_H-M "P C C N"
_symmetry_group_IT_number 56
_symmetry_cell_setting 'orthorhombic'
loop_
_space_group_symop_operation_xyz
x,y,z
1/2-x,1/2-y,z
1/2+x,-y,1/2-z
-x,1/2+y,1/2-z
-x,-y,-z
1/2+x,1/2+y,-z
1/2-x,y,1/2+z
x,1/2-y,1/2+z
loop_
_atom_site_type_symbol
_atom_site_label
_atom_site_fract_x
_atom_site_fract_y
_atom_site_fract_z
Si Si1 0.231378 0.629806 0.409029
Si Si2 0.192653 0.280222 0.819921
Si Si3 0.557158 0.698171 0.446668
Si Si4 0.813474 0.523585 0.075456
Si Si5 0.932843 0.301488 0.074937
Si Si6 0.440127 0.506242 0.573567
Si Si7 0.865360 0.038704 0.058681
O O1 0.263382 0.668195 0.636118
O O2 0.263490 0.537017 0.379012
O O3 0.171527 0.622938 0.477887
O O4 0.250000 0.250000 0.764738
O O5 0.168798 0.276392 0.544071
O O6 0.198764 0.375746 0.933409
O O7 0.571466 0.750310 0.196940
O O8 0.494859 0.697179 0.435993
O O9 0.575585 0.596736 0.453853
O O10 0.850025 0.515309 0.317347
O O11 0.840037 0.496078 0.817904
O O12 0.916479 0.250266 0.823523
O O13 0.919117 0.405302 0.068255
O O14 0.500000 0.500000 0.500000
O O15 0.424785 0.534238 0.859364
#
# Coordination Sequence:
#
# PCOD9430544 Si02
#       7
#     8   8   8   8   8   8   8
#     4   8  16  28  51  66  96 132 171 226 275 328
#     4  10  21  28  47  70  98 144 204 239 293 341
#     4   9  19  36  57  80 115 155 199 237 292 365
#     4  10  20  35  50  70 105 139 186 249 283 337
#     4   9  19  36  60  88 109 144 195 252 307 359
#     4  10  22  41  64  88 123 164 202 258 317 373
#     4  10  21  34  55  78 106 144 195 240 289 358
#
# _framework density 26.220627
#
# number of rings (size 3 to 8) (size 9 to 14) (size 15 to 20)
#    0.000    2.571    0.000    0.857   12.000    3.429 
#    0.000   13.571    0.000    0.000    0.000    0.000 
#    0.000   30.857    0.000    0.000    0.000    0.000 
#
# Total GULP energy -312427.108425 kJ/mol
# GULP energy per Si atom -5579.055508 kJ/mol
# Density = 2.616095 g / cm^3
# Si number density = 26.220627 Si / 1000 Ang^3
#
#
#
# Elastic Constant Matrix: (Units=GPa)
#
#
# Indices 1 2 3 4 5 6 
#
# 1 98.8026 16.5584 22.7634 0.0000 0.0000 0.0000
# 2 16.5584 177.6361 35.1388 0.0000 0.0000 0.0000
# 3 22.7634 35.1388 173.4552 0.0000 0.0000 0.0000
# 4 0.0000 0.0000 0.0000 -312.1307 0.0000 0.0000
# 5 0.0000 0.0000 0.0000 0.0000 47.0044 0.0000
# 6 0.0000 0.0000 0.0000 0.0000 0.0000 17.8884
#
#
#
# Elastic Compliance Matrix: (Units=1/GPa)
#
#
# Indices 1 2 3 4 5 6 
#
# 1 0.010529 -0.000738 -0.001232 0.000000 0.000000 0.000000
# 2 -0.000738 0.005916 -0.001102 0.000000 0.000000 0.000000
# 3 -0.001232 -0.001102 0.006150 0.000000 0.000000 0.000000
# 4 0.000000 0.000000 0.000000 -0.003204 0.000000 0.000000
# 5 0.000000 0.000000 0.000000 0.000000 0.021275 0.000000
# 6 0.000000 0.000000 0.000000 0.000000 0.000000 0.055902
#
#
# Mechanical properties :
#
#
# Convention : Reuss Voigt Hill
#
# Bulk Modulus (GPa) = 60.78419 66.53502 63.65960
# Shear Modulus (GPa) = 46.21284 -24.41869 10.89708
#
# Velocity S-wave (km/s) = 4.20272 -3.05500 2.04082
# Velocity P-wave (km/s) = 6.83978 3.60363 5.46666
#
# Compressibility (1/GPa) = 0.01645165
#
# Stress axis : x y z
#
# Youngs Moduli (GPa) = 94.97825 169.02802 162.59941
#
# Poissons Ratio (x) = 0.12469 0.20037
# Poissons Ratio (y) = 0.07006 0.17914
# Poissons Ratio (z) = 0.11704 0.18622
#
# Static dielectric constant tensor:
#      x y z
#    x 2.186980 0.000000 0.000000 
#    y 0.000000 2.086490 0.000000 
#    z 0.000000 0.000000 2.113730 
# 
# From -- ./inp_files/1347.got.cif
#   From: 2010.05.17/outbox.cif.g08.bks.cpg/sg56_1_cif.got.tgz:1347.got - 2010.06.03 13:42:01.
