data_PCOD9430134
_publ_section_title
;
Structure prediction by ZEFSAII (Michael W. Deem and Ramdas Pophale) SiO2 
 PCOD9430134
Probable space group: P C C N
;
_chemical_formula_sum "Si O2"
_cell_formula_units_Z 60
_cell_length_a 7.353436
_cell_length_b 12.029914
_cell_length_c 29.784177
_cell_angle_alpha 90.000000
_cell_angle_beta 90.000000
_cell_angle_gamma 90.000000
_cell_volume 2634.744118
_symmetry_space_group_name_H-M "P C C N"
_symmetry_group_IT_number 56
_symmetry_cell_setting 'orthorhombic'
loop_
_space_group_symop_operation_xyz
x,y,z
1/2-x,1/2-y,z
1/2+x,-y,1/2-z
-x,1/2+y,1/2-z
-x,-y,-z
1/2+x,1/2+y,-z
1/2-x,y,1/2+z
x,1/2-y,1/2+z
loop_
_atom_site_type_symbol
_atom_site_label
_atom_site_fract_x
_atom_site_fract_y
_atom_site_fract_z
Si Si1 0.969552 0.475842 0.571263
Si Si2 0.451896 0.710300 0.059374
Si Si3 0.462852 0.990455 0.946376
Si Si4 0.750000 0.250000 0.206831
Si Si5 0.035009 0.149279 0.366724
Si Si6 0.640631 0.007245 0.668518
Si Si7 0.027991 0.742524 0.963810
Si Si8 0.040529 0.208657 0.782595
O O1 0.755894 0.492465 0.559574
O O2 0.985236 0.482122 0.624721
O O3 0.037936 0.358504 0.554654
O O4 0.062540 0.580722 0.548815
O O5 0.250000 0.750000 0.068482
O O6 0.567054 0.739315 0.103082
O O7 0.530809 0.768133 0.015410
O O8 0.521854 0.864467 0.935612
O O9 0.541084 0.072128 0.908001
O O10 0.500000 0.000000 0.000000
O O11 0.701841 0.367176 0.181689
O O12 0.577311 0.225107 0.238446
O O13 0.185856 0.066480 0.346907
O O14 0.959263 0.210343 0.322036
O O15 0.546082 0.922323 0.703656
O O16 0.250000 0.750000 0.965073
O O17 0.250000 0.250000 0.777223
#
# Coordination Sequence:
#
# PCOD9430134 Si02
#       8
#     8   8   8   4   8   8   8   8
#     4  10  21  37  61  88 128 172 220 281 328 408
#     4  11  21  36  60  93 129 179 231 275 334 399
#     4  10  19  34  59  90 124 171 219 266 328 391
#     4  12  28  46  76 108 132 184 224 296 370 426
#     4  10  21  39  63  91 134 171 221 279 327 409
#     4  10  24  42  69 101 129 170 233 275 361 424
#     4   9  19  34  54  88 128 169 220 275 324 387
#     4  10  24  47  70 104 137 175 232 288 350 434
#
# _framework density 22.77261
#
# number of rings (size 3 to 8) (size 9 to 14) (size 15 to 20)
#    0.000    1.867    2.667    0.400   11.200    0.000 
#    0.000    1.333    0.000    0.000    3.467    0.000 
#    0.000    0.000    0.000    0.000    0.000    0.000 
#
# Total GULP energy -334384.676449 kJ/mol
# GULP energy per Si atom -5573.077941 kJ/mol
# Density = 2.272078 g / cm^3
# Si number density = 22.772610 Si / 1000 Ang^3
#
#
#
# Elastic Constant Matrix: (Units=GPa)
#
#
# Indices 1 2 3 4 5 6 
#
# 1 70.9220 14.6353 7.5900 0.0000 0.0000 0.0000
# 2 14.6353 180.1426 39.2073 0.0000 0.0000 0.0000
# 3 7.5900 39.2073 54.9538 0.0000 0.0000 0.0000
# 4 0.0000 0.0000 0.0000 20.5059 0.0000 0.0000
# 5 0.0000 0.0000 0.0000 0.0000 5.0286 0.0000
# 6 0.0000 0.0000 0.0000 0.0000 0.0000 22.3819
#
#
#
# Elastic Compliance Matrix: (Units=1/GPa)
#
#
# Indices 1 2 3 4 5 6 
#
# 1 0.014427 -0.000874 -0.001369 0.000000 0.000000 0.000000
# 2 -0.000874 0.006625 -0.004606 0.000000 0.000000 0.000000
# 3 -0.001369 -0.004606 0.021672 0.000000 0.000000 0.000000
# 4 0.000000 0.000000 0.000000 0.048767 0.000000 0.000000
# 5 0.000000 0.000000 0.000000 0.000000 0.198862 0.000000
# 6 0.000000 0.000000 0.000000 0.000000 0.000000 0.044679
#
#
# Mechanical properties :
#
#
# Convention : Reuss Voigt Hill
#
# Bulk Modulus (GPa) = 34.45167 47.65372 41.05269
# Shear Modulus (GPa) = 13.95073 25.88899 19.91986
#
# Velocity S-wave (km/s) = 2.47778 3.37538 2.96079
# Velocity P-wave (km/s) = 4.83190 6.01350 5.45479
#
# Compressibility (1/GPa) = 0.02902617
#
# Stress axis : x y z
#
# Youngs Moduli (GPa) = 69.31501 150.95318 46.14230
#
# Poissons Ratio (x) = 0.13195 0.06317
# Poissons Ratio (y) = 0.06059 0.21251
# Poissons Ratio (z) = 0.09489 0.69523
#
# Static dielectric constant tensor:
#      x y z
#    x 1.890560 0.000000 0.000000 
#    y 0.000000 1.921690 0.000000 
#    z 0.000000 0.000000 1.929400 
# 
# From -- ./inp_files/23355.got.cif
#   From: 2010.05.17/outbox.cif.g08.bks.cpg/sg56_12_cif.got.tgz:23355.got - 2010.06.03 13:42:01.
