data_PCOD9430529
_publ_section_title
;
Structure prediction by ZEFSAII (Michael W. Deem and Ramdas Pophale) SiO2 
 PCOD9430529
Probable space group: P C C N
;
_chemical_formula_sum "Si O2"
_cell_formula_units_Z 48
_cell_length_a 27.729305
_cell_length_b 8.788065
_cell_length_c 9.400126
_cell_angle_alpha 90.000000
_cell_angle_beta 90.000000
_cell_angle_gamma 90.000000
_cell_volume 2290.687891
_symmetry_space_group_name_H-M "P C C N"
_symmetry_group_IT_number 56
_symmetry_cell_setting 'orthorhombic'
loop_
_space_group_symop_operation_xyz
x,y,z
1/2-x,1/2-y,z
1/2+x,-y,1/2-z
-x,1/2+y,1/2-z
-x,-y,-z
1/2+x,1/2+y,-z
1/2-x,y,1/2+z
x,1/2-y,1/2+z
loop_
_atom_site_type_symbol
_atom_site_label
_atom_site_fract_x
_atom_site_fract_y
_atom_site_fract_z
Si Si1 0.145619 0.200943 0.440789
Si Si2 0.947038 0.934410 0.674175
Si Si3 0.387834 0.431090 0.729291
Si Si4 0.204673 0.563082 0.213552
Si Si5 0.517920 0.823062 0.872333
Si Si6 0.750000 0.250000 0.537052
Si Si7 0.750000 0.750000 0.179837
O O1 0.110191 0.083357 0.356460
O O2 0.132598 0.182003 0.605386
O O3 0.126066 0.360349 0.379965
O O4 0.202390 0.194208 0.406896
O O5 0.965830 0.839477 0.810310
O O6 0.971648 0.845777 0.539273
O O7 0.966299 0.106478 0.666651
O O8 0.353149 0.570150 0.704279
O O9 0.443921 0.438961 0.703224
O O10 0.223968 0.635856 0.070082
O O11 0.217717 0.654270 0.355080
O O12 0.228997 0.395792 0.234520
#
# Coordination Sequence:
#
# PCOD9430529 Si02
#       7
#     8   8   8   8   8   4   4
#     4   9  18  31  52  80 107 132 173 229 269 306
#     4   9  18  34  53  75 106 138 172 218 267 317
#     4   9  18  33  52  76 105 137 175 219 266 320
#     4  10  21  37  55  77 108 143 181 222 273 329
#     4   9  18  34  54  76 104 137 174 218 266 317
#     4  10  22  38  52  74 114 148 170 222 286 328
#     4  10  20  34  60  84 102 140 192 228 264 326
#
# _framework density 20.954405000000001
#
# number of rings (size 3 to 8) (size 9 to 14) (size 15 to 20)
#    0.000    2.667    0.000    1.000    0.000    9.333 
#    0.000    8.333    0.000    0.000    0.000    0.000 
#    0.000    0.000    0.000    0.000    0.000    0.000 
#
# Total GULP energy -267222.418743 kJ/mol
# GULP energy per Si atom -5567.133724 kJ/mol
# Density = 2.090671 g / cm^3
# Si number density = 20.954405 Si / 1000 Ang^3
#
#
#
# Elastic Constant Matrix: (Units=GPa)
#
#
# Indices 1 2 3 4 5 6 
#
# 1 98.1927 8.7682 6.7754 0.0000 0.0000 0.0000
# 2 8.7682 39.5549 19.1156 0.0000 0.0000 0.0000
# 3 6.7754 19.1156 80.1730 0.0000 0.0000 0.0000
# 4 0.0000 0.0000 0.0000 -20.3395 0.0000 0.0000
# 5 0.0000 0.0000 0.0000 0.0000 14.5782 0.0000
# 6 0.0000 0.0000 0.0000 0.0000 0.0000 22.2347
#
#
#
# Elastic Compliance Matrix: (Units=1/GPa)
#
#
# Indices 1 2 3 4 5 6 
#
# 1 0.010400 -0.002125 -0.000372 0.000000 0.000000 0.000000
# 2 -0.002125 0.029008 -0.006737 0.000000 0.000000 0.000000
# 3 -0.000372 -0.006737 0.014111 0.000000 0.000000 0.000000
# 4 0.000000 0.000000 0.000000 -0.049165 0.000000 0.000000
# 5 0.000000 0.000000 0.000000 0.000000 0.068596 0.000000
# 6 0.000000 0.000000 0.000000 0.000000 0.000000 0.044975
#
#
# Mechanical properties :
#
#
# Convention : Reuss Voigt Hill
#
# Bulk Modulus (GPa) = 28.53086 31.91542 30.22314
# Shear Modulus (GPa) = 33.76663 15.51211 24.63937
#
# Velocity S-wave (km/s) = 4.01862 2.72376 3.43280
# Velocity P-wave (km/s) = 5.93108 5.01555 5.49242
#
# Compressibility (1/GPa) = 0.03504977
#
# Stress axis : x y z
#
# Youngs Moduli (GPa) = 96.15822 34.47308 70.86812
#
# Poissons Ratio (x) = 0.07327 0.02637
# Poissons Ratio (y) = 0.20438 0.47742
# Poissons Ratio (z) = 0.03578 0.23224
#
# Static dielectric constant tensor:
#      x y z
#    x 1.825580 0.000000 0.000000 
#    y 0.000000 1.797540 0.000000 
#    z 0.000000 0.000000 1.742650 
# 
# From -- ./inp_files/2261.got.cif
#   From: 2010.05.17/outbox.cif.g08.bks.cpg/sg56_2_cif.got.tgz:2261.got - 2010.06.03 13:42:01.
