data_PCOD9430064
_publ_section_title
;
Structure prediction by ZEFSAII (Michael W. Deem and Ramdas Pophale) SiO2 
 PCOD9430064
Probable space group: P C C N
;
_chemical_formula_sum "Si O2"
_cell_formula_units_Z 48
_cell_length_a 7.548810
_cell_length_b 18.906373
_cell_length_c 16.591802
_cell_angle_alpha 90.000000
_cell_angle_beta 90.000000
_cell_angle_gamma 90.000000
_cell_volume 2367.992228
_symmetry_space_group_name_H-M "P C C N"
_symmetry_group_IT_number 56
_symmetry_cell_setting 'orthorhombic'
loop_
_space_group_symop_operation_xyz
x,y,z
1/2-x,1/2-y,z
1/2+x,-y,1/2-z
-x,1/2+y,1/2-z
-x,-y,-z
1/2+x,1/2+y,-z
1/2-x,y,1/2+z
x,1/2-y,1/2+z
loop_
_atom_site_type_symbol
_atom_site_label
_atom_site_fract_x
_atom_site_fract_y
_atom_site_fract_z
Si Si1 0.043767 0.171282 0.327013
Si Si2 0.071400 0.457629 0.924447
Si Si3 0.446884 0.081530 0.492723
Si Si4 0.971702 0.951761 0.276180
Si Si5 0.432785 0.417712 0.175414
Si Si6 0.522368 0.668546 0.158216
O O1 0.971960 0.110486 0.387066
O O2 0.012085 0.142789 0.237481
O O3 0.972412 0.249454 0.340226
O O4 0.260205 0.170420 0.335440
O O5 0.080032 0.512260 0.849223
O O6 0.248882 0.424799 0.960020
O O7 0.000000 0.500000 0.000000
O O8 0.461586 0.106659 0.584392
O O9 0.535171 0.129808 0.424372
O O10 0.500000 0.000000 0.500000
O O11 0.775355 0.936553 0.310659
O O12 0.037869 0.880099 0.233433
O O13 0.970253 0.010436 0.204834
#
# Coordination Sequence:
#
# PCOD9430064 Si02
#       6
#     8   8   8   8   8   8
#     4   8  18  33  51  76 110 135 173 223 269 315
#     4  10  19  34  53  80 106 136 178 218 267 315
#     4  11  20  33  55  84 107 138 180 227 265 314
#     4  10  19  33  55  76 108 141 177 219 268 324
#     4  10  19  33  54  81 105 141 179 218 272 320
#     4   9  17  34  51  78 107 137 175 224 267 311
#
# _framework density 20.270336
#
# number of rings (size 3 to 8) (size 9 to 14) (size 15 to 20)
#    0.000    2.333    3.333    1.000    0.000    0.000 
#    3.000    3.333    0.000    9.000    0.000    0.000 
#    0.000    0.000    0.000    0.000    0.000    0.000 
#
# Total GULP energy -267458.177447 kJ/mol
# GULP energy per Si atom -5572.045363 kJ/mol
# Density = 2.022420 g / cm^3
# Si number density = 20.270336 Si / 1000 Ang^3
#
#
#
# Elastic Constant Matrix: (Units=GPa)
#
#
# Indices 1 2 3 4 5 6 
#
# 1 19.3340 -7.2256 8.3985 0.0000 0.0000 0.0000
# 2 -7.2256 163.2098 93.7265 0.0000 0.0000 0.0000
# 3 8.3985 93.7265 164.3769 0.0000 0.0000 0.0000
# 4 0.0000 0.0000 0.0000 27.7738 0.0000 0.0000
# 5 0.0000 0.0000 0.0000 0.0000 14.8969 0.0000
# 6 0.0000 0.0000 0.0000 0.0000 0.0000 14.8823
#
#
#
# Elastic Compliance Matrix: (Units=1/GPa)
#
#
# Indices 1 2 3 4 5 6 
#
# 1 0.056851 0.006222 -0.006453 0.000000 0.000000 0.000000
# 2 0.006222 0.009791 -0.005901 0.000000 0.000000 0.000000
# 3 -0.006453 -0.005901 0.009778 0.000000 0.000000 0.000000
# 4 0.000000 0.000000 0.000000 0.036005 0.000000 0.000000
# 5 0.000000 0.000000 0.000000 0.000000 0.067128 0.000000
# 6 0.000000 0.000000 0.000000 0.000000 0.000000 0.067194
#
#
# Mechanical properties :
#
#
# Convention : Reuss Voigt Hill
#
# Bulk Modulus (GPa) = 15.58658 59.63551 37.61104
# Shear Modulus (GPa) = 17.83201 28.31204 23.07202
#
# Velocity S-wave (km/s) = 2.96921 3.74133 3.37741
# Velocity P-wave (km/s) = 4.41146 6.93883 5.81413
#
# Compressibility (1/GPa) = 0.06415777
#
# Stress axis : x y z
#
# Youngs Moduli (GPa) = 17.58992 102.13245 102.27189
#
# Poissons Ratio (x) = -0.63551 0.65993
# Poissons Ratio (y) = -0.10945 0.60349
# Poissons Ratio (z) = 0.11350 0.60266
#
# Static dielectric constant tensor:
#      x y z
#    x 1.768290 0.000000 0.000000 
#    y 0.000000 1.752080 0.000000 
#    z 0.000000 0.000000 1.720290 
# 
# From -- ./inp_files/10781.got.cif
#   From: 2010.05.17/outbox.cif.g08.bks.cpg/sg56_6_cif.got.tgz:10781.got - 2010.06.03 13:42:01.
