data_PCOD9430045
_publ_section_title
;
Structure prediction by ZEFSAII (Michael W. Deem and Ramdas Pophale) SiO2 
 PCOD9430045
Probable space group: P C C N
;
_chemical_formula_sum "Si O2"
_cell_formula_units_Z 56
_cell_length_a 31.290328
_cell_length_b 15.058930
_cell_length_c 5.247067
_cell_angle_alpha 90.000000
_cell_angle_beta 90.000000
_cell_angle_gamma 90.000000
_cell_volume 2472.411984
_symmetry_space_group_name_H-M "P C C N"
_symmetry_group_IT_number 56
_symmetry_cell_setting 'orthorhombic'
loop_
_space_group_symop_operation_xyz
x,y,z
1/2-x,1/2-y,z
1/2+x,-y,1/2-z
-x,1/2+y,1/2-z
-x,-y,-z
1/2+x,1/2+y,-z
1/2-x,y,1/2+z
x,1/2-y,1/2+z
loop_
_atom_site_type_symbol
_atom_site_label
_atom_site_fract_x
_atom_site_fract_y
_atom_site_fract_z
Si Si1 0.660912 0.728718 0.856155
Si Si2 0.230027 0.504443 0.997397
Si Si3 0.028756 0.495057 0.250167
Si Si4 0.356793 0.472670 0.185073
Si Si5 0.385917 0.565929 0.666512
Si Si6 0.307670 0.691335 0.583154
Si Si7 0.067634 0.301413 0.176032
O O1 0.686595 0.744888 0.602112
O O2 0.641394 0.631264 0.863498
O O3 0.619419 0.793235 0.841037
O O4 0.265189 0.472249 0.789603
O O5 0.187820 0.485705 0.833635
O O6 0.225410 0.610313 0.046112
O O7 0.064902 0.571952 0.248868
O O8 0.053033 0.400020 0.243010
O O9 0.000000 0.500000 0.500000
O O10 0.000000 0.500000 0.000000
O O11 0.388308 0.507808 0.405254
O O12 0.362982 0.522501 0.916402
O O13 0.355416 0.647885 0.591987
O O14 0.302795 0.756526 0.345644
O O15 0.053007 0.235344 0.402057
#
# Coordination Sequence:
#
# PCOD9430045 Si02
#       7
#     8   8   8   8   8   8   8
#     4  10  19  32  58  91 114 146 199 258 302 348
#     4  11  23  39  62  94 129 165 201 251 320 380
#     4  12  25  41  62  93 129 167 210 267 336 396
#     4  11  21  39  66  93 123 163 212 257 311 385
#     4  11  22  41  63  86 122 169 216 264 316 384
#     4  11  23  40  62  90 123 166 219 266 309 373
#     4  10  19  36  59  86 116 148 199 261 308 360
#
# _framework density 22.649946
#
# number of rings (size 3 to 8) (size 9 to 14) (size 15 to 20)
#    0.000    1.143    0.000   10.286    0.000    1.714 
#    0.000    4.286    0.000    2.571    0.000    0.000 
#    0.000    0.000    0.000    0.000    0.000    0.000 
#
# Total GULP energy -312667.817464 kJ/mol
# GULP energy per Si atom -5583.353883 kJ/mol
# Density = 2.259839 g / cm^3
# Si number density = 22.649946 Si / 1000 Ang^3
#
#
#
# Elastic Constant Matrix: (Units=GPa)
#
#
# Indices 1 2 3 4 5 6 
#
# 1 58.2956 -10.9461 30.9580 0.0000 0.0000 0.0000
# 2 -10.9461 49.3440 25.0586 0.0000 0.0000 0.0000
# 3 30.9580 25.0586 178.7388 0.0000 0.0000 0.0000
# 4 0.0000 0.0000 0.0000 31.3072 0.0000 0.0000
# 5 0.0000 0.0000 0.0000 0.0000 36.1577 0.0000
# 6 0.0000 0.0000 0.0000 0.0000 0.0000 24.7678
#
#
#
# Elastic Compliance Matrix: (Units=1/GPa)
#
#
# Indices 1 2 3 4 5 6 
#
# 1 0.020905 0.006973 -0.004598 0.000000 0.000000 0.000000
# 2 0.006973 0.024145 -0.004593 0.000000 0.000000 0.000000
# 3 -0.004598 -0.004593 0.007035 0.000000 0.000000 0.000000
# 4 0.000000 0.000000 0.000000 0.031942 0.000000 0.000000
# 5 0.000000 0.000000 0.000000 0.000000 0.027657 0.000000
# 6 0.000000 0.000000 0.000000 0.000000 0.000000 0.040375
#
#
# Mechanical properties :
#
#
# Convention : Reuss Voigt Hill
#
# Bulk Modulus (GPa) = 20.98712 41.83551 31.41132
# Shear Modulus (GPa) = 29.00600 34.53372 31.76986
#
# Velocity S-wave (km/s) = 3.58246 3.90894 3.74925
# Velocity P-wave (km/s) = 5.13790 6.23568 5.71321
#
# Compressibility (1/GPa) = 0.04764828
#
# Stress axis : x y z
#
# Youngs Moduli (GPa) = 47.83510 41.41650 142.14455
#
# Poissons Ratio (x) = -0.28878 0.65363
# Poissons Ratio (y) = -0.33354 0.65283
# Poissons Ratio (z) = 0.21996 0.19021
#
# Static dielectric constant tensor:
#      x y z
#    x -212.029360 0.000000 0.000000 
#    y 0.000000 1.883340 0.000000 
#    z 0.000000 0.000000 1.951480 
# 
# From -- ./inp_files/1340.got.cif
#   From: 2010.05.17/outbox.cif.g08.bks.cpg/sg56_1_cif.got.tgz:1340.got - 2010.06.03 13:42:01.
