data_PCOD9430682
_publ_section_title
;
Structure prediction by ZEFSAII (Michael W. Deem and Ramdas Pophale) SiO2 
 PCOD9430682
Probable space group: P C C N
;
_chemical_formula_sum "Si O2"
_cell_formula_units_Z 60
_cell_length_a 28.615801
_cell_length_b 5.141121
_cell_length_c 17.337305
_cell_angle_alpha 90.000000
_cell_angle_beta 90.000000
_cell_angle_gamma 90.000000
_cell_volume 2550.617422
_symmetry_space_group_name_H-M "P C C N"
_symmetry_group_IT_number 56
_symmetry_cell_setting 'orthorhombic'
loop_
_space_group_symop_operation_xyz
x,y,z
1/2-x,1/2-y,z
1/2+x,-y,1/2-z
-x,1/2+y,1/2-z
-x,-y,-z
1/2+x,1/2+y,-z
1/2-x,y,1/2+z
x,1/2-y,1/2+z
loop_
_atom_site_type_symbol
_atom_site_label
_atom_site_fract_x
_atom_site_fract_y
_atom_site_fract_z
Si Si1 0.499714 0.729733 0.699605
Si Si2 0.905751 0.242958 0.896383
Si Si3 0.187595 0.850295 0.844661
Si Si4 0.378682 0.235616 0.515774
Si Si5 0.750000 0.750000 0.757090
Si Si6 0.602144 0.676595 0.156632
Si Si7 0.279074 0.513661 0.011192
Si Si8 0.161111 0.470122 0.721787
O O1 0.510091 0.447342 0.735486
O O2 0.454666 0.710030 0.645969
O O3 0.546814 0.830354 0.658957
O O4 0.888682 0.503091 0.937993
O O5 0.866605 0.164195 0.832940
O O6 0.911862 0.999198 0.954895
O O7 0.188000 0.593780 0.794980
O O8 0.218800 0.056879 0.796926
O O9 0.132440 0.915323 0.846092
O O10 0.205770 0.848290 0.930495
O O11 0.382605 0.300725 0.425068
O O12 0.329015 0.105434 0.534922
O O13 0.707789 0.656536 0.813645
O O14 0.621321 0.798936 0.236641
O O15 0.250000 0.250000 0.997424
O O16 0.250000 0.750000 0.051989
#
# Coordination Sequence:
#
# PCOD9430682 Si02
#       8
#     8   8   8   8   4   8   8   8
#     4  12  25  46  78 112 138 186 246 305 366 433
#     4  12  27  48  71 102 152 189 237 307 368 431
#     4  10  21  37  67 105 139 175 243 304 351 410
#     4  11  28  47  69 105 150 191 234 298 367 433
#     4  10  20  36  62 106 134 176 238 292 358 418
#     4  10  25  43  74 105 140 188 246 293 360 437
#     4  11  22  41  70  99 139 190 242 292 348 432
#     4  11  23  42  71 101 139 192 237 304 355 431
#
# _framework density 23.523717999999999
#
# number of rings (size 3 to 8) (size 9 to 14) (size 15 to 20)
#    0.000    1.067    2.000    3.600   11.200    1.067 
#    1.200    1.333    0.000    0.000    0.000    0.000 
#    0.000    0.000    0.000    0.000    0.000    0.000 
#
# Total GULP energy -334967.057702 kJ/mol
# GULP energy per Si atom -5582.784295 kJ/mol
# Density = 2.347018 g / cm^3
# Si number density = 23.523718 Si / 1000 Ang^3
#
#
#
# Elastic Constant Matrix: (Units=GPa)
#
#
# Indices 1 2 3 4 5 6 
#
# 1 164.0385 17.7870 38.4738 0.0000 0.0000 0.0000
# 2 17.7870 82.1803 16.7387 0.0000 0.0000 0.0000
# 3 38.4738 16.7387 66.7373 0.0000 0.0000 0.0000
# 4 0.0000 0.0000 0.0000 27.5100 0.0000 0.0000
# 5 0.0000 0.0000 0.0000 0.0000 -11.0075 0.0000
# 6 0.0000 0.0000 0.0000 0.0000 0.0000 22.8475
#
#
#
# Elastic Compliance Matrix: (Units=1/GPa)
#
#
# Indices 1 2 3 4 5 6 
#
# 1 0.007092 -0.000740 -0.003903 0.000000 0.000000 0.000000
# 2 -0.000740 0.012901 -0.002809 0.000000 0.000000 0.000000
# 3 -0.003903 -0.002809 0.017939 0.000000 0.000000 0.000000
# 4 0.000000 0.000000 0.000000 0.036350 0.000000 0.000000
# 5 0.000000 0.000000 0.000000 0.000000 -0.090847 0.000000
# 6 0.000000 0.000000 0.000000 0.000000 0.000000 0.043768
#
#
# Mechanical properties :
#
#
# Convention : Reuss Voigt Hill
#
# Bulk Modulus (GPa) = 43.42661 50.99503 47.21082
# Shear Modulus (GPa) = 100.43826 23.86712 62.15269
#
# Velocity S-wave (km/s) = 6.54135 3.18873 5.14574
# Velocity P-wave (km/s) = 8.69214 5.93991 7.44432
#
# Compressibility (1/GPa) = 0.02302735
#
# Stress axis : x y z
#
# Youngs Moduli (GPa) = 141.00938 77.51525 55.74575
#
# Poissons Ratio (x) = 0.05736 0.21756
# Poissons Ratio (y) = 0.10435 0.15659
# Poissons Ratio (z) = 0.55032 0.21775
#
# Static dielectric constant tensor:
#      x y z
#    x 2.675470 0.000000 0.000000 
#    y 0.000000 1.961270 0.000000 
#    z 0.000000 0.000000 1.985050 
# 
# From -- ./inp_files/17032.got.cif
#   From: 2010.05.17/outbox.cif.g08.bks.cpg/sg56_9_cif.got.tgz:17032.got - 2010.06.03 13:42:01.
