data_PCOD9430386
_publ_section_title
;
Structure prediction by ZEFSAII (Michael W. Deem and Ramdas Pophale) SiO2 
 PCOD9430386
Probable space group: P C C N
;
_chemical_formula_sum "Si O2"
_cell_formula_units_Z 44
_cell_length_a 8.948405
_cell_length_b 14.460593
_cell_length_c 14.073723
_cell_angle_alpha 90.000000
_cell_angle_beta 90.000000
_cell_angle_gamma 90.000000
_cell_volume 1821.129098
_symmetry_space_group_name_H-M "P C C N"
_symmetry_group_IT_number 56
_symmetry_cell_setting 'orthorhombic'
loop_
_space_group_symop_operation_xyz
x,y,z
1/2-x,1/2-y,z
1/2+x,-y,1/2-z
-x,1/2+y,1/2-z
-x,-y,-z
1/2+x,1/2+y,-z
1/2-x,y,1/2+z
x,1/2-y,1/2+z
loop_
_atom_site_type_symbol
_atom_site_label
_atom_site_fract_x
_atom_site_fract_y
_atom_site_fract_z
Si Si1 0.426886 0.138382 0.833392
Si Si2 0.905382 0.592144 0.366328
Si Si3 0.746247 0.048272 0.620053
Si Si4 0.250000 0.750000 0.885425
Si Si5 0.750720 0.415343 0.396019
Si Si6 0.989234 0.796540 0.034650
O O1 0.401587 0.160982 0.722619
O O2 0.602894 0.123493 0.850354
O O3 0.339008 0.042340 0.852480
O O4 0.401199 0.219872 0.907854
O O5 0.067130 0.540827 0.367529
O O6 0.888709 0.636556 0.470068
O O7 0.784162 0.513861 0.350887
O O8 0.775719 0.150979 0.665326
O O9 0.775664 0.065718 0.508128
O O10 0.105141 0.759828 0.953899
O O11 0.897921 0.351340 0.395569
#
# Coordination Sequence:
#
# PCOD9430386 Si02
#       6
#     8   8   8   4   8   8
#     4  12  21  38  68 101 117 169 227 264 310 387
#     4  10  23  41  61  93 135 167 204 270 338 371
#     4  10  20  38  67  90 129 164 214 260 325 383
#     4   8  16  36  60  90 118 160 208 258 304 370
#     4  10  20  41  62  90 128 172 207 268 325 382
#     4  10  19  40  61  88 130 170 209 259 317 385
#
# _framework density 24.160836
#
# number of rings (size 3 to 8) (size 9 to 14) (size 15 to 20)
#    0.000    2.182    3.636    3.818    0.000    0.000 
#   19.636    3.636    0.000    4.364    0.000    0.000 
#    0.000    0.000    0.000    0.000    0.000    0.000 
#
# Total GULP energy -245730.682477 kJ/mol
# GULP energy per Si atom -5584.788238 kJ/mol
# Density = 2.410584 g / cm^3
# Si number density = 24.160836 Si / 1000 Ang^3
#
#
#
# Elastic Constant Matrix: (Units=GPa)
#
#
# Indices 1 2 3 4 5 6 
#
# 1 50.9823 54.8380 29.2965 0.0000 0.0000 0.0000
# 2 54.8380 150.8828 48.3498 0.0000 0.0000 0.0000
# 3 29.2965 48.3498 95.6255 0.0000 0.0000 0.0000
# 4 0.0000 0.0000 0.0000 12.1481 0.0000 0.0000
# 5 0.0000 0.0000 0.0000 0.0000 5.5553 0.0000
# 6 0.0000 0.0000 0.0000 0.0000 0.0000 38.9233
#
#
#
# Elastic Compliance Matrix: (Units=1/GPa)
#
#
# Indices 1 2 3 4 5 6 
#
# 1 0.034087 -0.010791 -0.004987 0.000000 0.000000 0.000000
# 2 -0.010791 0.011325 -0.002420 0.000000 0.000000 0.000000
# 3 -0.004987 -0.002420 0.013209 0.000000 0.000000 0.000000
# 4 0.000000 0.000000 0.000000 0.082317 0.000000 0.000000
# 5 0.000000 0.000000 0.000000 0.000000 0.180007 0.000000
# 6 0.000000 0.000000 0.000000 0.000000 0.000000 0.025692
#
#
# Mechanical properties :
#
#
# Convention : Reuss Voigt Hill
#
# Bulk Modulus (GPa) = 44.99424 62.49547 53.74486
# Shear Modulus (GPa) = 12.80597 22.32577 17.56587
#
# Velocity S-wave (km/s) = 2.30474 3.04311 2.69929
# Velocity P-wave (km/s) = 5.07402 6.18627 5.65754
#
# Compressibility (1/GPa) = 0.02222507
#
# Stress axis : x y z
#
# Youngs Moduli (GPa) = 29.33627 88.29924 75.70546
#
# Poissons Ratio (x) = 0.95283 0.37756
# Poissons Ratio (y) = 0.31656 0.18322
# Poissons Ratio (z) = 0.14631 0.21370
#
# Static dielectric constant tensor:
#      x y z
#    x 1.887380 0.000000 0.000000 
#    y 0.000000 2.011820 0.000000 
#    z 0.000000 0.000000 1.942490 
# 
# From -- ./inp_files/11549.got.cif
#   From: 2010.05.17/outbox.cif.g08.bks.cpg/sg56_6_cif.got.tgz:11549.got - 2010.06.03 13:42:01.
