data_PCOD9430094
_publ_section_title
;
Structure prediction by ZEFSAII (Michael W. Deem and Ramdas Pophale) SiO2 
 PCOD9430094
Probable space group: P C C N
;
_chemical_formula_sum "Si O2"
_cell_formula_units_Z 60
_cell_length_a 14.474865
_cell_length_b 8.315276
_cell_length_c 24.618566
_cell_angle_alpha 90.000000
_cell_angle_beta 90.000000
_cell_angle_gamma 90.000000
_cell_volume 2963.152090
_symmetry_space_group_name_H-M "P C C N"
_symmetry_group_IT_number 56
_symmetry_cell_setting 'orthorhombic'
loop_
_space_group_symop_operation_xyz
x,y,z
1/2-x,1/2-y,z
1/2+x,-y,1/2-z
-x,1/2+y,1/2-z
-x,-y,-z
1/2+x,1/2+y,-z
1/2-x,y,1/2+z
x,1/2-y,1/2+z
loop_
_atom_site_type_symbol
_atom_site_label
_atom_site_fract_x
_atom_site_fract_y
_atom_site_fract_z
Si Si1 0.054246 0.159894 0.398836
Si Si2 0.278077 0.952119 0.857625
Si Si3 0.338804 0.842915 0.461196
Si Si4 0.058568 0.148031 0.785388
Si Si5 0.018035 0.167550 0.583662
Si Si6 0.750000 0.750000 0.719924
Si Si7 0.353304 0.184676 0.499516
Si Si8 0.068300 0.732294 0.305750
O O1 0.044701 0.261332 0.343386
O O2 0.079783 0.268021 0.449661
O O3 0.142457 0.043470 0.391146
O O4 0.977538 0.026300 0.412459
O O5 0.200386 0.906783 0.902192
O O6 0.164384 0.683575 0.824409
O O7 0.247148 0.090895 0.817088
O O8 0.250000 0.750000 0.483218
O O9 0.428468 0.734736 0.449988
O O10 0.356841 0.993031 0.499373
O O11 0.147434 0.233551 0.755670
O O12 0.971339 0.178809 0.746936
O O13 0.072379 0.957408 0.793885
O O14 0.106304 0.237342 0.553562
O O15 0.000152 0.234145 0.643910
O O16 0.250000 0.250000 0.488886
#
# Coordination Sequence:
#
# PCOD9430094 Si02
#       8
#     8   8   8   8   8   4   8   8
#     4  10  20  36  61  89 121 160 211 265 315 383
#     4  10  19  33  60  86 126 154 207 265 314 368
#     4  12  20  35  59  93 118 159 208 274 311 373
#     4  11  23  37  65  94 127 165 210 268 327 394
#     4  11  23  38  60  89 130 164 211 266 326 382
#     4  10  20  32  54  94 116 160 204 256 316 378
#     4  12  23  39  59  89 127 171 217 263 327 385
#     4  11  22  41  60  93 130 170 211 268 334 394
#
# _framework density 20.248708000000001
#
# number of rings (size 3 to 8) (size 9 to 14) (size 15 to 20)
#    0.000    1.067    4.000    6.400    0.933    0.000 
#    1.200    0.000    0.000    0.000    0.000    0.000 
#    0.000    0.000    0.000    0.000    0.000    0.000 
#
# Total GULP energy -334753.813408 kJ/mol
# GULP energy per Si atom -5579.230223 kJ/mol
# Density = 2.020262 g / cm^3
# Si number density = 20.248708 Si / 1000 Ang^3
#
#
#
# Elastic Constant Matrix: (Units=GPa)
#
#
# Indices 1 2 3 4 5 6 
#
# 1 50.5566 25.3792 32.5368 0.0000 0.0000 0.0000
# 2 25.3792 128.0946 26.2299 0.0000 0.0000 0.0000
# 3 32.5368 26.2299 71.7484 0.0000 0.0000 0.0000
# 4 0.0000 0.0000 0.0000 23.2382 0.0000 0.0000
# 5 0.0000 0.0000 0.0000 0.0000 16.5040 0.0000
# 6 0.0000 0.0000 0.0000 0.0000 0.0000 16.4798
#
#
#
# Elastic Compliance Matrix: (Units=1/GPa)
#
#
# Indices 1 2 3 4 5 6 
#
# 1 0.029182 -0.003321 -0.012020 0.000000 0.000000 0.000000
# 2 -0.003321 0.008816 -0.001717 0.000000 0.000000 0.000000
# 3 -0.012020 -0.001717 0.020016 0.000000 0.000000 0.000000
# 4 0.000000 0.000000 0.000000 0.043033 0.000000 0.000000
# 5 0.000000 0.000000 0.000000 0.000000 0.060591 0.000000
# 6 0.000000 0.000000 0.000000 0.000000 0.000000 0.060680
#
#
# Mechanical properties :
#
#
# Convention : Reuss Voigt Hill
#
# Bulk Modulus (GPa) = 41.84174 46.52125 44.18150
# Shear Modulus (GPa) = 18.91072 22.32801 20.61936
#
# Velocity S-wave (km/s) = 3.05933 3.32428 3.19455
# Velocity P-wave (km/s) = 5.76091 6.14485 5.95598
#
# Compressibility (1/GPa) = 0.02389958
#
# Stress axis : x y z
#
# Youngs Moduli (GPa) = 34.26734 113.42673 49.95961
#
# Poissons Ratio (x) = 0.37664 0.60050
# Poissons Ratio (y) = 0.11379 0.08579
# Poissons Ratio (z) = 0.41189 0.19478
#
# Static dielectric constant tensor:
#      x y z
#    x 1.820480 0.000000 0.000000 
#    y 0.000000 1.811360 0.000000 
#    z 0.000000 0.000000 1.694680 
# 
# From -- ./inp_files/22339.got.cif
#   From: 2010.05.17/outbox.cif.g08.bks.cpg/sg56_12_cif.got.tgz:22339.got - 2010.06.03 13:42:01.
