data_PCOD9430608
_publ_section_title
;
Structure prediction by ZEFSAII (Michael W. Deem and Ramdas Pophale) SiO2 
 PCOD9430608
Probable space group: P C C N
;
_chemical_formula_sum "Si O2"
_cell_formula_units_Z 64
_cell_length_a 14.047518
_cell_length_b 8.761290
_cell_length_c 24.503882
_cell_angle_alpha 90.000000
_cell_angle_beta 90.000000
_cell_angle_gamma 90.000000
_cell_volume 3015.800060
_symmetry_space_group_name_H-M "P C C N"
_symmetry_group_IT_number 56
_symmetry_cell_setting 'orthorhombic'
loop_
_space_group_symop_operation_xyz
x,y,z
1/2-x,1/2-y,z
1/2+x,-y,1/2-z
-x,1/2+y,1/2-z
-x,-y,-z
1/2+x,1/2+y,-z
1/2-x,y,1/2+z
x,1/2-y,1/2+z
loop_
_atom_site_type_symbol
_atom_site_label
_atom_site_fract_x
_atom_site_fract_y
_atom_site_fract_z
Si Si1 0.544453 0.410779 0.267674
Si Si2 0.152154 0.702191 0.512333
Si Si3 0.112097 0.108801 0.881769
Si Si4 0.577993 0.078109 0.064020
Si Si5 0.359491 0.233714 0.264201
Si Si6 0.239669 0.408028 0.486494
Si Si7 0.558621 0.170903 0.893284
Si Si8 0.361964 0.727743 0.835490
O O1 0.431176 0.378175 0.257810
O O2 0.585909 0.581112 0.257692
O O3 0.568775 0.366404 0.329809
O O4 0.593392 0.296701 0.224081
O O5 0.250000 0.750000 0.481396
O O6 0.069736 0.771928 0.474406
O O7 0.169512 0.524433 0.517095
O O8 0.147662 0.783800 0.570242
O O9 0.145527 0.201768 0.828852
O O10 0.182938 0.126853 0.931275
O O11 0.011459 0.182967 0.897088
O O12 0.112116 0.931223 0.865700
O O13 0.605682 0.136869 0.124491
O O14 0.659412 0.978169 0.033297
O O15 0.489044 0.970955 0.075165
O O16 0.250000 0.250000 0.244039
O O17 0.250000 0.250000 0.517828
O O18 0.250000 0.750000 0.829388
#
# Coordination Sequence:
#
# PCOD9430608 Si02
#       8
#     8   8   8   8   8   8   8   8
#     4  10  24  39  61  96 127 173 220 257 325 407
#     4  10  23  41  58  86 124 160 209 255 309 381
#     4  10  20  35  59  92 122 151 202 258 327 365
#     4  11  20  36  65  90 117 158 207 264 316 370
#     4  10  22  40  63  93 134 169 216 280 323 379
#     4  11  19  36  60  94 116 149 201 259 319 370
#     4  11  23  39  59  87 126 167 201 256 311 389
#     4  11  20  37  63  94 129 160 208 276 325 371
#
# _framework density 21.221567
#
# number of rings (size 3 to 8) (size 9 to 14) (size 15 to 20)
#    0.000    1.500    3.750    1.875    1.750    3.000 
#    0.000    2.500    0.000    3.000    0.000    2.625 
#    0.000    0.000    0.000    0.000    0.000    0.000 
#
# Total GULP energy -356852.390976 kJ/mol
# GULP energy per Si atom -5575.818609 kJ/mol
# Density = 2.117327 g / cm^3
# Si number density = 21.221567 Si / 1000 Ang^3
#
#
#
# Elastic Constant Matrix: (Units=GPa)
#
#
# Indices 1 2 3 4 5 6 
#
# 1 95.6103 60.1518 36.5040 0.0000 0.0000 0.0000
# 2 60.1518 110.6190 20.3718 0.0000 0.0000 0.0000
# 3 36.5040 20.3718 73.5937 0.0000 0.0000 0.0000
# 4 0.0000 0.0000 0.0000 -2.9713 0.0000 0.0000
# 5 0.0000 0.0000 0.0000 0.0000 35.5194 0.0000
# 6 0.0000 0.0000 0.0000 0.0000 0.0000 23.9919
#
#
#
# Elastic Compliance Matrix: (Units=1/GPa)
#
#
# Indices 1 2 3 4 5 6 
#
# 1 0.018641 -0.008887 -0.006786 0.000000 0.000000 0.000000
# 2 -0.008887 0.013762 0.000598 0.000000 0.000000 0.000000
# 3 -0.006786 0.000598 0.016789 0.000000 0.000000 0.000000
# 4 0.000000 0.000000 0.000000 -0.336553 0.000000 0.000000
# 5 0.000000 0.000000 0.000000 0.000000 0.028154 0.000000
# 6 0.000000 0.000000 0.000000 0.000000 0.000000 0.041681
#
#
# Mechanical properties :
#
#
# Convention : Reuss Voigt Hill
#
# Bulk Modulus (GPa) = 52.51398 57.09758 54.80578
# Shear Modulus (GPa) = -27.61976 22.16102 -2.72937
#
# Velocity S-wave (km/s) = -3.61154 3.23502 -1.13531
# Velocity P-wave (km/s) = 2.72183 6.39669 4.91559
#
# Compressibility (1/GPa) = 0.01904255
#
# Stress axis : x y z
#
# Youngs Moduli (GPa) = 53.64467 72.66257 59.56399
#
# Poissons Ratio (x) = 0.64574 0.40423
# Poissons Ratio (y) = 0.47673 -0.03565
# Poissons Ratio (z) = 0.36406 -0.04348
#
# Static dielectric constant tensor:
#      x y z
#    x 2.190710 0.000000 0.000000 
#    y 0.000000 1.929650 0.000000 
#    z 0.000000 0.000000 1.769230 
# 
# From -- ./inp_files/21173.got.cif
#   From: 2010.05.17/outbox.cif.g08.bks.cpg/sg56_11_cif.got.tgz:21173.got - 2010.06.03 13:42:01.
