data_PCOD9430668
_publ_section_title
;
Structure prediction by ZEFSAII (Michael W. Deem and Ramdas Pophale) SiO2 
 PCOD9430668
Probable space group: P C C N
;
_chemical_formula_sum "Si O2"
_cell_formula_units_Z 44
_cell_length_a 5.225472
_cell_length_b 23.235696
_cell_length_c 16.000085
_cell_angle_alpha 90.000000
_cell_angle_beta 90.000000
_cell_angle_gamma 90.000000
_cell_volume 1942.689982
_symmetry_space_group_name_H-M "P C C N"
_symmetry_group_IT_number 56
_symmetry_cell_setting 'orthorhombic'
loop_
_space_group_symop_operation_xyz
x,y,z
1/2-x,1/2-y,z
1/2+x,-y,1/2-z
-x,1/2+y,1/2-z
-x,-y,-z
1/2+x,1/2+y,-z
1/2-x,y,1/2+z
x,1/2-y,1/2+z
loop_
_atom_site_type_symbol
_atom_site_label
_atom_site_fract_x
_atom_site_fract_y
_atom_site_fract_z
Si Si1 0.771972 0.878877 0.679750
Si Si2 0.097000 0.798925 0.383987
Si Si3 0.627236 0.047244 0.560119
Si Si4 0.234483 0.589800 0.779834
Si Si5 0.250000 0.250000 0.257442
Si Si6 0.851969 0.610032 0.987625
O O1 0.530904 0.904405 0.730331
O O2 0.786986 0.809372 0.692994
O O3 0.752919 0.890240 0.581678
O O4 0.031434 0.905066 0.716944
O O5 0.250000 0.750000 0.431695
O O6 0.233167 0.853751 0.340942
O O7 0.976126 0.764579 0.306821
O O8 0.907632 0.827598 0.449808
O O9 0.727867 0.037297 0.654813
O O10 0.373504 0.086115 0.570313
O O11 0.880305 0.074504 0.516612
O O12 0.500000 0.000000 0.500000
#
# Coordination Sequence:
#
# PCOD9430668 Si02
#       6
#     8   8   8   8   4   8
#     4  11  22  40  59  95 138 166 211 266 334 375
#     4  10  20  37  60  89 129 174 225 249 310 393
#     4  11  23  46  71  94 122 174 230 274 336 400
#     4  10  21  40  64  88 127 174 209 263 323 397
#     4  10  20  36  60  86 130 184 214 240 316 404
#     4  11  25  40  64 102 134 164 218 292 320 382
#
# _framework density 22.649006
#
# number of rings (size 3 to 8) (size 9 to 14) (size 15 to 20)
#    0.000    1.455    1.818    4.909    2.545    0.727 
#    6.545    3.636    0.000    0.000    0.000    0.000 
#    0.000    0.000    0.000    0.000    0.000    0.000 
#
# Total GULP energy -245570.167208 kJ/mol
# GULP energy per Si atom -5581.140164 kJ/mol
# Density = 2.259746 g / cm^3
# Si number density = 22.649006 Si / 1000 Ang^3
#
#
#
# Elastic Constant Matrix: (Units=GPa)
#
#
# Indices 1 2 3 4 5 6 
#
# 1 133.9586 26.1387 12.3968 0.0000 0.0000 0.0000
# 2 26.1387 41.2360 0.9582 0.0000 0.0000 0.0000
# 3 12.3968 0.9582 75.6790 0.0000 0.0000 0.0000
# 4 0.0000 0.0000 0.0000 64.7453 0.0000 0.0000
# 5 0.0000 0.0000 0.0000 0.0000 42.2810 0.0000
# 6 0.0000 0.0000 0.0000 0.0000 0.0000 28.1971
#
#
#
# Elastic Compliance Matrix: (Units=1/GPa)
#
#
# Indices 1 2 3 4 5 6 
#
# 1 0.008654 -0.005454 -0.001349 0.000000 0.000000 0.000000
# 2 -0.005454 0.027695 0.000543 0.000000 0.000000 0.000000
# 3 -0.001349 0.000543 0.013428 0.000000 0.000000 0.000000
# 4 0.000000 0.000000 0.000000 0.015445 0.000000 0.000000
# 5 0.000000 0.000000 0.000000 0.000000 0.023651 0.000000
# 6 0.000000 0.000000 0.000000 0.000000 0.000000 0.035465
#
#
# Mechanical properties :
#
#
# Convention : Reuss Voigt Hill
#
# Bulk Modulus (GPa) = 26.84055 36.65124 31.74590
# Shear Modulus (GPa) = 33.49468 41.13667 37.31568
#
# Velocity S-wave (km/s) = 3.84977 4.26639 4.06342
# Velocity P-wave (km/s) = 5.62470 6.36293 6.00517
#
# Compressibility (1/GPa) = 0.03725705
#
# Stress axis : x y z
#
# Youngs Moduli (GPa) = 115.55266 36.10708 74.47276
#
# Poissons Ratio (x) = 0.19694 0.10043
# Poissons Ratio (y) = 0.63026 -0.04042
# Poissons Ratio (z) = 0.15583 -0.01960
#
# Static dielectric constant tensor:
#      x y z
#    x 1.861320 0.000000 0.000000 
#    y 0.000000 1.972960 0.000000 
#    z 0.000000 0.000000 1.809180 
# 
# From -- ./inp_files/9633.got.cif
#   From: 2010.05.17/outbox.cif.g08.bks.cpg/sg56_5_cif.got.tgz:9633.got - 2010.06.03 13:42:01.
