data_PCOD9430929
_publ_section_title
;
Structure prediction by ZEFSAII (Michael W. Deem and Ramdas Pophale) SiO2 
 PCOD9430929
Probable space group: P C C N
;
_chemical_formula_sum "Si O2"
_cell_formula_units_Z 36
_cell_length_a 17.397658
_cell_length_b 5.462560
_cell_length_c 18.804629
_cell_angle_alpha 90.000000
_cell_angle_beta 90.000000
_cell_angle_gamma 90.000000
_cell_volume 1787.112033
_symmetry_space_group_name_H-M "P C C N"
_symmetry_group_IT_number 56
_symmetry_cell_setting 'orthorhombic'
loop_
_space_group_symop_operation_xyz
x,y,z
1/2-x,1/2-y,z
1/2+x,-y,1/2-z
-x,1/2+y,1/2-z
-x,-y,-z
1/2+x,1/2+y,-z
1/2-x,y,1/2+z
x,1/2-y,1/2+z
loop_
_atom_site_type_symbol
_atom_site_label
_atom_site_fract_x
_atom_site_fract_y
_atom_site_fract_z
Si Si1 0.250000 0.750000 0.893402
Si Si2 0.834636 0.636389 0.679549
Si Si3 0.962625 0.667781 0.276465
Si Si4 0.620333 0.937204 0.047530
Si Si5 0.977556 0.803403 0.940054
O O1 0.315187 0.641271 0.841071
O O2 0.203056 0.565055 0.943460
O O3 0.750000 0.750000 0.683841
O O4 0.883261 0.721502 0.746332
O O5 0.878356 0.737367 0.610077
O O6 0.963653 0.611191 0.360126
O O7 0.982625 0.406374 0.239270
O O8 0.549410 0.118210 0.061942
O O9 0.599075 0.823559 0.971691
O O10 0.000000 0.000000 0.000000
#
# Coordination Sequence:
#
# PCOD9430929 Si02
#       5
#     4   8   8   8   8
#     4  10  20  38  66  88 132 172 230 278 348 414
#     4  10  22  41  64  96 131 177 230 278 346 412
#     4  12  25  43  68 100 135 180 229 283 343 407
#     4  10  20  39  60  94 123 172 216 280 332 407
#     4  11  23  39  65  94 134 170 229 280 340 404
#
# _framework density 20.144233
#
# number of rings (size 3 to 8) (size 9 to 14) (size 15 to 20)
#    0.000    1.333    2.222    4.000    6.222    0.000 
#    0.000    6.667    0.000    0.000    0.000    0.000 
#    0.000    0.000    0.000    0.000    0.000    0.000 
#
# Total GULP energy -200683.005149 kJ/mol
# GULP energy per Si atom -5574.527921 kJ/mol
# Density = 2.009838 g / cm^3
# Si number density = 20.144233 Si / 1000 Ang^3
#
#
#
# Elastic Constant Matrix: (Units=GPa)
#
#
# Indices 1 2 3 4 5 6 
#
# 1 88.1598 21.0174 43.7811 0.0000 0.0000 0.0000
# 2 21.0174 67.0854 33.5227 0.0000 0.0000 0.0000
# 3 43.7811 33.5227 147.5406 0.0000 0.0000 0.0000
# 4 0.0000 0.0000 0.0000 22.3921 0.0000 0.0000
# 5 0.0000 0.0000 0.0000 0.0000 38.8524 0.0000
# 6 0.0000 0.0000 0.0000 0.0000 0.0000 40.6286
#
#
#
# Elastic Compliance Matrix: (Units=1/GPa)
#
#
# Indices 1 2 3 4 5 6 
#
# 1 0.013678 -0.002546 -0.003480 0.000000 0.000000 0.000000
# 2 -0.002546 0.017290 -0.003173 0.000000 0.000000 0.000000
# 3 -0.003480 -0.003173 0.008531 0.000000 0.000000 0.000000
# 4 0.000000 0.000000 0.000000 0.044659 0.000000 0.000000
# 5 0.000000 0.000000 0.000000 0.000000 0.025738 0.000000
# 6 0.000000 0.000000 0.000000 0.000000 0.000000 0.024613
#
#
# Mechanical properties :
#
#
# Convention : Reuss Voigt Hill
#
# Bulk Modulus (GPa) = 47.39195 55.49202 51.44198
# Shear Modulus (GPa) = 31.26131 34.00560 32.63345
#
# Velocity S-wave (km/s) = 3.94366 4.11311 4.02928
# Velocity P-wave (km/s) = 6.65687 7.08266 6.87307
#
# Compressibility (1/GPa) = 0.02110063
#
# Stress axis : x y z
#
# Youngs Moduli (GPa) = 73.10760 57.83846 117.21321
#
# Poissons Ratio (x) = 0.14727 0.40795
# Poissons Ratio (y) = 0.18615 0.37189
# Poissons Ratio (z) = 0.25444 0.18351
#
# Static dielectric constant tensor:
#      x y z
#    x 1.719010 0.000000 0.000000 
#    y 0.000000 1.867680 0.000000 
#    z 0.000000 0.000000 1.683660 
# 
# From -- ./inp_files/16470.got.cif
#   From: 2010.05.17/outbox.cif.g08.bks.cpg/sg56_9_cif.got.tgz:16470.got - 2010.06.03 13:42:01.
