data_PCOD9430432
_publ_section_title
;
Structure prediction by ZEFSAII (Michael W. Deem and Ramdas Pophale) SiO2 
 PCOD9430432
Probable space group: P C C N
;
_chemical_formula_sum "Si O2"
_cell_formula_units_Z 48
_cell_length_a 8.002720
_cell_length_b 27.406588
_cell_length_c 8.089170
_cell_angle_alpha 90.000000
_cell_angle_beta 90.000000
_cell_angle_gamma 90.000000
_cell_volume 1774.175410
_symmetry_space_group_name_H-M "P C C N"
_symmetry_group_IT_number 56
_symmetry_cell_setting 'orthorhombic'
loop_
_space_group_symop_operation_xyz
x,y,z
1/2-x,1/2-y,z
1/2+x,-y,1/2-z
-x,1/2+y,1/2-z
-x,-y,-z
1/2+x,1/2+y,-z
1/2-x,y,1/2+z
x,1/2-y,1/2+z
loop_
_atom_site_type_symbol
_atom_site_label
_atom_site_fract_x
_atom_site_fract_y
_atom_site_fract_z
Si Si1 0.429619 0.674085 0.893590
Si Si2 0.492047 0.742006 0.145754
Si Si3 0.171239 0.183398 0.594736
Si Si4 0.461461 0.417948 0.511050
Si Si5 0.862330 0.542238 0.634222
Si Si6 0.385162 0.935209 0.328600
O O1 0.412410 0.717176 0.761090
O O2 0.634188 0.667426 0.902545
O O3 0.345979 0.621520 0.867850
O O4 0.374948 0.702220 0.057928
O O5 0.626973 0.706401 0.230290
O O6 0.594713 0.773713 0.015473
O O7 0.050988 0.138101 0.558764
O O8 0.447285 0.445328 0.688461
O O9 0.298007 0.425041 0.396025
O O10 0.595286 0.432818 0.372412
O O11 0.970608 0.552843 0.468328
O O12 0.793236 0.486942 0.646956
#
# Coordination Sequence:
#
# PCOD9430432 Si02
#       6
#     8   8   8   8   8   8
#     4  11  17  30  42  69 103 136 171 209 253 310
#     4  10  20  26  44  70 105 138 179 201 247 325
#     4  11  18  28  45  70 100 147 175 205 245 321
#     4  12  21  38  57  75 108 149 186 222 280 313
#     4  11  23  37  56  77 103 146 188 230 269 316
#     4  11  23  37  54  79 108 144 186 228 264 318
#
# _framework density 27.054821
#
# number of rings (size 3 to 8) (size 9 to 14) (size 15 to 20)
#    0.000    1.000    5.000    5.500    0.000    0.000 
#    0.000    0.000    0.000    0.000    0.000    0.000 
#    0.000    4.000    0.000    0.167    0.000    0.000 
#
# Total GULP energy -267898.390617 kJ/mol
# GULP energy per Si atom -5581.216471 kJ/mol
# Density = 2.699324 g / cm^3
# Si number density = 27.054821 Si / 1000 Ang^3
#
#
#
# Elastic Constant Matrix: (Units=GPa)
#
#
# Indices 1 2 3 4 5 6 
#
# 1 49.5901 19.6095 31.0684 0.0000 0.0000 0.0000
# 2 19.6095 199.4887 47.4642 0.0000 0.0000 0.0000
# 3 31.0684 47.4642 151.2219 0.0000 0.0000 0.0000
# 4 0.0000 0.0000 0.0000 38.6973 0.0000 0.0000
# 5 0.0000 0.0000 0.0000 0.0000 15.2955 0.0000
# 6 0.0000 0.0000 0.0000 0.0000 0.0000 4.6617
#
#
#
# Elastic Compliance Matrix: (Units=1/GPa)
#
#
# Indices 1 2 3 4 5 6 
#
# 1 0.023430 -0.001251 -0.004421 0.000000 0.000000 0.000000
# 2 -0.001251 0.005484 -0.001464 0.000000 0.000000 0.000000
# 3 -0.004421 -0.001464 0.007981 0.000000 0.000000 0.000000
# 4 0.000000 0.000000 0.000000 0.025842 0.000000 0.000000
# 5 0.000000 0.000000 0.000000 0.000000 0.065379 0.000000
# 6 0.000000 0.000000 0.000000 0.000000 0.000000 0.214514
#
#
# Mechanical properties :
#
#
# Convention : Reuss Voigt Hill
#
# Bulk Modulus (GPa) = 44.20512 66.28720 55.24616
# Shear Modulus (GPa) = 13.71959 31.87481 22.79720
#
# Velocity S-wave (km/s) = 2.25434 3.43615 2.90596
# Velocity P-wave (km/s) = 4.81151 6.34800 5.63239
#
# Compressibility (1/GPa) = 0.02262181
#
# Stress axis : x y z
#
# Youngs Moduli (GPa) = 42.68071 182.34185 125.30295
#
# Poissons Ratio (x) = 0.22816 0.55395
# Poissons Ratio (y) = 0.05340 0.18348
# Poissons Ratio (z) = 0.18869 0.26700
#
# Static dielectric constant tensor:
#      x y z
#    x 2.371740 0.000000 0.000000 
#    y 0.000000 2.019400 0.000000 
#    z 0.000000 0.000000 2.198270 
# 
# From -- ./inp_files/2839.got.cif
#   From: 2010.05.17/outbox.cif.g08.bks.cpg/sg56_2_cif.got.tgz:2839.got - 2010.06.03 13:42:01.
