data_PCOD9430306
_publ_section_title
;
Structure prediction by ZEFSAII (Michael W. Deem and Ramdas Pophale) SiO2 
 PCOD9430306
Probable space group: P C C N
;
_chemical_formula_sum "Si O2"
_cell_formula_units_Z 40
_cell_length_a 8.593938
_cell_length_b 7.890286
_cell_length_c 25.242126
_cell_angle_alpha 90.000000
_cell_angle_beta 90.000000
_cell_angle_gamma 90.000000
_cell_volume 1711.633949
_symmetry_space_group_name_H-M "P C C N"
_symmetry_group_IT_number 56
_symmetry_cell_setting 'orthorhombic'
loop_
_space_group_symop_operation_xyz
x,y,z
1/2-x,1/2-y,z
1/2+x,-y,1/2-z
-x,1/2+y,1/2-z
-x,-y,-z
1/2+x,1/2+y,-z
1/2-x,y,1/2+z
x,1/2-y,1/2+z
loop_
_atom_site_type_symbol
_atom_site_label
_atom_site_fract_x
_atom_site_fract_y
_atom_site_fract_z
Si Si1 0.436373 0.252487 0.022651
Si Si2 0.972470 0.905543 0.581423
Si Si3 0.342793 0.928263 0.398979
Si Si4 0.037138 0.106565 0.200543
Si Si5 0.612299 0.003414 0.809970
O O1 0.250000 0.250000 0.022170
O O2 0.500553 0.235317 0.962973
O O3 0.473581 0.079235 0.053690
O O4 0.528213 0.393722 0.055974
O O5 0.788532 0.934978 0.589018
O O6 0.058842 0.898701 0.637379
O O7 0.250000 0.750000 0.393280
O O8 0.424596 0.968576 0.343847
O O9 0.202880 0.013683 0.196877
O O10 0.056861 0.306247 0.186913
O O11 0.965212 0.085333 0.258444
#
# Coordination Sequence:
#
# PCOD9430306 Si02
#       5
#     8   8   8   8   8
#     4  10  20  37  62  86 122 161 207 254 307 370
#     4  10  21  38  62  89 124 161 208 259 307 376
#     4  10  19  37  66  85 121 166 200 250 318 365
#     4  11  23  40  69  94 126 167 207 258 313 385
#     4  11  23  41  66  97 126 164 211 257 318 372
#
# _framework density 23.369482999999999
#
# number of rings (size 3 to 8) (size 9 to 14) (size 15 to 20)
#    0.000    1.600    4.000    2.400    0.000    0.800 
#    7.200    4.000    4.400    0.000    0.000    0.000 
#    0.000    0.000    0.000    0.000    0.000    0.000 
#
# Total GULP energy -223979.043180 kJ/mol
# GULP energy per Si atom -5599.476080 kJ/mol
# Density = 2.331629 g / cm^3
# Si number density = 23.369483 Si / 1000 Ang^3
#
#
#
# Elastic Constant Matrix: (Units=GPa)
#
#
# Indices 1 2 3 4 5 6 
#
# 1 104.6983 21.3985 69.5175 0.0000 0.0000 0.0000
# 2 21.3985 65.1203 22.9081 0.0000 0.0000 0.0000
# 3 69.5175 22.9081 226.6317 0.0000 0.0000 0.0000
# 4 0.0000 0.0000 0.0000 -13.4638 0.0000 0.0000
# 5 0.0000 0.0000 0.0000 0.0000 53.6586 0.0000
# 6 0.0000 0.0000 0.0000 0.0000 0.0000 10.0072
#
#
#
# Elastic Compliance Matrix: (Units=1/GPa)
#
#
# Indices 1 2 3 4 5 6 
#
# 1 0.012487 -0.002857 -0.003541 0.000000 0.000000 0.000000
# 2 -0.002857 0.016576 -0.000799 0.000000 0.000000 0.000000
# 3 -0.003541 -0.000799 0.005579 0.000000 0.000000 0.000000
# 4 0.000000 0.000000 0.000000 -0.074274 0.000000 0.000000
# 5 0.000000 0.000000 0.000000 0.000000 0.018636 0.000000
# 6 0.000000 0.000000 0.000000 0.000000 0.000000 0.099928
#
#
# Mechanical properties :
#
#
# Convention : Reuss Voigt Hill
#
# Bulk Modulus (GPa) = 49.39045 69.34429 59.36737
# Shear Modulus (GPa) = 49.96140 28.88217 39.42179
#
# Velocity S-wave (km/s) = 4.62875 3.51934 4.11163
# Velocity P-wave (km/s) = 7.05320 6.80087 6.92818
#
# Compressibility (1/GPa) = 0.02024683
#
# Stress axis : x y z
#
# Youngs Moduli (GPa) = 80.08572 60.32742 179.22761
#
# Poissons Ratio (x) = 0.17238 0.63471
# Poissons Ratio (y) = 0.22883 0.14322
# Poissons Ratio (z) = 0.28361 0.04821
#
# Static dielectric constant tensor:
#      x y z
#    x 1.881340 0.000000 0.000000 
#    y 0.000000 1.933920 0.000000 
#    z 0.000000 0.000000 1.839980 
# 
# From -- ./inp_files/17989.got.cif
#   From: 2010.05.17/outbox.cif.g08.bks.cpg/sg56_9_cif.got.tgz:17989.got - 2010.06.03 13:42:01.
