data_PCOD9430977
_publ_section_title
;
Structure prediction by ZEFSAII (Michael W. Deem and Ramdas Pophale) SiO2 
 PCOD9430977
Probable space group: P C C N
;
_chemical_formula_sum "Si O2"
_cell_formula_units_Z 60
_cell_length_a 11.841051
_cell_length_b 17.199683
_cell_length_c 13.507748
_cell_angle_alpha 90.000000
_cell_angle_beta 90.000000
_cell_angle_gamma 90.000000
_cell_volume 2751.019344
_symmetry_space_group_name_H-M "P C C N"
_symmetry_group_IT_number 56
_symmetry_cell_setting 'orthorhombic'
loop_
_space_group_symop_operation_xyz
x,y,z
1/2-x,1/2-y,z
1/2+x,-y,1/2-z
-x,1/2+y,1/2-z
-x,-y,-z
1/2+x,1/2+y,-z
1/2-x,y,1/2+z
x,1/2-y,1/2+z
loop_
_atom_site_type_symbol
_atom_site_label
_atom_site_fract_x
_atom_site_fract_y
_atom_site_fract_z
Si Si1 0.205110 0.912253 0.741252
Si Si2 0.250000 0.750000 0.140423
Si Si3 0.989064 0.267952 0.954114
Si Si4 0.156149 0.184265 0.850320
Si Si5 0.256242 0.019234 0.408001
Si Si6 0.451097 0.087884 0.815563
Si Si7 0.143668 0.192754 0.627948
Si Si8 0.693101 0.948719 0.371383
O O1 0.238597 0.825670 0.710498
O O2 0.080299 0.934229 0.703148
O O3 0.211549 0.939029 0.854993
O O4 0.287351 0.970979 0.685008
O O5 0.359540 0.754301 0.069959
O O6 0.057847 0.190074 0.929673
O O7 0.036818 0.331356 0.875349
O O8 0.035857 0.295236 0.059250
O O9 0.250000 0.250000 0.874525
O O10 0.203839 0.097456 0.850432
O O11 0.112604 0.204069 0.741648
O O12 0.121267 0.031410 0.388480
O O13 0.316387 0.027520 0.513683
O O14 0.394570 0.093290 0.704996
O O15 0.250000 0.250000 0.603882
O O16 0.198724 0.107929 0.620481
#
# Coordination Sequence:
#
# PCOD9430977 Si02
#       8
#     8   4   8   8   8   8   8   8
#     4  10  24  44  63  90 130 187 226 270 334 402
#     4  10  26  50  62  82 136 186 228 266 316 418
#     4  11  21  40  66  93 134 181 218 265 329 405
#     4  11  19  35  63 104 135 163 205 276 339 392
#     4  11  21  39  66 101 132 163 222 283 340 398
#     4  10  20  39  62  91 140 168 215 279 336 396
#     4  11  20  35  66 107 133 163 211 278 344 397
#     4  11  21  39  67 102 129 166 225 286 340 399
#
# _framework density 21.810098
#
# number of rings (size 3 to 8) (size 9 to 14) (size 15 to 20)
#    0.000    1.333    5.333    2.000    0.000    3.200 
#    0.000    5.333    0.000    0.000    0.000    0.000 
#    0.000    0.000    0.000    0.000    0.000    0.000 
#
# Total GULP energy -334456.824357 kJ/mol
# GULP energy per Si atom -5574.280406 kJ/mol
# Density = 2.176046 g / cm^3
# Si number density = 21.810098 Si / 1000 Ang^3
#
#
#
# Elastic Constant Matrix: (Units=GPa)
#
#
# Indices 1 2 3 4 5 6 
#
# 1 65.2158 9.2171 7.0332 0.0000 0.0000 0.0000
# 2 9.2171 75.3532 6.2307 0.0000 0.0000 0.0000
# 3 7.0332 6.2307 121.6948 0.0000 0.0000 0.0000
# 4 0.0000 0.0000 0.0000 2.5838 0.0000 0.0000
# 5 0.0000 0.0000 0.0000 0.0000 11.3374 0.0000
# 6 0.0000 0.0000 0.0000 0.0000 0.0000 17.5600
#
#
#
# Elastic Compliance Matrix: (Units=1/GPa)
#
#
# Indices 1 2 3 4 5 6 
#
# 1 0.015683 -0.001851 -0.000812 0.000000 0.000000 0.000000
# 2 -0.001851 0.013546 -0.000587 0.000000 0.000000 0.000000
# 3 -0.000812 -0.000587 0.008294 0.000000 0.000000 0.000000
# 4 0.000000 0.000000 0.000000 0.387028 0.000000 0.000000
# 5 0.000000 0.000000 0.000000 0.000000 0.088203 0.000000
# 6 0.000000 0.000000 0.000000 0.000000 0.000000 0.056948
#
#
# Mechanical properties :
#
#
# Convention : Reuss Voigt Hill
#
# Bulk Modulus (GPa) = 32.23294 34.13621 33.18457
# Shear Modulus (GPa) = 8.52455 22.28177 15.40316
#
# Velocity S-wave (km/s) = 1.97915 3.19976 2.66040
# Velocity P-wave (km/s) = 4.47590 5.41634 4.96842
#
# Compressibility (1/GPa) = 0.03102417
#
# Stress axis : x y z
#
# Youngs Moduli (GPa) = 63.76384 73.82381 120.56593
#
# Poissons Ratio (x) = 0.13666 0.09785
# Poissons Ratio (y) = 0.11804 0.07072
# Poissons Ratio (z) = 0.05175 0.04330
#
# Static dielectric constant tensor:
#      x y z
#    x 1.887980 0.000000 0.000000 
#    y 0.000000 1.817500 0.000000 
#    z 0.000000 0.000000 1.862050 
# 
# From -- ./inp_files/11813.got.cif
#   From: 2010.05.17/outbox.cif.g08.bks.cpg/sg56_6_cif.got.tgz:11813.got - 2010.06.03 13:42:01.
