data_PCOD9430247
_publ_section_title
;
Structure prediction by ZEFSAII (Michael W. Deem and Ramdas Pophale) SiO2 
 PCOD9430247
Probable space group: P C C N
;
_chemical_formula_sum "Si O2"
_cell_formula_units_Z 60
_cell_length_a 22.156402
_cell_length_b 8.594638
_cell_length_c 15.374678
_cell_angle_alpha 90.000000
_cell_angle_beta 90.000000
_cell_angle_gamma 90.000000
_cell_volume 2927.742347
_symmetry_space_group_name_H-M "P C C N"
_symmetry_group_IT_number 56
_symmetry_cell_setting 'orthorhombic'
loop_
_space_group_symop_operation_xyz
x,y,z
1/2-x,1/2-y,z
1/2+x,-y,1/2-z
-x,1/2+y,1/2-z
-x,-y,-z
1/2+x,1/2+y,-z
1/2-x,y,1/2+z
x,1/2-y,1/2+z
loop_
_atom_site_type_symbol
_atom_site_label
_atom_site_fract_x
_atom_site_fract_y
_atom_site_fract_z
Si Si1 0.750000 0.750000 0.769514
Si Si2 0.450372 0.839801 0.847881
Si Si3 0.133379 0.084353 0.786198
Si Si4 0.049521 0.137837 0.236345
Si Si5 0.334515 0.023655 0.629021
Si Si6 0.528359 0.240988 0.465034
Si Si7 0.380581 0.778069 0.189842
Si Si8 0.592832 0.929240 0.527810
O O1 0.695529 0.821344 0.714464
O O2 0.779716 0.885886 0.827509
O O3 0.496075 0.698923 0.824346
O O4 0.393812 0.794190 0.786131
O O5 0.468458 0.005687 0.805510
O O6 0.450822 0.846966 0.952660
O O7 0.079001 0.205507 0.772699
O O8 0.118318 0.018018 0.879995
O O9 0.136430 0.954680 0.711411
O O10 0.103670 0.067268 0.179793
O O11 0.349610 0.091661 0.534401
O O12 0.333587 0.836494 0.640996
O O13 0.560012 0.279961 0.372773
O O14 0.456041 0.210908 0.464936
O O15 0.557279 0.073859 0.487150
#
# Coordination Sequence:
#
# PCOD9430247 Si02
#       8
#     4   8   8   8   8   8   8   8
#     4  10  24  42  64  82 118 160 216 260 328 340
#     4  11  19  36  56  90 129 169 196 243 301 386
#     4  11  22  41  59  89 118 166 205 266 303 371
#     4  10  21  34  56  86 129 161 204 241 306 362
#     4   9  20  40  61  88 117 162 201 267 300 371
#     4  10  20  35  61 100 130 166 193 248 301 395
#     4  10  21  36  64  89 126 157 207 248 318 368
#     4  10  19  36  63  93 131 160 202 239 317 367
#
# _framework density 20.493606
#
# number of rings (size 3 to 8) (size 9 to 14) (size 15 to 20)
#    0.000    1.867    2.667    1.600    1.867    1.067 
#    4.800    2.000    2.933    1.600    0.000    0.000 
#    0.000    0.000    0.000    0.000    0.000    0.000 
#
# Total GULP energy -334342.126974 kJ/mol
# GULP energy per Si atom -5572.368783 kJ/mol
# Density = 2.044696 g / cm^3
# Si number density = 20.493606 Si / 1000 Ang^3
#
#
#
# Elastic Constant Matrix: (Units=GPa)
#
#
# Indices 1 2 3 4 5 6 
#
# 1 51.3383 5.0126 14.8878 0.0000 0.0000 0.0000
# 2 5.0126 80.7339 22.1023 0.0000 0.0000 0.0000
# 3 14.8878 22.1023 102.0354 0.0000 0.0000 0.0000
# 4 0.0000 0.0000 0.0000 18.3630 0.0000 0.0000
# 5 0.0000 0.0000 0.0000 0.0000 12.0725 0.0000
# 6 0.0000 0.0000 0.0000 0.0000 0.0000 21.6233
#
#
#
# Elastic Compliance Matrix: (Units=1/GPa)
#
#
# Indices 1 2 3 4 5 6 
#
# 1 0.020357 -0.000479 -0.002866 0.000000 0.000000 0.000000
# 2 -0.000479 0.013178 -0.002785 0.000000 0.000000 0.000000
# 3 -0.002866 -0.002785 0.010822 0.000000 0.000000 0.000000
# 4 0.000000 0.000000 0.000000 0.054457 0.000000 0.000000
# 5 0.000000 0.000000 0.000000 0.000000 0.082833 0.000000
# 6 0.000000 0.000000 0.000000 0.000000 0.000000 0.046246
#
#
# Mechanical properties :
#
#
# Convention : Reuss Voigt Hill
#
# Bulk Modulus (GPa) = 31.15606 35.34590 33.25098
# Shear Modulus (GPa) = 19.93196 23.21874 21.57535
#
# Velocity S-wave (km/s) = 3.12203 3.36962 3.24818
# Velocity P-wave (km/s) = 5.31337 5.69419 5.50708
#
# Compressibility (1/GPa) = 0.03209649
#
# Stress axis : x y z
#
# Youngs Moduli (GPa) = 49.12396 75.88124 92.40469
#
# Poissons Ratio (x) = 0.03636 0.26487
# Poissons Ratio (y) = 0.02354 0.25732
# Poissons Ratio (z) = 0.14081 0.21131
#
# Static dielectric constant tensor:
#      x y z
#    x 1.747440 0.000000 0.000000 
#    y 0.000000 1.808960 0.000000 
#    z 0.000000 0.000000 1.812580 
# 
# From -- ./inp_files/13236.got.cif
#   From: 2010.05.17/outbox.cif.g08.bks.cpg/sg56_7_cif.got.tgz:13236.got - 2010.06.03 13:42:01.
