data_PCOD9430109
_publ_section_title
;
Structure prediction by ZEFSAII (Michael W. Deem and Ramdas Pophale) SiO2 
 PCOD9430109
Probable space group: P C C N
;
_chemical_formula_sum "Si O2"
_cell_formula_units_Z 40
_cell_length_a 11.572901
_cell_length_b 7.109582
_cell_length_c 17.344142
_cell_angle_alpha 90.000000
_cell_angle_beta 90.000000
_cell_angle_gamma 90.000000
_cell_volume 1427.049790
_symmetry_space_group_name_H-M "P C C N"
_symmetry_group_IT_number 56
_symmetry_cell_setting 'orthorhombic'
loop_
_space_group_symop_operation_xyz
x,y,z
1/2-x,1/2-y,z
1/2+x,-y,1/2-z
-x,1/2+y,1/2-z
-x,-y,-z
1/2+x,1/2+y,-z
1/2-x,y,1/2+z
x,1/2-y,1/2+z
loop_
_atom_site_type_symbol
_atom_site_label
_atom_site_fract_x
_atom_site_fract_y
_atom_site_fract_z
Si Si1 0.400215 0.392211 0.110119
Si Si2 0.622440 0.729313 0.223555
Si Si3 0.878900 0.294975 0.772212
Si Si4 0.694678 0.931264 0.984252
Si Si5 0.884896 0.284851 0.099761
O O1 0.380127 0.370886 0.201466
O O2 0.374389 0.175732 0.083040
O O3 0.307742 0.512463 0.061509
O O4 0.533955 0.396427 0.086499
O O5 0.750000 0.750000 0.188325
O O6 0.497981 0.757814 0.181272
O O7 0.622259 0.513419 0.250601
O O8 0.750000 0.250000 0.800964
O O9 0.898945 0.181736 0.691279
O O10 0.750000 0.750000 0.027094
O O11 0.612243 0.051444 0.037135
O O12 0.750000 0.250000 0.093626
#
# Coordination Sequence:
#
# PCOD9430109 Si02
#       5
#     8   8   8   8   8
#     4   8  18  34  60  81 106 154 203 242 307 348
#     4  11  19  40  66  87 125 159 214 259 307 382
#     4  10  23  38  59  92 124 165 203 261 316 365
#     4   8  17  34  57  82 103 154 196 240 295 354
#     4  10  19  34  54  82 126 146 191 251 308 370
#
# _framework density 28.029855999999999
#
# number of rings (size 3 to 8) (size 9 to 14) (size 15 to 20)
#    1.200    1.200    2.000    1.800    0.000    0.800 
#    0.000   13.000    0.000    0.000    0.000    0.000 
#    0.000    0.000    0.000    0.000    0.000    0.000 
#
# Total GULP energy -222937.667106 kJ/mol
# GULP energy per Si atom -5573.441678 kJ/mol
# Density = 2.796606 g / cm^3
# Si number density = 28.029856 Si / 1000 Ang^3
#
#
#
# Elastic Constant Matrix: (Units=GPa)
#
#
# Indices 1 2 3 4 5 6 
#
# 1 247.5151 44.3099 21.1930 0.0000 0.0000 0.0000
# 2 44.3099 85.1814 39.1407 0.0000 0.0000 0.0000
# 3 21.1930 39.1407 133.1726 0.0000 0.0000 0.0000
# 4 0.0000 0.0000 0.0000 43.2244 0.0000 0.0000
# 5 0.0000 0.0000 0.0000 0.0000 2.7379 0.0000
# 6 0.0000 0.0000 0.0000 0.0000 0.0000 50.6059
#
#
#
# Elastic Compliance Matrix: (Units=1/GPa)
#
#
# Indices 1 2 3 4 5 6 
#
# 1 0.004455 -0.002303 -0.000032 0.000000 0.000000 0.000000
# 2 -0.002303 0.014763 -0.003972 0.000000 0.000000 0.000000
# 3 -0.000032 -0.003972 0.008682 0.000000 0.000000 0.000000
# 4 0.000000 0.000000 0.000000 0.023135 0.000000 0.000000
# 5 0.000000 0.000000 0.000000 0.000000 0.365249 0.000000
# 6 0.000000 0.000000 0.000000 0.000000 0.000000 0.019761
#
#
# Mechanical properties :
#
#
# Convention : Reuss Voigt Hill
#
# Bulk Modulus (GPa) = 65.42393 75.01736 70.22065
# Shear Modulus (GPa) = 11.01918 43.39533 27.20726
#
# Velocity S-wave (km/s) = 1.98488 3.93896 3.11891
# Velocity P-wave (km/s) = 5.35205 6.89266 6.17062
#
# Compressibility (1/GPa) = 0.01528493
#
# Stress axis : x y z
#
# Youngs Moduli (GPa) = 224.45977 67.73769 115.18437
#
# Poissons Ratio (x) = 0.15598 0.00371
# Poissons Ratio (y) = 0.51686 0.45757
# Poissons Ratio (z) = 0.00723 0.26909
#
# Static dielectric constant tensor:
#      x y z
#    x 2.356360 0.000000 0.000000 
#    y 0.000000 2.239830 0.000000 
#    z 0.000000 0.000000 2.197050 
# 
# From -- ./inp_files/18600.got.cif
#   From: 2010.05.17/outbox.cif.g08.bks.cpg/sg56_10_cif.got.tgz:18600.got - 2010.06.03 13:42:01.
