data_PCOD9430867
_publ_section_title
;
Structure prediction by ZEFSAII (Michael W. Deem and Ramdas Pophale) SiO2 
 PCOD9430867
Probable space group: P C C N
;
_chemical_formula_sum "Si O2"
_cell_formula_units_Z 40
_cell_length_a 22.339379
_cell_length_b 5.021781
_cell_length_c 14.233722
_cell_angle_alpha 90.000000
_cell_angle_beta 90.000000
_cell_angle_gamma 90.000000
_cell_volume 1596.788311
_symmetry_space_group_name_H-M "P C C N"
_symmetry_group_IT_number 56
_symmetry_cell_setting 'orthorhombic'
loop_
_space_group_symop_operation_xyz
x,y,z
1/2-x,1/2-y,z
1/2+x,-y,1/2-z
-x,1/2+y,1/2-z
-x,-y,-z
1/2+x,1/2+y,-z
1/2-x,y,1/2+z
x,1/2-y,1/2+z
loop_
_atom_site_type_symbol
_atom_site_label
_atom_site_fract_x
_atom_site_fract_y
_atom_site_fract_z
Si Si1 0.814511 0.807141 0.597694
Si Si2 0.997691 0.987631 0.385293
Si Si3 0.290734 0.496008 0.191942
Si Si4 0.575138 0.484334 0.881436
Si Si5 0.888727 0.213378 0.077838
O O1 0.750000 0.750000 0.554373
O O2 0.848216 0.527301 0.616166
O O3 0.802644 0.944753 0.697743
O O4 0.850418 0.033612 0.541256
O O5 0.947823 0.775052 0.357934
O O6 0.062075 0.864271 0.358444
O O7 0.974590 0.270184 0.348998
O O8 0.000000 0.000000 0.500000
O O9 0.250000 0.750000 0.178199
O O10 0.356120 0.539386 0.148583
O O11 0.250000 0.250000 0.158832
O O12 0.577494 0.436579 0.993649
#
# Coordination Sequence:
#
# PCOD9430867 Si02
#       5
#     8   8   8   8   8
#     4  11  23  40  60  85 121 160 193 241 301 350
#     4  10  20  38  61  90 123 155 188 244 309 351
#     4  11  24  43  61  85 123 164 198 245 307 359
#     4  11  22  39  64  91 119 156 200 246 294 356
#     4  11  21  38  64  91 117 153 200 244 289 354
#
# _framework density 25.050286
#
# number of rings (size 3 to 8) (size 9 to 14) (size 15 to 20)
#    0.000    1.200    0.000   10.200    0.000    2.400 
#    0.000    4.000    0.000    2.400    0.000    0.000 
#    0.000    0.000    0.000    0.000    0.000    0.000 
#
# Total GULP energy -223837.609833 kJ/mol
# GULP energy per Si atom -5595.940246 kJ/mol
# Density = 2.499327 g / cm^3
# Si number density = 25.050286 Si / 1000 Ang^3
#
#
#
# Elastic Constant Matrix: (Units=GPa)
#
#
# Indices 1 2 3 4 5 6 
#
# 1 133.6032 47.5105 -7.7519 0.0000 0.0000 0.0000
# 2 47.5105 163.9751 -6.0438 0.0000 0.0000 0.0000
# 3 -7.7519 -6.0438 39.1391 0.0000 0.0000 0.0000
# 4 0.0000 0.0000 0.0000 181.5962 0.0000 0.0000
# 5 0.0000 0.0000 0.0000 0.0000 32.7647 0.0000
# 6 0.0000 0.0000 0.0000 0.0000 0.0000 55.1394
#
#
#
# Elastic Compliance Matrix: (Units=1/GPa)
#
#
# Indices 1 2 3 4 5 6 
#
# 1 0.008410 -0.002389 0.001297 0.000000 0.000000 0.000000
# 2 -0.002389 0.006812 0.000579 0.000000 0.000000 0.000000
# 3 0.001297 0.000579 0.025896 0.000000 0.000000 0.000000
# 4 0.000000 0.000000 0.000000 0.005507 0.000000 0.000000
# 5 0.000000 0.000000 0.000000 0.000000 0.030521 0.000000
# 6 0.000000 0.000000 0.000000 0.000000 0.000000 0.018136
#
#
# Mechanical properties :
#
#
# Convention : Reuss Voigt Hill
#
# Bulk Modulus (GPa) = 24.94329 44.90525 34.92427
# Shear Modulus (GPa) = 45.59084 74.10024 59.84554
#
# Velocity S-wave (km/s) = 4.27074 5.44470 4.89306
# Velocity P-wave (km/s) = 5.85644 7.58231 6.77456
#
# Compressibility (1/GPa) = 0.04009094
#
# Stress axis : x y z
#
# Youngs Moduli (GPa) = 118.91211 146.80066 38.61590
#
# Poissons Ratio (x) = 0.35068 -0.05007
# Poissons Ratio (y) = 0.28406 -0.02235
# Poissons Ratio (z) = -0.15420 -0.08496
#
# Static dielectric constant tensor:
#      x y z
#    x 2.044180 0.000000 0.000000 
#    y 0.000000 1.877210 0.000000 
#    z 0.000000 0.000000 2.044780 
# 
# From -- ./inp_files/16460.got.cif
#   From: 2010.05.17/outbox.cif.g08.bks.cpg/sg56_9_cif.got.tgz:16460.got - 2010.06.03 13:42:01.
