data_PCOD9430631
_publ_section_title
;
Structure prediction by ZEFSAII (Michael W. Deem and Ramdas Pophale) SiO2 
 PCOD9430631
Probable space group: P C C N
;
_chemical_formula_sum "Si O2"
_cell_formula_units_Z 40
_cell_length_a 5.248496
_cell_length_b 19.787317
_cell_length_c 17.218359
_cell_angle_alpha 90.000000
_cell_angle_beta 90.000000
_cell_angle_gamma 90.000000
_cell_volume 1788.189500
_symmetry_space_group_name_H-M "P C C N"
_symmetry_group_IT_number 56
_symmetry_cell_setting 'orthorhombic'
loop_
_space_group_symop_operation_xyz
x,y,z
1/2-x,1/2-y,z
1/2+x,-y,1/2-z
-x,1/2+y,1/2-z
-x,-y,-z
1/2+x,1/2+y,-z
1/2-x,y,1/2+z
x,1/2-y,1/2+z
loop_
_atom_site_type_symbol
_atom_site_label
_atom_site_fract_x
_atom_site_fract_y
_atom_site_fract_z
Si Si1 0.659489 0.956751 0.743177
Si Si2 0.764760 0.409095 0.520681
Si Si3 0.157444 0.845675 0.322762
Si Si4 0.732731 0.566142 0.571093
Si Si5 0.494614 0.725869 0.722170
O O1 0.540236 0.904730 0.803631
O O2 0.721238 0.921515 0.661509
O O3 0.915675 0.993738 0.771204
O O4 0.740980 0.355636 0.589792
O O5 0.738246 0.484596 0.558218
O O6 0.534441 0.405660 0.459389
O O7 0.034753 0.405537 0.478812
O O8 0.399535 0.843347 0.262490
O O9 0.015077 0.777447 0.296821
O O10 0.750000 0.750000 0.682068
O O11 0.250000 0.750000 0.673042
#
# Coordination Sequence:
#
# PCOD9430631 Si02
#       5
#     8   8   8   8   8
#     4  12  24  35  56  89 123 157 196 242 293 363
#     4  10  20  36  54  77 119 152 185 230 288 350
#     4   9  22  36  63  82 114 150 205 245 287 347
#     4  10  22  34  50  84 120 153 181 224 298 351
#     4   8  20  35  58  86 102 146 199 249 285 330
#
# _framework density 22.368995000000002
#
# number of rings (size 3 to 8) (size 9 to 14) (size 15 to 20)
#    1.200    0.800    2.000    1.200   11.200    0.000 
#    0.000    0.000    0.000    4.800    0.000    0.000 
#    0.000    0.000    0.000    0.000    0.000    0.000 
#
# Total GULP energy -222946.281614 kJ/mol
# GULP energy per Si atom -5573.657040 kJ/mol
# Density = 2.231808 g / cm^3
# Si number density = 22.368995 Si / 1000 Ang^3
#
#
#
# Elastic Constant Matrix: (Units=GPa)
#
#
# Indices 1 2 3 4 5 6 
#
# 1 146.5948 10.9136 6.2980 0.0000 0.0000 0.0000
# 2 10.9136 31.5356 -10.2472 0.0000 0.0000 0.0000
# 3 6.2980 -10.2472 63.6810 0.0000 0.0000 0.0000
# 4 0.0000 0.0000 0.0000 1.9320 0.0000 0.0000
# 5 0.0000 0.0000 0.0000 0.0000 36.4784 0.0000
# 6 0.0000 0.0000 0.0000 0.0000 0.0000 24.2000
#
#
#
# Elastic Compliance Matrix: (Units=1/GPa)
#
#
# Indices 1 2 3 4 5 6 
#
# 1 0.007082 -0.002826 -0.001155 0.000000 0.000000 0.000000
# 2 -0.002826 0.034588 0.005845 0.000000 0.000000 0.000000
# 3 -0.001155 0.005845 0.016758 0.000000 0.000000 0.000000
# 4 0.000000 0.000000 0.000000 0.517603 0.000000 0.000000
# 5 0.000000 0.000000 0.000000 0.000000 0.027413 0.000000
# 6 0.000000 0.000000 0.000000 0.000000 0.000000 0.041322
#
#
# Mechanical properties :
#
#
# Convention : Reuss Voigt Hill
#
# Bulk Modulus (GPa) = 16.08880 28.41558 22.25219
# Shear Modulus (GPa) = 7.55566 28.17855 17.86710
#
# Velocity S-wave (km/s) = 1.83986 3.55310 2.82927
# Velocity P-wave (km/s) = 3.42367 5.43722 4.54339
#
# Compressibility (1/GPa) = 0.06215504
#
# Stress axis : x y z
#
# Youngs Moduli (GPa) = 141.21218 28.91212 59.67276
#
# Poissons Ratio (x) = 0.08171 0.06893
# Poissons Ratio (y) = 0.39908 -0.34879
# Poissons Ratio (z) = 0.16312 -0.16899
#
# Static dielectric constant tensor:
#      x y z
#    x 1.969730 0.000000 0.000000 
#    y 0.000000 1.937900 0.000000 
#    z 0.000000 0.000000 1.808720 
# 
# From -- ./inp_files/9605.got.cif
#   From: 2010.05.17/outbox.cif.g08.bks.cpg/sg56_5_cif.got.tgz:9605.got - 2010.06.03 13:42:01.
