data_PCOD9430017
_publ_section_title
;
Structure prediction by ZEFSAII (Michael W. Deem and Ramdas Pophale) SiO2 
 PCOD9430017
Probable space group: P C C N
;
_chemical_formula_sum "Si O2"
_cell_formula_units_Z 48
_cell_length_a 19.594145
_cell_length_b 5.128756
_cell_length_c 24.108560
_cell_angle_alpha 90.000000
_cell_angle_beta 90.000000
_cell_angle_gamma 90.000000
_cell_volume 2422.755714
_symmetry_space_group_name_H-M "P C C N"
_symmetry_group_IT_number 56
_symmetry_cell_setting 'orthorhombic'
loop_
_space_group_symop_operation_xyz
x,y,z
1/2-x,1/2-y,z
1/2+x,-y,1/2-z
-x,1/2+y,1/2-z
-x,-y,-z
1/2+x,1/2+y,-z
1/2-x,y,1/2+z
x,1/2-y,1/2+z
loop_
_atom_site_type_symbol
_atom_site_label
_atom_site_fract_x
_atom_site_fract_y
_atom_site_fract_z
Si Si1 0.546733 0.659860 0.744198
Si Si2 0.042903 0.767470 0.451724
Si Si3 0.750000 0.750000 0.461488
Si Si4 0.606291 0.614911 0.970699
Si Si5 0.750000 0.250000 0.382300
Si Si6 0.889275 0.076849 0.848327
Si Si7 0.962213 0.743909 0.624614
O O1 0.497675 0.895966 0.762509
O O2 0.597909 0.593624 0.793860
O O3 0.575034 0.736078 0.683806
O O4 0.090953 0.666600 0.501522
O O5 0.046657 0.526541 0.407824
O O6 0.965172 0.768749 0.475482
O O7 0.056840 0.022135 0.416013
O O8 0.822147 0.721865 0.493354
O O9 0.743026 0.497049 0.422716
O O10 0.615376 0.590727 0.904641
O O11 0.681518 0.228670 0.346456
O O12 0.957098 0.250051 0.858830
#
# Coordination Sequence:
#
# PCOD9430017 Si02
#       7
#     8   8   4   8   4   8   8
#     4  10  19  32  52  74  99 131 165 207 249 295
#     4  10  20  32  51  74 102 130 166 209 250 297
#     4  10  20  34  50  72 104 136 168 202 256 318
#     4   9  19  33  51  75 101 131 164 208 255 300
#     4  10  20  32  50  74 104 134 160 206 260 310
#     4   9  19  33  52  77 104 130 168 210 260 311
#     4  10  19  33  50  74 100 131 167 204 248 299
#
# _framework density 19.812149999999999
#
# number of rings (size 3 to 8) (size 9 to 14) (size 15 to 20)
#    0.000    2.333    0.000    4.000    0.000   12.667 
#    0.000    0.000    0.000    2.000    0.000    0.000 
#    0.000    0.000    0.000    0.000    0.000    0.000 
#
# Total GULP energy -267787.752380 kJ/mol
# GULP energy per Si atom -5578.911508 kJ/mol
# Density = 1.976706 g / cm^3
# Si number density = 19.812150 Si / 1000 Ang^3
#
#
#
# Elastic Constant Matrix: (Units=GPa)
#
#
# Indices 1 2 3 4 5 6 
#
# 1 84.7699 17.9678 13.5479 0.0000 0.0000 0.0000
# 2 17.9678 94.7283 24.8342 0.0000 0.0000 0.0000
# 3 13.5479 24.8342 116.2726 0.0000 0.0000 0.0000
# 4 0.0000 0.0000 0.0000 29.6324 0.0000 0.0000
# 5 0.0000 0.0000 0.0000 0.0000 -1.8416 0.0000
# 6 0.0000 0.0000 0.0000 0.0000 0.0000 23.7982
#
#
#
# Elastic Compliance Matrix: (Units=1/GPa)
#
#
# Indices 1 2 3 4 5 6 
#
# 1 0.012399 -0.002090 -0.000998 0.000000 0.000000 0.000000
# 2 -0.002090 0.011535 -0.002220 0.000000 0.000000 0.000000
# 3 -0.000998 -0.002220 0.009191 0.000000 0.000000 0.000000
# 4 0.000000 0.000000 0.000000 0.033747 0.000000 0.000000
# 5 0.000000 0.000000 0.000000 0.000000 -0.542998 0.000000
# 6 0.000000 0.000000 0.000000 0.000000 0.000000 0.042020
#
#
# Mechanical properties :
#
#
# Convention : Reuss Voigt Hill
#
# Bulk Modulus (GPa) = 44.42871 45.38564 44.90718
# Shear Modulus (GPa) = -12.01962 26.27918 7.12978
#
# Velocity S-wave (km/s) = -2.46576 3.64595 1.89908
# Velocity P-wave (km/s) = 3.79039 6.37822 5.24637
#
# Compressibility (1/GPa) = 0.02250797
#
# Stress axis : x y z
#
# Youngs Moduli (GPa) = 80.65032 86.69267 108.80206
#
# Poissons Ratio (x) = 0.18120 0.10862
# Poissons Ratio (y) = 0.16857 0.24156
# Poissons Ratio (z) = 0.08051 0.19247
#
# Static dielectric constant tensor:
#      x y z
#    x 1.749540 0.000000 0.000000 
#    y 0.000000 1.859800 0.000000 
#    z 0.000000 0.000000 1.740260 
# 
# From -- ./inp_files/21296.got.cif
#   From: 2010.05.17/outbox.cif.g08.bks.cpg/sg56_11_cif.got.tgz:21296.got - 2010.06.03 13:42:01.
