data_PCOD9430599
_publ_section_title
;
Structure prediction by ZEFSAII (Michael W. Deem and Ramdas Pophale) SiO2 
 PCOD9430599
Probable space group: P C C N
;
_chemical_formula_sum "Si O2"
_cell_formula_units_Z 64
_cell_length_a 8.779035
_cell_length_b 15.767157
_cell_length_c 23.190322
_cell_angle_alpha 90.000000
_cell_angle_beta 90.000000
_cell_angle_gamma 90.000000
_cell_volume 3210.014184
_symmetry_space_group_name_H-M "P C C N"
_symmetry_group_IT_number 56
_symmetry_cell_setting 'orthorhombic'
loop_
_space_group_symop_operation_xyz
x,y,z
1/2-x,1/2-y,z
1/2+x,-y,1/2-z
-x,1/2+y,1/2-z
-x,-y,-z
1/2+x,1/2+y,-z
1/2-x,y,1/2+z
x,1/2-y,1/2+z
loop_
_atom_site_type_symbol
_atom_site_label
_atom_site_fract_x
_atom_site_fract_y
_atom_site_fract_z
Si Si1 0.649926 0.171362 0.228959
Si Si2 0.804899 0.843011 0.293576
Si Si3 0.798201 0.335316 0.358084
Si Si4 0.260293 0.086342 0.583035
Si Si5 0.255877 0.011185 0.301784
Si Si6 0.711911 0.652779 0.538349
Si Si7 0.476489 0.559373 0.615735
Si Si8 0.471245 0.036670 0.406746
O O1 0.750000 0.250000 0.207256
O O2 0.486939 0.163153 0.199385
O O3 0.623825 0.186001 0.297290
O O4 0.736143 0.082430 0.223140
O O5 0.750000 0.750000 0.274248
O O6 0.733089 0.868259 0.354928
O O7 0.769877 0.916656 0.247004
O O8 0.750000 0.250000 0.388777
O O9 0.644456 0.387087 0.347685
O O10 0.907808 0.389660 0.396535
O O11 0.213979 0.146589 0.530619
O O12 0.125709 0.015677 0.588674
O O13 0.424500 0.041118 0.571594
O O14 0.399905 0.014085 0.344474
O O15 0.108370 0.027982 0.341704
O O16 0.750000 0.750000 0.556524
O O17 0.557295 0.618875 0.568071
O O18 0.836163 0.581411 0.557922
#
# Coordination Sequence:
#
# PCOD9430599 Si02
#       8
#     8   8   8   8   8   8   8   8
#     4  11  25  40  61  92 134 173 210 257 317 388
#     4  12  27  40  66  99 134 175 213 258 323 393
#     4  10  20  35  58  91 126 160 205 261 318 370
#     4  11  23  43  64  89 129 171 214 256 323 390
#     4  11  23  41  63  91 130 168 213 260 319 379
#     4  11  23  41  64  93 124 160 214 277 326 379
#     4  10  22  39  66  88 121 166 213 264 316 382
#     4  10  22  39  65  92 118 169 215 266 318 380
#
# _framework density 19.937605999999999
#
# number of rings (size 3 to 8) (size 9 to 14) (size 15 to 20)
#    0.000    1.250    2.500    3.375    5.250    2.000 
#    0.000    0.000    0.000    0.750    0.000    0.000 
#    0.000    0.000    0.000    0.000    0.000    0.000 
#
# Total GULP energy -357234.297839 kJ/mol
# GULP energy per Si atom -5581.785904 kJ/mol
# Density = 1.989223 g / cm^3
# Si number density = 19.937606 Si / 1000 Ang^3
#
#
#
# Elastic Constant Matrix: (Units=GPa)
#
#
# Indices 1 2 3 4 5 6 
#
# 1 72.6423 22.9272 5.5439 0.0000 0.0000 0.0000
# 2 22.9272 117.8610 15.5674 0.0000 0.0000 0.0000
# 3 5.5439 15.5674 67.4015 0.0000 0.0000 0.0000
# 4 0.0000 0.0000 0.0000 42.1302 0.0000 0.0000
# 5 0.0000 0.0000 0.0000 0.0000 8.2917 0.0000
# 6 0.0000 0.0000 0.0000 0.0000 0.0000 15.9192
#
#
#
# Elastic Compliance Matrix: (Units=1/GPa)
#
#
# Indices 1 2 3 4 5 6 
#
# 1 0.014687 -0.002782 -0.000565 0.000000 0.000000 0.000000
# 2 -0.002782 0.009279 -0.001914 0.000000 0.000000 0.000000
# 3 -0.000565 -0.001914 0.015325 0.000000 0.000000 0.000000
# 4 0.000000 0.000000 0.000000 0.023736 0.000000 0.000000
# 5 0.000000 0.000000 0.000000 0.000000 0.120602 0.000000
# 6 0.000000 0.000000 0.000000 0.000000 0.000000 0.062817
#
#
# Mechanical properties :
#
#
# Convention : Reuss Voigt Hill
#
# Bulk Modulus (GPa) = 34.76196 38.44243 36.60220
# Shear Modulus (GPa) = 18.75751 27.52597 23.14174
#
# Velocity S-wave (km/s) = 3.07059 3.71968 3.41061
# Velocity P-wave (km/s) = 5.48130 6.14583 5.82305
#
# Compressibility (1/GPa) = 0.02876707
#
# Stress axis : x y z
#
# Youngs Moduli (GPa) = 68.08553 107.77419 65.25253
#
# Poissons Ratio (x) = 0.29987 0.03690
# Poissons Ratio (y) = 0.18944 0.12491
# Poissons Ratio (z) = 0.03850 0.20630
#
# Static dielectric constant tensor:
#      x y z
#    x 1.724800 0.000000 0.000000 
#    y 0.000000 1.744920 0.000000 
#    z 0.000000 0.000000 1.694210 
# 
# From -- ./inp_files/20663.got.cif
#   From: 2010.05.17/outbox.cif.g08.bks.cpg/sg56_11_cif.got.tgz:20663.got - 2010.06.03 13:42:01.
