data_PCOD9430258
_publ_section_title
;
Structure prediction by ZEFSAII (Michael W. Deem and Ramdas Pophale) SiO2 
 PCOD9430258
Probable space group: P C C N
;
_chemical_formula_sum "Si O2"
_cell_formula_units_Z 56
_cell_length_a 31.173353
_cell_length_b 5.619456
_cell_length_c 13.711910
_cell_angle_alpha 90.000000
_cell_angle_beta 90.000000
_cell_angle_gamma 90.000000
_cell_volume 2402.015174
_symmetry_space_group_name_H-M "P C C N"
_symmetry_group_IT_number 56
_symmetry_cell_setting 'orthorhombic'
loop_
_space_group_symop_operation_xyz
x,y,z
1/2-x,1/2-y,z
1/2+x,-y,1/2-z
-x,1/2+y,1/2-z
-x,-y,-z
1/2+x,1/2+y,-z
1/2-x,y,1/2+z
x,1/2-y,1/2+z
loop_
_atom_site_type_symbol
_atom_site_label
_atom_site_fract_x
_atom_site_fract_y
_atom_site_fract_z
Si Si1 0.250000 0.250000 0.127373
Si Si2 0.250000 0.750000 0.006168
Si Si3 0.969018 0.017174 0.403458
Si Si4 0.834433 0.130536 0.595319
Si Si5 0.998971 0.481881 0.619315
Si Si6 0.159236 0.194223 0.222763
Si Si7 0.902658 0.509821 0.637630
Si Si8 0.115764 0.176815 0.539065
O O1 0.252341 0.501555 0.067500
O O2 0.206577 0.275478 0.191161
O O3 0.291501 0.742101 0.936723
O O4 0.982163 0.261912 0.352142
O O5 0.918291 0.017127 0.424509
O O6 0.000000 0.000000 0.500000
O O7 0.975619 0.758029 0.354821
O O8 0.876349 0.291505 0.595095
O O9 0.833286 0.018791 0.702323
O O10 0.842634 0.933520 0.512351
O O11 0.951223 0.449415 0.661014
O O12 0.000000 0.500000 0.500000
O O13 0.128677 0.379076 0.281075
O O14 0.132405 0.151258 0.124072
O O15 0.907697 0.694587 0.549350
#
# Coordination Sequence:
#
# PCOD9430258 Si02
#       8
#     4   4   8   8   8   8   8   8
#     4  12  28  54  76 110 148 192 260 310 390 452
#     4  12  28  50  84 106 144 204 256 300 396 468
#     4  10  19  36  69 100 135 193 243 300 359 436
#     4  11  26  44  75 106 148 197 251 314 381 465
#     4  10  19  37  66 100 137 192 244 299 358 438
#     4  11  28  45  72 111 151 192 250 326 371 455
#     4  11  24  42  71 105 147 198 253 305 386 451
#     4  11  22  46  69 104 148 197 251 308 386 450
#
# _framework density 23.313758
#
# number of rings (size 3 to 8) (size 9 to 14) (size 15 to 20)
#    0.000    1.143    4.286    2.571    8.000    1.143 
#    0.000    1.429    0.000    0.000    0.000    0.000 
#    0.000    0.000    0.000    0.000    0.000    0.000 
#
# Total GULP energy -312782.376554 kJ/mol
# GULP energy per Si atom -5585.399581 kJ/mol
# Density = 2.326069 g / cm^3
# Si number density = 23.313758 Si / 1000 Ang^3
#
#
#
# Elastic Constant Matrix: (Units=GPa)
#
#
# Indices 1 2 3 4 5 6 
#
# 1 118.3963 10.8001 27.3510 0.0000 0.0000 0.0000
# 2 10.8001 109.5485 5.2501 0.0000 0.0000 0.0000
# 3 27.3510 5.2501 58.6225 0.0000 0.0000 0.0000
# 4 0.0000 0.0000 0.0000 -782.6847 0.0000 0.0000
# 5 0.0000 0.0000 0.0000 0.0000 30.0519 0.0000
# 6 0.0000 0.0000 0.0000 0.0000 0.0000 34.5272
#
#
#
# Elastic Compliance Matrix: (Units=1/GPa)
#
#
# Indices 1 2 3 4 5 6 
#
# 1 0.009524 -0.000729 -0.004378 0.000000 0.000000 0.000000
# 2 -0.000729 0.009224 -0.000486 0.000000 0.000000 0.000000
# 3 -0.004378 -0.000486 0.019145 0.000000 0.000000 0.000000
# 4 0.000000 0.000000 0.000000 -0.001278 0.000000 0.000000
# 5 0.000000 0.000000 0.000000 0.000000 0.033276 0.000000
# 6 0.000000 0.000000 0.000000 0.000000 0.000000 0.028963
#
#
# Mechanical properties :
#
#
# Convention : Reuss Voigt Hill
#
# Bulk Modulus (GPa) = 37.44523 41.48553 39.46538
# Shear Modulus (GPa) = 42.03747 -127.41005 -42.68629
#
# Velocity S-wave (km/s) = 4.25092 -7.40059 -4.28360
# Velocity P-wave (km/s) = 6.33956 7.42913 2.73879
#
# Compressibility (1/GPa) = 0.02670567
#
# Stress axis : x y z
#
# Youngs Moduli (GPa) = 104.99610 108.41820 52.23418
#
# Poissons Ratio (x) = 0.07905 0.22870
# Poissons Ratio (y) = 0.07656 0.02538
# Poissons Ratio (z) = 0.45970 0.05268
#
# Static dielectric constant tensor:
#      x y z
#    x 1.851120 0.000000 0.000000 
#    y 0.000000 1.986080 0.000000 
#    z 0.000000 0.000000 1.914580 
# 
# From -- ./inp_files/13499.got.cif
#   From: 2010.05.17/outbox.cif.g08.bks.cpg/sg56_7_cif.got.tgz:13499.got - 2010.06.03 13:42:01.
