data_PCOD9430748
_publ_section_title
;
Structure prediction by ZEFSAII (Michael W. Deem and Ramdas Pophale) SiO2 
 PCOD9430748
Probable space group: P C C N
;
_chemical_formula_sum "Si O2"
_cell_formula_units_Z 48
_cell_length_a 10.766379
_cell_length_b 19.819561
_cell_length_c 8.889679
_cell_angle_alpha 90.000000
_cell_angle_beta 90.000000
_cell_angle_gamma 90.000000
_cell_volume 1896.923312
_symmetry_space_group_name_H-M "P C C N"
_symmetry_group_IT_number 56
_symmetry_cell_setting 'orthorhombic'
loop_
_space_group_symop_operation_xyz
x,y,z
1/2-x,1/2-y,z
1/2+x,-y,1/2-z
-x,1/2+y,1/2-z
-x,-y,-z
1/2+x,1/2+y,-z
1/2-x,y,1/2+z
x,1/2-y,1/2+z
loop_
_atom_site_type_symbol
_atom_site_label
_atom_site_fract_x
_atom_site_fract_y
_atom_site_fract_z
Si Si1 0.356028 0.598878 0.639195
Si Si2 0.020938 0.015305 0.766470
Si Si3 0.619939 0.360294 0.665360
Si Si4 0.815008 0.830156 0.874131
Si Si5 0.692900 0.518051 0.980704
Si Si6 0.081949 0.275123 0.306943
O O1 0.474627 0.561568 0.710434
O O2 0.253517 0.620980 0.762285
O O3 0.367869 0.655301 0.511298
O O4 0.304357 0.532473 0.547797
O O5 0.918441 0.020568 0.896928
O O6 0.977508 0.076586 0.665013
O O7 0.153881 0.025594 0.846129
O O8 0.551915 0.304407 0.766012
O O9 0.801378 0.908059 0.913548
O O10 0.903533 0.803227 0.738670
O O11 0.680010 0.807604 0.812570
O O12 0.869986 0.796639 0.028425
#
# Coordination Sequence:
#
# PCOD9430748 Si02
#       6
#     8   8   8   8   8   8
#     4  11  22  38  62  97 135 168 211 268 327 403
#     4  10  20  37  59  93 124 168 205 262 327 382
#     4  11  23  40  64  96 135 171 218 264 329 394
#     4  11  23  41  64  91 129 162 218 269 321 389
#     4  10  21  36  61  91 126 164 206 266 331 376
#     4  11  24  42  65  96 123 170 215 270 327 382
#
# _framework density 25.304131999999999
#
# number of rings (size 3 to 8) (size 9 to 14) (size 15 to 20)
#    0.000    1.333    3.333    3.500    0.000    2.667 
#    0.000    0.000    0.000    8.000    0.000    0.000 
#    0.000    0.000    0.000    0.000    0.000    0.000 
#
# Total GULP energy -268036.111737 kJ/mol
# GULP energy per Si atom -5584.085661 kJ/mol
# Density = 2.524654 g / cm^3
# Si number density = 25.304132 Si / 1000 Ang^3
#
#
#
# Elastic Constant Matrix: (Units=GPa)
#
#
# Indices 1 2 3 4 5 6 
#
# 1 28.9968 0.7783 18.9600 0.0000 0.0000 0.0000
# 2 0.7783 54.6329 -7.9219 0.0000 0.0000 0.0000
# 3 18.9600 -7.9219 110.1989 0.0000 0.0000 0.0000
# 4 0.0000 0.0000 0.0000 24.0682 0.0000 0.0000
# 5 0.0000 0.0000 0.0000 0.0000 31.0388 0.0000
# 6 0.0000 0.0000 0.0000 0.0000 0.0000 33.3835
#
#
#
# Elastic Compliance Matrix: (Units=1/GPa)
#
#
# Indices 1 2 3 4 5 6 
#
# 1 0.038987 -0.001544 -0.006819 0.000000 0.000000 0.000000
# 2 -0.001544 0.018558 0.001600 0.000000 0.000000 0.000000
# 3 -0.006819 0.001600 0.010363 0.000000 0.000000 0.000000
# 4 0.000000 0.000000 0.000000 0.041549 0.000000 0.000000
# 5 0.000000 0.000000 0.000000 0.000000 0.032218 0.000000
# 6 0.000000 0.000000 0.000000 0.000000 0.000000 0.029955
#
#
# Mechanical properties :
#
#
# Convention : Reuss Voigt Hill
#
# Bulk Modulus (GPa) = 18.38879 24.16237 21.27558
# Shear Modulus (GPa) = 24.59641 29.83223 27.21432
#
# Velocity S-wave (km/s) = 3.12112 3.43730 3.28302
# Velocity P-wave (km/s) = 4.50238 5.03219 4.77464
#
# Compressibility (1/GPa) = 0.05438096
#
# Stress axis : x y z
#
# Youngs Moduli (GPa) = 25.64989 53.88520 96.50016
#
# Poissons Ratio (x) = 0.08321 0.65801
# Poissons Ratio (y) = 0.03961 -0.15438
# Poissons Ratio (z) = 0.17490 -0.08620
#
# Static dielectric constant tensor:
#      x y z
#    x 2.060430 0.000000 0.000000 
#    y 0.000000 2.059170 0.000000 
#    z 0.000000 0.000000 2.101100 
# 
# From -- ./inp_files/2792.got.cif
#   From: 2010.05.17/outbox.cif.g08.bks.cpg/sg56_2_cif.got.tgz:2792.got - 2010.06.03 13:42:01.
