data_PCOD9430705
_publ_section_title
;
Structure prediction by ZEFSAII (Michael W. Deem and Ramdas Pophale) SiO2 
 PCOD9430705
Probable space group: P C C N
;
_chemical_formula_sum "Si O2"
_cell_formula_units_Z 52
_cell_length_a 8.679580
_cell_length_b 19.692143
_cell_length_c 15.179615
_cell_angle_alpha 90.000000
_cell_angle_beta 90.000000
_cell_angle_gamma 90.000000
_cell_volume 2594.492670
_symmetry_space_group_name_H-M "P C C N"
_symmetry_group_IT_number 56
_symmetry_cell_setting 'orthorhombic'
loop_
_space_group_symop_operation_xyz
x,y,z
1/2-x,1/2-y,z
1/2+x,-y,1/2-z
-x,1/2+y,1/2-z
-x,-y,-z
1/2+x,1/2+y,-z
1/2-x,y,1/2+z
x,1/2-y,1/2+z
loop_
_atom_site_type_symbol
_atom_site_label
_atom_site_fract_x
_atom_site_fract_y
_atom_site_fract_z
Si Si1 0.750000 0.250000 0.709583
Si Si2 0.726180 0.912967 0.367298
Si Si3 0.509406 0.148778 0.201780
Si Si4 0.493020 0.860589 0.247261
Si Si5 0.349153 0.464398 0.958546
Si Si6 0.706331 0.674938 0.134683
Si Si7 0.747178 0.029747 0.224220
O O1 0.863378 0.198374 0.661765
O O2 0.631107 0.200133 0.759326
O O3 0.573053 0.868914 0.344590
O O4 0.749243 0.957689 0.453442
O O5 0.871001 0.864269 0.363354
O O6 0.726835 0.964735 0.285246
O O7 0.423338 0.178644 0.288173
O O8 0.598679 0.079025 0.225144
O O9 0.633670 0.849960 0.180254
O O10 0.390173 0.927590 0.237287
O O11 0.356685 0.385304 0.927569
O O12 0.287706 0.505939 0.874934
O O13 0.500000 0.500000 0.000000
O O14 0.750000 0.750000 0.099333
#
# Coordination Sequence:
#
# PCOD9430705 Si02
#       7
#     4   8   8   8   8   8   8
#     4  10  20  36  64  90 124 168 224 268 336 386
#     4  11  22  38  64  95 124 172 217 268 336 395
#     4  10  21  37  64  92 125 172 215 273 327 402
#     4  10  20  38  65  95 124 174 214 273 329 405
#     4  12  24  41  67 101 137 173 224 286 336 402
#     4  11  22  42  66  95 136 175 230 272 344 414
#     4  11  21  40  66  98 132 162 222 274 340 397
#
# _framework density 20.042452999999998
#
# number of rings (size 3 to 8) (size 9 to 14) (size 15 to 20)
#    0.000    1.231    6.154    1.846    0.000    0.615 
#    2.769    0.000    0.000    1.846    0.000    0.000 
#    0.000    0.000    0.000    0.000    0.000    0.000 
#
# Total GULP energy -289482.024474 kJ/mol
# GULP energy per Si atom -5566.962009 kJ/mol
# Density = 1.999684 g / cm^3
# Si number density = 20.042453 Si / 1000 Ang^3
#
#
#
# Elastic Constant Matrix: (Units=GPa)
#
#
# Indices 1 2 3 4 5 6 
#
# 1 97.2210 48.5946 13.4057 0.0000 0.0000 0.0000
# 2 48.5946 116.6720 19.5807 0.0000 0.0000 0.0000
# 3 13.4057 19.5807 67.1502 0.0000 0.0000 0.0000
# 4 0.0000 0.0000 0.0000 7.8123 0.0000 0.0000
# 5 0.0000 0.0000 0.0000 0.0000 10.8821 0.0000
# 6 0.0000 0.0000 0.0000 0.0000 0.0000 25.8270
#
#
#
# Elastic Compliance Matrix: (Units=1/GPa)
#
#
# Indices 1 2 3 4 5 6 
#
# 1 0.013063 -0.005261 -0.001074 0.000000 0.000000 0.000000
# 2 -0.005261 0.011131 -0.002195 0.000000 0.000000 0.000000
# 3 -0.001074 -0.002195 0.015747 0.000000 0.000000 0.000000
# 4 0.000000 0.000000 0.000000 0.128003 0.000000 0.000000
# 5 0.000000 0.000000 0.000000 0.000000 0.091894 0.000000
# 6 0.000000 0.000000 0.000000 0.000000 0.000000 0.038719
#
#
# Mechanical properties :
#
#
# Convention : Reuss Voigt Hill
#
# Bulk Modulus (GPa) = 43.70548 49.35613 46.53080
# Shear Modulus (GPa) = 15.46821 22.20177 18.83499
#
# Velocity S-wave (km/s) = 2.78109 3.33188 3.06887
# Velocity P-wave (km/s) = 5.67155 6.28340 5.98530
#
# Compressibility (1/GPa) = 0.02288043
#
# Stress axis : x y z
#
# Youngs Moduli (GPa) = 76.54940 89.84221 63.50600
#
# Poissons Ratio (x) = 0.47264 0.06820
# Poissons Ratio (y) = 0.40271 0.13942
# Poissons Ratio (z) = 0.08221 0.19724
#
# Static dielectric constant tensor:
#      x y z
#    x 1.972630 0.000000 0.000000 
#    y 0.000000 0.844870 0.000000 
#    z 0.000000 0.000000 1.756920 
# 
# From -- ./inp_files/10825.got.cif
#   From: 2010.05.17/outbox.cif.g08.bks.cpg/sg56_6_cif.got.tgz:10825.got - 2010.06.03 13:42:01.
