data_PCOD9430888
_publ_section_title
;
Structure prediction by ZEFSAII (Michael W. Deem and Ramdas Pophale) SiO2 
 PCOD9430888
Probable space group: P C C N
;
_chemical_formula_sum "Si O2"
_cell_formula_units_Z 60
_cell_length_a 22.260610
_cell_length_b 8.161775
_cell_length_c 14.607676
_cell_angle_alpha 90.000000
_cell_angle_beta 90.000000
_cell_angle_gamma 90.000000
_cell_volume 2654.011539
_symmetry_space_group_name_H-M "P C C N"
_symmetry_group_IT_number 56
_symmetry_cell_setting 'orthorhombic'
loop_
_space_group_symop_operation_xyz
x,y,z
1/2-x,1/2-y,z
1/2+x,-y,1/2-z
-x,1/2+y,1/2-z
-x,-y,-z
1/2+x,1/2+y,-z
1/2-x,y,1/2+z
x,1/2-y,1/2+z
loop_
_atom_site_type_symbol
_atom_site_label
_atom_site_fract_x
_atom_site_fract_y
_atom_site_fract_z
Si Si1 0.250000 0.250000 0.530997
Si Si2 0.416481 0.333667 0.402740
Si Si3 0.867818 0.936160 0.408552
Si Si4 0.182130 0.800843 0.080460
Si Si5 0.501086 0.056014 0.396005
Si Si6 0.397185 0.929594 0.268228
Si Si7 0.173594 0.473150 0.418728
Si Si8 0.887724 0.447853 0.273879
O O1 0.190545 0.185067 0.584679
O O2 0.233590 0.400414 0.463372
O O3 0.408788 0.416255 0.501900
O O4 0.481552 0.248482 0.390310
O O5 0.369784 0.183164 0.412792
O O6 0.395083 0.443319 0.316807
O O7 0.848157 0.125840 0.404957
O O8 0.901329 0.932813 0.311207
O O9 0.250000 0.750000 0.063529
O O10 0.173593 0.923387 0.167204
O O11 0.154838 0.890279 0.992072
O O12 0.563172 0.005207 0.349665
O O13 0.500000 0.000000 0.500000
O O14 0.449472 0.966741 0.339420
O O15 0.403630 0.739078 0.249120
O O16 0.332206 0.952461 0.318141
#
# Coordination Sequence:
#
# PCOD9430888 Si02
#       8
#     4   8   8   8   8   8   8   8
#     4  10  20  38  62  92 132 186 226 286 336 408
#     4  10  23  41  67 101 134 179 229 293 343 417
#     4  10  22  42  64  99 137 182 233 284 353 407
#     4  11  22  43  68  97 138 187 230 288 349 409
#     4  11  24  44  69  99 135 182 224 289 359 416
#     4  10  23  41  63  98 131 176 226 287 345 421
#     4  10  21  39  61  93 131 173 229 274 347 396
#     4  11  23  43  67 100 137 175 237 278 351 422
#
# _framework density 22.607285000000001
#
# number of rings (size 3 to 8) (size 9 to 14) (size 15 to 20)
#    0.000    1.600    1.333    3.200    0.000    9.067 
#    9.600    4.667    0.000    0.000    0.000    0.000 
#    0.000    0.000    0.000    0.000    0.000    0.000 
#
# Total GULP energy -334538.149930 kJ/mol
# GULP energy per Si atom -5575.635832 kJ/mol
# Density = 2.255583 g / cm^3
# Si number density = 22.607285 Si / 1000 Ang^3
#
#
#
# Elastic Constant Matrix: (Units=GPa)
#
#
# Indices 1 2 3 4 5 6 
#
# 1 47.4823 14.2011 29.6029 0.0000 0.0000 0.0000
# 2 14.2011 76.7587 38.2587 0.0000 0.0000 0.0000
# 3 29.6029 38.2587 153.5702 0.0000 0.0000 0.0000
# 4 0.0000 0.0000 0.0000 20.4888 0.0000 0.0000
# 5 0.0000 0.0000 0.0000 0.0000 28.7563 0.0000
# 6 0.0000 0.0000 0.0000 0.0000 0.0000 20.2129
#
#
#
# Elastic Compliance Matrix: (Units=1/GPa)
#
#
# Indices 1 2 3 4 5 6 
#
# 1 0.024341 -0.002472 -0.004076 0.000000 0.000000 0.000000
# 2 -0.002472 0.015126 -0.003292 0.000000 0.000000 0.000000
# 3 -0.004076 -0.003292 0.008118 0.000000 0.000000 0.000000
# 4 0.000000 0.000000 0.000000 0.048807 0.000000 0.000000
# 5 0.000000 0.000000 0.000000 0.000000 0.034775 0.000000
# 6 0.000000 0.000000 0.000000 0.000000 0.000000 0.049473
#
#
# Mechanical properties :
#
#
# Convention : Reuss Voigt Hill
#
# Bulk Modulus (GPa) = 35.83595 49.10408 42.47001
# Shear Modulus (GPa) = 23.85257 26.94152 25.39704
#
# Velocity S-wave (km/s) = 3.25173 3.45587 3.35535
# Velocity P-wave (km/s) = 5.47579 6.13936 5.81704
#
# Compressibility (1/GPa) = 0.02790494
#
# Stress axis : x y z
#
# Youngs Moduli (GPa) = 41.08274 66.11202 123.18986
#
# Poissons Ratio (x) = 0.16340 0.50217
# Poissons Ratio (y) = 0.10154 0.40552
# Poissons Ratio (z) = 0.16747 0.21763
#
# Static dielectric constant tensor:
#      x y z
#    x 1.967300 0.000000 0.000000 
#    y 0.000000 1.947770 0.000000 
#    z 0.000000 0.000000 1.974340 
# 
# From -- ./inp_files/13248.got.cif
#   From: 2010.05.17/outbox.cif.g08.bks.cpg/sg56_7_cif.got.tgz:13248.got - 2010.06.03 13:42:01.
