data_PCOD9430517
_publ_section_title
;
Structure prediction by ZEFSAII (Michael W. Deem and Ramdas Pophale) SiO2 
 PCOD9430517
Probable space group: P C C N
;
_chemical_formula_sum "Si O2"
_cell_formula_units_Z 48
_cell_length_a 25.632140
_cell_length_b 12.059450
_cell_length_c 7.822513
_cell_angle_alpha 90.000000
_cell_angle_beta 90.000000
_cell_angle_gamma 90.000000
_cell_volume 2418.013166
_symmetry_space_group_name_H-M "P C C N"
_symmetry_group_IT_number 56
_symmetry_cell_setting 'orthorhombic'
loop_
_space_group_symop_operation_xyz
x,y,z
1/2-x,1/2-y,z
1/2+x,-y,1/2-z
-x,1/2+y,1/2-z
-x,-y,-z
1/2+x,1/2+y,-z
1/2-x,y,1/2+z
x,1/2-y,1/2+z
loop_
_atom_site_type_symbol
_atom_site_label
_atom_site_fract_x
_atom_site_fract_y
_atom_site_fract_z
Si Si1 0.039124 0.132724 0.154749
Si Si2 0.192413 0.115838 0.602669
Si Si3 0.187367 0.611911 0.298448
Si Si4 0.426540 0.122725 0.041650
Si Si5 0.250000 0.750000 0.053502
Si Si6 0.428072 0.963091 0.367417
Si Si7 0.250000 0.250000 0.349980
O O1 0.055986 0.257876 0.113362
O O2 0.049268 0.105199 0.354112
O O3 0.977788 0.116673 0.115528
O O4 0.069299 0.049296 0.025915
O O5 0.135814 0.120898 0.521785
O O6 0.235487 0.144461 0.462912
O O7 0.200749 0.215943 0.736630
O O8 0.199588 0.002606 0.703151
O O9 0.227740 0.646958 0.445599
O O10 0.127515 0.598865 0.357303
O O11 0.200655 0.708321 0.162695
O O12 0.436433 0.032484 0.191022
#
# Coordination Sequence:
#
# PCOD9430517 Si02
#       7
#     8   8   8   8   4   8   4
#     4  11  22  40  64  92 127 166 204 260 311 376
#     4  10  21  36  58  90 121 163 200 255 308 374
#     4  10  22  43  63  89 124 159 217 253 317 371
#     4  11  21  40  63  88 128 162 203 252 319 370
#     4  10  22  44  66  86 122 172 202 270 312 368
#     4  10  24  42  62  95 123 164 211 257 312 378
#     4  10  20  34  56  90 126 154 204 244 308 372
#
# _framework density 19.851009000000001
#
# number of rings (size 3 to 8) (size 9 to 14) (size 15 to 20)
#    0.000    1.667    1.667    2.500    2.333    1.333 
#   15.000    0.000    0.000    0.000    0.000    0.000 
#    0.000    0.000    0.000    0.000    0.000    0.000 
#
# Total GULP energy -267674.483391 kJ/mol
# GULP energy per Si atom -5576.551737 kJ/mol
# Density = 1.980583 g / cm^3
# Si number density = 19.851009 Si / 1000 Ang^3
#
#
#
# Elastic Constant Matrix: (Units=GPa)
#
#
# Indices 1 2 3 4 5 6 
#
# 1 101.6084 33.3437 19.4876 0.0000 0.0000 0.0000
# 2 33.3437 56.0516 5.8023 0.0000 0.0000 0.0000
# 3 19.4876 5.8023 75.0466 0.0000 0.0000 0.0000
# 4 0.0000 0.0000 0.0000 18.3493 0.0000 0.0000
# 5 0.0000 0.0000 0.0000 0.0000 11.6444 0.0000
# 6 0.0000 0.0000 0.0000 0.0000 0.0000 28.5689
#
#
#
# Elastic Compliance Matrix: (Units=1/GPa)
#
#
# Indices 1 2 3 4 5 6 
#
# 1 0.012768 -0.007311 -0.002750 0.000000 0.000000 0.000000
# 2 -0.007311 0.022171 0.000184 0.000000 0.000000 0.000000
# 3 -0.002750 0.000184 0.014025 0.000000 0.000000 0.000000
# 4 0.000000 0.000000 0.000000 0.054498 0.000000 0.000000
# 5 0.000000 0.000000 0.000000 0.000000 0.085878 0.000000
# 6 0.000000 0.000000 0.000000 0.000000 0.000000 0.035003
#
#
# Mechanical properties :
#
#
# Convention : Reuss Voigt Hill
#
# Bulk Modulus (GPa) = 34.23466 38.88600 36.56033
# Shear Modulus (GPa) = 19.69790 23.31738 21.50764
#
# Velocity S-wave (km/s) = 3.15348 3.43099 3.29516
# Velocity P-wave (km/s) = 5.52652 5.94366 5.73888
#
# Compressibility (1/GPa) = 0.02921016
#
# Stress axis : x y z
#
# Youngs Moduli (GPa) = 78.31881 45.10465 71.30126
#
# Poissons Ratio (x) = 0.32975 0.19610
# Poissons Ratio (y) = 0.57258 -0.01314
# Poissons Ratio (z) = 0.21540 -0.00831
#
# Static dielectric constant tensor:
#      x y z
#    x 1.669760 0.000000 0.000000 
#    y 0.000000 1.683320 0.000000 
#    z 0.000000 0.000000 1.750270 
# 
# From -- ./inp_files/2800.got.cif
#   From: 2010.05.17/outbox.cif.g08.bks.cpg/sg56_2_cif.got.tgz:2800.got - 2010.06.03 13:42:01.
