data_PCOD9430873
_publ_section_title
;
Structure prediction by ZEFSAII (Michael W. Deem and Ramdas Pophale) SiO2 
 PCOD9430873
Probable space group: P C C N
;
_chemical_formula_sum "Si O2"
_cell_formula_units_Z 56
_cell_length_a 34.873306
_cell_length_b 5.027282
_cell_length_c 14.593771
_cell_angle_alpha 90.000000
_cell_angle_beta 90.000000
_cell_angle_gamma 90.000000
_cell_volume 2558.549920
_symmetry_space_group_name_H-M "P C C N"
_symmetry_group_IT_number 56
_symmetry_cell_setting 'orthorhombic'
loop_
_space_group_symop_operation_xyz
x,y,z
1/2-x,1/2-y,z
1/2+x,-y,1/2-z
-x,1/2+y,1/2-z
-x,-y,-z
1/2+x,1/2+y,-z
1/2-x,y,1/2+z
x,1/2-y,1/2+z
loop_
_atom_site_type_symbol
_atom_site_label
_atom_site_fract_x
_atom_site_fract_y
_atom_site_fract_z
Si Si1 0.417025 0.338603 0.773308
Si Si2 0.638873 0.025147 0.495469
Si Si3 0.222998 0.497976 0.588236
Si Si4 0.504097 0.718583 0.687645
Si Si5 0.575604 0.345865 0.848146
Si Si6 0.776443 0.994304 0.694525
Si Si7 0.641341 0.977131 0.106488
O O1 0.453535 0.311157 0.841935
O O2 0.413187 0.631793 0.731271
O O3 0.381223 0.183892 0.815586
O O4 0.428356 0.143970 0.689917
O O5 0.609415 0.133169 0.420651
O O6 0.631223 0.219930 0.581852
O O7 0.683093 0.041525 0.463745
O O8 0.633954 0.715299 0.519769
O O9 0.250000 0.250000 0.561811
O O10 0.213646 0.471709 0.697056
O O11 0.250000 0.750000 0.576058
O O12 0.504777 0.419535 0.726831
O O13 0.467302 0.755410 0.622594
O O14 0.750000 0.750000 0.669049
O O15 0.814574 0.988647 0.635675
O O16 0.750000 0.250000 0.681702
#
# Coordination Sequence:
#
# PCOD9430873 Si02
#       7
#     8   8   8   8   8   8   8
#     4  10  20  38  62  85 114 154 199 240 282 339
#     4  12  25  38  56  87 122 151 185 233 293 347
#     4  10  22  40  61  82 107 147 197 240 282 338
#     4   8  16  32  58  86 108 144 198 244 278 326
#     4  10  20  38  62  85 114 154 199 240 282 339
#     4  10  22  40  61  82 107 147 197 240 282 338
#     4  12  25  38  56  87 122 151 185 233 293 347
#
# _framework density 21.887397
#
# number of rings (size 3 to 8) (size 9 to 14) (size 15 to 20)
#    0.000    1.714    0.000    4.286    0.000    6.857 
#    0.000    1.429    0.000    0.000    0.000    0.000 
#    0.000    0.000    0.000    0.000    0.000    0.000 
#
# Total GULP energy -312546.929067 kJ/mol
# GULP energy per Si atom -5581.195162 kJ/mol
# Density = 2.183758 g / cm^3
# Si number density = 21.887397 Si / 1000 Ang^3
#
#
#
# Elastic Constant Matrix: (Units=GPa)
#
#
# Indices 1 2 3 4 5 6 
#
# 1 44.4036 -12.9368 5.1807 0.0000 0.0000 0.0000
# 2 -12.9368 98.3566 15.8291 0.0000 0.0000 0.0000
# 3 5.1807 15.8291 17.6041 0.0000 0.0000 0.0000
# 4 0.0000 0.0000 0.0000 40.9406 0.0000 0.0000
# 5 0.0000 0.0000 0.0000 0.0000 -34.3517 0.0000
# 6 0.0000 0.0000 0.0000 0.0000 0.0000 51.7339
#
#
#
# Elastic Compliance Matrix: (Units=1/GPa)
#
#
# Indices 1 2 3 4 5 6 
#
# 1 0.025511 0.005336 -0.012305 0.000000 0.000000 0.000000
# 2 0.005336 0.013003 -0.013263 0.000000 0.000000 0.000000
# 3 -0.012305 -0.013263 0.072352 0.000000 0.000000 0.000000
# 4 0.000000 0.000000 0.000000 0.024426 0.000000 0.000000
# 5 0.000000 0.000000 0.000000 0.000000 -0.029111 0.000000
# 6 0.000000 0.000000 0.000000 0.000000 0.000000 0.019330
#
#
# Mechanical properties :
#
#
# Convention : Reuss Voigt Hill
#
# Bulk Modulus (GPa) = 14.20420 19.61225 16.90822
# Shear Modulus (GPa) = 26.39328 21.81732 24.10530
#
# Velocity S-wave (km/s) = 3.47633 3.16064 3.32223
# Velocity P-wave (km/s) = 4.75572 4.72223 4.73901
#
# Compressibility (1/GPa) = 0.07040172
#
# Stress axis : x y z
#
# Youngs Moduli (GPa) = 39.19878 76.90344 13.82138
#
# Poissons Ratio (x) = -0.41035 0.17008
# Poissons Ratio (y) = -0.20916 0.18331
# Poissons Ratio (z) = 0.48236 1.01993
#
# Static dielectric constant tensor:
#      x y z
#    x 1.801700 0.000000 0.000000 
#    y 0.000000 1.721440 0.000000 
#    z 0.000000 0.000000 1.827710 
# 
# From -- ./inp_files/13462.got.cif
#   From: 2010.05.17/outbox.cif.g08.bks.cpg/sg56_7_cif.got.tgz:13462.got - 2010.06.03 13:42:01.
