data_PCOD9430065
_publ_section_title
;
Structure prediction by ZEFSAII (Michael W. Deem and Ramdas Pophale) SiO2 
 PCOD9430065
Probable space group: P C C N
;
_chemical_formula_sum "Si O2"
_cell_formula_units_Z 64
_cell_length_a 15.938472
_cell_length_b 7.488889
_cell_length_c 24.103188
_cell_angle_alpha 90.000000
_cell_angle_beta 90.000000
_cell_angle_gamma 90.000000
_cell_volume 2876.991412
_symmetry_space_group_name_H-M "P C C N"
_symmetry_group_IT_number 56
_symmetry_cell_setting 'orthorhombic'
loop_
_space_group_symop_operation_xyz
x,y,z
1/2-x,1/2-y,z
1/2+x,-y,1/2-z
-x,1/2+y,1/2-z
-x,-y,-z
1/2+x,1/2+y,-z
1/2-x,y,1/2+z
x,1/2-y,1/2+z
loop_
_atom_site_type_symbol
_atom_site_label
_atom_site_fract_x
_atom_site_fract_y
_atom_site_fract_z
Si Si1 0.593147 0.455781 0.364494
Si Si2 0.847116 0.533511 0.987310
Si Si3 0.250000 0.536596 0.333280
Si Si4 0.347116 0.466488 0.012690
Si Si5 0.250000 0.530326 0.705782
Si Si6 0.093146 0.544218 0.635506
Si Si7 0.080884 0.460652 0.399090
Si Si8 0.919117 0.960652 0.600911
O O1 0.625034 0.462569 0.427907
O O2 0.666465 0.532925 0.326143
O O3 0.584566 0.250000 0.346196
O O4 0.499979 0.536946 0.367461
O O5 0.750000 0.485712 0.997869
O O6 0.851365 0.749999 0.985092
O O7 0.902785 0.468218 0.038910
O O8 0.250000 0.750000 0.333051
O O9 0.249999 0.475623 0.269655
O O10 0.166471 0.478063 0.365125
O O11 0.333529 0.478063 0.365125
O O12 0.374967 0.537428 0.072094
O O13 0.402786 0.531781 0.961090
O O14 0.250000 0.750000 0.703208
O O15 0.166465 0.467075 0.673858
O O16 0.999978 0.463054 0.632540
O O17 0.063920 0.250000 0.406229
#
# Coordination Sequence:
#
# PCOD9430065 Si02
#       8
#     8   8   8   8   8   8   8   8
#     4  10  20  36  60  83 110 148 184 222 271 332
#     4  10  19  33  54  81 117 147 173 223 277 320
#     4  11  23  38  57  78 108 147 186 235 278 317
#     4  10  19  33  54  81 117 147 173 223 277 320
#     4   9  20  38  55  80 112 141 184 235 276 313
#     4  10  20  36  60  83 110 148 184 222 271 332
#     4  10  21  38  58  82 113 147 181 224 277 328
#     4  10  21  38  58  82 113 147 181 224 277 328
#
# _framework density 22.245460999999999
#
# number of rings (size 3 to 8) (size 9 to 14) (size 15 to 20)
#    0.000    2.000    2.500    1.125    0.000    3.000 
#    0.000    2.500    0.000    0.000    0.000    0.000 
#    0.000    0.000    0.000    0.000    0.000    0.000 
#
# Total GULP energy -357620.610655 kJ/mol
# GULP energy per Si atom -5587.822041 kJ/mol
# Density = 2.219483 g / cm^3
# Si number density = 22.245461 Si / 1000 Ang^3
#
#
#
# Elastic Constant Matrix: (Units=GPa)
#
#
# Indices 1 2 3 4 5 6 
#
# 1 103.1414 -13.0533 14.4595 0.0000 0.0000 0.0000
# 2 -13.0533 59.1089 -22.2341 0.0000 0.0000 0.0000
# 3 14.4595 -22.2341 101.3360 0.0000 0.0000 0.0000
# 4 0.0000 0.0000 0.0000 655.8633 0.0000 0.0000
# 5 0.0000 0.0000 0.0000 0.0000 -16.1796 0.0000
# 6 0.0000 0.0000 0.0000 0.0000 0.0000 -4.0330
#
#
#
# Elastic Compliance Matrix: (Units=1/GPa)
#
#
# Indices 1 2 3 4 5 6 
#
# 1 0.010073 0.001835 -0.001035 0.000000 0.000000 0.000000
# 2 0.001835 0.018774 0.003857 0.000000 0.000000 0.000000
# 3 -0.001035 0.003857 0.010862 0.000000 0.000000 0.000000
# 4 0.000000 0.000000 0.000000 0.001525 0.000000 0.000000
# 5 0.000000 0.000000 0.000000 0.000000 -0.061806 0.000000
# 6 0.000000 0.000000 0.000000 0.000000 0.000000 -0.247952
#
#
# Mechanical properties :
#
#
# Convention : Reuss Voigt Hill
#
# Bulk Modulus (GPa) = 20.39772 24.65893 22.52833
# Shear Modulus (GPa) = -19.12053 146.09109 63.48528
#
# Velocity S-wave (km/s) = -2.93495 8.11264 5.34794
# Velocity P-wave (km/s) = 1.51523 9.94295 6.94861
#
# Compressibility (1/GPa) = 0.04902509
#
# Stress axis : x y z
#
# Youngs Moduli (GPa) = 99.27790 53.26465 92.06297
#
# Poissons Ratio (x) = -0.09775 0.09525
# Poissons Ratio (y) = -0.18220 -0.35512
# Poissons Ratio (z) = 0.10271 -0.20546
#
# Static dielectric constant tensor:
#      x y z
#    x 1.875150 0.000000 0.000000 
#    y 0.000000 1.815030 0.000000 
#    z 0.000000 0.000000 1.760930 
# 
# From -- ./inp_files/21165.got.cif
#   From: 2010.05.17/outbox.cif.g08.bks.cpg/sg56_11_cif.got.tgz:21165.got - 2010.06.03 13:42:01.
