data_PCOD9430799
_publ_section_title
;
Structure prediction by ZEFSAII (Michael W. Deem and Ramdas Pophale) SiO2 
 PCOD9430799
Probable space group: P C C N
;
_chemical_formula_sum "Si O2"
_cell_formula_units_Z 52
_cell_length_a 9.596804
_cell_length_b 14.820541
_cell_length_c 17.495187
_cell_angle_alpha 90.000000
_cell_angle_beta 90.000000
_cell_angle_gamma 90.000000
_cell_volume 2488.337423
_symmetry_space_group_name_H-M "P C C N"
_symmetry_group_IT_number 56
_symmetry_cell_setting 'orthorhombic'
loop_
_space_group_symop_operation_xyz
x,y,z
1/2-x,1/2-y,z
1/2+x,-y,1/2-z
-x,1/2+y,1/2-z
-x,-y,-z
1/2+x,1/2+y,-z
1/2-x,y,1/2+z
x,1/2-y,1/2+z
loop_
_atom_site_type_symbol
_atom_site_label
_atom_site_fract_x
_atom_site_fract_y
_atom_site_fract_z
Si Si1 0.696968 0.448962 0.920462
Si Si2 0.250000 0.750000 0.372163
Si Si3 0.965133 0.191940 0.254644
Si Si4 0.750000 0.250000 0.873923
Si Si5 0.403581 0.423668 0.843451
Si Si6 0.692890 0.051823 0.084361
Si Si7 0.250000 0.250000 0.308587
Si Si8 0.070754 0.490528 0.182310
O O1 0.748533 0.344920 0.916057
O O2 0.534365 0.443384 0.898552
O O3 0.776697 0.505947 0.855409
O O4 0.749105 0.482500 0.002897
O O5 0.379825 0.782492 0.320291
O O6 0.204949 0.840105 0.415292
O O7 0.886028 0.249196 0.320260
O O8 0.951215 0.088816 0.280751
O O9 0.126914 0.212619 0.256165
O O10 0.295241 0.505420 0.854315
O O11 0.317982 0.331368 0.857323
O O12 0.447408 0.423297 0.753743
O O13 0.539708 0.025849 0.114367
#
# Coordination Sequence:
#
# PCOD9430799 Si02
#       8
#     8   4   8   4   8   8   4   8
#     4  11  24  41  64  96 135 176 221 276 340 398
#     4  11  23  42  64  98 132 174 222 278 336 392
#     4  10  20  37  65  93 127 167 225 277 321 386
#     4   9  19  38  62  90 124 174 218 272 324 392
#     4  12  24  42  65  98 133 175 221 282 329 401
#     4  12  24  42  66  95 135 176 218 276 341 402
#     4  12  22  38  64  98 126 166 226 270 332 386
#     4  11  23  42  67  95 128 173 228 276 332 393
#
# _framework density 20.897486000000001
#
# number of rings (size 3 to 8) (size 9 to 14) (size 15 to 20)
#    0.000    0.923    4.615    3.231    2.154    0.000 
#    0.000    0.000    0.000    1.846    0.000    0.000 
#    0.000    0.000    0.000    0.000    0.000    0.000 
#
# Total GULP energy -290282.137959 kJ/mol
# GULP energy per Si atom -5582.348807 kJ/mol
# Density = 2.084992 g / cm^3
# Si number density = 20.897486 Si / 1000 Ang^3
#
#
#
# Elastic Constant Matrix: (Units=GPa)
#
#
# Indices 1 2 3 4 5 6 
#
# 1 135.8036 21.8717 24.8102 0.0000 0.0000 0.0000
# 2 21.8717 77.1650 17.6963 0.0000 0.0000 0.0000
# 3 24.8102 17.6963 73.6212 0.0000 0.0000 0.0000
# 4 0.0000 0.0000 0.0000 15.6733 0.0000 0.0000
# 5 0.0000 0.0000 0.0000 0.0000 18.9335 0.0000
# 6 0.0000 0.0000 0.0000 0.0000 0.0000 27.0083
#
#
#
# Elastic Compliance Matrix: (Units=1/GPa)
#
#
# Indices 1 2 3 4 5 6 
#
# 1 0.008066 -0.001760 -0.002295 0.000000 0.000000 0.000000
# 2 -0.001760 0.014099 -0.002796 0.000000 0.000000 0.000000
# 3 -0.002295 -0.002796 0.015029 0.000000 0.000000 0.000000
# 4 0.000000 0.000000 0.000000 0.063803 0.000000 0.000000
# 5 0.000000 0.000000 0.000000 0.000000 0.052816 0.000000
# 6 0.000000 0.000000 0.000000 0.000000 0.000000 0.037026
#
#
# Mechanical properties :
#
#
# Convention : Reuss Voigt Hill
#
# Bulk Modulus (GPa) = 42.56792 46.14956 44.35874
# Shear Modulus (GPa) = 23.54362 27.13716 25.34039
#
# Velocity S-wave (km/s) = 3.36016 3.60750 3.48603
# Velocity P-wave (km/s) = 5.95553 6.28361 6.12177
#
# Compressibility (1/GPa) = 0.02349187
#
# Stress axis : x y z
#
# Youngs Moduli (GPa) = 123.97180 70.92562 66.53975
#
# Poissons Ratio (x) = 0.12483 0.15273
# Poissons Ratio (y) = 0.21818 0.18604
# Poissons Ratio (z) = 0.28455 0.19830
#
# Static dielectric constant tensor:
#      x y z
#    x 1.761340 0.000000 0.000000 
#    y 0.000000 1.839020 0.000000 
#    z 0.000000 0.000000 1.762970 
# 
# From -- ./inp_files/15074.got.cif
#   From: 2010.05.17/outbox.cif.g08.bks.cpg/sg56_8_cif.got.tgz:15074.got - 2010.06.03 13:42:01.
