data_PCOD9430389
_publ_section_title
;
Structure prediction by ZEFSAII (Michael W. Deem and Ramdas Pophale) SiO2 
 PCOD9430389
Probable space group: P C C N
;
_chemical_formula_sum "Si O2"
_cell_formula_units_Z 64
_cell_length_a 24.255434
_cell_length_b 8.511018
_cell_length_c 14.542021
_cell_angle_alpha 90.000000
_cell_angle_beta 90.000000
_cell_angle_gamma 90.000000
_cell_volume 3002.032062
_symmetry_space_group_name_H-M "P C C N"
_symmetry_group_IT_number 56
_symmetry_cell_setting 'orthorhombic'
loop_
_space_group_symop_operation_xyz
x,y,z
1/2-x,1/2-y,z
1/2+x,-y,1/2-z
-x,1/2+y,1/2-z
-x,-y,-z
1/2+x,1/2+y,-z
1/2-x,y,1/2+z
x,1/2-y,1/2+z
loop_
_atom_site_type_symbol
_atom_site_label
_atom_site_fract_x
_atom_site_fract_y
_atom_site_fract_z
Si Si1 0.210669 0.985016 0.925242
Si Si2 0.041829 0.626097 0.110944
Si Si3 0.169316 0.734567 0.272267
Si Si4 0.155993 0.746360 0.064398
Si Si5 0.547317 0.401105 0.186328
Si Si6 0.464532 0.283574 0.555581
Si Si7 0.333660 0.491944 0.401770
Si Si8 0.603002 0.817652 0.589353
O O1 0.208056 0.865111 0.839424
O O2 0.271308 0.058321 0.928027
O O3 0.162807 0.105936 0.903891
O O4 0.189704 0.886586 0.014824
O O5 0.090960 0.750465 0.092307
O O6 0.020077 0.620045 0.214353
O O7 0.059934 0.443385 0.097724
O O8 0.995604 0.663602 0.037296
O O9 0.181310 0.710293 0.164729
O O10 0.107644 0.674888 0.298468
O O11 0.169639 0.913440 0.306252
O O12 0.154479 0.613887 0.984870
O O13 0.509224 0.305942 0.116361
O O14 0.561421 0.577270 0.150897
O O15 0.417724 0.170455 0.516048
O O16 0.381687 0.363855 0.393525
#
# Coordination Sequence:
#
# PCOD9430389 Si02
#       8
#     8   8   8   8   8   8   8   8
#     4  10  22  38  60  88 123 159 206 252 307 371
#     4  10  22  39  64  94 123 159 208 259 309 373
#     4   9  20  38  63  88 119 155 204 252 300 366
#     4  10  19  40  63  91 119 157 205 254 305 366
#     4  10  23  40  63  93 124 163 206 254 312 381
#     4  11  22  40  64  87 126 164 207 256 313 374
#     4  11  21  38  63  88 119 163 203 254 309 363
#     4  11  23  41  59  88 129 161 201 257 313 362
#
# _framework density 21.318892999999999
#
# number of rings (size 3 to 8) (size 9 to 14) (size 15 to 20)
#    0.000    1.750    1.250    4.500    3.500    2.000 
#    4.500    0.000    0.000    3.000    0.000    0.000 
#    0.000    0.000    0.000    0.000    0.000    0.000 
#
# Total GULP energy -356670.779283 kJ/mol
# GULP energy per Si atom -5572.980926 kJ/mol
# Density = 2.127037 g / cm^3
# Si number density = 21.318893 Si / 1000 Ang^3
#
#
#
# Elastic Constant Matrix: (Units=GPa)
#
#
# Indices 1 2 3 4 5 6 
#
# 1 37.6846 7.8559 5.7960 0.0000 0.0000 0.0000
# 2 7.8559 56.1953 28.0520 0.0000 0.0000 0.0000
# 3 5.7960 28.0520 114.4288 0.0000 0.0000 0.0000
# 4 0.0000 0.0000 0.0000 16.8570 0.0000 0.0000
# 5 0.0000 0.0000 0.0000 0.0000 4.8994 0.0000
# 6 0.0000 0.0000 0.0000 0.0000 0.0000 33.7271
#
#
#
# Elastic Compliance Matrix: (Units=1/GPa)
#
#
# Indices 1 2 3 4 5 6 
#
# 1 0.027359 -0.003570 -0.000511 0.000000 0.000000 0.000000
# 2 -0.003570 0.020742 -0.004904 0.000000 0.000000 0.000000
# 3 -0.000511 -0.004904 0.009967 0.000000 0.000000 0.000000
# 4 0.000000 0.000000 0.000000 0.059323 0.000000 0.000000
# 5 0.000000 0.000000 0.000000 0.000000 0.204107 0.000000
# 6 0.000000 0.000000 0.000000 0.000000 0.000000 0.029650
#
#
# Mechanical properties :
#
#
# Convention : Reuss Voigt Hill
#
# Bulk Modulus (GPa) = 24.93823 32.41295 28.67559
# Shear Modulus (GPa) = 13.07247 22.20368 17.63807
#
# Velocity S-wave (km/s) = 2.47895 3.23073 2.87948
# Velocity P-wave (km/s) = 4.46281 5.39942 4.95330
#
# Compressibility (1/GPa) = 0.04009907
#
# Stress axis : x y z
#
# Youngs Moduli (GPa) = 36.55142 48.21092 100.32955
#
# Poissons Ratio (x) = 0.17210 0.05123
# Poissons Ratio (y) = 0.13048 0.49203
# Poissons Ratio (z) = 0.01867 0.23643
#
# Static dielectric constant tensor:
#      x y z
#    x 1.806840 0.000000 0.000000 
#    y 0.000000 1.848340 0.000000 
#    z 0.000000 0.000000 1.778100 
# 
# From -- ./inp_files/13262.got.cif
#   From: 2010.05.17/outbox.cif.g08.bks.cpg/sg56_7_cif.got.tgz:13262.got - 2010.06.03 13:42:01.
