data_PCOD9430491
_publ_section_title
;
Structure prediction by ZEFSAII (Michael W. Deem and Ramdas Pophale) SiO2 
 PCOD9430491
Probable space group: P C C N
;
_chemical_formula_sum "Si O2"
_cell_formula_units_Z 32
_cell_length_a 13.216682
_cell_length_b 22.388177
_cell_length_c 5.222645
_cell_angle_alpha 90.000000
_cell_angle_beta 90.000000
_cell_angle_gamma 90.000000
_cell_volume 1545.367160
_symmetry_space_group_name_H-M "P C C N"
_symmetry_group_IT_number 56
_symmetry_cell_setting 'orthorhombic'
loop_
_space_group_symop_operation_xyz
x,y,z
1/2-x,1/2-y,z
1/2+x,-y,1/2-z
-x,1/2+y,1/2-z
-x,-y,-z
1/2+x,1/2+y,-z
1/2-x,y,1/2+z
x,1/2-y,1/2+z
loop_
_atom_site_type_symbol
_atom_site_label
_atom_site_fract_x
_atom_site_fract_y
_atom_site_fract_z
Si Si1 0.087242 0.458543 0.375488
Si Si2 0.293074 0.316826 0.500451
Si Si3 0.189026 0.579095 0.293776
Si Si4 0.964672 0.888028 0.643538
O O1 0.171546 0.507108 0.299563
O O2 0.098275 0.414687 0.617067
O O3 0.000000 0.500000 0.500000
O O4 0.049476 0.427261 0.114449
O O5 0.250000 0.250000 0.532260
O O6 0.273427 0.345160 0.775328
O O7 0.409265 0.325431 0.421726
O O8 0.231044 0.594791 0.573076
O O9 0.081700 0.609730 0.224673
#
# Coordination Sequence:
#
# PCOD9430491 Si02
#       4
#     8   8   8   8
#     4  10  20  34  50  75 113 155 194 229 267 322
#     4  10  22  39  59  85 109 138 186 245 308 351
#     4  11  21  33  50  78 115 154 188 222 265 333
#     4  11  21  36  56  80 112 151 194 238 286 340
#
# _framework density 20.707053999999999
#
# number of rings (size 3 to 8) (size 9 to 14) (size 15 to 20)
#    0.000    1.500    0.000    9.000    0.000    6.000 
#    0.000    0.000    0.000    0.000    0.000   21.000 
#    0.000    0.000    0.000    0.000    0.000    0.000 
#
# Total GULP energy -178269.123349 kJ/mol
# GULP energy per Si atom -5570.910105 kJ/mol
# Density = 2.065992 g / cm^3
# Si number density = 20.707054 Si / 1000 Ang^3
#
#
#
# Elastic Constant Matrix: (Units=GPa)
#
#
# Indices 1 2 3 4 5 6 
#
# 1 80.5052 41.7616 33.9911 0.0000 0.0000 0.0000
# 2 41.7616 42.6417 21.3559 0.0000 0.0000 0.0000
# 3 33.9911 21.3559 175.4314 0.0000 0.0000 0.0000
# 4 0.0000 0.0000 0.0000 28.8146 0.0000 0.0000
# 5 0.0000 0.0000 0.0000 0.0000 42.6222 0.0000
# 6 0.0000 0.0000 0.0000 0.0000 0.0000 34.0836
#
#
#
# Elastic Compliance Matrix: (Units=1/GPa)
#
#
# Indices 1 2 3 4 5 6 
#
# 1 0.025928 -0.024363 -0.002058 0.000000 0.000000 0.000000
# 2 -0.024363 0.047865 -0.001106 0.000000 0.000000 0.000000
# 3 -0.002058 -0.001106 0.006234 0.000000 0.000000 0.000000
# 4 0.000000 0.000000 0.000000 0.034705 0.000000 0.000000
# 5 0.000000 0.000000 0.000000 0.000000 0.023462 0.000000
# 6 0.000000 0.000000 0.000000 0.000000 0.000000 0.029340
#
#
# Mechanical properties :
#
#
# Convention : Reuss Voigt Hill
#
# Bulk Modulus (GPa) = 40.04300 54.75508 47.39904
# Shear Modulus (GPa) = 21.65328 34.53539 28.09433
#
# Velocity S-wave (km/s) = 3.23723 4.08831 3.68741
# Velocity P-wave (km/s) = 5.77518 6.98469 6.40853
#
# Compressibility (1/GPa) = 0.02497315
#
# Stress axis : x y z
#
# Youngs Moduli (GPa) = 38.56762 20.89206 160.41881
#
# Poissons Ratio (x) = 0.50898 0.33016
# Poissons Ratio (y) = 0.93961 0.17748
# Poissons Ratio (z) = 0.07938 0.02311
#
# Static dielectric constant tensor:
#      x y z
#    x 1.776350 0.000000 0.000000 
#    y 0.000000 1.708160 0.000000 
#    z 0.000000 0.000000 1.810010 
# 
# From -- ./inp_files/420.got.cif
#   From: 2010.05.17/outbox.cif.g08.bks.cpg/sg56_1_cif.got.tgz:420.got - 2010.06.03 13:42:01.
