data_PCOD9430411
_publ_section_title
;
Structure prediction by ZEFSAII (Michael W. Deem and Ramdas Pophale) SiO2 
 PCOD9430411
Probable space group: P C C N
;
_chemical_formula_sum "Si O2"
_cell_formula_units_Z 48
_cell_length_a 5.728122
_cell_length_b 13.786329
_cell_length_c 26.930198
_cell_angle_alpha 90.000000
_cell_angle_beta 90.000000
_cell_angle_gamma 90.000000
_cell_volume 2126.671662
_symmetry_space_group_name_H-M "P C C N"
_symmetry_group_IT_number 56
_symmetry_cell_setting 'orthorhombic'
loop_
_space_group_symop_operation_xyz
x,y,z
1/2-x,1/2-y,z
1/2+x,-y,1/2-z
-x,1/2+y,1/2-z
-x,-y,-z
1/2+x,1/2+y,-z
1/2-x,y,1/2+z
x,1/2-y,1/2+z
loop_
_atom_site_type_symbol
_atom_site_label
_atom_site_fract_x
_atom_site_fract_y
_atom_site_fract_z
Si Si1 0.502819 0.698833 0.888751
Si Si2 0.603307 0.905657 0.697264
Si Si3 0.623240 0.341942 0.891994
Si Si4 0.306561 0.101079 0.698838
Si Si5 0.012350 0.502205 0.874481
Si Si6 0.888392 0.495166 0.553959
O O1 0.750000 0.750000 0.902730
O O2 0.518431 0.672092 0.829938
O O3 0.506920 0.594039 0.916389
O O4 0.250000 0.750000 0.899080
O O5 0.486313 0.824366 0.662354
O O6 0.708328 0.868736 0.748314
O O7 0.423111 0.994660 0.707390
O O8 0.795677 0.955840 0.662055
O O9 0.750000 0.250000 0.914046
O O10 0.435750 0.396377 0.925460
O O11 0.816954 0.423142 0.883749
O O12 0.099305 0.086971 0.658537
O O13 0.122822 0.525244 0.928298
O O14 0.000000 0.500000 0.500000
#
# Coordination Sequence:
#
# PCOD9430411 Si02
#       6
#     8   8   8   8   8   8
#     4  12  27  48  72 106 153 189 242 304 368 436
#     4  10  20  35  69  94 136 181 242 273 359 422
#     4  10  23  44  67  98 138 180 232 304 359 424
#     4  11  20  39  65 101 134 196 227 295 351 440
#     4  10  19  41  68  91 142 175 233 291 364 421
#     4  11  25  46  72 101 133 189 239 304 377 439
#
# _framework density 22.570481000000001
#
# number of rings (size 3 to 8) (size 9 to 14) (size 15 to 20)
#    0.000    1.333    6.667    1.000    0.000    4.000 
#    6.000    0.000    0.000    0.000    0.000    0.000 
#    0.000    0.000    0.000    0.000    0.000    0.000 
#
# Total GULP energy -267641.248127 kJ/mol
# GULP energy per Si atom -5575.859336 kJ/mol
# Density = 2.251911 g / cm^3
# Si number density = 22.570481 Si / 1000 Ang^3
#
#
#
# Elastic Constant Matrix: (Units=GPa)
#
#
# Indices 1 2 3 4 5 6 
#
# 1 70.8471 3.5760 17.6686 0.0000 0.0000 0.0000
# 2 3.5760 70.8290 -1.1765 0.0000 0.0000 0.0000
# 3 17.6686 -1.1765 119.8062 0.0000 0.0000 0.0000
# 4 0.0000 0.0000 0.0000 12.3525 0.0000 0.0000
# 5 0.0000 0.0000 0.0000 0.0000 16.1555 0.0000
# 6 0.0000 0.0000 0.0000 0.0000 0.0000 32.3484
#
#
#
# Elastic Compliance Matrix: (Units=1/GPa)
#
#
# Indices 1 2 3 4 5 6 
#
# 1 0.014697 -0.000778 -0.002175 0.000000 0.000000 0.000000
# 2 -0.000778 0.014162 0.000254 0.000000 0.000000 0.000000
# 3 -0.002175 0.000254 0.008670 0.000000 0.000000 0.000000
# 4 0.000000 0.000000 0.000000 0.080955 0.000000 0.000000
# 5 0.000000 0.000000 0.000000 0.000000 0.061898 0.000000
# 6 0.000000 0.000000 0.000000 0.000000 0.000000 0.030913
#
#
# Mechanical properties :
#
#
# Convention : Reuss Voigt Hill
#
# Bulk Modulus (GPa) = 31.12355 33.51316 32.31836
# Shear Modulus (GPa) = 21.98726 28.26556 25.12641
#
# Velocity S-wave (km/s) = 3.12454 3.54266 3.34015
# Velocity P-wave (km/s) = 5.18039 5.62267 5.40605
#
# Compressibility (1/GPa) = 0.03213001
#
# Stress axis : x y z
#
# Youngs Moduli (GPa) = 68.04289 70.61141 115.33929
#
# Poissons Ratio (x) = 0.05495 0.25087
# Poissons Ratio (y) = 0.05295 -0.02928
# Poissons Ratio (z) = 0.14800 -0.01792
#
# Static dielectric constant tensor:
#      x y z
#    x 1.946180 0.000000 0.000000 
#    y 0.000000 1.869770 0.000000 
#    z 0.000000 0.000000 1.836190 
# 
# From -- ./inp_files/21682.got.cif
#   From: 2010.05.17/outbox.cif.g08.bks.cpg/sg56_11_cif.got.tgz:21682.got - 2010.06.03 13:42:01.
