data_PCOD9430105
_publ_section_title
;
Structure prediction by ZEFSAII (Michael W. Deem and Ramdas Pophale) SiO2 
 PCOD9430105
Probable space group: P C C N
;
_chemical_formula_sum "Si O2"
_cell_formula_units_Z 48
_cell_length_a 29.426886
_cell_length_b 10.089692
_cell_length_c 8.771263
_cell_angle_alpha 90.000000
_cell_angle_beta 90.000000
_cell_angle_gamma 90.000000
_cell_volume 2604.260052
_symmetry_space_group_name_H-M "P C C N"
_symmetry_group_IT_number 56
_symmetry_cell_setting 'orthorhombic'
loop_
_space_group_symop_operation_xyz
x,y,z
1/2-x,1/2-y,z
1/2+x,-y,1/2-z
-x,1/2+y,1/2-z
-x,-y,-z
1/2+x,1/2+y,-z
1/2-x,y,1/2+z
x,1/2-y,1/2+z
loop_
_atom_site_type_symbol
_atom_site_label
_atom_site_fract_x
_atom_site_fract_y
_atom_site_fract_z
Si Si1 0.215189 0.416025 0.715903
Si Si2 0.994506 0.856917 0.425888
Si Si3 0.606511 0.692535 0.536002
Si Si4 0.470264 0.890610 0.588449
Si Si5 0.198442 0.126061 0.569345
Si Si6 0.119899 0.446078 0.636348
O O1 0.204973 0.274545 0.634441
O O2 0.265502 0.459173 0.665643
O O3 0.170909 0.499502 0.666342
O O4 0.214115 0.387978 0.894940
O O5 0.943247 0.817350 0.466418
O O6 0.027486 0.746436 0.497026
O O7 0.004987 0.865799 0.248524
O O8 0.000000 0.000000 0.500000
O O9 0.644208 0.607895 0.441723
O O10 0.608590 0.640901 0.710057
O O11 0.619795 0.846055 0.508223
O O12 0.500000 0.000000 0.500000
O O13 0.419958 0.948028 0.615642
#
# Coordination Sequence:
#
# PCOD9430105 Si02
#       6
#     8   8   8   8   8   8
#     4   9  16  27  44  72 108 142 180 223 277 337
#     4  12  23  39  59  82 116 149 193 236 277 338
#     4  10  19  34  53  79 112 152 185 230 282 336
#     4  12  24  40  58  83 114 153 190 235 289 338
#     4   9  16  26  45  71 107 144 176 223 279 332
#     4  10  20  34  53  80 115 151 187 229 283 343
#
# _framework density 18.431339000000001
#
# number of rings (size 3 to 8) (size 9 to 14) (size 15 to 20)
#    0.000    1.667    3.333    4.000    0.000    1.333 
#    0.000    0.000    0.000    0.000    0.000    1.167 
#    0.000    0.000    0.000    0.000    0.000    0.000 
#
# Total GULP energy -267463.561495 kJ/mol
# GULP energy per Si atom -5572.157531 kJ/mol
# Density = 1.838939 g / cm^3
# Si number density = 18.431339 Si / 1000 Ang^3
#
#
#
# Elastic Constant Matrix: (Units=GPa)
#
#
# Indices 1 2 3 4 5 6 
#
# 1 100.8167 1.4225 9.8519 0.0000 0.0000 0.0000
# 2 1.4225 52.6435 23.8920 0.0000 0.0000 0.0000
# 3 9.8519 23.8920 94.0480 0.0000 0.0000 0.0000
# 4 0.0000 0.0000 0.0000 23.5247 0.0000 0.0000
# 5 0.0000 0.0000 0.0000 0.0000 18.4544 0.0000
# 6 0.0000 0.0000 0.0000 0.0000 0.0000 19.0359
#
#
#
# Elastic Compliance Matrix: (Units=1/GPa)
#
#
# Indices 1 2 3 4 5 6 
#
# 1 0.010024 0.000233 -0.001109 0.000000 0.000000 0.000000
# 2 0.000233 0.021477 -0.005480 0.000000 0.000000 0.000000
# 3 -0.001109 -0.005480 0.012141 0.000000 0.000000 0.000000
# 4 0.000000 0.000000 0.000000 0.042509 0.000000 0.000000
# 5 0.000000 0.000000 0.000000 0.000000 0.054188 0.000000
# 6 0.000000 0.000000 0.000000 0.000000 0.000000 0.052532
#
#
# Mechanical properties :
#
#
# Convention : Reuss Voigt Hill
#
# Bulk Modulus (GPa) = 32.33299 35.31568 33.82434
# Shear Modulus (GPa) = 23.15953 26.35910 24.75931
#
# Velocity S-wave (km/s) = 3.54860 3.78580 3.66912
# Velocity P-wave (km/s) = 5.86264 6.18967 6.02837
#
# Compressibility (1/GPa) = 0.03092816
#
# Stress axis : x y z
#
# Youngs Moduli (GPa) = 99.75966 46.56225 82.36365
#
# Poissons Ratio (x) = -0.01083 0.09135
# Poissons Ratio (y) = -0.02320 0.45138
# Poissons Ratio (z) = 0.11065 0.25517
#
# Static dielectric constant tensor:
#      x y z
#    x 1.700200 0.000000 0.000000 
#    y 0.000000 1.653030 0.000000 
#    z 0.000000 0.000000 1.696260 
# 
# From -- ./inp_files/5156.got.cif
#   From: 2010.05.17/outbox.cif.g08.bks.cpg/sg56_3_cif.got.tgz:5156.got - 2010.06.03 13:42:01.
