data_PCOD9430783
_publ_section_title
;
Structure prediction by ZEFSAII (Michael W. Deem and Ramdas Pophale) SiO2 
 PCOD9430783
Probable space group: P C C N
;
_chemical_formula_sum "Si O2"
_cell_formula_units_Z 48
_cell_length_a 24.255095
_cell_length_b 9.469145
_cell_length_c 8.571402
_cell_angle_alpha 90.000000
_cell_angle_beta 90.000000
_cell_angle_gamma 90.000000
_cell_volume 1968.636853
_symmetry_space_group_name_H-M "P C C N"
_symmetry_group_IT_number 56
_symmetry_cell_setting 'orthorhombic'
loop_
_space_group_symop_operation_xyz
x,y,z
1/2-x,1/2-y,z
1/2+x,-y,1/2-z
-x,1/2+y,1/2-z
-x,-y,-z
1/2+x,1/2+y,-z
1/2-x,y,1/2+z
x,1/2-y,1/2+z
loop_
_atom_site_type_symbol
_atom_site_label
_atom_site_fract_x
_atom_site_fract_y
_atom_site_fract_z
Si Si1 0.607452 0.301510 0.543506
Si Si2 0.993495 0.114292 0.365207
Si Si3 0.098875 0.435081 0.720751
Si Si4 0.779920 0.603277 0.177073
Si Si5 0.091864 0.496310 0.368984
Si Si6 0.183935 0.499873 0.152257
O O1 0.551345 0.282757 0.441505
O O2 0.596490 0.414724 0.682793
O O3 0.621998 0.147922 0.602607
O O4 0.653908 0.368246 0.432477
O O5 0.963848 0.035809 0.221177
O O6 0.000000 0.000000 0.500000
O O7 0.053652 0.161519 0.309991
O O8 0.162791 0.399842 0.732462
O O9 0.083621 0.435212 0.539407
O O10 0.750000 0.750000 0.202496
O O11 0.736963 0.484649 0.237071
O O12 0.794547 0.586854 0.996157
O O13 0.134784 0.424936 0.249897
#
# Coordination Sequence:
#
# PCOD9430783 Si02
#       6
#     8   8   8   8   8   8
#     4   9  20  39  63  92 130 168 204 259 323 384
#     4   9  19  37  60  91 131 165 201 252 308 375
#     4  10  20  37  62  95 130 168 212 258 313 382
#     4  11  23  43  65  89 128 172 217 268 317 371
#     4  11  20  38  66  95 130 168 208 263 326 383
#     4  10  22  40  62  90 124 165 213 262 313 375
#
# _framework density 24.382352999999998
#
# number of rings (size 3 to 8) (size 9 to 14) (size 15 to 20)
#    0.000    2.000    0.000    5.000    0.000    0.000 
#    0.000   31.667    0.000    0.000    0.000    0.000 
#    0.000    0.000    0.000    0.000    0.000    0.000 
#
# Total GULP energy -268339.172221 kJ/mol
# GULP energy per Si atom -5590.399421 kJ/mol
# Density = 2.432686 g / cm^3
# Si number density = 24.382353 Si / 1000 Ang^3
#
#
#
# Elastic Constant Matrix: (Units=GPa)
#
#
# Indices 1 2 3 4 5 6 
#
# 1 158.4762 14.4314 48.8667 0.0000 0.0000 0.0000
# 2 14.4314 35.6345 12.5449 0.0000 0.0000 0.0000
# 3 48.8667 12.5449 155.9230 0.0000 0.0000 0.0000
# 4 0.0000 0.0000 0.0000 25.7605 0.0000 0.0000
# 5 0.0000 0.0000 0.0000 0.0000 51.9778 0.0000
# 6 0.0000 0.0000 0.0000 0.0000 0.0000 16.5489
#
#
#
# Elastic Compliance Matrix: (Units=1/GPa)
#
#
# Indices 1 2 3 4 5 6 
#
# 1 0.007144 -0.002166 -0.002065 0.000000 0.000000 0.000000
# 2 -0.002166 0.029538 -0.001698 0.000000 0.000000 0.000000
# 3 -0.002065 -0.001698 0.007197 0.000000 0.000000 0.000000
# 4 0.000000 0.000000 0.000000 0.038819 0.000000 0.000000
# 5 0.000000 0.000000 0.000000 0.000000 0.019239 0.000000
# 6 0.000000 0.000000 0.000000 0.000000 0.000000 0.060427
#
#
# Mechanical properties :
#
#
# Convention : Reuss Voigt Hill
#
# Bulk Modulus (GPa) = 31.22891 55.74664 43.48778
# Shear Modulus (GPa) = 27.04238 37.13680 32.08959
#
# Velocity S-wave (km/s) = 3.33392 3.90693 3.63174
# Velocity P-wave (km/s) = 5.25888 6.57763 5.95488
#
# Compressibility (1/GPa) = 0.03202161
#
# Stress axis : x y z
#
# Youngs Moduli (GPa) = 139.97726 33.85512 138.94551
#
# Poissons Ratio (x) = 0.07334 0.28687
# Poissons Ratio (y) = 0.30324 0.23586
# Poissons Ratio (z) = 0.28901 0.05747
#
# Static dielectric constant tensor:
#      x y z
#    x 1.951650 0.000000 0.000000 
#    y 0.000000 1.972260 0.000000 
#    z 0.000000 0.000000 1.933030 
# 
# From -- ./inp_files/4737.got.cif
#   From: 2010.05.17/outbox.cif.g08.bks.cpg/sg56_3_cif.got.tgz:4737.got - 2010.06.03 13:42:01.
