data_PCOD9430551
_publ_section_title
;
Structure prediction by ZEFSAII (Michael W. Deem and Ramdas Pophale) SiO2 
 PCOD9430551
Probable space group: P C C N
;
_chemical_formula_sum "Si O2"
_cell_formula_units_Z 48
_cell_length_a 7.567574
_cell_length_b 15.599409
_cell_length_c 16.795971
_cell_angle_alpha 90.000000
_cell_angle_beta 90.000000
_cell_angle_gamma 90.000000
_cell_volume 1982.759035
_symmetry_space_group_name_H-M "P C C N"
_symmetry_group_IT_number 56
_symmetry_cell_setting 'orthorhombic'
loop_
_space_group_symop_operation_xyz
x,y,z
1/2-x,1/2-y,z
1/2+x,-y,1/2-z
-x,1/2+y,1/2-z
-x,-y,-z
1/2+x,1/2+y,-z
1/2-x,y,1/2+z
x,1/2-y,1/2+z
loop_
_atom_site_type_symbol
_atom_site_label
_atom_site_fract_x
_atom_site_fract_y
_atom_site_fract_z
Si Si1 0.869251 0.081204 0.732087
Si Si2 0.962291 0.263799 0.141510
Si Si3 0.864938 0.330857 0.981391
Si Si4 0.310689 0.346366 0.378156
Si Si5 0.458170 0.403560 0.219216
Si Si6 0.675019 0.009261 0.054473
O O1 0.975490 0.169734 0.715897
O O2 0.663558 0.101734 0.745760
O O3 0.876993 0.038294 0.643762
O O4 0.926762 0.005671 0.792520
O O5 0.750000 0.250000 0.136554
O O6 0.995229 0.306705 0.055801
O O7 0.054331 0.172316 0.154139
O O8 0.750000 0.250000 0.960341
O O9 0.741396 0.408014 0.012761
O O10 0.987595 0.352312 0.908092
O O11 0.250000 0.250000 0.388401
O O12 0.322106 0.374664 0.287104
O O13 0.222890 0.420672 0.432244
O O14 0.500000 0.000000 0.000000
#
# Coordination Sequence:
#
# PCOD9430551 Si02
#       6
#     8   8   8   8   8   8
#     4   9  18  33  54  78 109 146 182 228 284 341
#     4   8  16  32  53  75 102 136 178 227 277 328
#     4   9  17  34  57  77 100 139 186 229 274 328
#     4  10  21  36  52  76 113 148 178 224 283 337
#     4  10  20  35  54  80 111 146 185 228 280 340
#     4   8  16  34  57  76 103 143 182 224 280 336
#
# _framework density 24.208691000000002
#
# number of rings (size 3 to 8) (size 9 to 14) (size 15 to 20)
#    0.000    3.000    0.000    1.000    0.000    4.667 
#    0.000   11.667    0.000    0.000    0.000    0.000 
#    0.000    0.000    0.000    0.000    0.000    0.000 
#
# Total GULP energy -267293.442655 kJ/mol
# GULP energy per Si atom -5568.613389 kJ/mol
# Density = 2.415359 g / cm^3
# Si number density = 24.208691 Si / 1000 Ang^3
#
#
#
# Elastic Constant Matrix: (Units=GPa)
#
#
# Indices 1 2 3 4 5 6 
#
# 1 36.8057 5.0784 18.9176 0.0000 0.0000 0.0000
# 2 5.0784 77.6274 18.1826 0.0000 0.0000 0.0000
# 3 18.9176 18.1826 47.4547 0.0000 0.0000 0.0000
# 4 0.0000 0.0000 0.0000 -2.0771 0.0000 0.0000
# 5 0.0000 0.0000 0.0000 0.0000 14.7428 0.0000
# 6 0.0000 0.0000 0.0000 0.0000 0.0000 38.9334
#
#
#
# Elastic Compliance Matrix: (Units=1/GPa)
#
#
# Indices 1 2 3 4 5 6 
#
# 1 0.034249 0.001052 -0.014056 0.000000 0.000000 0.000000
# 2 0.001052 0.014184 -0.005854 0.000000 0.000000 0.000000
# 3 -0.014056 -0.005854 0.028919 0.000000 0.000000 0.000000
# 4 0.000000 0.000000 0.000000 -0.481446 0.000000 0.000000
# 5 0.000000 0.000000 0.000000 0.000000 0.067830 0.000000
# 6 0.000000 0.000000 0.000000 0.000000 0.000000 0.025685
#
#
# Mechanical properties :
#
#
# Convention : Reuss Voigt Hill
#
# Bulk Modulus (GPa) = 25.22980 27.36055 26.29518
# Shear Modulus (GPa) = -19.25674 18.30044 -0.47815
#
# Velocity S-wave (km/s) = -2.82343 2.75243 -0.44490
# Velocity P-wave (km/s) = 0.42962 4.62900 3.25907
#
# Compressibility (1/GPa) = 0.03963566
#
# Stress axis : x y z
#
# Youngs Moduli (GPa) = 29.19769 70.49973 34.57899
#
# Poissons Ratio (x) = -0.07415 0.48605
# Poissons Ratio (y) = -0.03071 0.20243
# Poissons Ratio (z) = 0.41041 0.41272
#
# Static dielectric constant tensor:
#      x y z
#    x 1.905540 0.000000 0.000000 
#    y 0.000000 2.136970 0.000000 
#    z 0.000000 0.000000 1.947570 
# 
# From -- ./inp_files/18063.got.cif
#   From: 2010.05.17/outbox.cif.g08.bks.cpg/sg56_10_cif.got.tgz:18063.got - 2010.06.03 13:42:01.
