data_PCOD9430225
_publ_section_title
;
Structure prediction by ZEFSAII (Michael W. Deem and Ramdas Pophale) SiO2 
 PCOD9430225
Probable space group: P C C N
;
_chemical_formula_sum "Si O2"
_cell_formula_units_Z 60
_cell_length_a 10.441817
_cell_length_b 32.263014
_cell_length_c 8.972658
_cell_angle_alpha 90.000000
_cell_angle_beta 90.000000
_cell_angle_gamma 90.000000
_cell_volume 3022.749297
_symmetry_space_group_name_H-M "P C C N"
_symmetry_group_IT_number 56
_symmetry_cell_setting 'orthorhombic'
loop_
_space_group_symop_operation_xyz
x,y,z
1/2-x,1/2-y,z
1/2+x,-y,1/2-z
-x,1/2+y,1/2-z
-x,-y,-z
1/2+x,1/2+y,-z
1/2-x,y,1/2+z
x,1/2-y,1/2+z
loop_
_atom_site_type_symbol
_atom_site_label
_atom_site_fract_x
_atom_site_fract_y
_atom_site_fract_z
Si Si1 0.350398 0.692331 0.928975
Si Si2 0.533498 0.998384 0.256173
Si Si3 0.126338 0.551487 0.463896
Si Si4 0.570493 0.922821 0.855887
Si Si5 0.710056 0.922072 0.151864
Si Si6 0.750000 0.250000 0.829141
Si Si7 0.504449 0.875290 0.310798
Si Si8 0.655962 0.117470 0.994221
O O1 0.346321 0.725245 0.062514
O O2 0.314246 0.716766 0.779429
O O3 0.479420 0.667422 0.894682
O O4 0.243232 0.657063 0.966329
O O5 0.596417 0.024038 0.392246
O O6 0.496787 0.032453 0.134745
O O7 0.402726 0.977842 0.321668
O O8 0.630838 0.962888 0.204229
O O9 0.027532 0.588541 0.427614
O O10 0.257705 0.576258 0.486332
O O11 0.643983 0.922105 0.700400
O O12 0.463315 0.888929 0.893546
O O13 0.681760 0.919542 0.978035
O O14 0.638352 0.883953 0.232604
O O15 0.401287 0.879372 0.173197
#
# Coordination Sequence:
#
# PCOD9430225 Si02
#       8
#     8   8   8   8   8   4   8   8
#     4  10  19  36  59  93 124 148 177 227 295 365
#     4  10  22  36  55  77 110 153 196 269 313 344
#     4   9  21  34  53  81 109 145 200 241 304 359
#     4  11  25  38  58  78 111 156 210 255 304 346
#     4  10  24  41  53  79 110 154 212 256 300 347
#     4  10  20  32  60  98 128 140 172 224 294 374
#     4   9  19  37  55  78 115 153 188 237 280 356
#     4  10  21  37  57  83 115 158 196 236 295 361
#
# _framework density 19.849481000000001
#
# number of rings (size 3 to 8) (size 9 to 14) (size 15 to 20)
#    0.000    2.133    1.333    0.400   11.200    2.133 
#    0.000    0.000    0.000    0.000    0.000    5.600 
#    0.000    0.000    0.000    0.000    0.000    0.000 
#
# Total GULP energy -334898.003169 kJ/mol
# GULP energy per Si atom -5581.633386 kJ/mol
# Density = 1.980430 g / cm^3
# Si number density = 19.849481 Si / 1000 Ang^3
#
#
#
# Elastic Constant Matrix: (Units=GPa)
#
#
# Indices 1 2 3 4 5 6 
#
# 1 54.6794 14.7883 24.0055 0.0000 0.0000 0.0000
# 2 14.7883 83.5903 27.8050 0.0000 0.0000 0.0000
# 3 24.0055 27.8050 71.1363 0.0000 0.0000 0.0000
# 4 0.0000 0.0000 0.0000 33.6817 0.0000 0.0000
# 5 0.0000 0.0000 0.0000 0.0000 25.2413 0.0000
# 6 0.0000 0.0000 0.0000 0.0000 0.0000 20.7661
#
#
#
# Elastic Compliance Matrix: (Units=1/GPa)
#
#
# Indices 1 2 3 4 5 6 
#
# 1 0.021656 -0.001610 -0.006679 0.000000 0.000000 0.000000
# 2 -0.001610 0.013871 -0.004878 0.000000 0.000000 0.000000
# 3 -0.006679 -0.004878 0.018218 0.000000 0.000000 0.000000
# 4 0.000000 0.000000 0.000000 0.029690 0.000000 0.000000
# 5 0.000000 0.000000 0.000000 0.000000 0.039618 0.000000
# 6 0.000000 0.000000 0.000000 0.000000 0.000000 0.048155
#
#
# Mechanical properties :
#
#
# Convention : Reuss Voigt Hill
#
# Bulk Modulus (GPa) = 36.48172 38.06705 37.27438
# Shear Modulus (GPa) = 24.19222 25.45830 24.82526
#
# Velocity S-wave (km/s) = 3.49490 3.58518 3.54033
# Velocity P-wave (km/s) = 5.89108 6.02972 5.96080
#
# Compressibility (1/GPa) = 0.02741099
#
# Stress axis : x y z
#
# Youngs Moduli (GPa) = 46.17681 72.09491 54.89033
#
# Poissons Ratio (x) = 0.11605 0.36660
# Poissons Ratio (y) = 0.07433 0.26778
# Poissons Ratio (z) = 0.30840 0.35171
#
# Static dielectric constant tensor:
#      x y z
#    x 1.723120 0.000000 0.000000 
#    y 0.000000 1.699400 0.000000 
#    z 0.000000 0.000000 1.735680 
# 
# From -- ./inp_files/2952.got.cif
#   From: 2010.05.17/outbox.cif.g08.bks.cpg/sg56_2_cif.got.tgz:2952.got - 2010.06.03 13:42:01.
