data_PCOD9430066
_publ_section_title
;
Structure prediction by ZEFSAII (Michael W. Deem and Ramdas Pophale) SiO2 
 PCOD9430066
Probable space group: P C C N
;
_chemical_formula_sum "Si O2"
_cell_formula_units_Z 60
_cell_length_a 12.312297
_cell_length_b 12.198678
_cell_length_c 18.638163
_cell_angle_alpha 90.000000
_cell_angle_beta 90.000000
_cell_angle_gamma 90.000000
_cell_volume 2799.335530
_symmetry_space_group_name_H-M "P C C N"
_symmetry_group_IT_number 56
_symmetry_cell_setting 'orthorhombic'
loop_
_space_group_symop_operation_xyz
x,y,z
1/2-x,1/2-y,z
1/2+x,-y,1/2-z
-x,1/2+y,1/2-z
-x,-y,-z
1/2+x,1/2+y,-z
1/2-x,y,1/2+z
x,1/2-y,1/2+z
loop_
_atom_site_type_symbol
_atom_site_label
_atom_site_fract_x
_atom_site_fract_y
_atom_site_fract_z
Si Si1 0.156998 0.323800 0.074653
Si Si2 0.468845 0.848441 0.428110
Si Si3 0.673859 0.654123 0.262354
Si Si4 0.552545 0.074840 0.413842
Si Si5 0.573408 0.200653 0.268916
Si Si6 0.698496 0.443664 0.433275
Si Si7 0.802029 0.411544 0.763161
Si Si8 0.750000 0.250000 0.035017
O O1 0.250000 0.250000 0.037567
O O2 0.204536 0.352837 0.153560
O O3 0.138831 0.444891 0.042542
O O4 0.051628 0.249712 0.087088
O O5 0.491517 0.875927 0.512429
O O6 0.344291 0.810728 0.421715
O O7 0.491385 0.964522 0.389808
O O8 0.750000 0.750000 0.230846
O O9 0.546161 0.677289 0.259314
O O10 0.690063 0.532840 0.232187
O O11 0.562138 0.167811 0.353297
O O12 0.672703 0.033463 0.434239
O O13 0.608260 0.321614 0.244132
O O14 0.679886 0.130111 0.247990
O O15 0.678183 0.415120 0.350050
O O16 0.688123 0.338243 0.484289
#
# Coordination Sequence:
#
# PCOD9430066 Si02
#       8
#     8   8   8   8   8   8   8   4
#     4  10  19  34  54  80 102 140 187 234 265 324
#     4  10  19  33  54  82 110 143 179 226 282 337
#     4  10  23  36  57  82 115 148 186 233 289 330
#     4   9  18  33  58  81 105 143 190 228 274 331
#     4  10  20  37  61  83 108 148 189 238 276 336
#     4   9  16  33  56  78 103 138 185 234 260 319
#     4   9  19  35  58  86 105 139 195 232 276 325
#     4  10  20  32  52  80 116 146 176 220 284 344
#
# _framework density 21.433658999999999
#
# number of rings (size 3 to 8) (size 9 to 14) (size 15 to 20)
#    0.000    2.400    1.333    2.400    3.733    0.533 
#    0.000    3.333    0.000    0.000    0.000    0.000 
#    0.000    0.000    0.000    0.000    0.000    0.000 
#
# Total GULP energy -334379.949143 kJ/mol
# GULP energy per Si atom -5572.999152 kJ/mol
# Density = 2.138488 g / cm^3
# Si number density = 21.433659 Si / 1000 Ang^3
#
#
#
# Elastic Constant Matrix: (Units=GPa)
#
#
# Indices 1 2 3 4 5 6 
#
# 1 67.4308 44.0510 -3.8690 0.0000 0.0000 0.0000
# 2 44.0510 158.5978 15.1357 0.0000 0.0000 0.0000
# 3 -3.8690 15.1357 28.7844 0.0000 0.0000 0.0000
# 4 0.0000 0.0000 0.0000 15.8845 0.0000 0.0000
# 5 0.0000 0.0000 0.0000 0.0000 20.5024 0.0000
# 6 0.0000 0.0000 0.0000 0.0000 0.0000 33.2319
#
#
#
# Elastic Compliance Matrix: (Units=1/GPa)
#
#
# Indices 1 2 3 4 5 6 
#
# 1 0.018935 -0.005793 0.005591 0.000000 0.000000 0.000000
# 2 -0.005793 0.008411 -0.005201 0.000000 0.000000 0.000000
# 3 0.005591 -0.005201 0.038228 0.000000 0.000000 0.000000
# 4 0.000000 0.000000 0.000000 0.062954 0.000000 0.000000
# 5 0.000000 0.000000 0.000000 0.000000 0.048775 0.000000
# 6 0.000000 0.000000 0.000000 0.000000 0.000000 0.030092
#
#
# Mechanical properties :
#
#
# Convention : Reuss Voigt Hill
#
# Bulk Modulus (GPa) = 18.25899 40.60540 29.43220
# Shear Modulus (GPa) = 21.14563 27.22346 24.18454
#
# Velocity S-wave (km/s) = 3.14437 3.56775 3.36273
# Velocity P-wave (km/s) = 4.66048 5.99647 5.37018
#
# Compressibility (1/GPa) = 0.05476754
#
# Stress axis : x y z
#
# Youngs Moduli (GPa) = 52.81173 118.89723 26.15916
#
# Poissons Ratio (x) = 0.68876 -0.14626
# Poissons Ratio (y) = 0.30593 0.13606
# Poissons Ratio (z) = -0.29528 0.61841
#
# Static dielectric constant tensor:
#      x y z
#    x 1.767780 0.000000 0.000000 
#    y 0.000000 1.865330 0.000000 
#    z 0.000000 0.000000 1.824750 
# 
# From -- ./inp_files/18790.got.cif
#   From: 2010.05.17/outbox.cif.g08.bks.cpg/sg56_10_cif.got.tgz:18790.got - 2010.06.03 13:42:01.
