data_PCOD9430802
_publ_section_title
;
Structure prediction by ZEFSAII (Michael W. Deem and Ramdas Pophale) SiO2 
 PCOD9430802
Probable space group: P C C N
;
_chemical_formula_sum "Si O2"
_cell_formula_units_Z 32
_cell_length_a 7.447255
_cell_length_b 15.411698
_cell_length_c 10.346004
_cell_angle_alpha 90.000000
_cell_angle_beta 90.000000
_cell_angle_gamma 90.000000
_cell_volume 1187.461005
_symmetry_space_group_name_H-M "P C C N"
_symmetry_group_IT_number 56
_symmetry_cell_setting 'orthorhombic'
loop_
_space_group_symop_operation_xyz
x,y,z
1/2-x,1/2-y,z
1/2+x,-y,1/2-z
-x,1/2+y,1/2-z
-x,-y,-z
1/2+x,1/2+y,-z
1/2-x,y,1/2+z
x,1/2-y,1/2+z
loop_
_atom_site_type_symbol
_atom_site_label
_atom_site_fract_x
_atom_site_fract_y
_atom_site_fract_z
Si Si1 0.232969 0.505903 0.060006
Si Si2 0.101815 0.422178 0.323866
Si Si3 0.074358 0.687073 0.064933
Si Si4 0.033406 0.750233 0.308823
O O1 0.145995 0.468377 0.189172
O O2 0.423524 0.538371 0.112963
O O3 0.257321 0.440515 0.939785
O O4 0.136536 0.594006 0.011901
O O5 0.050588 0.325906 0.278805
O O6 0.250000 0.750000 0.085312
O O7 0.963795 0.736630 0.953580
O O8 0.000041 0.671492 0.210568
O O9 0.250000 0.750000 0.330135
#
# Coordination Sequence:
#
# PCOD9430802 Si02
#       4
#     8   8   8   8
#     4  11  24  40  70 102 149 179 248 289 358 417
#     4  11  24  43  66 108 141 193 232 301 351 428
#     4  10  20  37  66 103 127 182 231 286 334 438
#     4  10  20  38  67 100 131 176 241 278 347 420
#
# _framework density 26.948253000000001
#
# number of rings (size 3 to 8) (size 9 to 14) (size 15 to 20)
#    0.000    1.500    5.000    1.500    3.500    4.000 
#    0.000    0.000    0.000   12.000    0.000    0.000 
#    0.000    0.000    0.000    0.000    0.000    0.000 
#
# Total GULP energy -178797.670801 kJ/mol
# GULP energy per Si atom -5587.427213 kJ/mol
# Density = 2.688692 g / cm^3
# Si number density = 26.948253 Si / 1000 Ang^3
#
#
#
# Elastic Constant Matrix: (Units=GPa)
#
#
# Indices 1 2 3 4 5 6 
#
# 1 90.6371 7.3202 19.7788 0.0000 0.0000 0.0000
# 2 7.3202 57.1189 3.3573 0.0000 0.0000 0.0000
# 3 19.7788 3.3573 217.3938 0.0000 0.0000 0.0000
# 4 0.0000 0.0000 0.0000 46.6752 0.0000 0.0000
# 5 0.0000 0.0000 0.0000 0.0000 -199.9872 0.0000
# 6 0.0000 0.0000 0.0000 0.0000 0.0000 24.4168
#
#
#
# Elastic Compliance Matrix: (Units=1/GPa)
#
#
# Indices 1 2 3 4 5 6 
#
# 1 0.011367 -0.001397 -0.001013 0.000000 0.000000 0.000000
# 2 -0.001397 0.017695 -0.000146 0.000000 0.000000 0.000000
# 3 -0.001013 -0.000146 0.004694 0.000000 0.000000 0.000000
# 4 0.000000 0.000000 0.000000 0.021425 0.000000 0.000000
# 5 0.000000 0.000000 0.000000 0.000000 -0.005000 0.000000
# 6 0.000000 0.000000 0.000000 0.000000 0.000000 0.040955
#
#
# Mechanical properties :
#
#
# Convention : Reuss Voigt Hill
#
# Bulk Modulus (GPa) = 34.91106 47.34027 41.12567
# Shear Modulus (GPa) = 47.26082 -3.46614 21.89734
#
# Velocity S-wave (km/s) = 4.19234 -1.13535 2.85365
# Velocity P-wave (km/s) = 6.03467 3.98579 5.11389
#
# Compressibility (1/GPa) = 0.02864421
#
# Stress axis : x y z
#
# Youngs Moduli (GPa) = 87.97536 56.51313 213.02286
#
# Poissons Ratio (x) = 0.07896 0.21571
# Poissons Ratio (y) = 0.12292 0.03113
# Poissons Ratio (z) = 0.08908 0.00826
#
# Static dielectric constant tensor:
#      x y z
#    x 2.261330 0.000000 0.000000 
#    y 0.000000 2.132970 0.000000 
#    z 0.000000 0.000000 2.169500 
# 
# From -- ./inp_files/5948.got.cif
#   From: 2010.05.17/outbox.cif.g08.bks.cpg/sg56_3_cif.got.tgz:5948.got - 2010.06.03 13:42:01.
