data_PCOD9430221
_publ_section_title
;
Structure prediction by ZEFSAII (Michael W. Deem and Ramdas Pophale) SiO2 
 PCOD9430221
Probable space group: P C C N
;
_chemical_formula_sum "Si O2"
_cell_formula_units_Z 48
_cell_length_a 7.807813
_cell_length_b 18.273057
_cell_length_c 15.714733
_cell_angle_alpha 90.000000
_cell_angle_beta 90.000000
_cell_angle_gamma 90.000000
_cell_volume 2242.062004
_symmetry_space_group_name_H-M "P C C N"
_symmetry_group_IT_number 56
_symmetry_cell_setting 'orthorhombic'
loop_
_space_group_symop_operation_xyz
x,y,z
1/2-x,1/2-y,z
1/2+x,-y,1/2-z
-x,1/2+y,1/2-z
-x,-y,-z
1/2+x,1/2+y,-z
1/2-x,y,1/2+z
x,1/2-y,1/2+z
loop_
_atom_site_type_symbol
_atom_site_label
_atom_site_fract_x
_atom_site_fract_y
_atom_site_fract_z
Si Si1 0.195297 0.829366 0.367786
Si Si2 0.144711 0.970845 0.806718
Si Si3 0.071339 0.207759 0.501229
Si Si4 0.771107 0.014141 0.869794
Si Si5 0.095172 0.649176 0.541279
Si Si6 0.267056 0.433214 0.457282
O O1 0.250000 0.750000 0.334589
O O2 0.254483 0.893830 0.306943
O O3 0.301021 0.849563 0.453570
O O4 0.007759 0.816048 0.407788
O O5 0.951662 0.975098 0.843543
O O6 0.148468 0.997998 0.710026
O O7 0.252000 0.020572 0.872167
O O8 0.250000 0.250000 0.514890
O O9 0.101452 0.133132 0.451148
O O10 0.954507 0.265512 0.449488
O O11 0.703727 0.981076 0.958423
O O12 0.809203 0.099783 0.889501
O O13 0.918323 0.604861 0.529335
#
# Coordination Sequence:
#
# PCOD9430221 Si02
#       6
#     8   8   8   8   8   8
#     4  10  19  36  59  83 115 157 202 242 304 371
#     4  11  23  38  59  91 120 165 205 249 313 371
#     4   9  20  33  62  89 113 156 207 251 312 361
#     4  11  22  38  62  88 126 158 207 257 309 371
#     4   9  17  39  61  82 116 163 196 246 311 367
#     4  10  19  39  63  85 121 159 199 263 306 361
#
# _framework density 21.408863
#
# number of rings (size 3 to 8) (size 9 to 14) (size 15 to 20)
#    0.000    2.000    3.333    1.000    2.333    2.000 
#    0.000    4.167    0.000    0.000    0.000    0.000 
#    0.000    0.000    0.000    0.000    0.000    0.000 
#
# Total GULP energy -267782.759767 kJ/mol
# GULP energy per Si atom -5578.807495 kJ/mol
# Density = 2.136014 g / cm^3
# Si number density = 21.408863 Si / 1000 Ang^3
#
#
#
# Elastic Constant Matrix: (Units=GPa)
#
#
# Indices 1 2 3 4 5 6 
#
# 1 55.7994 28.4381 11.6658 0.0000 0.0000 0.0000
# 2 28.4381 88.8704 29.2757 0.0000 0.0000 0.0000
# 3 11.6658 29.2757 92.7864 0.0000 0.0000 0.0000
# 4 0.0000 0.0000 0.0000 -2.2642 0.0000 0.0000
# 5 0.0000 0.0000 0.0000 0.0000 18.2878 0.0000
# 6 0.0000 0.0000 0.0000 0.0000 0.0000 15.8135
#
#
#
# Elastic Compliance Matrix: (Units=1/GPa)
#
#
# Indices 1 2 3 4 5 6 
#
# 1 0.021443 -0.006666 -0.000593 0.000000 0.000000 0.000000
# 2 -0.006666 0.014630 -0.003778 0.000000 0.000000 0.000000
# 3 -0.000593 -0.003778 0.012044 0.000000 0.000000 0.000000
# 4 0.000000 0.000000 0.000000 -0.441663 0.000000 0.000000
# 5 0.000000 0.000000 0.000000 0.000000 0.054681 0.000000
# 6 0.000000 0.000000 0.000000 0.000000 0.000000 0.063237
#
#
# Mechanical properties :
#
#
# Convention : Reuss Voigt Hill
#
# Bulk Modulus (GPa) = 38.39796 41.80171 40.09983
# Shear Modulus (GPa) = -20.41871 17.57253 -1.42309
#
# Velocity S-wave (km/s) = -3.09164 2.86808 -0.81619
# Velocity P-wave (km/s) = 2.28696 5.52591 4.22882
#
# Compressibility (1/GPa) = 0.02604305
#
# Stress axis : x y z
#
# Youngs Moduli (GPa) = 46.63579 68.35240 83.02930
#
# Poissons Ratio (x) = 0.45566 0.04920
# Poissons Ratio (y) = 0.31089 0.31368
# Poissons Ratio (z) = 0.02764 0.25823
#
# Static dielectric constant tensor:
#      x y z
#    x 1.857050 0.000000 0.000000 
#    y 0.000000 1.831530 0.000000 
#    z 0.000000 0.000000 1.746320 
# 
# From -- ./inp_files/10620.got.cif
#   From: 2010.05.17/outbox.cif.g08.bks.cpg/sg56_6_cif.got.tgz:10620.got - 2010.06.03 13:42:01.
