data_PCOD9430252
_publ_section_title
;
Structure prediction by ZEFSAII (Michael W. Deem and Ramdas Pophale) SiO2 
 PCOD9430252
Probable space group: P C C N
;
_chemical_formula_sum "Si O2"
_cell_formula_units_Z 56
_cell_length_a 7.779612
_cell_length_b 15.619136
_cell_length_c 19.599890
_cell_angle_alpha 90.000000
_cell_angle_beta 90.000000
_cell_angle_gamma 90.000000
_cell_volume 2381.598664
_symmetry_space_group_name_H-M "P C C N"
_symmetry_group_IT_number 56
_symmetry_cell_setting 'orthorhombic'
loop_
_space_group_symop_operation_xyz
x,y,z
1/2-x,1/2-y,z
1/2+x,-y,1/2-z
-x,1/2+y,1/2-z
-x,-y,-z
1/2+x,1/2+y,-z
1/2-x,y,1/2+z
x,1/2-y,1/2+z
loop_
_atom_site_type_symbol
_atom_site_label
_atom_site_fract_x
_atom_site_fract_y
_atom_site_fract_z
Si Si1 0.504741 0.912853 0.696783
Si Si2 0.170939 0.013745 0.667949
Si Si3 0.074592 0.889224 0.570731
Si Si4 0.388792 0.177777 0.662361
Si Si5 0.956719 0.250120 0.026477
Si Si6 0.482608 0.581603 0.047752
Si Si7 0.943364 0.278796 0.794644
O O1 0.579686 0.955301 0.763730
O O2 0.568456 0.937166 0.620958
O O3 0.538106 0.812190 0.702624
O O4 0.303895 0.939642 0.691988
O O5 0.291483 0.091066 0.641277
O O6 0.039759 0.978803 0.610115
O O7 0.992344 0.843329 0.504545
O O8 0.277447 0.903341 0.556372
O O9 0.048359 0.820964 0.631359
O O10 0.250000 0.250000 0.676980
O O11 0.501183 0.221907 0.603291
O O12 0.488383 0.163394 0.733074
O O13 0.750000 0.250000 0.019040
O O14 0.040297 0.172566 0.982996
O O15 0.500000 0.500000 0.000000
O O16 0.750000 0.250000 0.779343
#
# Coordination Sequence:
#
# PCOD9430252 Si02
#       7
#     8   8   8   8   8   8   8
#     4  11  22  40  66  98 134 170 226 277 338 401
#     4  11  23  41  63  98 133 173 221 285 332 400
#     4  10  20  39  68  94 128 173 229 271 327 407
#     4  12  26  42  61  94 141 171 217 285 351 395
#     4  10  20  40  64  93 125 174 225 270 334 412
#     4  10  19  36  64  98 132 169 217 278 334 395
#     4  12  20  42  70  95 127 179 225 275 331 404
#
# _framework density 23.513618000000001
#
# number of rings (size 3 to 8) (size 9 to 14) (size 15 to 20)
#    0.000    1.143    5.714    3.429    0.000    0.000 
#    5.143    4.286    0.000    0.000    0.000    0.000 
#    0.000    0.000    0.000    0.000    0.000    0.000 
#
# Total GULP energy -312480.225735 kJ/mol
# GULP energy per Si atom -5580.004031 kJ/mol
# Density = 2.346010 g / cm^3
# Si number density = 23.513618 Si / 1000 Ang^3
#
#
#
# Elastic Constant Matrix: (Units=GPa)
#
#
# Indices 1 2 3 4 5 6 
#
# 1 16.9040 15.0433 14.8451 0.0000 0.0000 0.0000
# 2 15.0433 138.7686 55.8347 0.0000 0.0000 0.0000
# 3 14.8451 55.8347 119.6242 0.0000 0.0000 0.0000
# 4 0.0000 0.0000 0.0000 15.0168 0.0000 0.0000
# 5 0.0000 0.0000 0.0000 0.0000 20.9008 0.0000
# 6 0.0000 0.0000 0.0000 0.0000 0.0000 27.4440
#
#
#
# Elastic Compliance Matrix: (Units=1/GPa)
#
#
# Indices 1 2 3 4 5 6 
#
# 1 0.069072 -0.004973 -0.006251 0.000000 0.000000 0.000000
# 2 -0.004973 0.009231 -0.003691 0.000000 0.000000 0.000000
# 3 -0.006251 -0.003691 0.010858 0.000000 0.000000 0.000000
# 4 0.000000 0.000000 0.000000 0.066592 0.000000 0.000000
# 5 0.000000 0.000000 0.000000 0.000000 0.047845 0.000000
# 6 0.000000 0.000000 0.000000 0.000000 0.000000 0.036438
#
#
# Mechanical properties :
#
#
# Convention : Reuss Voigt Hill
#
# Bulk Modulus (GPa) = 16.85443 49.63812 33.24628
# Shear Modulus (GPa) = 17.26264 25.31056 21.28660
#
# Velocity S-wave (km/s) = 2.71247 3.28445 3.01207
# Velocity P-wave (km/s) = 4.12232 5.96151 5.12509
#
# Compressibility (1/GPa) = 0.05933156
#
# Stress axis : x y z
#
# Youngs Moduli (GPa) = 14.47754 108.33615 92.09719
#
# Poissons Ratio (x) = 0.53874 0.57567
# Poissons Ratio (y) = 0.07199 0.33995
# Poissons Ratio (z) = 0.09049 0.39989
#
# Static dielectric constant tensor:
#      x y z
#    x 1.925320 0.000000 0.000000 
#    y 0.000000 1.986080 0.000000 
#    z 0.000000 0.000000 1.947850 
# 
# From -- ./inp_files/18243.got.cif
#   From: 2010.05.17/outbox.cif.g08.bks.cpg/sg56_10_cif.got.tgz:18243.got - 2010.06.03 13:42:01.
