data_PCOD9430723
_publ_section_title
;
Structure prediction by ZEFSAII (Michael W. Deem and Ramdas Pophale) SiO2 
 PCOD9430723
Probable space group: P C C N
;
_chemical_formula_sum "Si O2"
_cell_formula_units_Z 44
_cell_length_a 12.480744
_cell_length_b 10.548103
_cell_length_c 14.212330
_cell_angle_alpha 90.000000
_cell_angle_beta 90.000000
_cell_angle_gamma 90.000000
_cell_volume 1871.027282
_symmetry_space_group_name_H-M "P C C N"
_symmetry_group_IT_number 56
_symmetry_cell_setting 'orthorhombic'
loop_
_space_group_symop_operation_xyz
x,y,z
1/2-x,1/2-y,z
1/2+x,-y,1/2-z
-x,1/2+y,1/2-z
-x,-y,-z
1/2+x,1/2+y,-z
1/2-x,y,1/2+z
x,1/2-y,1/2+z
loop_
_atom_site_type_symbol
_atom_site_label
_atom_site_fract_x
_atom_site_fract_y
_atom_site_fract_z
Si Si1 0.168827 0.542232 0.171393
Si Si2 0.250000 0.750000 0.803220
Si Si3 0.353574 0.673354 0.486262
Si Si4 0.048304 0.336238 0.446154
Si Si5 0.875680 0.722640 0.749293
Si Si6 0.602016 0.557249 0.876478
O O1 0.171421 0.666487 0.237929
O O2 0.131846 0.564131 0.063680
O O3 0.108871 0.421089 0.214982
O O4 0.295266 0.509951 0.166295
O O5 0.183048 0.660346 0.877339
O O6 0.250000 0.750000 0.526095
O O7 0.457537 0.760097 0.497582
O O8 0.095634 0.261627 0.359254
O O9 0.133483 0.382891 0.522356
O O10 0.989699 0.457670 0.400697
O O11 0.750000 0.750000 0.762841
O O12 0.933525 0.829036 0.810029
#
# Coordination Sequence:
#
# PCOD9430723 Si02
#       6
#     8   4   8   8   8   8
#     4  11  21  43  66  95 132 173 216 274 322 397
#     4  10  20  36  68  94 130 170 222 258 336 374
#     4  10  22  39  64 103 125 167 221 269 321 390
#     4  11  23  41  71  91 134 175 218 276 327 393
#     4  10  26  42  65  95 133 179 215 270 338 395
#     4  10  23  43  61  97 129 170 221 268 329 390
#
# _framework density 23.516493000000001
#
# number of rings (size 3 to 8) (size 9 to 14) (size 15 to 20)
#    0.545    1.091    2.727    0.000   10.182    3.636 
#    3.273    0.909    0.000    0.000    0.000    0.000 
#    0.000    0.000    0.000    0.000    0.000    0.000 
#
# Total GULP energy -245700.065664 kJ/mol
# GULP energy per Si atom -5584.092401 kJ/mol
# Density = 2.346297 g / cm^3
# Si number density = 23.516493 Si / 1000 Ang^3
#
#
#
# Elastic Constant Matrix: (Units=GPa)
#
#
# Indices 1 2 3 4 5 6 
#
# 1 31.2965 2.2618 5.7905 0.0000 0.0000 0.0000
# 2 2.2618 42.0751 16.8080 0.0000 0.0000 0.0000
# 3 5.7905 16.8080 116.7381 0.0000 0.0000 0.0000
# 4 0.0000 0.0000 0.0000 40.1840 0.0000 0.0000
# 5 0.0000 0.0000 0.0000 0.0000 15.7580 0.0000
# 6 0.0000 0.0000 0.0000 0.0000 0.0000 4.7824
#
#
#
# Elastic Compliance Matrix: (Units=1/GPa)
#
#
# Indices 1 2 3 4 5 6 
#
# 1 0.032302 -0.001163 -0.001435 0.000000 0.000000 0.000000
# 2 -0.001163 0.025259 -0.003579 0.000000 0.000000 0.000000
# 3 -0.001435 -0.003579 0.009153 0.000000 0.000000 0.000000
# 4 0.000000 0.000000 0.000000 0.024886 0.000000 0.000000
# 5 0.000000 0.000000 0.000000 0.000000 0.063460 0.000000
# 6 0.000000 0.000000 0.000000 0.000000 0.000000 0.209102
#
#
# Mechanical properties :
#
#
# Convention : Reuss Voigt Hill
#
# Bulk Modulus (GPa) = 18.39603 26.64782 22.52193
# Shear Modulus (GPa) = 12.66992 23.16150 17.91571
#
# Velocity S-wave (km/s) = 2.32365 3.14172 2.76313
# Velocity P-wave (km/s) = 3.87798 4.95144 4.44722
#
# Compressibility (1/GPa) = 0.05435955
#
# Stress axis : x y z
#
# Youngs Moduli (GPa) = 30.95786 39.58930 109.25765
#
# Poissons Ratio (x) = 0.04605 0.15676
# Poissons Ratio (y) = 0.03601 0.39105
# Poissons Ratio (z) = 0.04442 0.14170
#
# Static dielectric constant tensor:
#      x y z
#    x 1.840570 0.000000 0.000000 
#    y 0.000000 1.938140 0.000000 
#    z 0.000000 0.000000 1.903430 
# 
# From -- ./inp_files/12186.got.cif
#   From: 2010.05.17/outbox.cif.g08.bks.cpg/sg56_7_cif.got.tgz:12186.got - 2010.06.03 13:42:01.
