data_PCOD9430216
_publ_section_title
;
Structure prediction by ZEFSAII (Michael W. Deem and Ramdas Pophale) SiO2 
 PCOD9430216
Probable space group: P C C N
;
_chemical_formula_sum "Si O2"
_cell_formula_units_Z 44
_cell_length_a 23.643143
_cell_length_b 8.759508
_cell_length_c 8.629437
_cell_angle_alpha 90.000000
_cell_angle_beta 90.000000
_cell_angle_gamma 90.000000
_cell_volume 1787.176253
_symmetry_space_group_name_H-M "P C C N"
_symmetry_group_IT_number 56
_symmetry_cell_setting 'orthorhombic'
loop_
_space_group_symop_operation_xyz
x,y,z
1/2-x,1/2-y,z
1/2+x,-y,1/2-z
-x,1/2+y,1/2-z
-x,-y,-z
1/2+x,1/2+y,-z
1/2-x,y,1/2+z
x,1/2-y,1/2+z
loop_
_atom_site_type_symbol
_atom_site_label
_atom_site_fract_x
_atom_site_fract_y
_atom_site_fract_z
Si Si1 0.474015 0.471062 0.253331
Si Si2 0.558472 0.831099 0.911008
Si Si3 0.250000 0.750000 0.749532
Si Si4 0.206926 0.456009 0.435745
Si Si5 0.139880 0.587496 0.687998
Si Si6 0.822570 0.632419 0.034572
O O1 0.460232 0.390075 0.418939
O O2 0.465713 0.336224 0.129367
O O3 0.533151 0.553797 0.282597
O O4 0.426959 0.602590 0.214595
O O5 0.626039 0.840992 0.918668
O O6 0.270863 0.600826 0.842441
O O7 0.189977 0.711305 0.668394
O O8 0.151381 0.496526 0.531627
O O9 0.263369 0.421745 0.539552
O O10 0.191680 0.288630 0.374476
O O11 0.157980 0.490437 0.838615
#
# Coordination Sequence:
#
# PCOD9430216 Si02
#       6
#     8   8   4   8   8   8
#     4  10  22  42  67  87 126 159 207 255 304 359
#     4  10  21  44  61  92 122 161 206 255 301 360
#     4  10  22  36  54  88 126 152 196 242 306 362
#     4  10  19  36  58  84 117 158 190 243 299 361
#     4  10  20  40  57  86 123 158 195 251 298 363
#     4   9  20  36  61  85 116 156 205 240 293 364
#
# _framework density 24.619845000000002
#
# number of rings (size 3 to 8) (size 9 to 14) (size 15 to 20)
#    0.000    2.182    1.818    0.545    0.000    6.545 
#   16.364    0.000    0.000    0.000    0.000    0.000 
#    0.000    0.000    0.000    0.000    0.000    0.000 
#
# Total GULP energy -245177.139762 kJ/mol
# GULP energy per Si atom -5572.207722 kJ/mol
# Density = 2.456381 g / cm^3
# Si number density = 24.619845 Si / 1000 Ang^3
#
#
#
# Elastic Constant Matrix: (Units=GPa)
#
#
# Indices 1 2 3 4 5 6 
#
# 1 62.8393 18.7321 6.2139 0.0000 0.0000 0.0000
# 2 18.7321 43.3187 -2.0935 0.0000 0.0000 0.0000
# 3 6.2139 -2.0935 32.6306 0.0000 0.0000 0.0000
# 4 0.0000 0.0000 0.0000 12.0040 0.0000 0.0000
# 5 0.0000 0.0000 0.0000 0.0000 26.9593 0.0000
# 6 0.0000 0.0000 0.0000 0.0000 0.0000 29.3795
#
#
#
# Elastic Compliance Matrix: (Units=1/GPa)
#
#
# Indices 1 2 3 4 5 6 
#
# 1 0.018804 -0.008330 -0.004115 0.000000 0.000000 0.000000
# 2 -0.008330 0.026847 0.003309 0.000000 0.000000 0.000000
# 3 -0.004115 0.003309 0.031642 0.000000 0.000000 0.000000
# 4 0.000000 0.000000 0.000000 0.083306 0.000000 0.000000
# 5 0.000000 0.000000 0.000000 0.000000 0.037093 0.000000
# 6 0.000000 0.000000 0.000000 0.000000 0.000000 0.034037
#
#
# Mechanical properties :
#
#
# Convention : Reuss Voigt Hill
#
# Bulk Modulus (GPa) = 16.94358 20.49926 18.72142
# Shear Modulus (GPa) = 18.54084 21.39763 19.96924
#
# Velocity S-wave (km/s) = 2.74722 2.95128 2.85108
# Velocity P-wave (km/s) = 4.11825 4.46742 4.29638
#
# Compressibility (1/GPa) = 0.05901940
#
# Stress axis : x y z
#
# Youngs Moduli (GPa) = 53.18103 37.24843 31.60352
#
# Poissons Ratio (x) = 0.31028 0.13006
# Poissons Ratio (y) = 0.44300 -0.10457
# Poissons Ratio (z) = 0.21885 -0.12325
#
# Static dielectric constant tensor:
#      x y z
#    x 1.945010 0.000000 0.000000 
#    y 0.000000 2.057540 0.000000 
#    z 0.000000 0.000000 1.997740 
# 
# From -- ./inp_files/6351.got.cif
#   From: 2010.05.17/outbox.cif.g08.bks.cpg/sg56_4_cif.got.tgz:6351.got - 2010.06.03 13:42:01.
