data_PCOD9430944
_publ_section_title
;
Structure prediction by ZEFSAII (Michael W. Deem and Ramdas Pophale) SiO2 
 PCOD9430944
Probable space group: P C C N
;
_chemical_formula_sum "Si O2"
_cell_formula_units_Z 64
_cell_length_a 16.442653
_cell_length_b 13.448820
_cell_length_c 13.862572
_cell_angle_alpha 90.000000
_cell_angle_beta 90.000000
_cell_angle_gamma 90.000000
_cell_volume 3065.489885
_symmetry_space_group_name_H-M "P C C N"
_symmetry_group_IT_number 56
_symmetry_cell_setting 'orthorhombic'
loop_
_space_group_symop_operation_xyz
x,y,z
1/2-x,1/2-y,z
1/2+x,-y,1/2-z
-x,1/2+y,1/2-z
-x,-y,-z
1/2+x,1/2+y,-z
1/2-x,y,1/2+z
x,1/2-y,1/2+z
loop_
_atom_site_type_symbol
_atom_site_label
_atom_site_fract_x
_atom_site_fract_y
_atom_site_fract_z
Si Si1 0.884096 0.072322 0.448876
Si Si2 0.916951 0.875092 0.687066
Si Si3 0.042401 0.135594 0.536859
Si Si4 0.295763 0.505249 0.056339
Si Si5 0.591874 0.294798 0.270189
Si Si6 0.349822 0.917891 0.759433
Si Si7 0.791813 0.347419 0.596972
Si Si8 0.660648 0.795611 0.370864
O O1 0.798651 0.020455 0.474205
O O2 0.869210 0.149286 0.362213
O O3 0.944029 0.132081 0.522470
O O4 0.935812 0.973686 0.421887
O O5 0.921495 0.855290 0.572651
O O6 0.851606 0.823643 0.757936
O O7 0.001791 0.837262 0.729662
O O8 0.903232 0.991683 0.702168
O O9 0.088748 0.220826 0.596347
O O10 0.304047 0.545677 0.163894
O O11 0.334246 0.395948 0.064050
O O12 0.333707 0.579128 0.978524
O O13 0.597237 0.176175 0.273654
O O14 0.641174 0.319500 0.174792
O O15 0.281922 0.891127 0.838368
O O16 0.750000 0.250000 0.548928
O O17 0.750000 0.750000 0.382639
#
# Coordination Sequence:
#
# PCOD9430944 Si02
#       8
#     8   8   8   8   8   8   8   8
#     4  10  20  38  68  90 126 169 216 272 311 384
#     4  10  24  44  64  92 133 170 209 271 325 385
#     4  10  22  42  64  99 126 171 230 260 320 405
#     4  11  22  40  64  94 129 168 216 273 337 383
#     4  10  22  43  63  96 128 168 215 265 329 384
#     4  10  22  42  62  93 132 159 218 274 316 389
#     4  10  22  37  66  94 124 168 212 265 323 394
#     4  11  24  44  63  95 134 174 215 276 329 391
#
# _framework density 20.877576000000001
#
# number of rings (size 3 to 8) (size 9 to 14) (size 15 to 20)
#    0.000    1.750    2.500    0.750    1.750    5.500 
#   11.250    1.250    0.000    0.000    0.000    0.000 
#    0.000    0.000    0.000    0.000    0.000    0.000 
#
# Total GULP energy -356931.967350 kJ/mol
# GULP energy per Si atom -5577.061990 kJ/mol
# Density = 2.083006 g / cm^3
# Si number density = 20.877576 Si / 1000 Ang^3
#
#
#
# Elastic Constant Matrix: (Units=GPa)
#
#
# Indices 1 2 3 4 5 6 
#
# 1 50.8063 16.0773 6.6572 0.0000 0.0000 0.0000
# 2 16.0773 107.5478 36.2069 0.0000 0.0000 0.0000
# 3 6.6572 36.2069 81.9793 0.0000 0.0000 0.0000
# 4 0.0000 0.0000 0.0000 37.1982 0.0000 0.0000
# 5 0.0000 0.0000 0.0000 0.0000 28.0388 0.0000
# 6 0.0000 0.0000 0.0000 0.0000 0.0000 31.0569
#
#
#
# Elastic Compliance Matrix: (Units=1/GPa)
#
#
# Indices 1 2 3 4 5 6 
#
# 1 0.020669 -0.002966 -0.000369 0.000000 0.000000 0.000000
# 2 -0.002966 0.011348 -0.004771 0.000000 0.000000 0.000000
# 3 -0.000369 -0.004771 0.014335 0.000000 0.000000 0.000000
# 4 0.000000 0.000000 0.000000 0.026883 0.000000 0.000000
# 5 0.000000 0.000000 0.000000 0.000000 0.035665 0.000000
# 6 0.000000 0.000000 0.000000 0.000000 0.000000 0.032199
#
#
# Mechanical properties :
#
#
# Convention : Reuss Voigt Hill
#
# Bulk Modulus (GPa) = 33.17666 39.80180 36.48923
# Shear Modulus (GPa) = 29.87622 31.35159 30.61390
#
# Velocity S-wave (km/s) = 3.78699 3.87936 3.83345
# Velocity P-wave (km/s) = 5.92007 6.25873 6.09176
#
# Compressibility (1/GPa) = 0.03014167
#
# Stress axis : x y z
#
# Youngs Moduli (GPa) = 48.38067 88.12329 69.75793
#
# Poissons Ratio (x) = 0.26135 0.02571
# Poissons Ratio (y) = 0.14349 0.33281
# Poissons Ratio (z) = 0.01783 0.42044
#
# Static dielectric constant tensor:
#      x y z
#    x 1.804300 0.000000 0.000000 
#    y 0.000000 1.789820 0.000000 
#    z 0.000000 0.000000 1.762110 
# 
# From -- ./inp_files/12879.got.cif
#   From: 2010.05.17/outbox.cif.g08.bks.cpg/sg56_7_cif.got.tgz:12879.got - 2010.06.03 13:42:01.
