data_PCOD9430089
_publ_section_title
;
Structure prediction by ZEFSAII (Michael W. Deem and Ramdas Pophale) SiO2 
 PCOD9430089
Probable space group: P C C N
;
_chemical_formula_sum "Si O2"
_cell_formula_units_Z 48
_cell_length_a 14.477623
_cell_length_b 10.471387
_cell_length_c 13.421900
_cell_angle_alpha 90.000000
_cell_angle_beta 90.000000
_cell_angle_gamma 90.000000
_cell_volume 2034.770687
_symmetry_space_group_name_H-M "P C C N"
_symmetry_group_IT_number 56
_symmetry_cell_setting 'orthorhombic'
loop_
_space_group_symop_operation_xyz
x,y,z
1/2-x,1/2-y,z
1/2+x,-y,1/2-z
-x,1/2+y,1/2-z
-x,-y,-z
1/2+x,1/2+y,-z
1/2-x,y,1/2+z
x,1/2-y,1/2+z
loop_
_atom_site_type_symbol
_atom_site_label
_atom_site_fract_x
_atom_site_fract_y
_atom_site_fract_z
Si Si1 0.674223 0.641402 0.360564
Si Si2 0.430610 0.459371 0.835470
Si Si3 0.725407 0.118366 0.845252
Si Si4 0.861585 0.718746 0.064515
Si Si5 0.393357 0.976218 0.793978
Si Si6 0.855371 0.214670 0.150154
O O1 0.750000 0.750000 0.337586
O O2 0.628914 0.593825 0.259102
O O3 0.705852 0.505624 0.409252
O O4 0.614810 0.697281 0.449156
O O5 0.425231 0.336066 0.903481
O O6 0.527231 0.497242 0.786765
O O7 0.390230 0.581992 0.893791
O O8 0.750000 0.250000 0.899579
O O9 0.802771 0.061611 0.769739
O O10 0.647444 0.171149 0.768300
O O11 0.750000 0.750000 0.068958
O O12 0.879037 0.597556 0.135854
O O13 0.411667 0.845571 0.855821
O O14 0.750000 0.250000 0.124244
#
# Coordination Sequence:
#
# PCOD9430089 Si02
#       6
#     8   8   8   8   8   8
#     4  10  21  36  57  84 115 155 200 242 285 346
#     4  11  20  35  59  85 117 152 191 245 297 346
#     4   8  16  34  55  75 106 149 190 230 282 340
#     4  11  22  37  59  85 114 156 202 238 288 357
#     4  10  19  33  58  85 111 146 191 242 296 345
#     4   8  16  31  52  75 103 143 185 223 276 341
#
# _framework density 23.589881999999999
#
# number of rings (size 3 to 8) (size 9 to 14) (size 15 to 20)
#    0.000    2.667    0.000    5.500    0.000    0.667 
#    0.000    6.667    0.000   12.000    0.000    0.000 
#    0.000    0.000    0.000    0.000    0.000    0.000 
#
# Total GULP energy -267510.800932 kJ/mol
# GULP energy per Si atom -5573.141686 kJ/mol
# Density = 2.353619 g / cm^3
# Si number density = 23.589882 Si / 1000 Ang^3
#
#
#
# Elastic Constant Matrix: (Units=GPa)
#
#
# Indices 1 2 3 4 5 6 
#
# 1 41.0550 0.7303 -4.1803 0.0000 0.0000 0.0000
# 2 0.7303 172.4385 17.6083 0.0000 0.0000 0.0000
# 3 -4.1803 17.6083 39.8134 0.0000 0.0000 0.0000
# 4 0.0000 0.0000 0.0000 -0.6031 0.0000 0.0000
# 5 0.0000 0.0000 0.0000 0.0000 145.6861 0.0000
# 6 0.0000 0.0000 0.0000 0.0000 0.0000 21.4168
#
#
#
# Elastic Compliance Matrix: (Units=1/GPa)
#
#
# Indices 1 2 3 4 5 6 
#
# 1 0.024645 -0.000386 0.002758 0.000000 0.000000 0.000000
# 2 -0.000386 0.006080 -0.002729 0.000000 0.000000 0.000000
# 3 0.002758 -0.002729 0.026614 0.000000 0.000000 0.000000
# 4 0.000000 0.000000 0.000000 -1.658139 0.000000 0.000000
# 5 0.000000 0.000000 0.000000 0.000000 0.006864 0.000000
# 6 0.000000 0.000000 0.000000 0.000000 0.000000 0.046692
#
#
# Mechanical properties :
#
#
# Convention : Reuss Voigt Hill
#
# Bulk Modulus (GPa) = 17.66008 31.29149 24.47579
# Shear Modulus (GPa) = -3.27299 49.24321 22.98511
#
# Velocity S-wave (km/s) = -1.17918 4.57384 3.12487
# Velocity P-wave (km/s) = 2.37668 6.41771 4.83919
#
# Compressibility (1/GPa) = 0.05662488
#
# Stress axis : x y z
#
# Youngs Moduli (GPa) = 40.57565 164.48703 37.57437
#
# Poissons Ratio (x) = 0.06350 -0.10365
# Poissons Ratio (y) = 0.01566 0.10255
# Poissons Ratio (z) = -0.11193 0.44894
#
# Static dielectric constant tensor:
#      x y z
#    x 1.976820 0.000000 0.000000 
#    y 0.000000 2.047000 0.000000 
#    z 0.000000 0.000000 1.900470 
# 
# From -- ./inp_files/12756.got.cif
#   From: 2010.05.17/outbox.cif.g08.bks.cpg/sg56_7_cif.got.tgz:12756.got - 2010.06.03 13:42:01.
