data_PCOD9430956
_publ_section_title
;
Structure prediction by ZEFSAII (Michael W. Deem and Ramdas Pophale) SiO2 
 PCOD9430956
Probable space group: P C C N
;
_chemical_formula_sum "Si O2"
_cell_formula_units_Z 40
_cell_length_a 11.375863
_cell_length_b 9.081127
_cell_length_c 17.094585
_cell_angle_alpha 90.000000
_cell_angle_beta 90.000000
_cell_angle_gamma 90.000000
_cell_volume 1765.967328
_symmetry_space_group_name_H-M "P C C N"
_symmetry_group_IT_number 56
_symmetry_cell_setting 'orthorhombic'
loop_
_space_group_symop_operation_xyz
x,y,z
1/2-x,1/2-y,z
1/2+x,-y,1/2-z
-x,1/2+y,1/2-z
-x,-y,-z
1/2+x,1/2+y,-z
1/2-x,y,1/2+z
x,1/2-y,1/2+z
loop_
_atom_site_type_symbol
_atom_site_label
_atom_site_fract_x
_atom_site_fract_y
_atom_site_fract_z
Si Si1 0.399884 0.887438 0.132017
Si Si2 0.100630 0.893601 0.879615
Si Si3 0.250000 0.750000 0.510227
Si Si4 0.119279 0.272072 0.376862
Si Si5 0.750000 0.250000 0.743892
Si Si6 0.381210 0.284096 0.689779
O O1 0.524274 0.845092 0.095778
O O2 0.358969 0.761245 0.195449
O O3 0.405506 0.044305 0.173188
O O4 0.301950 0.877084 0.065425
O O5 0.147838 0.812666 0.955927
O O6 0.209957 0.877780 0.816552
O O7 0.985338 0.812986 0.846875
O O8 0.078072 0.063526 0.894510
O O9 0.250000 0.250000 0.407851
O O10 0.121789 0.255059 0.282579
O O11 0.250000 0.250000 0.659204
#
# Coordination Sequence:
#
# PCOD9430956 Si02
#       6
#     8   8   4   8   4   8
#     4  11  24  44  68  99 139 183 228 282 339 407
#     4  11  24  44  68  99 139 183 228 282 339 407
#     4  10  28  46  68  94 144 194 226 268 348 410
#     4  11  24  41  72 107 134 174 234 289 344 398
#     4  10  20  38  72  90 134 180 228 276 330 390
#     4  11  24  41  72 107 134 174 234 289 344 398
#
# _framework density 22.650476999999999
#
# number of rings (size 3 to 8) (size 9 to 14) (size 15 to 20)
#    0.000    1.200    4.000    0.000   11.200    1.600 
#    0.000    0.000    0.000    0.000    0.000    0.000 
#    0.000    0.000    0.000    0.000    0.000    0.000 
#
# Total GULP energy -223367.231107 kJ/mol
# GULP energy per Si atom -5584.180778 kJ/mol
# Density = 2.259892 g / cm^3
# Si number density = 22.650477 Si / 1000 Ang^3
#
#
#
# Elastic Constant Matrix: (Units=GPa)
#
#
# Indices 1 2 3 4 5 6 
#
# 1 121.3163 35.9598 -4.2594 0.0000 0.0000 0.0000
# 2 35.9598 78.7601 -13.1100 0.0000 0.0000 0.0000
# 3 -4.2594 -13.1100 40.1818 0.0000 0.0000 0.0000
# 4 0.0000 0.0000 0.0000 2.6703 0.0000 0.0000
# 5 0.0000 0.0000 0.0000 0.0000 18.3642 0.0000
# 6 0.0000 0.0000 0.0000 0.0000 0.0000 30.5801
#
#
#
# Elastic Compliance Matrix: (Units=1/GPa)
#
#
# Indices 1 2 3 4 5 6 
#
# 1 0.009540 -0.004428 -0.000433 0.000000 0.000000 0.000000
# 2 -0.004428 0.015481 0.004582 0.000000 0.000000 0.000000
# 3 -0.000433 0.004582 0.026336 0.000000 0.000000 0.000000
# 4 0.000000 0.000000 0.000000 0.374485 0.000000 0.000000
# 5 0.000000 0.000000 0.000000 0.000000 0.054454 0.000000
# 6 0.000000 0.000000 0.000000 0.000000 0.000000 0.032701
#
#
# Mechanical properties :
#
#
# Convention : Reuss Voigt Hill
#
# Bulk Modulus (GPa) = 19.68597 30.82656 25.25626
# Shear Modulus (GPa) = 9.42526 25.10078 17.26302
#
# Velocity S-wave (km/s) = 2.04211 3.33254 2.76370
# Velocity P-wave (km/s) = 3.77761 5.33357 4.62155
#
# Compressibility (1/GPa) = 0.05079760
#
# Stress axis : x y z
#
# Youngs Moduli (GPa) = 104.81955 64.59488 37.97114
#
# Poissons Ratio (x) = 0.28602 0.01646
# Poissons Ratio (y) = 0.46414 -0.17397
# Poissons Ratio (z) = 0.04543 -0.29595
#
# Static dielectric constant tensor:
#      x y z
#    x 1.862570 0.000000 0.000000 
#    y 0.000000 1.790430 0.000000 
#    z 0.000000 0.000000 1.861730 
# 
# From -- ./inp_files/15440.got.cif
#   From: 2010.05.17/outbox.cif.g08.bks.cpg/sg56_8_cif.got.tgz:15440.got - 2010.06.03 13:42:01.
