data_PCOD9430684
_publ_section_title
;
Structure prediction by ZEFSAII (Michael W. Deem and Ramdas Pophale) SiO2 
 PCOD9430684
Probable space group: P C C N
;
_chemical_formula_sum "Si O2"
_cell_formula_units_Z 44
_cell_length_a 17.616680
_cell_length_b 13.353088
_cell_length_c 8.428495
_cell_angle_alpha 90.000000
_cell_angle_beta 90.000000
_cell_angle_gamma 90.000000
_cell_volume 1982.694538
_symmetry_space_group_name_H-M "P C C N"
_symmetry_group_IT_number 56
_symmetry_cell_setting 'orthorhombic'
loop_
_space_group_symop_operation_xyz
x,y,z
1/2-x,1/2-y,z
1/2+x,-y,1/2-z
-x,1/2+y,1/2-z
-x,-y,-z
1/2+x,1/2+y,-z
1/2-x,y,1/2+z
x,1/2-y,1/2+z
loop_
_atom_site_type_symbol
_atom_site_label
_atom_site_fract_x
_atom_site_fract_y
_atom_site_fract_z
Si Si1 0.811265 0.392685 0.859561
Si Si2 0.250000 0.750000 0.880997
Si Si3 0.367418 0.347609 0.915944
Si Si4 0.222827 0.089525 0.229213
Si Si5 0.580239 0.623795 0.588298
Si Si6 0.541758 0.511230 0.285039
O O1 0.809588 0.306933 0.727195
O O2 0.749930 0.478733 0.819663
O O3 0.892640 0.441000 0.854804
O O4 0.789261 0.335108 0.016643
O O5 0.299627 0.354284 0.784584
O O6 0.411414 0.243096 0.900484
O O7 0.425376 0.437433 0.872782
O O8 0.324540 0.362173 0.084050
O O9 0.166879 0.087875 0.381338
O O10 0.541078 0.597184 0.420572
O O11 0.532154 0.558145 0.714788
#
# Coordination Sequence:
#
# PCOD9430684 Si02
#       6
#     8   4   8   8   8   8
#     4  10  20  39  58  90 117 167 204 273 304 378
#     4  10  20  36  62  86 116 158 228 246 322 370
#     4  11  23  42  68 101 126 173 214 269 326 389
#     4  11  22  39  69  94 132 159 221 275 325 377
#     4  11  23  41  63  95 131 173 208 265 321 388
#     4  10  23  44  62  90 137 168 212 262 325 378
#
# _framework density 22.192022000000001
#
# number of rings (size 3 to 8) (size 9 to 14) (size 15 to 20)
#    0.000    1.455    0.000    7.091    0.000    3.636 
#   16.364    0.000    0.000    0.000    0.000    0.000 
#    0.000    0.000    0.000    0.000    0.000    0.000 
#
# Total GULP energy -245864.929043 kJ/mol
# GULP energy per Si atom -5587.839296 kJ/mol
# Density = 2.214151 g / cm^3
# Si number density = 22.192022 Si / 1000 Ang^3
#
#
#
# Elastic Constant Matrix: (Units=GPa)
#
#
# Indices 1 2 3 4 5 6 
#
# 1 76.0131 40.3221 -0.7596 0.0000 0.0000 0.0000
# 2 40.3221 107.9947 28.4958 0.0000 0.0000 0.0000
# 3 -0.7596 28.4958 82.8051 0.0000 0.0000 0.0000
# 4 0.0000 0.0000 0.0000 41.2495 0.0000 0.0000
# 5 0.0000 0.0000 0.0000 0.0000 29.0416 0.0000
# 6 0.0000 0.0000 0.0000 0.0000 0.0000 32.1982
#
#
#
# Elastic Compliance Matrix: (Units=1/GPa)
#
#
# Indices 1 2 3 4 5 6 
#
# 1 0.016883 -0.006978 0.002556 0.000000 0.000000 0.000000
# 2 -0.006978 0.013069 -0.004561 0.000000 0.000000 0.000000
# 3 0.002556 -0.004561 0.013670 0.000000 0.000000 0.000000
# 4 0.000000 0.000000 0.000000 0.024243 0.000000 0.000000
# 5 0.000000 0.000000 0.000000 0.000000 0.034433 0.000000
# 6 0.000000 0.000000 0.000000 0.000000 0.000000 0.031058
#
#
# Mechanical properties :
#
#
# Convention : Reuss Voigt Hill
#
# Bulk Modulus (GPa) = 38.97898 44.76992 41.87445
# Shear Modulus (GPa) = 31.27488 33.74817 32.51152
#
# Velocity S-wave (km/s) = 3.75812 3.90389 3.83170
# Velocity P-wave (km/s) = 6.03604 6.36696 6.20371
#
# Compressibility (1/GPa) = 0.02565485
#
# Stress axis : x y z
#
# Youngs Moduli (GPa) = 59.23208 76.51890 73.15444
#
# Poissons Ratio (x) = 0.53395 -0.18700
# Poissons Ratio (y) = 0.41332 0.33368
# Poissons Ratio (z) = -0.15141 0.34903
#
# Static dielectric constant tensor:
#      x y z
#    x 1.743320 0.000000 0.000000 
#    y 0.000000 1.893970 0.000000 
#    z 0.000000 0.000000 1.882600 
# 
# From -- ./inp_files/3972.got.cif
#   From: 2010.05.17/outbox.cif.g08.bks.cpg/sg56_2_cif.got.tgz:3972.got - 2010.06.03 13:42:01.
