data_PCOD9430825
_publ_section_title
;
Structure prediction by ZEFSAII (Michael W. Deem and Ramdas Pophale) SiO2 
 PCOD9430825
Probable space group: P C C N
;
_chemical_formula_sum "Si O2"
_cell_formula_units_Z 60
_cell_length_a 12.717148
_cell_length_b 27.780241
_cell_length_c 9.434164
_cell_angle_alpha 90.000000
_cell_angle_beta 90.000000
_cell_angle_gamma 90.000000
_cell_volume 3332.952745
_symmetry_space_group_name_H-M "P C C N"
_symmetry_group_IT_number 56
_symmetry_cell_setting 'orthorhombic'
loop_
_space_group_symop_operation_xyz
x,y,z
1/2-x,1/2-y,z
1/2+x,-y,1/2-z
-x,1/2+y,1/2-z
-x,-y,-z
1/2+x,1/2+y,-z
1/2-x,y,1/2+z
x,1/2-y,1/2+z
loop_
_atom_site_type_symbol
_atom_site_label
_atom_site_fract_x
_atom_site_fract_y
_atom_site_fract_z
Si Si1 0.250000 0.250000 0.826368
Si Si2 0.845360 0.425692 0.313744
Si Si3 0.050812 0.103245 0.690459
Si Si4 0.040900 0.471445 0.691176
Si Si5 0.815413 0.684268 0.926456
Si Si6 0.688110 0.451102 0.095145
Si Si7 0.659815 0.604453 0.008769
Si Si8 0.350955 0.464873 0.477165
O O1 0.310840 0.284664 0.717183
O O2 0.181338 0.282270 0.934787
O O3 0.895114 0.479346 0.333806
O O4 0.735195 0.429245 0.237212
O O5 0.834523 0.410996 0.476280
O O6 0.926983 0.399672 0.211776
O O7 0.092017 0.145738 0.590932
O O8 0.098907 0.053822 0.624084
O O9 0.094601 0.111549 0.848526
O O10 0.096817 0.428597 0.602926
O O11 0.921674 0.475916 0.638241
O O12 0.058704 0.463142 0.858389
O O13 0.707599 0.652854 0.940964
O O14 0.781989 0.486209 0.035919
O O15 0.762153 0.574518 0.057541
#
# Coordination Sequence:
#
# PCOD9430825 Si02
#       8
#     4   8   8   8   8   8   8   8
#     4  10  20  38  58  90 116 146 176 222 296 364
#     4  11  24  36  52  73 109 153 205 253 281 329
#     4  11  22  36  54  81 111 153 192 234 288 345
#     4  11  22  35  54  72 109 155 206 246 288 324
#     4  10  21  36  60  85 121 147 174 229 287 362
#     4  11  23  36  50  72 105 153 203 250 286 310
#     4  11  19  35  53  82 109 154 185 228 282 342
#     4  10  22  32  53  73 103 145 202 241 277 329
#
# _framework density 18.002054000000001
#
# number of rings (size 3 to 8) (size 9 to 14) (size 15 to 20)
#    0.000    1.333    4.000    2.800    7.467    1.067 
#    0.000    0.000    0.000    0.000    0.000    0.000 
#    0.000   18.133    0.000    0.000    0.000    0.000 
#
# Total GULP energy -334623.076293 kJ/mol
# GULP energy per Si atom -5577.051272 kJ/mol
# Density = 1.796108 g / cm^3
# Si number density = 18.002054 Si / 1000 Ang^3
#
#
#
# Elastic Constant Matrix: (Units=GPa)
#
#
# Indices 1 2 3 4 5 6 
#
# 1 58.0785 8.1373 29.5611 0.0000 0.0000 0.0000
# 2 8.1373 53.6271 26.3342 0.0000 0.0000 0.0000
# 3 29.5611 26.3342 101.1283 0.0000 0.0000 0.0000
# 4 0.0000 0.0000 0.0000 27.9955 0.0000 0.0000
# 5 0.0000 0.0000 0.0000 0.0000 29.5077 0.0000
# 6 0.0000 0.0000 0.0000 0.0000 0.0000 14.8131
#
#
#
# Elastic Compliance Matrix: (Units=1/GPa)
#
#
# Indices 1 2 3 4 5 6 
#
# 1 0.020229 -0.000190 -0.005864 0.000000 0.000000 0.000000
# 2 -0.000190 0.021383 -0.005513 0.000000 0.000000 0.000000
# 3 -0.005864 -0.005513 0.013038 0.000000 0.000000 0.000000
# 4 0.000000 0.000000 0.000000 0.035720 0.000000 0.000000
# 5 0.000000 0.000000 0.000000 0.000000 0.033889 0.000000
# 6 0.000000 0.000000 0.000000 0.000000 0.000000 0.067508
#
#
# Mechanical properties :
#
#
# Convention : Reuss Voigt Hill
#
# Bulk Modulus (GPa) = 31.72854 37.87769 34.80311
# Shear Modulus (GPa) = 22.18212 24.38335 23.28274
#
# Velocity S-wave (km/s) = 3.51408 3.68431 3.60020
# Velocity P-wave (km/s) = 5.84194 6.25982 6.05448
#
# Compressibility (1/GPa) = 0.03151737
#
# Stress axis : x y z
#
# Youngs Moduli (GPa) = 49.43323 46.76571 76.69876
#
# Poissons Ratio (x) = 0.00889 0.44975
# Poissons Ratio (y) = 0.00940 0.42282
# Poissons Ratio (z) = 0.28987 0.25781
#
# Static dielectric constant tensor:
#      x y z
#    x 1.632430 0.000000 0.000000 
#    y 0.000000 1.646960 0.000000 
#    z 0.000000 0.000000 1.687100 
# 
# From -- ./inp_files/2946.got.cif
#   From: 2010.05.17/outbox.cif.g08.bks.cpg/sg56_2_cif.got.tgz:2946.got - 2010.06.03 13:42:01.
