data_PCOD9430855
_publ_section_title
;
Structure prediction by ZEFSAII (Michael W. Deem and Ramdas Pophale) SiO2 
 PCOD9430855
Probable space group: P C C N
;
_chemical_formula_sum "Si O2"
_cell_formula_units_Z 36
_cell_length_a 7.329632
_cell_length_b 20.596654
_cell_length_c 12.127494
_cell_angle_alpha 90.000000
_cell_angle_beta 90.000000
_cell_angle_gamma 90.000000
_cell_volume 1830.837977
_symmetry_space_group_name_H-M "P C C N"
_symmetry_group_IT_number 56
_symmetry_cell_setting 'orthorhombic'
loop_
_space_group_symop_operation_xyz
x,y,z
1/2-x,1/2-y,z
1/2+x,-y,1/2-z
-x,1/2+y,1/2-z
-x,-y,-z
1/2+x,1/2+y,-z
1/2-x,y,1/2+z
x,1/2-y,1/2+z
loop_
_atom_site_type_symbol
_atom_site_label
_atom_site_fract_x
_atom_site_fract_y
_atom_site_fract_z
Si Si1 0.390358 0.373962 0.060869
Si Si2 0.713379 0.424307 0.210456
Si Si3 0.403479 0.456495 0.650544
Si Si4 0.250000 0.250000 0.193969
Si Si5 0.493603 0.347823 0.814017
O O1 0.539656 0.408339 0.137962
O O2 0.217382 0.422897 0.056904
O O3 0.327143 0.307310 0.117909
O O4 0.474312 0.357585 0.943001
O O5 0.666162 0.474735 0.307325
O O6 0.878378 0.453867 0.135984
O O7 0.804456 0.360928 0.266612
O O8 0.382793 0.406911 0.754964
O O9 0.094707 0.281936 0.270294
#
# Coordination Sequence:
#
# PCOD9430855 Si02
#       5
#     8   8   8   4   8
#     4  11  20  42  63  81 125 154 196 249 288 348
#     4  10  20  38  60  92 120 151 193 241 292 358
#     4   9  20  37  60  90 121 151 190 242 294 349
#     4  10  22  42  64  80 120 156 200 256 286 332
#     4   9  22  39  59  91 113 161 199 235 299 348
#
# _framework density 19.663125999999998
#
# number of rings (size 3 to 8) (size 9 to 14) (size 15 to 20)
#    1.333    0.889    2.222    0.667    0.000    4.444 
#    8.000    4.444    0.000    0.000    0.000    0.000 
#    0.000    0.000    0.000    0.000    0.000    0.000 
#
# Total GULP energy -200572.076678 kJ/mol
# GULP energy per Si atom -5571.446574 kJ/mol
# Density = 1.961837 g / cm^3
# Si number density = 19.663126 Si / 1000 Ang^3
#
#
#
# Elastic Constant Matrix: (Units=GPa)
#
#
# Indices 1 2 3 4 5 6 
#
# 1 69.6704 11.3826 -15.3773 0.0000 0.0000 0.0000
# 2 11.3826 64.4840 -5.0922 0.0000 0.0000 0.0000
# 3 -15.3773 -5.0922 43.5180 0.0000 0.0000 0.0000
# 4 0.0000 0.0000 0.0000 4.6417 0.0000 0.0000
# 5 0.0000 0.0000 0.0000 0.0000 5.8569 0.0000
# 6 0.0000 0.0000 0.0000 0.0000 0.0000 52.7167
#
#
#
# Elastic Compliance Matrix: (Units=1/GPa)
#
#
# Indices 1 2 3 4 5 6 
#
# 1 0.015924 -0.002389 0.005347 0.000000 0.000000 0.000000
# 2 -0.002389 0.016011 0.001029 0.000000 0.000000 0.000000
# 3 0.005347 0.001029 0.024989 0.000000 0.000000 0.000000
# 4 0.000000 0.000000 0.000000 0.215438 0.000000 0.000000
# 5 0.000000 0.000000 0.000000 0.000000 0.170738 0.000000
# 6 0.000000 0.000000 0.000000 0.000000 0.000000 0.018969
#
#
# Mechanical properties :
#
#
# Convention : Reuss Voigt Hill
#
# Bulk Modulus (GPa) = 15.40844 17.72208 16.56526
# Shear Modulus (GPa) = 10.51027 25.09368 17.80198
#
# Velocity S-wave (km/s) = 2.31447 3.57624 3.01216
# Velocity P-wave (km/s) = 3.87241 5.10736 4.53214
#
# Compressibility (1/GPa) = 0.06489951
#
# Stress axis : x y z
#
# Youngs Moduli (GPa) = 62.79929 62.45842 40.01773
#
# Poissons Ratio (x) = 0.14919 -0.21398
# Poissons Ratio (y) = 0.15000 -0.04120
# Poissons Ratio (z) = -0.33580 -0.06430
#
# Static dielectric constant tensor:
#      x y z
#    x 1.709540 0.000000 0.000000 
#    y 0.000000 1.684020 0.000000 
#    z 0.000000 0.000000 1.657260 
# 
# From -- ./inp_files/6269.got.cif
#   From: 2010.05.17/outbox.cif.g08.bks.cpg/sg56_4_cif.got.tgz:6269.got - 2010.06.03 13:42:01.
